158

Mg 30.76200 58.94700 40.55800
C  27.68900 57.41400 39.67400
C  32.45100 56.26100 39.40200
C  33.54600 60.98900 40.42800
C  28.87600 61.98900 41.15900
N  30.09200 57.02400 39.74600
C  28.85600 56.63500 39.38300
C  28.95200 55.22400 38.75100
C  30.37700 54.71900 39.08100
C  31.05000 56.03800 39.47000
C  30.39600 53.75900 40.28100
C  28.69900 55.37600 37.21600
C  27.59500 54.56900 36.63900
H  26.80200 55.25500 35.57900
N  32.77400 58.60800 40.09300
C  33.25700 57.38100 39.71300
C  34.67300 57.47500 39.62700
C  35.08800 58.84500 39.97400
C  33.74900 59.55400 40.13900
C  35.55900 56.32000 39.22100
C  36.47200 59.35800 39.94300
O  37.42000 58.54200 39.79900
C  36.74800 60.78500 40.15000
N  31.12600 61.18100 40.71800
C  32.42400 61.71100 40.76600
C  32.43200 63.19000 40.91800
C  30.97300 63.42700 41.34400
C  30.22400 62.12500 41.04400
C  33.58800 63.68100 41.81100
C  30.27000 64.72300 40.84800
C  29.51700 65.53300 41.87200
N  28.77700 59.57100 40.52400
C  28.13900 60.76000 40.88400
C  26.72200 60.65200 40.68300
C  26.50900 59.36300 40.22400
C  27.78300 58.76800 40.12900
C  25.59700 61.73600 40.92500
C  25.48700 58.48900 39.83800
O  24.26500 58.65000 39.77000
C  26.21400 57.05400 39.49600
C  25.67000 55.92600 40.27200
O  25.44400 55.86900 41.46300
O  25.22000 54.87500 39.41500
C  25.16700 53.57900 40.09200
H  33.02700 55.39800 39.06000
H  34.46600 61.57800 40.42800
H  28.28700 62.87300 41.41200
H  28.11800 54.69700 39.21400
H  31.01700 54.32600 38.29100
H  29.41200 53.29700 40.36500
H  30.68600 54.25700 41.20600
H  31.16400 53.00000 40.12900
H  29.64200 55.13800 36.72300
H  28.64600 56.40800 36.86900
H  26.89800 54.47900 37.47200
H  27.95400 53.62700 36.22500
H  36.28300 56.17400 40.02200
H  36.12100 56.54200 38.31400
H  35.02500 55.37800 39.10000
H  36.27400 60.95600 41.11700
H  36.43500 61.42500 39.32500
H  37.83000 60.88500 40.22800
H  32.56400 63.63200 39.93000
H  30.82400 63.32600 42.41900
H  33.23500 64.08700 42.75900
H  33.87800 64.52500 41.18600
H  34.45000 63.06500 42.06900
H  29.43200 64.50400 40.18600
H  30.99900 65.42200 40.43900
H  28.90300 66.25600 41.33500
H  30.37500 65.97200 42.38300
H  28.93400 64.93800 42.57400
H  25.65500 62.52600 40.17700
H  25.77800 62.17200 41.90800
H  24.60800 61.27600 40.94900
H  26.08800 56.85700 38.43100
H  24.20700 53.72600 40.58600
H  25.94200 53.49700 40.85400
H  25.20500 52.71000 39.43500
Mg 0.37100 44.13200 25.69500
C  2.54200 43.52300 28.30700
C  -2.25900 43.01000 27.65000
C  -1.67900 44.57200 23.06300
C  3.14400 44.67000 23.58700
N  0.18300 43.51600 27.73800
C  1.18300 43.38100 28.68100
C  0.61700 43.27300 30.11800
C  -0.85400 42.83300 29.77900
C  -1.00900 43.21300 28.30800
C  -1.23900 41.30600 29.92000
C  0.72100 44.64900 30.76300
C  0.51700 44.64000 32.30600
H  0.56100 43.29600 33.10300
N  -1.63700 43.80000 25.40400
C  -2.56600 43.38800 26.33400
C  -3.89900 43.33400 25.71000
C  -3.80700 43.81100 24.38700
C  -2.33400 44.08500 24.22000
C  -5.20700 43.01600 26.45200
C  -4.90300 44.17800 23.34100
O  -4.69500 44.74100 22.27700
C  -6.38200 43.71400 23.62300
N  0.69700 44.42000 23.54500
C  -0.31100 44.76400 22.78000
C  0.18100 45.19900 21.40800
C  1.58900 45.57000 21.76500
C  1.86700 44.73600 23.07400
C  -0.13700 44.04200 20.36000
C  1.67500 47.05200 22.12100
C  1.98800 48.02500 20.92800
N  2.46100 44.10800 25.81300
C  3.46400 44.27700 24.88000
C  4.78600 44.05700 25.50800
C  4.44300 43.86500 26.86900
C  3.07600 43.81700 27.00700
C  6.15700 44.36300 24.95900
C  4.97600 43.80200 28.25800
O  6.08700 43.84300 28.70700
C  3.79400 43.50900 29.27000
C  3.98100 42.20600 29.98800
O  3.75300 41.09400 29.57200
O  4.44700 42.38400 31.25200
C  4.48000 41.28400 32.16200
H  -3.12600 42.79600 28.28000
H  -2.37300 44.83000 22.26100
H  3.93400 45.03000 22.92500
H  1.02300 42.46800 30.73100
H  -1.62300 43.32600 30.37400
H  -1.63500 40.84600 29.01400
H  -1.97500 41.11300 30.70000
H  -0.42400 40.72400 30.35100
H  -0.12800 45.27500 30.48900
H  1.59900 45.24300 30.50900
H  -0.40500 45.18700 32.50100
H  1.30300 45.25200 32.74800
H  -6.01100 43.75200 26.42600
H  -5.01600 42.85800 27.51400
H  -5.59100 42.07200 26.06700
H  -6.83200 44.08800 24.54200
H  -6.42000 42.62500 23.66200
H  -7.14100 44.04000 22.91200
H  -0.46100 46.05400 21.19700
H  2.26800 45.34500 20.94200
H  -0.67600 44.40900 19.48600
H  -0.81600 43.33900 20.84100
H  0.69500 43.44100 19.99300
H  2.37200 47.31800 22.91600
H  0.72700 47.38000 22.54900
H  2.05200 47.43300 20.01400
H  2.92300 48.56900 21.06000
H  1.23200 48.79500 20.77600
H  6.83500 43.76800 25.57100
H  6.53900 45.37300 25.10700
H  6.27200 44.14400 23.89800
H  3.82500 44.26100 30.05900
H  5.00600 41.74700 32.99600
H  5.00800 40.43000 31.73700
H  3.46500 40.95100 32.37600

