158

Mg 48.09200 35.76300 28.34900
C  46.31200 33.57600 30.69800
C  48.42600 37.95300 30.99900
C  48.88800 37.93600 26.18100
C  46.87300 33.44500 25.77400
N  47.41400 35.79600 30.51400
C  46.79900 34.81300 31.29600
C  46.73300 35.19100 32.80500
C  47.05100 36.75800 32.79600
C  47.67800 36.88700 31.33600
C  45.88200 37.70100 33.09400
C  47.87100 34.44000 33.61300
C  47.44400 33.88200 35.07200
H  46.47600 34.78300 35.88200
N  48.85000 37.65500 28.55800
C  48.95100 38.36000 29.69900
C  49.70000 39.53800 29.35200
C  49.86100 39.57400 27.90500
C  49.17200 38.34400 27.47300
C  50.18500 40.52400 30.47600
C  50.63700 40.56700 27.05500
O  50.75400 40.41900 25.89800
C  51.21800 41.69500 27.75300
N  47.92300 35.71300 26.25500
C  48.35400 36.80900 25.55900
C  48.09400 36.56100 24.04800
C  47.56000 35.07100 23.84400
C  47.46800 34.66700 25.33200
C  47.15900 37.71200 23.44800
C  48.55500 34.12300 23.16400
C  48.19200 33.79500 21.73000
N  47.04000 33.82500 28.22300
C  46.66600 33.02500 27.11200
C  45.96600 31.83700 27.55400
C  45.77700 32.09500 28.89100
C  46.45000 33.26900 29.30100
C  45.53800 30.64900 26.77300
C  45.07000 31.48700 30.07800
O  44.41500 30.44700 30.11800
C  45.21400 32.59000 31.18600
C  45.34100 31.99000 32.53500
O  46.35400 31.44100 32.91100
O  44.07200 32.06300 33.18500
C  44.00200 31.86200 34.59200
H  48.59100 38.76300 31.71200
H  49.21200 38.65200 25.42300
H  46.47700 32.85300 24.94600
H  45.72400 34.95900 33.14700
H  47.75800 37.00800 33.58600
H  46.05400 38.59000 33.70000
H  44.96900 37.20600 33.42400
H  45.55900 38.11900 32.14100
H  48.71700 35.12100 33.71100
H  48.24300 33.67400 32.93300
H  48.33900 33.60500 35.62900
H  46.92700 32.96600 34.78800
H  51.16800 40.92800 30.23500
H  50.26500 40.04100 31.45000
H  49.56300 41.41800 30.52500
H  50.43200 42.03200 28.42900
H  51.45600 42.51200 27.07100
H  52.08100 41.27900 28.27200
H  49.05900 36.62600 23.54400
H  46.56300 34.95100 23.42000
H  46.82500 38.26100 24.32800
H  46.25500 37.26800 23.03100
H  47.54500 38.34700 22.65000
H  48.60100 33.18800 23.72200
H  49.52800 34.61400 23.17200
H  47.14300 33.91400 21.45800
H  48.37300 32.75200 21.47000
H  48.88900 34.32400 21.08000
H  46.33900 29.93600 26.57700
H  45.08500 31.07600 25.87800
H  44.71000 30.22600 27.34200
H  44.22900 33.05600 31.18100
H  43.06100 32.14700 35.06200
H  44.81600 32.29700 35.17200
H  44.24100 30.80900 34.74800
Mg 41.70500 42.28800 27.51100
C  40.67900 44.73500 29.87900
C  42.05500 39.96000 29.93700
C  42.90800 40.32500 25.27800
C  41.63800 45.00600 25.17400
N  41.52200 42.39900 29.66900
C  40.93800 43.44700 30.36400
C  40.70900 42.93100 31.80600
C  41.23700 41.49800 31.86400
C  41.69900 41.28000 30.39800
C  42.29800 41.18200 32.89300
C  39.19800 43.07700 32.39800
C  38.78200 42.29600 33.66800
H  38.20000 43.05100 34.81600
N  42.38000 40.36400 27.60300
C  42.50100 39.48200 28.74500
C  42.93400 38.21600 28.29400
C  43.18100 38.29700 26.88700
C  42.86500 39.68100 26.52600
C  43.15600 37.09300 29.18500
C  43.77800 37.31600 25.91400
O  44.30000 37.60300 24.81500
C  43.89900 35.91000 26.26200
N  42.39000 42.71200 25.65100
C  42.60600 41.56600 24.91400
C  42.84200 42.00500 23.44200
C  42.23200 43.35700 23.37900
C  41.99400 43.70300 24.80900
C  44.26700 41.84000 22.94800
C  40.90000 43.48200 22.45700
C  39.83100 42.45800 22.66400
N  41.25800 44.48600 27.46900
C  41.24400 45.36100 26.47900
C  40.68600 46.62500 26.93300
C  40.47200 46.42500 28.23300
C  40.86800 45.11200 28.53800
C  40.21700 47.67000 25.97900
C  40.02400 47.13700 29.41400
O  39.62000 48.30000 29.51100
C  40.08100 46.01600 30.59900
C  40.88500 46.51100 31.64400
O  41.96500 46.99100 31.40700
O  40.25400 46.47600 32.91800
C  40.97600 46.72800 34.10900
H  42.03200 39.34900 30.84100
H  43.43000 39.82600 24.45800
H  41.53500 45.78700 24.41800
H  41.19800 43.58900 32.52500
H  40.38200 40.83500 31.99800
H  43.20600 40.68900 32.54400
H  42.12500 40.43100 33.66400
H  42.66000 42.09100 33.37400
H  38.50400 42.86200 31.58600
H  39.11200 44.10400 32.75400
H  39.61500 41.72700 34.08100
H  38.03700 41.55400 33.37700
H  43.21000 37.37300 30.23700
H  44.17800 36.75200 29.01900
H  42.36700 36.38100 28.94100
H  42.84600 35.63100 26.27100
H  44.45600 35.89400 27.19900
H  44.42900 35.27800 25.55000
H  42.33100 41.30200 22.78400
H  43.00800 44.02400 23.00200
H  44.21800 41.41600 21.94500
H  44.95000 41.26000 23.56800
H  44.66200 42.82400 22.69400
H  41.10600 43.45500 21.38700
H  40.27800 44.36500 22.60600
H  39.12900 42.89800 23.37200
H  40.19000 41.50500 23.05200
H  39.27200 42.31000 21.74000
H  39.59800 48.38700 26.51900
H  39.61700 47.21000 25.19300
H  41.10800 48.12700 25.54900
H  39.08600 45.97800 31.04200
H  41.49500 45.80900 34.37900
H  40.29900 47.17200 34.83800
H  41.71500 47.49900 33.89000

