158

Mg 24.15700 -4.53200 45.94200
C  26.63800 -2.46400 44.34600
C  21.94100 -3.41500 43.39600
C  22.23400 -7.25100 46.31600
C  26.80800 -5.96200 47.72100
N  24.28100 -3.16700 44.06000
C  25.34200 -2.33100 43.75100
C  24.96000 -1.38600 42.57900
C  23.42600 -1.62700 42.40500
C  23.19000 -2.78700 43.37100
C  22.58800 -0.32200 42.71000
C  25.81900 -1.70200 41.37700
C  26.51500 -0.45800 40.84300
H  26.42600 -0.24600 39.34100
N  22.24000 -5.14900 45.13300
C  21.47700 -4.46800 44.19000
C  20.16500 -5.12200 44.10000
C  20.27600 -6.30900 44.86900
C  21.65000 -6.33400 45.42500
C  19.08100 -4.80200 43.17300
C  19.18300 -7.34100 44.89000
O  18.09200 -7.07600 44.44200
C  19.52600 -8.75300 45.30600
N  24.50600 -6.28000 46.87500
C  23.48200 -7.21000 47.02000
C  23.90300 -8.38400 47.90600
C  25.31000 -8.01700 48.38400
C  25.62500 -6.68600 47.61100
C  22.81800 -8.70100 49.01400
C  26.45400 -9.15200 48.33100
C  27.09800 -9.55000 49.67900
N  26.27700 -4.25700 46.04900
C  27.12300 -4.88600 46.90200
C  28.50500 -4.39400 46.60200
C  28.35700 -3.41100 45.63700
C  26.97400 -3.40400 45.35200
C  29.82500 -4.97900 47.20400
C  29.00500 -2.47400 44.75400
O  30.23000 -2.33400 44.58800
C  27.95200 -1.76500 43.97100
C  27.95900 -0.29800 44.12900
O  27.06600 0.41700 44.57500
O  29.14900 0.13900 43.58600
C  29.12400 1.59200 43.41700
H  21.25700 -3.12600 42.59500
H  21.74500 -8.19900 46.55100
H  27.55100 -6.42900 48.37100
H  25.23900 -0.40500 42.96100
H  23.18900 -1.79100 41.35400
H  23.07100 0.25700 43.49800
H  21.64400 -0.66900 43.13000
H  22.40300 0.27100 41.81400
H  25.19400 -2.06900 40.56400
H  26.58400 -2.42300 41.66900
H  27.59300 -0.51800 40.99000
H  26.10400 0.46900 41.24200
H  19.16700 -5.65300 42.49800
H  19.37600 -3.87400 42.68500
H  18.12900 -4.69700 43.69400
H  19.45500 -8.82800 46.39100
H  20.47000 -9.13400 44.91600
H  18.68600 -9.32200 44.90500
H  23.94900 -9.32100 47.35300
H  25.04200 -7.85000 49.42800
H  22.04100 -9.37300 48.65100
H  22.31700 -7.73400 49.06000
H  23.18700 -9.09400 49.96100
H  27.17300 -8.75700 47.61200
H  26.22900 -10.06200 47.77600
H  26.43600 -9.22100 50.47900
H  28.09800 -9.17700 49.90000
H  27.11800 -10.64000 49.66600
H  30.56900 -4.21600 47.43200
H  30.29000 -5.69400 46.52400
H  29.66200 -5.54800 48.11900
H  28.29300 -2.02100 42.96800
H  30.14400 1.97200 43.35600
H  28.94100 2.06000 44.38400
H  28.54500 2.03000 42.60400
Mg 6.39700 53.81000 42.00700
C  3.92900 51.46200 41.69300
C  8.64300 51.49000 40.62400
C  8.67900 56.28300 41.66600
C  4.09400 56.06600 42.94200
N  6.21800 51.81500 41.06700
C  5.10000 51.04100 41.04600
C  5.32100 49.76000 40.20200
C  6.90700 49.59100 40.36400
C  7.33200 51.05800 40.64900
C  7.52700 48.47800 41.35100
C  4.90300 49.78400 38.74800
C  4.09300 48.51100 38.25400
H  4.56700 47.83100 37.01600
N  8.38800 53.91100 41.41200
C  9.08700 52.79700 40.93200
C  10.41800 53.21300 40.74600
C  10.44900 54.64600 40.77100
C  9.15100 55.03700 41.23500
C  11.45900 52.26100 40.24200
C  11.69500 55.49100 40.27300
O  12.64200 54.91000 39.73600
C  11.60200 57.01800 40.31400
N  6.39300 55.93400 42.17600
C  7.45800 56.72100 42.10500
C  7.16300 58.25300 42.44400
C  5.62500 58.13400 42.68200
C  5.34100 56.66900 42.63700
C  8.01200 58.83600 43.61900
C  4.79700 58.91300 41.66100
C  4.37700 60.31900 42.20500
N  4.37300 53.82400 42.25300
C  3.56200 54.79900 42.81600
C  2.24500 54.26900 43.04300
C  2.43900 52.91900 42.68400
C  3.67800 52.73500 42.16800
C  1.02100 55.03800 43.56700
C  1.76700 51.63500 42.65400
O  0.66000 51.35600 43.03900
C  2.76000 50.55300 42.17600
C  2.22700 49.66700 41.12900
O  1.70100 50.04600 40.05900
O  2.40300 48.33600 41.40400
C  1.62100 47.30600 40.59500
H  9.32200 50.69100 40.31800
H  9.35000 57.12900 41.50200
H  3.39700 56.78300 43.38100
H  4.82500 48.92100 40.69100
H  7.30500 49.29100 39.39400
H  8.10500 47.79900 40.72500
H  6.82300 47.76200 41.77500
H  8.22200 48.89300 42.08100
H  5.72300 49.89600 38.03900
H  4.24400 50.65200 38.70800
H  3.07500 48.86800 38.09600
H  4.16400 47.67800 38.95300
H  11.95100 52.63100 39.34200
H  11.19100 51.20500 40.20300
H  12.20200 52.38200 41.03000
H  10.70300 57.44200 39.86800
H  12.46700 57.45400 39.81500
H  11.68200 57.35700 41.34700
H  7.47900 58.90000 41.62600
H  5.39400 58.37600 43.71900
H  7.37400 59.03300 44.48000
H  8.53900 59.77600 43.45400
H  8.71300 58.06600 43.94100
H  3.87700 58.35700 41.48000
H  5.33000 58.95300 40.71100
H  4.66000 60.65400 43.20200
H  3.29200 60.22900 42.15200
H  4.67100 61.16000 41.57600
H  0.52300 54.50300 44.37600
H  0.19800 54.83700 42.88000
H  1.22200 56.08800 43.77900
H  3.13700 49.95300 43.00400
H  0.68600 47.05300 41.09500
H  2.20500 46.38900 40.51500
H  1.30900 47.60400 39.59500

