158

Mg 1.13000 7.79100 26.29400
C  1.70500 9.81100 29.22900
C  1.17000 5.09500 28.32900
C  1.10200 6.00800 23.46100
C  1.39200 10.78900 24.32000
N  1.42500 7.54800 28.51900
C  1.47000 8.47500 29.53900
C  1.20700 7.79000 30.88300
C  1.47400 6.25400 30.58300
C  1.33800 6.24700 29.02700
C  2.83600 5.65200 31.08900
C  -0.21600 8.07300 31.57600
C  -0.31400 8.28200 33.07900
H  0.75700 7.67900 33.97400
N  1.15000 5.81800 25.97900
C  1.20400 4.87400 26.93200
C  1.16700 3.55500 26.33400
C  1.05600 3.77200 24.92300
C  1.05100 5.29100 24.70800
C  1.10600 2.24200 27.10400
C  0.81700 2.75700 23.81000
O  0.68300 3.05800 22.62600
C  0.91900 1.26000 24.10800
N  0.96500 8.39100 24.19700
C  1.12100 7.45000 23.27400
C  1.30600 8.08400 21.84300
C  1.22600 9.61400 22.12200
C  1.26800 9.60900 23.66100
C  2.62400 7.69500 21.11400
C  -0.03800 10.27600 21.60800
C  0.01300 11.76800 21.36200
N  1.45600 9.84800 26.65200
C  1.50900 10.91400 25.70600
C  1.69000 12.15400 26.44900
C  1.90500 11.76800 27.76800
C  1.66700 10.33400 27.91700
C  1.80700 13.49200 25.80300
C  2.15300 12.32700 29.11800
O  2.51700 13.44300 29.47500
C  1.96300 11.13900 30.08900
C  3.08400 11.14600 31.13600
O  4.28200 10.75500 30.98200
O  2.64800 11.64400 32.28100
C  3.43500 11.32700 33.46700
H  1.10000 4.27400 29.04500
H  1.07400 5.43400 22.53300
H  1.30900 11.73100 23.77500
H  1.99800 8.02400 31.59500
H  0.78200 5.66600 31.18600
H  3.36600 5.36000 30.18200
H  2.68200 4.78700 31.73400
H  3.39400 6.42600 31.61600
H  -0.83600 7.19800 31.37900
H  -0.71600 8.95300 31.17000
H  -1.23600 7.81600 33.42600
H  -0.31800 9.30900 33.44200
H  0.08700 1.89800 27.27900
H  1.53900 2.40600 28.09100
H  1.78800 1.49600 26.69700
H  1.90800 1.07700 24.52800
H  0.74500 0.60700 23.25300
H  0.13000 1.06700 24.83600
H  0.49000 7.81900 21.17100
H  2.04100 10.20800 21.70800
H  3.36000 8.48900 21.23600
H  2.39300 7.52500 20.06200
H  2.88700 6.81500 21.70000
H  -0.89700 10.14300 22.26600
H  -0.28600 9.82000 20.65000
H  0.96900 12.22400 21.61800
H  -0.77600 12.23200 21.95400
H  -0.04400 11.97900 20.29400
H  2.65000 13.60700 25.12200
H  1.97400 14.18000 26.63200
H  0.90100 13.85500 25.31800
H  1.07100 11.55100 30.56000
H  2.87600 11.77800 34.28700
H  4.42500 11.78300 33.48000
H  3.66100 10.26100 33.47900
Mg 17.92800 -1.91200 28.01300
C  16.69600 0.06600 30.69100
C  19.89000 -3.63900 30.20300
C  19.45900 -3.37800 25.45600
C  16.49700 0.47400 25.75100
N  18.35700 -1.67700 30.24000
C  17.66200 -0.90700 31.12100
C  17.99900 -1.39300 32.57700
C  19.22200 -2.34600 32.33400
C  19.11700 -2.59600 30.86400
C  20.60500 -1.80000 32.68600
C  16.85400 -2.16000 33.33500
C  16.31100 -1.44900 34.62300
H  17.19000 -0.85800 35.62100
N  19.36100 -3.41800 27.78000
C  20.02100 -4.02400 28.84100
C  20.73300 -5.17000 28.32200
C  20.60400 -5.18700 26.94800
C  19.79000 -3.96900 26.67500
C  21.41100 -6.07100 29.25000
C  21.12300 -6.00300 25.86800
O  20.64400 -6.02100 24.73100
C  22.25300 -6.85600 26.14400
N  17.94100 -1.53600 25.92100
C  18.76100 -2.26800 25.10600
C  18.81700 -1.72300 23.73500
C  17.78500 -0.57000 23.79900
C  17.33200 -0.54400 25.22900
C  20.16100 -1.26800 23.09900
C  16.53500 -0.64400 22.81400
C  16.38700 0.53400 21.78600
N  16.70500 -0.17700 28.14400
C  16.05000 0.60300 27.15500
C  15.17200 1.46500 27.80700
C  15.33500 1.34000 29.13800
C  16.36900 0.29000 29.34100
C  14.45700 2.59800 27.01400
C  14.93000 1.87800 30.43200
O  14.14700 2.79600 30.67400
C  15.67400 0.91700 31.54400
C  16.38400 1.77600 32.48900
O  17.44000 2.36300 32.27100
O  15.58900 1.95600 33.60300
C  16.13600 3.01400 34.52100
H  20.29300 -4.38800 30.88800
H  19.89700 -3.88600 24.59400
H  16.10400 1.24100 25.08100
H  18.18000 -0.46900 33.12700
H  19.18700 -3.35400 32.74600
H  20.71600 -0.74600 32.94100
H  21.24600 -2.02700 31.83500
H  20.86500 -2.17500 33.67600
H  17.16500 -3.15700 33.64900
H  15.94800 -2.25200 32.73500
H  15.95500 -2.34700 35.12900
H  15.37700 -0.90200 34.50000
H  22.30600 -5.64900 29.70700
H  21.73000 -6.95800 28.70200
H  20.78300 -6.41800 30.07000
H  22.63200 -7.20200 25.18300
H  21.78300 -7.69400 26.66000
H  23.03900 -6.26500 26.61500
H  18.44600 -2.55500 23.13600
H  18.29800 0.34900 23.51600
H  20.01400 -1.12700 22.02800
H  20.90100 -2.05400 23.25100
H  20.40200 -0.27200 23.47100
H  15.59200 -0.68700 23.35800
H  16.50200 -1.62600 22.34300
H  15.47000 0.46400 21.20000
H  17.28300 0.58700 21.16700
H  16.35200 1.44900 22.37600
H  13.80400 2.18100 26.24800
H  15.25500 3.22100 26.61000
H  13.82800 3.27800 27.58800
H  14.95200 0.36900 32.14900
H  15.38200 3.22600 35.27900
H  16.35100 3.95800 34.02000
H  17.05100 2.68600 35.01500

