158

Mg 44.55800 5.04900 47.50300
C  42.42800 7.58000 46.58200
C  41.93400 2.75800 46.82800
C  46.80000 2.51300 47.48300
C  47.15600 7.37100 47.71300
N  42.48100 5.18400 46.52000
C  41.81400 6.39100 46.34100
C  40.35600 6.04600 45.88200
C  40.12300 4.55600 46.39700
C  41.58800 4.12200 46.60300
C  39.21600 4.47000 47.71500
C  40.26000 6.26100 44.35600
C  39.13300 7.31100 43.91900
H  39.50100 8.15400 42.73500
N  44.37000 2.95500 47.21300
C  43.23200 2.24000 46.97700
C  43.52000 0.82500 46.99900
C  44.90900 0.70300 47.20800
C  45.44500 2.11400 47.28800
C  42.55000 -0.19500 46.84500
C  45.62000 -0.63100 47.35600
O  45.05900 -1.69000 47.16000
C  47.09900 -0.67300 47.81300
N  46.73500 4.95800 47.24900
C  47.40900 3.79900 47.49800
C  48.86400 3.99800 47.79600
C  48.93800 5.55400 48.04000
C  47.54600 6.00800 47.60400
C  49.54300 3.13300 48.95700
C  50.14500 6.28800 47.49200
C  51.28500 6.47700 48.57300
N  44.79100 7.06300 47.21100
C  45.90500 7.86300 47.42900
C  45.47200 9.27100 47.34500
C  44.12000 9.20900 47.02700
C  43.78500 7.82500 46.90600
C  46.42400 10.43600 47.39000
C  43.00900 9.94700 46.68100
O  42.87200 11.14100 46.42900
C  41.81500 8.97200 46.49900
C  40.86700 9.32200 47.61500
O  40.86700 8.83500 48.74700
O  39.91600 10.22400 47.12100
C  38.70700 10.51000 47.91800
H  41.04300 2.12600 46.81200
H  47.53100 1.70300 47.53600
H  47.93400 8.08100 48.00300
H  39.75200 6.74300 46.46300
H  39.65600 3.86300 45.69800
H  38.67400 5.34600 48.07200
H  39.81500 4.33500 48.61500
H  38.45500 3.70800 47.54500
H  40.05000 5.26500 43.96800
H  41.20200 6.62400 43.94300
H  38.81300 7.84800 44.81200
H  38.32000 6.67000 43.57900
H  41.72400 0.11400 46.20400
H  42.23900 -0.71800 47.75000
H  42.92900 -0.91900 46.12400
H  47.41300 -1.71200 47.71100
H  47.25200 -0.20000 48.78300
H  47.80800 -0.23700 47.10900
H  49.41700 3.66900 46.91700
H  48.84400 5.62000 49.12300
H  50.54300 3.48800 49.20700
H  49.73600 2.09900 48.67100
H  48.99500 3.19000 49.89800
H  49.87000 7.28000 47.13300
H  50.51100 5.73100 46.63000
H  51.10500 5.82700 49.43000
H  51.25100 7.51900 48.89000
H  52.30100 6.36600 48.19500
H  47.25900 10.28700 46.70600
H  46.77000 10.68100 48.39400
H  46.00000 11.36900 47.02000
H  41.28700 9.11500 45.55700
H  37.90200 10.06600 47.33400
H  38.56900 11.58300 48.05800
H  38.64200 10.03000 48.89500
Mg 42.04400 41.64700 26.27300
C  41.06000 44.05700 28.56900
C  42.76400 39.42000 28.91800
C  43.29500 39.39000 24.01000
C  42.08600 44.05200 23.77300
N  42.04400 41.77500 28.51700
C  41.40900 42.79300 29.18300
C  41.35000 42.51300 30.66400
C  41.89500 41.01300 30.80900
C  42.25800 40.67200 29.31300
C  43.15700 40.81800 31.69100
C  39.88200 42.72600 31.35300
C  39.68900 41.92600 32.69100
H  38.87200 42.61500 33.80800
N  42.80600 39.63400 26.40100
C  43.05800 38.95600 27.58800
C  43.68300 37.68500 27.26100
C  43.78000 37.63200 25.84900
C  43.36200 38.91600 25.36200
C  44.03600 36.61600 28.28600
C  44.17200 36.47200 24.94500
O  44.32500 36.54400 23.72400
C  44.50900 35.11700 25.48600
N  42.67500 41.67900 24.19900
C  43.08400 40.60700 23.48000
C  43.29800 40.97300 21.98200
C  42.81900 42.50700 21.95100
C  42.48600 42.80200 23.40000
C  44.79600 40.72500 21.48600
C  41.58400 42.64100 20.91900
C  41.51000 44.04100 20.20300
N  41.63800 43.67100 26.13800
C  41.60900 44.43200 25.01900
C  40.91700 45.72500 25.39600
C  40.78900 45.61800 26.80000
C  41.15500 44.34000 27.19900
C  40.51600 46.70700 24.41400
C  40.30400 46.31600 27.99000
O  39.77300 47.39100 28.05800
C  40.50500 45.30700 29.21000
C  41.43300 45.94000 30.15700
O  42.62900 46.14100 29.90200
O  40.80400 46.13000 31.36900
C  41.55700 46.73100 32.49400
H  42.76900 38.64700 29.68900
H  43.55400 38.60600 23.29500
H  42.05100 44.83800 23.01600
H  42.07300 43.17400 31.14200
H  41.14200 40.25500 31.02300
H  43.95700 41.25100 31.09000
H  43.28500 39.74900 31.85900
H  43.04100 41.40200 32.60400
H  39.13400 42.48500 30.59800
H  39.70600 43.76900 31.61600
H  40.60500 41.81300 33.27100
H  39.19800 41.00300 32.38200
H  44.07300 36.99200 29.30800
H  45.05700 36.34100 28.02200
H  43.33700 35.78200 28.22400
H  43.63100 34.92500 26.10300
H  45.43500 35.21300 26.05300
H  44.68700 34.35500 24.72700
H  42.62700 40.27400 21.48100
H  43.63500 43.19100 21.71600
H  45.47900 40.60800 22.32800
H  45.26800 41.52700 20.91700
H  44.89400 39.96500 20.71200
H  40.65900 42.47800 21.47200
H  41.67800 41.86900 20.15500
H  40.46900 44.36500 20.21700
H  41.96800 43.99800 19.21500
H  42.15700 44.70300 20.77700
H  39.60700 47.23500 24.70000
H  40.11200 46.24600 23.51300
H  41.34900 47.38600 24.23000
H  39.54500 45.07600 29.67200
H  42.59300 47.06500 32.43500
H  41.61400 45.98800 33.28800
H  40.86500 47.43900 32.95000

