158

Mg 48.36500 34.51300 27.67000
C  46.38200 33.19200 30.19000
C  48.62000 37.46400 29.56100
C  49.55300 36.11700 24.97100
C  47.27300 31.84500 25.63300
N  47.71000 35.14200 29.66400
C  46.94300 34.43900 30.50300
C  47.04100 35.10300 31.95100
C  47.27300 36.58500 31.53300
C  47.94000 36.40000 30.17600
C  46.07900 37.59100 31.48700
C  48.26400 34.45800 32.67400
C  48.52900 34.98000 34.10700
H  47.64600 36.01100 34.78500
N  49.26200 36.50400 27.33000
C  49.24200 37.52600 28.24500
C  49.82600 38.64000 27.63300
C  50.16900 38.39100 26.25000
C  49.68800 36.94300 26.11400
C  49.95100 39.93700 28.40900
C  50.63000 39.25600 25.16500
O  50.72400 38.86400 24.02600
C  50.76300 40.72500 25.46300
N  48.35200 34.05100 25.61700
C  48.91300 34.88500 24.72800
C  48.95300 34.30500 23.30500
C  48.24800 32.94400 23.55200
C  47.84800 32.92800 25.03600
C  48.27300 35.17700 22.09400
C  49.08500 31.67700 23.04800
C  50.22700 31.06500 24.00500
N  47.19300 32.76000 27.87300
C  46.94300 31.70500 26.99700
C  46.16400 30.71200 27.72900
C  45.87600 31.30800 28.95700
C  46.52900 32.50600 28.99100
C  45.75600 29.28200 27.24700
C  45.17600 31.09000 30.18100
O  44.54000 30.10800 30.54200
C  45.42300 32.39100 31.05700
C  45.77600 31.95600 32.45800
O  46.75800 31.24000 32.79200
O  44.79700 32.47200 33.28800
C  44.96400 32.21900 34.71100
H  48.45900 38.41500 30.07200
H  49.74800 36.59000 24.00600
H  47.10000 30.97800 24.99200
H  46.23700 34.90300 32.65900
H  48.09800 37.02200 32.09600
H  45.15800 37.06700 31.23200
H  46.22100 38.26900 30.64500
H  46.02100 38.21200 32.38100
H  49.06200 34.59200 31.94500
H  48.21200 33.37000 32.66400
H  49.56800 35.31000 34.14900
H  48.47600 34.08400 34.72500
H  50.86700 40.44300 28.10200
H  50.12700 39.69900 29.45900
H  49.08800 40.58900 28.28200
H  50.03200 41.06800 26.19500
H  50.69800 41.37600 24.59100
H  51.74000 40.86600 25.92500
H  50.04200 34.29400 23.27100
H  47.30600 32.93200 23.00300
H  48.99300 35.38400 21.30300
H  47.98600 36.12400 22.55200
H  47.42800 34.61500 21.69700
H  49.40400 32.05400 22.07600
H  48.28000 30.94800 22.96300
H  49.65700 30.27800 24.49800
H  50.49900 31.86200 24.69700
H  51.10600 30.61300 23.54400
H  45.31200 28.84300 28.14000
H  46.64400 28.75900 26.89400
H  44.96100 29.48700 26.53000
H  44.47300 32.91500 31.16100
H  45.94400 31.87000 35.03600
H  44.29600 31.44100 35.08100
H  44.64100 33.05900 35.32600
Mg 42.55300 41.69000 25.41800
C  42.08400 44.34100 27.67800
C  43.94900 39.89500 28.07800
C  43.58900 39.41100 23.32400
C  41.97800 43.96000 22.79800
N  42.92700 42.10200 27.65300
C  42.67500 43.29700 28.32800
C  42.91400 43.06800 29.86300
C  43.56500 41.62800 29.95100
C  43.56200 41.21900 28.48800
C  44.91800 41.63800 30.67900
C  41.63600 43.27400 30.74500
C  41.55900 42.64600 32.22200
H  41.42300 43.57300 33.44400
N  43.39400 39.76800 25.63200
C  43.88600 39.22400 26.78900
C  44.13900 37.85600 26.52300
C  44.06500 37.55400 25.12200
C  43.64500 38.91200 24.62100
C  44.62300 36.84300 27.59000
C  44.37300 36.36900 24.28700
O  44.33700 36.27200 23.09100
C  44.95900 35.20800 24.90500
N  42.64600 41.64100 23.34900
C  43.15500 40.54600 22.73200
C  43.18100 40.71500 21.22500
C  42.58300 42.16400 21.03000
C  42.37200 42.65900 22.46100
C  44.60800 40.49900 20.59600
C  41.29800 42.10100 20.29800
C  39.97000 42.05500 21.03400
N  42.07900 43.75900 25.22700
C  41.83900 44.51200 24.10000
C  41.40000 45.78000 24.51600
C  41.47000 45.82600 25.95800
C  41.87900 44.49600 26.31400
C  40.90000 46.81600 23.65400
C  41.29900 46.54900 27.17400
O  41.01600 47.71000 27.32800
C  41.55500 45.57900 28.28800
C  42.66200 46.15200 29.25800
O  43.83800 46.17000 28.97000
O  42.11700 46.74600 30.36900
C  43.03400 47.31000 31.36400
H  44.44800 39.42500 28.92800
H  44.11200 38.88300 22.52400
H  41.63400 44.63000 22.00700
H  43.56400 43.86900 30.21600
H  42.84200 40.97100 30.43500
H  45.05900 42.44500 31.39900
H  45.74000 41.75400 29.97300
H  44.98000 40.62000 31.06300
H  40.83400 42.99200 30.06200
H  41.47600 44.33900 30.91100
H  42.28200 41.85700 32.42700
H  40.62000 42.10900 32.08700
H  45.68700 36.74900 27.37400
H  44.14000 35.86700 27.54200
H  44.48500 37.08200 28.64500
H  45.03700 34.44200 24.13300
H  44.32700 34.80800 25.69800
H  45.97300 35.43300 25.23600
H  42.44600 39.98000 20.89800
H  43.35500 42.76700 20.55300
H  44.83200 41.26800 19.85700
H  44.54600 39.52200 20.11600
H  45.44200 40.52200 21.29800
H  41.26100 41.28700 19.57400
H  41.32400 42.97100 19.64300
H  39.94700 42.18800 22.11600
H  39.50300 41.07200 20.98400
H  39.19100 42.73600 20.69200
H  39.84500 46.54600 23.60200
H  41.26300 46.74500 22.62900
H  40.93000 47.84300 24.01900
H  40.65500 45.47500 28.89400
H  43.76800 46.55000 31.63100
H  42.54500 47.67800 32.26500
H  43.67000 48.07100 30.91200

