158

Mg -2.12400 16.84500 25.87800
C  -2.50300 14.68200 28.61500
C  -2.74500 19.43100 27.96100
C  -2.19900 18.75400 23.18600
C  -1.88400 14.04700 23.82400
N  -2.76800 16.97200 28.04900
C  -2.68800 16.01600 29.00200
C  -2.98600 16.50500 30.43700
C  -3.34100 18.03600 30.11300
C  -3.00400 18.17800 28.67100
C  -4.78200 18.47600 30.48000
C  -1.73500 16.35400 31.37900
C  -2.00000 15.58700 32.71300
H  -2.51000 16.38700 33.94200
N  -2.35000 18.82000 25.61500
C  -2.60800 19.75800 26.59300
C  -2.52600 21.11200 25.97500
C  -2.23800 20.94400 24.59200
C  -2.29400 19.48200 24.38900
C  -2.69900 22.38600 26.81700
C  -1.88700 22.01200 23.59300
O  -1.58400 21.80700 22.42800
C  -1.80600 23.42700 24.05600
N  -2.14800 16.47600 23.84100
C  -2.27900 17.42600 22.89200
C  -2.14000 16.94700 21.46800
C  -1.82700 15.42100 21.68700
C  -1.94100 15.29900 23.23100
C  -3.44900 17.18500 20.65200
C  -0.40100 15.07100 21.18600
C  0.90900 15.51800 22.00200
N  -2.17100 14.76200 26.14800
C  -2.06900 13.70900 25.20500
C  -2.14600 12.45000 25.83200
C  -2.36700 12.79100 27.21300
C  -2.35800 14.20500 27.31600
C  -2.08400 11.17200 24.97700
C  -2.50600 12.27800 28.50400
O  -2.70700 11.11900 28.86000
C  -2.50900 13.40300 29.52800
C  -1.19100 13.21200 30.21400
O  -0.06500 13.48900 29.76200
O  -1.33700 12.63800 31.45500
C  -0.18200 12.17600 32.16900
H  -2.90300 20.25000 28.66600
H  -2.08700 19.38400 22.30100
H  -1.72400 13.17800 23.18200
H  -3.77700 15.82500 30.75400
H  -2.71500 18.78600 30.59800
H  -5.40800 17.63600 30.77800
H  -5.30800 18.97300 29.66500
H  -4.65500 19.14500 31.33100
H  -1.37100 17.28000 31.82400
H  -1.00400 15.82000 30.77100
H  -0.98500 15.26400 32.94600
H  -2.69500 14.76200 32.55600
H  -2.95500 22.25300 27.86800
H  -3.55200 22.81200 26.28800
H  -1.88100 23.09900 26.71100
H  -2.81400 23.63800 24.41300
H  -1.48700 24.07700 23.24200
H  -1.01800 23.39200 24.80900
H  -1.35000 17.45000 20.91000
H  -2.52300 14.70200 21.25700
H  -3.56500 18.14100 20.14000
H  -4.31100 17.11800 21.31500
H  -3.32000 16.40600 19.90000
H  -0.34600 15.39800 20.14800
H  -0.46100 13.98900 21.30300
H  0.55400 16.29200 22.68300
H  1.72100 15.90500 21.38600
H  1.34900 14.73600 22.62100
H  -1.64800 10.47500 25.69300
H  -1.58700 11.23700 24.01000
H  -3.07900 10.83100 24.69000
H  -3.35600 13.22600 30.19100
H  0.66200 11.90000 31.53600
H  -0.37700 11.36900 32.87500
H  0.15100 13.08200 32.67600
Mg 25.47700 51.29600 26.38800
C  23.20300 51.99600 29.10000
C  27.65300 50.19500 28.88000
C  27.82200 51.13100 24.07100
C  23.17400 52.44900 24.11300
N  25.44200 51.21700 28.79500
C  24.40700 51.51400 29.65900
C  24.77500 51.25400 31.15400
C  26.24100 50.68600 31.02200
C  26.44000 50.66000 29.47700
C  27.22500 51.58200 31.60900
C  23.78300 50.31400 31.82200
C  23.44600 50.55700 33.34100
H  24.45800 51.29900 34.24500
N  27.43900 50.68800 26.45600
C  28.14900 50.24500 27.53300
C  29.50000 49.75400 27.03800
C  29.55000 50.13500 25.71000
C  28.23400 50.64000 25.34900
C  30.59000 49.21200 27.96700
C  30.76300 49.99400 24.77400
O  30.73600 50.32900 23.59700
C  32.12800 49.60100 25.27200
N  25.55200 51.72700 24.39700
C  26.62700 51.65400 23.62600
C  26.27100 51.76300 22.05300
C  24.74300 52.18800 22.08300
C  24.43700 52.12500 23.64500
C  27.22100 52.77000 21.33500
C  23.89300 51.28400 21.15800
C  23.51300 49.86300 21.51400
N  23.65800 52.07200 26.55000
C  22.78600 52.42700 25.50800
C  21.55700 52.77900 26.07200
C  21.70000 52.65000 27.42400
C  22.95500 52.18400 27.72600
C  20.35400 53.23700 25.40900
C  20.98500 52.84700 28.69000
O  19.84600 53.23800 28.90000
C  21.91500 52.40100 29.84000
C  22.08300 53.66600 30.62100
O  22.56200 54.69800 30.24000
O  21.58100 53.47600 31.94800
C  21.93100 54.50400 32.95100
H  28.35800 49.92500 29.67000
H  28.52400 50.78300 23.31100
H  22.41300 52.71600 23.37700
H  24.62100 52.20200 31.67000
H  26.43800 49.66600 31.35400
H  26.86500 52.11200 32.49100
H  27.41000 52.48500 31.02900
H  28.19200 51.16200 31.88700
H  24.27300 49.34100 31.84900
H  22.88600 50.30900 31.20400
H  23.22900 49.58800 33.79000
H  22.61600 51.26300 33.33100
H  30.21100 49.15300 28.98700
H  31.42600 49.91100 27.93300
H  30.89300 48.19800 27.70400
H  32.25900 48.74700 25.93700
H  32.54000 50.41800 25.86500
H  32.81800 49.33100 24.47200
H  26.44500 50.79700 21.58100
H  24.53500 53.14300 21.60300
H  28.19000 52.93300 21.80600
H  26.77600 53.75200 21.49600
H  27.27900 52.57100 20.26500
H  24.43000 51.26800 20.20900
H  22.97000 51.77900 20.85800
H  23.87000 49.20400 20.72200
H  22.43300 49.74900 21.42100
H  23.67100 49.55000 22.54600
H  20.25400 54.32200 25.37300
H  19.51200 52.81600 25.95900
H  20.23000 52.88600 24.38500
H  21.29800 51.78600 30.49500
H  21.70100 54.19500 33.97000
H  21.34900 55.38400 32.67700
H  22.95300 54.85800 32.81400

