158

Mg 46.88700 16.29900 28.79200
C  44.83100 15.62500 31.52400
C  49.04900 17.73900 31.05600
C  48.63300 17.56700 26.15700
C  44.52600 15.03800 26.68300
N  46.96800 16.58800 31.04800
C  46.05800 16.21300 31.93700
C  46.40100 16.54800 33.38300
C  47.60300 17.52700 33.18200
C  47.92200 17.24500 31.70400
C  47.17800 19.01400 33.38200
C  46.69800 15.31500 34.19900
C  46.38600 15.43800 35.72900
H  46.10800 16.79200 36.47300
N  48.62800 17.40900 28.68100
C  49.49400 17.77900 29.70100
C  50.79300 18.22600 29.08800
C  50.56900 18.36600 27.67500
C  49.22700 17.77900 27.43800
C  51.81900 18.82200 29.98600
C  51.60200 18.69700 26.59000
O  51.28700 18.73100 25.38300
C  53.06000 18.73900 27.02300
N  46.48200 16.49500 26.74700
C  47.35000 17.01200 25.83100
C  47.05900 16.52800 24.38300
C  45.80100 15.68600 24.60500
C  45.55200 15.77700 26.07600
C  47.03400 17.70000 23.35200
C  45.92900 14.29200 23.86800
C  46.12800 13.06000 24.78400
N  45.03000 15.52200 28.95100
C  44.23400 14.91900 28.04700
C  43.12500 14.20400 28.66500
C  43.27800 14.59800 29.96500
C  44.45900 15.34500 30.13100
C  41.97800 13.37700 28.04000
C  42.64100 14.44300 31.28400
O  41.62500 13.78300 31.63600
C  43.56600 15.15500 32.28000
C  42.78100 16.34900 32.71300
O  42.10700 17.12400 32.02300
O  42.89900 16.42700 34.09200
C  42.36000 17.70900 34.66200
H  49.64400 18.31900 31.76500
H  49.24500 17.70500 25.26300
H  43.90500 14.48100 25.97900
H  45.53900 17.02500 33.84900
H  48.44800 17.16900 33.77000
H  46.14800 19.28300 33.61400
H  47.50100 19.67700 32.58000
H  47.66700 19.28800 34.31700
H  47.74100 15.04600 34.03100
H  46.14500 14.40000 33.98900
H  47.21600 14.92900 36.22000
H  45.48000 14.94900 36.08700
H  52.79600 18.34100 29.95300
H  51.53400 18.83700 31.03800
H  51.86400 19.88300 29.74100
H  53.55700 18.69600 26.05400
H  53.23500 17.88800 27.68200
H  53.18500 19.65400 27.60100
H  47.93100 15.94500 24.08800
H  44.95900 16.17500 24.11300
H  47.66900 17.42000 22.51100
H  47.45900 18.57600 23.84200
H  45.96900 17.83600 23.16300
H  46.73700 14.27400 23.13700
H  45.03100 14.02400 23.31100
H  46.93400 13.29800 25.47900
H  46.55000 12.29100 24.13700
H  45.15100 12.74500 25.15000
H  42.33800 13.04500 27.06600
H  41.14500 14.02900 27.77600
H  41.74200 12.56200 28.72500
H  43.91000 14.54800 33.11800
H  42.63600 18.59400 34.08800
H  42.68800 17.81200 35.69600
H  41.27300 17.69900 34.73600
Mg 9.34800 47.80600 26.46400
C  7.29500 48.16900 29.12500
C  11.99900 49.02100 28.32400
C  11.42300 47.34700 23.74400
C  6.68700 47.47800 24.29800
N  9.60400 48.49900 28.53900
C  8.60000 48.47800 29.49600
C  9.17800 48.91600 30.85000
C  10.56300 49.53000 30.43700
C  10.80600 48.96800 29.01100
C  10.65500 51.08500 30.41400
C  9.38100 47.79300 31.93900
C  8.62500 48.02000 33.29400
H  8.58800 46.84900 34.26000
N  11.43400 48.08400 26.12100
C  12.37600 48.61900 27.03100
C  13.70200 48.60700 26.46300
C  13.47100 48.07700 25.10100
C  12.04500 47.83200 24.93200
C  14.99600 48.94100 27.33500
C  14.60800 47.88800 24.10200
O  14.41100 47.29000 22.99100
C  15.98500 48.14900 24.54900
N  9.10200 47.56400 24.29500
C  10.11200 47.18100 23.44700
C  9.56300 47.07200 22.02400
C  8.00200 47.12900 22.19200
C  7.92300 47.39900 23.72000
C  10.07500 48.22000 21.13900
C  7.33200 45.79400 21.73400
C  6.48900 45.88100 20.45900
N  7.36900 47.75200 26.63500
C  6.40900 47.59900 25.72400
C  5.14900 47.51800 26.38000
C  5.43400 47.84400 27.73800
C  6.81100 47.98700 27.84100
C  3.87200 47.38200 25.76400
C  4.82200 48.11100 28.99200
O  3.65700 48.16500 29.21400
C  6.02400 48.21600 30.02900
C  5.94200 47.01700 30.94700
O  6.20900 45.85700 30.63900
O  5.40600 47.43800 32.13100
C  5.10900 46.39500 33.14900
H  12.80500 49.51100 28.87400
H  12.04700 47.12400 22.87600
H  5.78000 47.19600 23.75800
H  8.45500 49.66700 31.16900
H  11.40700 49.06400 30.94500
H  11.05700 51.50900 29.49500
H  11.35200 51.49500 31.14600
H  9.73400 51.65200 30.54900
H  10.43500 47.58300 32.11500
H  9.10600 46.84600 31.47400
H  7.62100 48.32800 33.00400
H  9.07600 48.86500 33.81400
H  14.74300 48.93100 28.39500
H  15.37300 49.90200 26.98600
H  15.80900 48.23700 27.15600
H  16.65500 47.85900 23.73900
H  16.08700 47.28000 25.20000
H  16.28700 49.08300 25.02200
H  9.88800 46.18900 21.47300
H  7.47500 47.94600 21.69900
H  10.71000 48.89900 21.70800
H  9.26700 48.82900 20.73400
H  10.65300 47.83700 20.29700
H  6.67100 45.51100 22.55300
H  8.10600 45.02700 21.69400
H  5.61600 45.24800 20.61900
H  7.17200 45.54300 19.67900
H  6.15200 46.87900 20.17900
H  3.12300 47.83000 26.41700
H  3.58100 46.33600 25.66700
H  3.82900 47.83300 24.77200
H  6.04500 49.13700 30.61200
H  5.03700 45.39300 32.72700
H  4.22000 46.73400 33.68100
H  5.83200 46.35400 33.96400

