158

Mg 8.47800 4.04100 27.19700
C  9.43500 2.21200 30.15900
C  6.27800 5.81400 29.24900
C  7.40200 5.35400 24.43600
C  10.30100 1.70600 25.40500
N  7.99500 4.03700 29.47200
C  8.56100 3.26300 30.43900
C  8.25800 3.79900 31.82500
C  7.08700 4.82300 31.55700
C  7.02900 4.88800 29.96000
C  5.73800 4.62200 32.23500
C  9.44800 4.52100 32.41100
C  10.07700 3.87700 33.62500
H  10.37200 4.76100 34.81500
N  7.14100 5.46400 26.91900
C  6.30500 6.05200 27.85300
C  5.63200 7.13600 27.16700
C  6.04700 7.11800 25.82000
C  6.91600 5.92900 25.67000
C  4.62400 8.01100 27.86200
C  5.75800 8.19900 24.71900
O  6.22800 8.14200 23.57100
C  4.73800 9.30500 24.86200
N  8.77200 3.51700 25.18400
C  8.27500 4.29600 24.20300
C  8.80000 3.91100 22.77600
C  9.79800 2.76000 23.15900
C  9.65700 2.70400 24.65100
C  7.77000 3.64100 21.67200
C  11.29500 2.92900 22.73000
C  12.01000 1.84000 21.83300
N  9.52100 2.21100 27.60400
C  10.32200 1.41500 26.77900
C  11.16800 0.56000 27.50800
C  10.81000 0.82700 28.88200
C  9.84500 1.86300 28.82500
C  12.14400 -0.41100 26.84000
C  11.00600 0.49800 30.30300
O  11.67600 -0.35300 30.83900
C  10.20900 1.40400 31.11200
C  9.31300 0.69100 32.08000
O  8.18300 0.42100 31.98100
O  10.05000 0.43400 33.17800
C  9.20000 0.06000 34.35500
H  5.76000 6.43800 29.98000
H  7.10000 5.82900 23.50000
H  10.91100 0.99500 24.84500
H  7.82800 3.08800 32.53000
H  7.37000 5.83000 31.86300
H  5.79000 3.79800 32.94800
H  4.91500 4.38700 31.56000
H  5.39900 5.58000 32.62900
H  9.23700 5.57000 32.62100
H  10.16400 4.56900 31.59000
H  11.03200 3.53500 33.22900
H  9.52000 3.03900 34.04400
H  4.40700 7.65000 28.86700
H  3.64600 7.99900 27.38100
H  4.92800 9.05700 27.83400
H  4.54300 9.91000 23.97600
H  5.32400 9.99100 25.47300
H  3.80100 9.12400 25.39000
H  9.43000 4.74300 22.46300
H  9.38700 1.86300 22.69600
H  6.76100 3.64800 22.08500
H  7.77100 2.60700 21.32700
H  7.89300 4.33200 20.83800
H  11.94500 2.99100 23.60200
H  11.34800 3.87300 22.18800
H  12.74500 2.25300 21.14200
H  11.26500 1.34300 21.21300
H  12.38800 1.00400 22.42100
H  12.69400 -0.02300 25.98300
H  11.53400 -1.26500 26.54700
H  12.81500 -0.90100 27.54600
H  10.80800 2.06400 31.74000
H  8.54300 0.87100 34.67000
H  9.86100 -0.36900 35.10700
H  8.53100 -0.76500 34.10700
Mg 10.02200 48.15600 26.17000
C  7.81200 48.60300 28.82100
C  12.55000 49.80400 27.94900
C  12.01600 47.81800 23.51500
C  7.25800 47.36900 24.11300
N  10.11300 49.27700 28.12200
C  9.15300 49.05900 29.11200
C  9.77300 49.65200 30.35300
C  11.09500 50.32000 29.96800
C  11.28700 49.77100 28.53900
C  11.21700 51.88700 30.08900
C  9.87700 48.57800 31.45600
C  10.51700 49.00600 32.80800
H  9.76400 48.34200 34.02100
N  12.05600 48.64400 25.82300
C  12.86600 49.22600 26.70400
C  14.22000 49.24800 26.10600
C  14.15500 48.59400 24.84200
C  12.67200 48.30500 24.66700
C  15.44700 49.88600 26.83200
C  15.30200 48.13600 23.86000
O  15.12900 47.52400 22.79100
C  16.72800 48.40000 24.24700
N  9.66100 47.60500 24.03400
C  10.69100 47.43900 23.22200
C  10.29900 46.99600 21.85800
C  8.71400 46.73100 22.01900
C  8.50300 47.18000 23.51900
C  10.61800 47.95600 20.66300
C  8.23000 45.34900 21.78000
C  8.47100 44.27800 22.83400
N  8.00000 48.04700 26.33600
C  6.95900 47.70500 25.46200
C  5.62600 47.67000 26.08400
C  5.99400 48.03100 27.41300
C  7.39100 48.23700 27.49900
C  4.30300 47.32100 25.57800
C  5.45300 48.06500 28.74100
O  4.29300 47.92900 29.10300
C  6.60000 48.37800 29.74000
C  6.78900 47.09600 30.52000
O  7.43500 46.13900 30.14800
O  6.10500 47.17900 31.69800
C  6.47900 46.11400 32.59100
H  13.35800 50.30500 28.48700
H  12.76400 47.70600 22.72800
H  6.51500 46.97700 23.41500
H  9.13100 50.43700 30.75300
H  11.92900 49.96500 30.57300
H  10.25800 52.34200 30.33700
H  11.69500 52.31500 29.20800
H  11.91300 51.94200 30.92600
H  10.30600 47.69500 30.98200
H  8.89700 48.12900 31.61700
H  10.73400 50.07000 32.89700
H  11.48300 48.50000 32.81100
H  16.18900 50.31800 26.16100
H  15.97100 49.07100 27.33200
H  15.20800 50.75700 27.44200
H  16.89200 49.47300 24.15100
H  17.36800 47.77700 23.62100
H  16.79100 48.00300 25.26000
H  10.86100 46.06800 21.76000
H  8.27800 47.43300 21.30800
H  10.80400 48.95900 21.04800
H  9.79600 47.99700 19.94900
H  11.55500 47.62000 20.22000
H  8.64300 45.04600 20.81800
H  7.16100 45.50200 21.63300
H  7.47700 43.85000 22.96000
H  8.71200 44.73900 23.79200
H  9.24300 43.55100 22.58100
H  4.22300 46.41000 24.98400
H  3.97100 48.05600 24.84500
H  3.57600 47.40500 26.38600
H  6.21500 49.19600 30.35000
H  6.18700 45.17800 32.11500
H  5.95500 46.28400 33.53100
H  7.55800 46.21800 32.70200

