158

Mg 18.01000 -0.94400 27.90400
C  17.02300 1.07400 30.82000
C  19.77000 -2.86100 30.05200
C  18.63000 -2.74500 25.28300
C  16.01600 1.36500 25.98100
N  18.26000 -0.96400 30.12400
C  17.88800 -0.05500 31.07100
C  18.25800 -0.52000 32.52500
C  19.14800 -1.76000 32.27200
C  19.09500 -1.84600 30.71000
C  20.58600 -1.90300 32.80200
C  16.95200 -0.80200 33.39300
C  16.81500 -0.01800 34.71300
H  18.14500 0.55100 35.33500
N  19.21300 -2.45000 27.61000
C  19.87600 -3.16100 28.61400
C  20.65200 -4.20300 27.96700
C  20.27100 -4.19000 26.58700
C  19.24400 -3.11900 26.43100
C  21.44700 -5.19200 28.69300
C  20.76000 -5.11600 25.43400
O  20.45700 -4.98400 24.26000
C  21.75000 -6.17200 25.70500
N  17.54500 -0.64500 25.91600
C  17.81300 -1.64000 25.04100
C  17.23800 -1.33900 23.63400
C  16.37400 -0.05800 23.93800
C  16.68000 0.24800 25.33800
C  18.24400 -1.07600 22.45100
C  14.87600 -0.28500 23.66200
C  14.04300 -1.06300 24.68300
N  16.74300 0.81800 28.29700
C  15.96500 1.62400 27.34500
C  15.39500 2.74300 28.03300
C  15.74900 2.54500 29.34900
C  16.60600 1.46400 29.49000
C  14.48500 3.68500 27.44500
C  15.60700 3.10500 30.63700
O  14.98100 4.02900 31.05600
C  16.29600 2.07700 31.65400
C  17.27700 2.89000 32.48800
O  18.51100 3.04200 32.32600
O  16.50400 3.41700 33.50700
C  17.18500 4.49500 34.23000
H  20.43600 -3.43500 30.70000
H  18.67500 -3.45500 24.45400
H  15.36100 1.93700 25.32000
H  18.87400 0.28600 32.92400
H  18.65300 -2.63300 32.69700
H  20.60400 -1.40500 33.77100
H  21.19100 -1.36900 32.07000
H  20.97100 -2.92300 32.83800
H  16.80000 -1.84500 33.67100
H  16.21900 -0.45100 32.66800
H  16.31600 -0.66600 35.43400
H  16.23500 0.89200 34.55900
H  21.49200 -4.99400 29.76400
H  22.48100 -5.04700 28.38100
H  21.05500 -6.19000 28.49400
H  22.67400 -5.76200 26.11300
H  22.00900 -6.55400 24.71800
H  21.43500 -7.03400 26.29400
H  16.56300 -2.17500 23.45000
H  16.62900 0.83200 23.36100
H  18.56100 -1.89800 21.80900
H  19.16000 -0.65600 22.86700
H  17.90100 -0.21600 21.87700
H  14.76900 -0.80800 22.71200
H  14.38300 0.67900 23.53600
H  13.30700 -0.32300 25.00100
H  14.59500 -1.47400 25.52800
H  13.35000 -1.81600 24.30900
H  14.03800 3.25400 26.54900
H  14.98900 4.60400 27.14600
H  13.67300 4.02900 28.08500
H  15.43900 1.65900 32.18000
H  18.26500 4.34800 34.21800
H  16.76000 4.55100 35.23200
H  16.86200 5.41400 33.73900
Mg 36.44800 0.51000 30.16000
C  34.59400 1.85100 32.71000
C  39.13800 0.33100 32.11200
C  38.12400 -0.55600 27.35300
C  33.54200 0.78300 28.09100
N  36.71300 0.99400 32.15400
C  35.85100 1.42700 33.04000
C  36.50300 1.69900 34.37900
C  38.08400 1.71600 34.00800
C  37.98100 0.92900 32.72200
C  38.80500 3.04800 34.10100
C  36.08400 0.51900 35.36200
C  35.37900 0.90100 36.68700
H  35.83900 2.09900 37.45200
N  38.29400 -0.17100 29.83400
C  39.22000 -0.30900 30.83800
C  40.37600 -0.98100 30.31800
C  40.15300 -1.06400 28.90900
C  38.79400 -0.61300 28.61500
C  41.54700 -1.33900 31.23000
C  41.19000 -1.57300 27.92500
O  41.02200 -1.55600 26.66700
C  42.54400 -2.00400 28.23800
N  35.89700 0.33900 28.00700
C  36.83100 -0.02500 27.09700
C  36.23800 -0.19200 25.68100
C  34.70600 0.08000 26.00800
C  34.69800 0.48000 27.45900
C  36.89600 0.75800 24.65200
C  33.82000 -1.17400 25.77900
C  33.78600 -1.94400 24.41800
N  34.50000 1.38600 30.23700
C  33.43900 1.40400 29.37400
C  32.37300 2.12200 29.98400
C  32.72400 2.23200 31.31900
C  34.06700 1.79100 31.38600
C  31.03800 2.39800 29.34000
C  32.35400 2.66100 32.56800
O  31.28900 3.19700 32.92300
C  33.45100 2.37400 33.53600
C  33.76500 3.69900 34.19300
O  34.29200 4.71200 33.71400
O  33.04300 3.67000 35.40100
C  33.02300 4.98800 36.04500
H  39.99000 0.21900 32.78600
H  38.68900 -1.02400 26.54400
H  32.60700 0.66600 27.53900
H  36.16700 2.63100 34.83400
H  38.64000 1.16300 34.76500
H  39.66700 3.00200 34.76800
H  38.14000 3.76800 34.57800
H  38.96500 3.41500 33.08700
H  36.88600 -0.21000 35.47200
H  35.28400 -0.09200 34.94500
H  35.51400 -0.00100 37.28300
H  34.30100 1.02000 36.57500
H  41.86300 -2.38300 31.22300
H  41.56900 -0.92300 32.23700
H  42.37400 -0.87100 30.69600
H  42.51900 -2.88400 28.88000
H  42.97100 -1.16800 28.79100
H  43.22500 -2.26700 27.42800
H  36.41400 -1.23100 25.40400
H  34.36400 0.92300 25.40800
H  37.94100 0.97300 24.87400
H  36.38000 1.71500 24.57100
H  36.80400 0.21200 23.71300
H  32.80100 -0.79500 25.85900
H  33.96900 -1.87900 26.59700
H  33.98700 -2.97000 24.72600
H  34.39300 -1.43200 23.67100
H  32.77600 -2.06700 24.02800
H  30.90200 1.89400 28.38300
H  31.01300 3.47000 29.14600
H  30.25000 2.10700 30.03500
H  33.17700 1.74900 34.38600
H  32.43700 5.67100 35.43000
H  34.06300 5.31400 36.07700
H  32.72800 4.98100 37.09500

