158

Mg 34.88300 3.36300 30.22700
C  32.49300 4.46300 32.56900
C  37.20500 3.71400 32.79400
C  37.18600 2.63200 28.00000
C  32.55100 3.72300 27.71700
N  34.76900 4.01200 32.42800
C  33.66400 4.34700 33.15700
C  33.95900 4.45000 34.66600
C  35.56300 4.64500 34.63700
C  35.91100 4.04800 33.25700
C  36.19700 6.06400 35.02600
C  33.45400 3.14800 35.38600
C  33.05300 3.38800 36.86300
H  33.70800 4.43500 37.61300
N  36.82100 3.10100 30.32100
C  37.59900 3.26900 31.46000
C  38.83400 2.44100 31.25400
C  38.94400 2.13900 29.86100
C  37.61600 2.65900 29.33200
C  39.65700 1.97400 32.44400
C  39.95300 1.32100 29.09200
O  39.94800 1.33900 27.85400
C  40.96700 0.53000 29.75800
N  34.87100 3.36000 28.09800
C  35.95000 3.11300 27.35900
C  35.71100 3.12700 25.83000
C  34.15000 3.38300 25.80200
C  33.82400 3.47900 27.28600
C  36.57400 4.11600 24.99900
C  33.17100 2.51900 25.00000
C  32.68900 1.17200 25.53900
N  32.86800 3.80100 30.12500
C  32.07400 3.93200 29.05200
C  30.70500 4.28100 29.48800
C  30.79500 4.38900 30.86900
C  32.15500 4.19800 31.23400
C  29.53700 4.42900 28.54400
C  30.06100 4.58900 32.10600
O  28.85600 4.77900 32.28700
C  31.16000 4.77200 33.25300
C  31.01000 6.14600 33.81800
O  31.18700 7.13900 33.07300
O  30.71800 6.10100 35.16600
C  30.87100 7.33900 35.90100
H  38.01000 3.73500 33.53100
H  37.97300 2.26100 27.34100
H  31.72000 3.97900 27.05600
H  33.64700 5.36400 35.17200
H  35.94300 3.96600 35.40000
H  37.08400 6.15400 34.39900
H  36.42400 6.04300 36.09200
H  35.45500 6.82600 34.78700
H  34.24800 2.40200 35.37800
H  32.55700 2.85900 34.83800
H  33.11300 2.35300 37.20200
H  31.99500 3.63600 36.77500
H  40.08500 2.80300 33.00700
H  40.46800 1.32300 32.11600
H  39.04700 1.30500 33.05100
H  41.78300 1.13700 30.15200
H  41.41800 -0.07200 28.96800
H  40.49100 -0.12700 30.48600
H  35.87400 2.15000 25.37500
H  34.04900 4.40300 25.43000
H  37.36400 4.62200 25.55400
H  35.90700 4.77500 24.44400
H  37.07600 3.56600 24.20300
H  33.62300 2.32800 24.02600
H  32.32300 3.17400 24.80400
H  32.74300 0.98900 26.61200
H  33.19200 0.41900 24.93200
H  31.60800 1.22000 25.40600
H  29.38500 3.49200 28.00700
H  29.76500 5.24600 27.85900
H  28.68400 4.68800 29.17000
H  30.84100 4.04600 34.00100
H  29.87300 7.47600 36.31700
H  31.27000 8.18800 35.34600
H  31.56800 7.20000 36.72700
Mg 17.17000 52.19000 25.97500
C  18.96800 50.51300 28.58700
C  14.68500 52.80600 28.28600
C  15.15900 53.54600 23.48100
C  19.42200 51.10200 23.85600
N  16.90100 51.62600 28.09900
C  17.82300 51.11600 28.99600
C  17.41300 51.31700 30.44600
C  15.88400 51.59800 30.22400
C  15.76400 52.00400 28.74000
C  15.05400 50.29400 30.49800
C  18.22300 52.55400 31.08400
C  18.34200 52.51900 32.57700
H  17.28300 51.72500 33.31900
N  15.20400 53.06700 25.85000
C  14.42400 53.24600 26.98700
C  13.23200 54.01300 26.60500
C  13.32500 54.20900 25.21700
C  14.61600 53.64900 24.76000
C  12.14400 54.48400 27.62600
C  12.34400 54.87900 24.28800
O  12.53600 55.06200 23.08800
C  11.03000 55.37900 24.88300
N  17.18500 52.29000 23.89300
C  16.38800 52.95800 23.03300
C  16.94400 52.89800 21.56000
C  18.38500 52.26000 21.81600
C  18.33400 51.84500 23.30700
C  16.02400 52.08100 20.62700
C  19.65700 53.02900 21.39700
C  20.32800 54.05500 22.28800
N  18.86700 51.06100 26.11700
C  19.73700 50.66200 25.16300
C  20.98200 50.05800 25.71900
C  20.60200 49.93500 27.06400
C  19.33600 50.50600 27.24300
C  22.19700 49.70100 24.97500
C  21.12400 49.43900 28.32800
O  22.13700 48.84800 28.57900
C  20.11300 49.95800 29.43900
C  19.70500 48.81800 30.35000
O  18.98200 47.86400 30.08300
O  20.17800 49.04900 31.64300
C  19.68700 48.03600 32.65100
H  13.93100 52.98600 29.05600
H  14.74900 53.90400 22.53400
H  20.09600 50.62800 23.13900
H  17.54100 50.36900 30.96800
H  15.52900 52.35100 30.92800
H  14.95500 49.79100 29.53600
H  14.02100 50.51000 30.77200
H  15.30900 49.60000 31.29800
H  17.80300 53.46400 30.65400
H  19.25100 52.47400 30.73100
H  18.28500 53.55600 32.90700
H  19.25200 51.96300 32.80200
H  11.18300 54.02000 27.40200
H  12.06900 55.56600 27.51700
H  12.42000 54.29900 28.66400
H  10.57100 55.96700 24.08800
H  11.19200 56.05600 25.72100
H  10.35400 54.55100 25.09800
H  17.01200 53.91500 21.17100
H  18.44800 51.29600 21.31000
H  16.58700 51.43900 19.94900
H  15.39800 52.78200 20.07600
H  15.31200 51.42500 21.12800
H  19.52500 53.57400 20.46200
H  20.36200 52.23900 21.13800
H  21.40200 53.95100 22.44100
H  19.70500 54.09600 23.18100
H  20.21000 55.05500 21.87200
H  22.54500 50.51400 24.33900
H  22.07000 48.75700 24.44500
H  22.89400 49.70600 25.81300
H  20.59600 50.72100 30.04900
H  19.74600 47.00300 32.31100
H  18.70700 48.40300 32.95700
H  20.42000 47.93500 33.45000

