158

Mg 27.07700 50.12300 26.74500
C  24.99800 51.06700 29.51200
C  29.34700 49.07100 29.15100
C  29.05400 49.49600 24.20800
C  24.74200 51.57500 24.65700
N  27.15800 50.12300 29.12200
C  26.19900 50.60800 30.00500
C  26.65900 50.41900 31.42600
C  28.11200 49.85800 31.33700
C  28.20400 49.62000 29.81500
C  29.28600 50.80500 31.83500
C  25.74200 49.54100 32.39100
C  25.54400 50.18100 33.87700
H  25.44100 49.14600 34.99200
N  28.91400 49.39400 26.69900
C  29.69700 49.03000 27.74400
C  30.84700 48.39800 27.19100
C  30.89700 48.57900 25.79600
C  29.56300 49.12900 25.53900
C  32.04900 47.82700 28.00800
C  32.00500 48.45100 24.81700
O  31.89200 48.63200 23.65100
C  33.34700 48.05300 25.11500
N  27.02700 50.63600 24.76000
C  27.90300 50.17400 23.88500
C  27.58900 50.47200 22.50400
C  26.09400 50.96000 22.56200
C  25.93000 51.09500 24.06600
C  28.53500 51.50800 21.86900
C  25.06100 49.92500 21.93100
C  23.83200 50.38900 21.11700
N  25.23000 51.13300 26.99800
C  24.43300 51.69500 25.99100
C  23.30100 52.34200 26.64500
C  23.47300 52.09300 28.00000
C  24.60200 51.31100 28.18800
C  22.26900 53.12300 25.86700
C  22.84200 52.32400 29.25800
O  21.75700 52.81700 29.45200
C  23.84700 51.67900 30.34100
C  24.20300 52.70200 31.33200
O  25.20400 53.31600 31.36600
O  23.21000 52.72000 32.33000
C  23.52900 53.55300 33.45400
H  30.10400 48.72800 29.85800
H  29.65300 49.15700 23.36000
H  23.88500 51.74700 24.00300
H  26.69300 51.42300 31.84900
H  28.22100 48.96000 31.94600
H  29.94500 51.08800 31.01500
H  29.90400 50.32300 32.59200
H  28.98900 51.72300 32.34100
H  26.21500 48.57300 32.56100
H  24.82100 49.31000 31.85600
H  24.57500 50.67300 33.79100
H  26.12400 51.05100 34.18600
H  31.97000 47.92600 29.09100
H  32.93400 48.45200 27.89000
H  32.14700 46.76200 27.79800
H  33.27700 47.04300 25.52000
H  33.63500 48.76600 25.88700
H  33.97000 47.97400 24.22400
H  27.59700 49.59200 21.86000
H  26.00800 51.85600 21.94700
H  29.50400 51.45700 22.36400
H  28.11500 52.51400 21.88600
H  28.79700 51.13400 20.88000
H  24.67800 49.21300 22.66200
H  25.66200 49.41800 21.17400
H  23.78500 50.02000 20.09200
H  23.72400 51.47300 21.07600
H  22.92000 50.01400 21.58100
H  22.83600 53.71300 25.14700
H  21.75300 53.77800 26.56800
H  21.46500 52.52700 25.43400
H  23.30500 50.86400 30.82000
H  23.63400 54.60100 33.17400
H  24.43100 53.18200 33.94100
H  22.68000 53.60700 34.13600
Mg -2.23800 34.25500 26.34100
C  -3.94400 32.66500 28.94000
C  -0.75000 36.39000 28.59600
C  -1.06400 36.15300 23.72000
C  -4.16800 32.45400 24.08900
N  -2.37600 34.45500 28.51000
C  -3.10900 33.71900 29.39500
C  -2.77000 34.04800 30.84400
C  -1.81800 35.30600 30.70100
C  -1.72400 35.50400 29.14000
C  -2.33000 36.63300 31.41800
C  -1.93800 32.92700 31.52100
C  -1.66200 33.29900 33.00700
H  -2.32000 32.35500 34.06000
N  -0.93300 35.99700 26.12500
C  -0.35100 36.67000 27.23400
C  0.59600 37.60900 26.68000
C  0.51700 37.56800 25.24500
C  -0.59200 36.55400 24.97700
C  1.64900 38.33000 27.59200
C  1.37200 38.24300 24.21700
O  1.12000 38.09800 23.05700
C  2.61000 39.05500 24.57700
N  -2.58300 34.41300 24.25800
C  -1.94200 35.18200 23.35100
C  -2.40500 34.87500 21.87800
C  -3.34300 33.67600 22.07300
C  -3.34500 33.47000 23.60000
C  -2.96400 36.09700 21.08400
C  -2.90800 32.36000 21.30200
C  -2.05500 31.34400 22.01400
N  -3.76700 32.87900 26.49200
C  -4.39500 32.14200 25.45700
C  -5.23700 31.12000 26.00700
C  -5.14400 31.36900 27.39300
C  -4.20400 32.34900 27.62500
C  -6.12400 30.07600 25.32500
C  -5.60700 30.88500 28.60000
O  -6.38600 29.93700 28.79700
C  -4.86600 31.70400 29.78500
C  -5.76900 32.40100 30.75300
O  -6.29300 33.52500 30.60900
O  -6.08000 31.49600 31.69400
C  -7.09700 31.87300 32.65700
H  -0.24000 36.98000 29.36000
H  -0.65900 36.68000 22.85400
H  -4.65700 32.00600 23.22200
H  -3.68500 34.31000 31.37500
H  -0.85100 35.02300 31.11500
H  -2.52100 37.46500 30.74100
H  -1.71600 36.87100 32.28600
H  -3.31600 36.38000 31.80700
H  -1.04800 32.86900 30.89500
H  -2.44900 31.96500 31.50800
H  -1.98300 34.30200 33.29100
H  -0.58000 33.27000 33.13500
H  1.63200 39.41900 27.56400
H  2.59600 38.02400 27.14700
H  1.70000 38.10500 28.65700
H  2.32700 39.96000 25.11500
H  2.84200 39.44100 23.58400
H  3.42300 38.44900 24.97800
H  -1.45600 34.67100 21.38200
H  -4.36700 33.94400 21.81600
H  -3.77400 35.80300 20.41700
H  -2.23900 36.52500 20.39200
H  -3.29600 36.89000 21.75500
H  -2.33600 32.74200 20.45700
H  -3.82200 31.99700 20.83300
H  -2.63100 30.47100 22.32100
H  -1.63300 31.86700 22.87100
H  -1.24600 30.93800 21.40700
H  -5.55600 29.70900 24.46900
H  -7.01000 30.65400 25.06200
H  -6.35200 29.28400 26.03800
H  -4.24500 30.98300 30.31800
H  -6.64800 32.53700 33.39500
H  -7.55600 30.98700 33.09800
H  -7.89200 32.40100 32.13100

