158

Mg 42.29700 41.70400 26.20300
C  41.83700 43.96000 28.75200
C  43.28300 39.41400 28.54900
C  43.19600 39.77200 23.68600
C  41.53100 44.22200 23.88700
N  42.49600 41.67500 28.46000
C  42.04300 42.70100 29.28200
C  41.97100 42.22900 30.72700
C  42.72800 40.86700 30.70100
C  42.80900 40.59200 29.16900
C  44.11000 40.85800 31.38600
C  40.46400 42.17100 31.24000
C  40.13600 43.19200 32.34200
H  39.71600 42.61400 33.72400
N  43.05600 39.81400 26.12700
C  43.38000 39.01300 27.16100
C  44.02500 37.75400 26.71700
C  44.01100 37.86500 25.25000
C  43.48900 39.18700 24.92700
C  44.57200 36.63500 27.61100
C  44.51100 36.78200 24.25600
O  44.73900 37.01200 23.07900
C  44.79600 35.46200 24.82500
N  42.17200 41.93800 24.08100
C  42.60100 40.95900 23.24900
C  42.29300 41.30300 21.75300
C  41.51100 42.60000 21.94400
C  41.80100 42.98900 23.38400
C  43.51400 41.50800 20.80800
C  39.96400 42.48100 21.71100
C  39.25400 41.34500 22.54600
N  41.80000 43.65100 26.25500
C  41.45300 44.53300 25.23800
C  41.02100 45.82200 25.78700
C  41.13500 45.57700 27.18700
C  41.62600 44.28100 27.42500
C  40.47300 47.01900 25.15500
C  40.92800 46.18000 28.44900
O  40.52600 47.31900 28.71300
C  41.28800 45.16200 29.50200
C  42.25500 45.67300 30.56500
O  43.48900 45.71700 30.45400
O  41.47800 46.22000 31.54700
C  42.09600 46.85300 32.73300
H  43.74400 38.68800 29.22100
H  43.46600 39.13200 22.84400
H  41.14300 44.94800 23.16900
H  42.51700 42.90800 31.38200
H  42.13500 40.03300 31.07600
H  44.87900 40.22300 30.94700
H  43.98200 40.65500 32.44900
H  44.44700 41.89300 31.32800
H  40.15200 41.20300 31.63100
H  39.83400 42.45600 30.39700
H  39.26900 43.77800 32.03900
H  41.01500 43.81100 32.52100
H  44.02000 35.70400 27.47900
H  44.56700 36.84800 28.68000
H  45.61000 36.42900 27.35200
H  43.94000 35.03600 25.34800
H  45.64800 35.48100 25.50400
H  45.17100 34.79100 24.05200
H  41.60200 40.58800 21.30600
H  41.76700 43.42000 21.27200
H  44.34200 41.10500 21.39100
H  43.75400 42.54800 20.58800
H  43.40800 40.91600 19.89900
H  39.87100 42.17000 20.67100
H  39.43600 43.43500 21.73500
H  39.93800 40.81300 23.20700
H  38.69100 40.66200 21.91000
H  38.53200 41.72200 23.27100
H  39.66000 47.44100 25.74600
H  40.33900 46.69900 24.12200
H  41.27400 47.75700 25.13600
H  40.38700 44.79800 29.99600
H  42.03300 46.00600 33.41600
H  41.55200 47.70900 33.13300
H  43.15100 47.10000 32.61600
Mg 36.28600 49.50100 24.08900
C  36.23000 48.06300 27.23400
C  34.99500 52.52600 25.41900
C  36.26100 50.92600 21.03500
C  37.45600 46.51300 22.82200
N  35.69000 50.10400 26.01900
C  35.86900 49.41800 27.19800
C  35.55300 50.37300 28.46800
C  35.01400 51.63900 27.81000
C  35.14900 51.38300 26.29800
C  33.60300 51.99300 28.36500
C  36.81400 50.42900 29.39400
C  36.62400 50.26800 30.89700
H  35.17900 50.10300 31.34600
N  35.76800 51.55100 23.30700
C  35.22300 52.57800 24.03100
C  34.96000 53.68300 23.10000
C  35.39600 53.23500 21.80700
C  35.80800 51.82400 22.00200
C  34.53800 55.04300 23.56700
C  35.51000 54.03600 20.55500
O  35.92100 53.56000 19.48200
C  35.20200 55.52300 20.44400
N  36.84200 48.84400 22.22800
C  36.68000 49.57400 21.10300
C  36.86700 48.72500 19.82500
C  37.23100 47.33900 20.44800
C  37.12000 47.56800 21.93100
C  35.51900 48.66900 18.93600
C  38.69000 46.99700 20.00200
C  39.77000 47.80800 20.69100
N  36.78900 47.59000 24.83700
C  37.26200 46.48200 24.24200
C  37.45500 45.32700 25.18900
C  37.04100 45.94100 26.41100
C  36.67400 47.28500 26.16200
C  37.72600 43.91200 25.02800
C  36.80400 45.73200 27.79700
O  36.85900 44.78400 28.49300
C  36.31200 47.09200 28.44100
C  35.02100 46.84200 29.15800
O  33.85300 46.91200 28.70200
O  35.26100 46.41500 30.42500
C  34.04300 45.90600 31.07500
H  34.59900 53.37400 25.98100
H  36.15100 51.32000 20.02200
H  37.70200 45.57700 22.31400
H  34.82200 49.77600 29.01400
H  35.77700 52.36700 28.08800
H  32.93000 52.09200 27.51300
H  33.55100 52.99600 28.78800
H  33.21900 51.25300 29.06600
H  37.27000 51.38100 29.12000
H  37.53500 49.70200 29.01900
H  36.93600 51.20800 31.35100
H  37.24800 49.45300 31.26500
H  34.07500 55.63600 22.77900
H  35.35900 55.65300 23.94400
H  33.87500 55.07100 24.43200
H  34.11600 55.61100 20.47300
H  35.52800 55.92100 19.48300
H  35.74800 55.94000 21.29000
H  37.64300 49.12000 19.17000
H  36.50000 46.54600 20.29000
H  34.75900 49.34500 19.32600
H  35.03600 47.69900 18.81600
H  35.61400 48.99900 17.90100
H  38.87300 47.18700 18.94400
H  38.90000 45.93100 20.09000
H  39.37300 48.67100 21.22600
H  40.59700 48.10900 20.04900
H  40.29500 47.31100 21.50800
H  38.64500 43.49900 25.44400
H  37.76800 43.68200 23.96400
H  36.86400 43.40300 25.46000
H  37.16400 47.33900 29.07500
H  33.55000 45.16100 30.45000
H  33.30200 46.67500 31.29400
H  34.26700 45.37100 31.99700

