158

Mg 24.50500 -5.74400 46.05500
C  26.51900 -3.52800 44.25100
C  21.83500 -4.73700 44.12100
C  22.77800 -8.43900 47.17200
C  27.36500 -6.75700 47.91100
N  24.31700 -4.35500 44.30800
C  25.22300 -3.54400 43.77400
C  24.56300 -2.68700 42.66100
C  23.02600 -3.00300 42.84200
C  23.03400 -4.11500 43.81900
C  21.99700 -1.90100 43.32800
C  25.13800 -3.02000 41.24400
C  25.71000 -1.83100 40.37000
H  25.21100 -1.69800 38.89800
N  22.57900 -6.50600 45.62900
C  21.65700 -5.96400 44.83300
C  20.44100 -6.79500 44.91800
C  20.76400 -7.93400 45.71300
C  22.05900 -7.62000 46.25000
C  19.30600 -6.58900 44.05800
C  19.85500 -9.14400 45.93600
O  18.75600 -9.25200 45.34600
C  20.38000 -10.35600 46.74700
N  24.97200 -7.33200 47.40600
C  24.02900 -8.31600 47.72500
C  24.62800 -9.27200 48.77400
C  26.08300 -8.83100 48.92900
C  26.18800 -7.56900 48.06000
C  23.81600 -9.25200 50.11300
C  27.07900 -10.00600 48.63200
C  27.56800 -10.75300 49.88800
N  26.58000 -5.15000 46.21800
C  27.59100 -5.72300 46.98900
C  28.79900 -5.07000 46.63300
C  28.46300 -4.22600 45.56500
C  27.09100 -4.32200 45.33700
C  30.13300 -5.20300 47.29400
C  28.89000 -3.28300 44.56900
O  30.05300 -2.87000 44.41000
C  27.68300 -2.83400 43.71300
C  27.51500 -1.33400 43.81400
O  26.84500 -0.65600 44.58000
O  28.30500 -0.85000 42.80600
C  28.56300 0.57800 42.63400
H  20.98800 -4.36600 43.54100
H  22.39000 -9.39800 47.52200
H  28.22500 -7.14600 48.46000
H  24.72000 -1.61400 42.76600
H  22.65200 -3.41800 41.90500
H  21.17800 -1.78200 42.61800
H  22.48600 -0.92700 43.31700
H  21.62800 -2.10300 44.33300
H  24.37500 -3.40200 40.56600
H  25.87100 -3.81400 41.38200
H  26.77800 -2.01000 40.24500
H  25.68200 -0.88200 40.90500
H  19.20300 -5.54000 43.78000
H  18.41900 -6.92400 44.59400
H  19.40800 -7.25600 43.20200
H  20.54800 -9.95400 47.74600
H  21.35900 -10.63100 46.35300
H  19.67500 -11.18800 46.77000
H  24.45300 -10.27900 48.39600
H  26.20900 -8.35400 49.90100
H  24.45300 -8.99200 50.95800
H  23.42900 -10.24000 50.36400
H  22.95400 -8.59500 49.99000
H  27.92600 -9.59900 48.07900
H  26.55500 -10.66700 47.94200
H  26.95100 -11.63600 50.05300
H  27.51300 -10.12300 50.77600
H  28.55900 -11.12000 49.62200
H  30.84200 -4.65700 46.67200
H  30.26900 -6.28200 47.21700
H  30.13600 -4.82000 48.31400
H  27.78700 -3.17400 42.68300
H  29.64400 0.68800 42.54600
H  28.13100 1.32100 43.30500
H  28.22700 0.84900 41.63300
Mg 47.99300 35.22600 26.43800
C  46.54500 33.65200 29.35400
C  48.29600 38.09500 28.53800
C  49.37900 36.82000 23.90300
C  47.41300 32.38000 24.61400
N  47.33900 35.80100 28.71300
C  46.99700 34.93400 29.73100
C  47.19900 35.60600 31.04900
C  47.17200 37.11200 30.65600
C  47.59800 37.03000 29.18600
C  45.85100 37.93500 30.88800
C  48.50300 35.17500 31.82100
C  48.38600 34.93300 33.35800
H  47.20800 35.73800 33.95100
N  48.82800 37.08800 26.24100
C  48.82700 38.07000 27.24100
C  49.48300 39.24100 26.63900
C  49.88300 38.88500 25.29600
C  49.33300 37.55200 25.10600
C  49.67200 40.57200 27.36500
C  50.76900 39.64800 24.24000
O  51.19600 39.25800 23.17000
C  50.98400 41.10500 24.46700
N  48.27900 34.69300 24.58700
C  48.91800 35.52200 23.63100
C  49.05100 34.84300 22.33100
C  48.88700 33.36000 22.79300
C  48.11000 33.46000 24.09800
C  48.02800 35.34600 21.28200
C  50.18800 32.51500 22.94900
C  50.06800 31.09900 22.46700
N  47.04500 33.45600 26.75900
C  46.88000 32.35300 25.87300
C  46.15400 31.32000 26.59800
C  46.10700 31.79500 27.94700
C  46.60100 33.10100 28.01600
C  45.71300 30.00900 25.94700
C  45.72500 31.32200 29.25600
O  45.22200 30.31100 29.65000
C  45.79200 32.62700 30.19300
C  46.19300 32.33400 31.59500
O  47.36500 32.28200 31.93400
O  45.14600 32.13000 32.45200
C  45.41600 31.80600 33.86700
H  48.67100 38.89100 29.18600
H  49.83700 37.28500 23.02800
H  47.21300 31.46300 24.05600
H  46.26400 35.46000 31.58900
H  47.92700 37.69200 31.18800
H  45.20800 37.57700 31.69200
H  45.41600 38.06900 29.89700
H  46.20800 38.93600 31.12700
H  49.31000 35.88800 31.65100
H  48.78100 34.23900 31.33700
H  49.31300 35.39500 33.69500
H  48.46800 33.87000 33.58400
H  50.71300 40.81900 27.57000
H  49.16400 40.67400 28.32500
H  49.37300 41.33900 26.65000
H  50.09500 41.73400 24.40500
H  51.76700 41.50300 23.82200
H  51.53100 41.11100 25.41000
H  50.07600 34.99900 21.99600
H  48.24200 32.79600 22.11900
H  48.60300 35.73700 20.44300
H  47.24100 36.04100 21.57800
H  47.47300 34.51400 20.85000
H  50.67100 32.54500 23.92500
H  50.99600 32.99000 22.39200
H  49.24700 31.06500 21.75100
H  49.84400 30.29900 23.17200
H  51.02500 30.84300 22.01200
H  46.20800 29.76700 25.00700
H  44.63600 30.14000 25.84600
H  45.89300 29.18000 26.63100
H  44.77200 32.99000 30.31700
H  44.67800 31.11700 34.27800
H  45.53000 32.72900 34.43500
H  46.36300 31.35600 34.16400

