158

Mg 49.09400 45.47100 42.33600
C  45.63400 45.86600 41.69800
C  48.84600 42.33900 41.06200
C  52.37600 45.45200 42.14400
C  49.24100 48.94800 43.15100
N  47.41300 44.24300 41.54000
C  46.10000 44.59900 41.32300
C  45.41100 43.59400 40.42200
C  46.29500 42.29600 40.59100
C  47.59600 42.98200 41.10900
C  45.73300 41.26000 41.58100
C  45.27400 44.00100 38.87600
C  43.98200 43.57900 38.04000
H  44.12900 42.78900 36.69300
N  50.41300 44.05500 41.91000
C  50.10600 42.78800 41.42400
C  51.32600 41.97700 41.31000
C  52.40600 42.86600 41.52500
C  51.73500 44.18200 41.94100
C  51.32900 40.48200 40.85800
C  53.81900 42.52600 41.33100
O  54.14700 41.49900 40.67400
C  54.91000 43.44400 41.80000
N  50.67400 47.02800 42.57700
C  51.92300 46.78900 42.27700
C  52.82700 48.07400 42.42900
C  51.78100 49.05500 43.01300
C  50.48800 48.35400 42.91300
C  54.06700 48.02100 43.31300
C  51.88500 50.51800 42.32000
C  51.41900 51.74500 43.14300
N  47.74300 47.09600 42.42700
C  47.94100 48.37300 42.93100
C  46.71400 49.03900 42.98600
C  45.76200 48.10400 42.53600
C  46.43300 46.91500 42.20900
C  46.60400 50.50300 43.31100
C  44.36000 47.94100 42.16500
O  43.46800 48.71400 42.19800
C  44.29300 46.49500 41.51700
C  43.10300 45.79200 42.09500
O  42.46000 44.91100 41.51900
O  43.01700 46.15700 43.38300
C  41.89900 45.48800 44.14700
H  48.81900 41.34700 40.60800
H  53.44700 45.51300 41.93700
H  49.24700 49.96400 43.55100
H  44.42200 43.29100 40.76600
H  46.41700 41.80100 39.62800
H  45.52300 40.33700 41.04200
H  44.78500 41.59900 41.99900
H  46.39700 41.02600 42.41400
H  46.01500 43.45200 38.29600
H  45.46200 45.04800 38.63900
H  43.56000 44.54900 37.77500
H  43.25500 43.05000 38.65700
H  51.54100 40.25700 39.81300
H  50.34300 40.02600 40.94600
H  52.00000 39.87200 41.46400
H  55.22500 44.22600 41.10800
H  55.79500 42.83400 41.97800
H  54.45100 43.79300 42.72500
H  53.19700 48.28800 41.42600
H  51.86900 49.27300 44.07700
H  54.08800 47.07400 43.85300
H  53.85200 48.73400 44.10900
H  55.00300 48.19600 42.78300
H  51.16600 50.50300 41.50100
H  52.84100 50.79200 41.87400
H  52.07800 52.56400 42.85700
H  51.39000 51.47700 44.19900
H  50.37900 52.02000 42.96400
H  47.37300 50.71500 44.05400
H  45.62500 50.83800 43.65400
H  46.88100 51.25400 42.57100
H  44.05700 46.60600 40.45900
H  42.03700 45.47600 45.22800
H  41.67700 44.48200 43.78900
H  41.05300 46.13000 43.90500
Mg 42.21800 41.70800 26.36100
C  41.35000 43.86800 28.99000
C  43.06000 39.43500 28.62300
C  43.56600 39.99700 23.81300
C  41.62800 44.32700 24.02300
N  42.25200 41.65900 28.63400
C  41.78800 42.56800 29.51300
C  41.79300 42.07400 30.94900
C  42.45500 40.63800 30.77200
C  42.60300 40.56000 29.27800
C  43.68100 40.46100 31.63500
C  40.46500 42.02800 31.61100
C  40.38800 41.76600 33.20400
H  39.77000 42.80400 34.14300
N  43.04000 39.87700 26.26200
C  43.27400 39.04500 27.29800
C  43.87600 37.81000 26.86700
C  44.11600 37.96700 25.41800
C  43.51900 39.32500 25.08000
C  44.30100 36.76300 27.78200
C  44.83000 37.06000 24.44600
O  45.07300 37.37200 23.29000
C  45.21300 35.69200 24.87500
N  42.68900 42.25900 24.26300
C  43.19400 41.27000 23.42000
C  43.03100 41.62400 21.93100
C  42.09800 42.88500 22.02000
C  42.15500 43.22700 23.53200
C  44.48000 41.79000 21.28700
C  40.63800 42.55400 21.67500
C  39.92800 41.38100 22.44200
N  41.61700 43.72600 26.39400
C  41.50000 44.66300 25.38100
C  41.08900 45.90100 25.99100
C  41.01500 45.64600 27.42700
C  41.35600 44.28400 27.56600
C  40.78900 47.17600 25.36200
C  40.80700 46.21400 28.70400
O  40.56500 47.36300 29.02800
C  40.90900 45.14000 29.78000
C  42.03300 45.55900 30.70100
O  43.22800 45.37100 30.52100
O  41.54200 46.15700 31.80300
C  42.42500 46.69200 32.81400
H  43.25600 38.64800 29.35400
H  43.87100 39.37600 22.96800
H  41.35800 45.00400 23.21000
H  42.45400 42.73700 31.50600
H  41.68600 40.00400 31.21300
H  44.16300 41.35600 32.02700
H  44.36200 39.78400 31.11900
H  43.31300 39.89400 32.49000
H  39.79500 41.35000 31.08200
H  39.98800 43.00500 31.53200
H  41.39000 41.58400 33.59000
H  39.85400 40.81700 33.25600
H  43.82700 35.81700 27.52000
H  44.05900 36.88500 28.83800
H  45.37300 36.63900 27.62600
H  46.18800 35.84300 25.33800
H  45.39300 35.16600 23.93800
H  44.50400 35.09700 25.45000
H  42.63100 40.75000 21.41700
H  42.45100 43.71700 21.41000
H  45.14700 41.11800 21.82600
H  44.82800 42.76900 21.61800
H  44.59900 41.54100 20.23300
H  40.60500 42.28800 20.61800
H  39.97900 43.39600 21.88300
H  40.50200 40.91800 23.24500
H  39.56900 40.70300 21.66800
H  39.08800 41.85100 22.95400
H  39.75200 47.34100 25.65100
H  41.00600 47.03900 24.30200
H  41.30500 48.06500 25.72600
H  40.04300 44.99300 30.42500
H  42.77600 45.88000 33.45000
H  42.10500 47.61700 33.29500
H  43.22100 47.06700 32.17200

