158

Mg 34.85600 2.45300 29.45900
C  32.80000 3.58000 32.00700
C  37.58300 2.40900 31.56500
C  36.81300 1.82400 26.81500
C  32.05600 3.02900 27.39000
N  35.16400 3.04000 31.53500
C  34.20400 3.37700 32.40000
C  34.75400 3.55200 33.80400
C  36.33200 3.38600 33.62200
C  36.42200 2.93000 32.15800
C  37.15400 4.69400 33.79500
C  34.18200 2.53800 34.76300
C  33.88700 3.05500 36.26600
H  34.90900 3.99800 36.93300
N  36.85600 2.02800 29.21500
C  37.78700 2.07000 30.21400
C  39.05900 1.56700 29.63000
C  38.94700 1.61600 28.21900
C  37.52200 1.88400 28.03500
C  40.17600 1.18100 30.59400
C  40.01800 1.48200 27.22400
O  39.73700 1.67500 26.02500
C  41.42600 1.14900 27.51900
N  34.54600 2.47600 27.40800
C  35.50500 2.09600 26.53200
C  34.92900 1.87500 25.11300
C  33.46200 2.26200 25.30800
C  33.31000 2.58100 26.81500
C  35.65500 2.48600 23.92700
C  32.49100 1.18600 24.64900
C  32.59000 -0.15700 25.31600
N  32.81000 3.25000 29.54000
C  31.83500 3.37600 28.66400
C  30.62800 3.82800 29.30600
C  31.00200 4.00500 30.64900
C  32.31200 3.57900 30.71000
C  29.32800 4.12200 28.59900
C  30.49600 4.47000 31.94000
O  29.36000 4.89500 32.22000
C  31.62400 4.09200 32.93300
C  31.95400 5.38900 33.74700
O  32.79900 6.22600 33.39700
O  31.31900 5.40100 34.98400
C  31.78500 6.37000 35.99600
H  38.45400 2.30400 32.21600
H  37.27700 1.55400 25.86400
H  31.20800 3.02400 26.70200
H  34.61000 4.57100 34.16400
H  36.74400 2.62400 34.28400
H  37.59600 5.05700 32.86700
H  37.85100 4.38100 34.57300
H  36.65000 5.58300 34.17500
H  34.88800 1.70900 34.71300
H  33.29500 1.99700 34.43400
H  33.93300 2.23100 36.97800
H  32.87100 3.45000 36.27400
H  41.01400 0.68800 30.10000
H  39.73000 0.57000 31.37900
H  40.47100 2.15600 30.98100
H  41.97600 1.03400 26.58500
H  41.46900 0.13400 27.91300
H  41.85200 1.86200 28.22500
H  35.00400 0.79400 24.98800
H  33.34900 3.25200 24.86600
H  35.89600 1.59900 23.34000
H  36.55500 3.07000 24.12100
H  34.97900 3.09200 23.32500
H  32.61200 1.19100 23.56500
H  31.49500 1.54600 24.90900
H  31.65900 -0.50200 25.76600
H  33.37000 -0.18000 26.07600
H  32.87300 -0.90100 24.57100
H  28.62900 3.30600 28.78200
H  29.48200 4.12400 27.51900
H  28.82600 5.03900 28.90600
H  31.20300 3.37100 33.63400
H  32.86500 6.26000 36.09500
H  31.38500 6.12200 36.97900
H  31.58700 7.41900 35.77500
Mg -11.40000 38.31700 41.58500
C  -9.00600 35.75900 41.08300
C  -9.51400 40.41700 39.70100
C  -14.08500 40.32900 41.41100
C  -13.56500 35.72000 42.92900
N  -9.53900 38.06400 40.42800
C  -8.74400 36.93000 40.47900
C  -7.44700 37.22100 39.71500
C  -7.59300 38.74400 39.26900
C  -8.97100 39.11700 39.79400
C  -6.42900 39.74500 39.57800
C  -7.01900 36.21300 38.60600
C  -5.71700 35.48200 38.80600
H  -4.62600 35.60300 37.68300
N  -11.68900 40.23300 40.87400
C  -10.83500 40.92500 40.01300
C  -11.42600 42.12900 39.59300
C  -12.67000 42.20800 40.25500
C  -12.88500 40.90600 40.93400
C  -10.63600 43.05900 38.70400
C  -13.59000 43.44600 40.12800
O  -13.10700 44.48700 39.64900
C  -15.00300 43.45200 40.63200
N  -13.53400 38.05200 42.14900
C  -14.37100 39.06100 42.01300
C  -15.79700 38.69500 42.36100
C  -15.63900 37.25200 42.91100
C  -14.14900 36.97400 42.69400
C  -16.58500 39.66700 43.27300
C  -16.50500 36.33500 41.96200
C  -18.07300 36.66600 41.84700
N  -11.25900 36.23300 42.13100
C  -12.18600 35.36600 42.73700
C  -11.54500 34.10100 43.00500
C  -10.29400 34.19500 42.40900
C  -10.18100 35.49700 41.81900
C  -12.22100 32.98200 43.63500
C  -9.10800 33.57000 42.20500
O  -8.81800 32.44800 42.59800
C  -8.12600 34.57600 41.45500
C  -6.88400 34.81000 42.27600
O  -5.91800 34.08200 42.32400
O  -6.87200 36.07000 42.92300
C  -5.71800 36.44400 43.62900
H  -8.79200 41.07200 39.21000
H  -14.99800 40.92300 41.32400
H  -14.21000 34.97000 43.39200
H  -6.68000 37.17000 40.48800
H  -7.75900 38.64100 38.19600
H  -5.48100 39.25300 39.79500
H  -6.56000 40.54200 40.31100
H  -6.15000 40.28400 38.67200
H  -6.96500 36.63500 37.60200
H  -7.80400 35.45700 38.55900
H  -6.03300 34.44400 38.90500
H  -5.19900 35.80500 39.70900
H  -11.08200 43.96900 38.30500
H  -10.33700 42.43600 37.86100
H  -9.83500 43.34700 39.38600
H  -14.94800 43.17800 41.68500
H  -15.63700 42.90800 39.93200
H  -15.33200 44.48800 40.54200
H  -16.25300 38.70000 41.37100
H  -15.99500 37.12200 43.93300
H  -17.12700 39.02200 43.96400
H  -17.30100 40.25000 42.69300
H  -15.84800 40.32600 43.73300
H  -16.35300 35.30800 42.29500
H  -16.14100 36.46300 40.94300
H  -18.30500 37.53900 42.45700
H  -18.71600 35.85700 42.19200
H  -18.37200 36.99300 40.85200
H  -12.59700 33.24100 44.62500
H  -11.61700 32.07500 43.60700
H  -13.07300 32.74000 42.99900
H  -7.84600 34.00100 40.57200
H  -5.61600 37.52800 43.66100
H  -4.80400 36.06900 43.16900
H  -5.82200 36.14200 44.67200

