158

Mg 25.48100 0.60100 28.97000
C  27.29000 0.29600 32.08300
C  22.65800 0.67000 30.79400
C  23.94700 0.70000 26.04600
C  28.62600 -0.18600 27.40400
N  25.04300 0.34800 31.19200
C  25.93200 0.39200 32.24500
C  25.14700 0.43700 33.55400
C  23.66600 0.50200 33.04600
C  23.76300 0.43400 31.55200
C  22.66500 -0.55600 33.63700
C  25.53900 1.60800 34.50700
C  25.41300 1.29900 36.02300
H  26.48000 2.02400 36.92700
N  23.61000 0.79200 28.49100
C  22.56800 0.75900 29.38400
C  21.34000 0.86900 28.59300
C  21.67800 1.06200 27.23600
C  23.13100 0.88500 27.19700
C  20.00900 0.79600 29.19400
C  20.74800 1.35100 26.03600
O  21.13200 1.23700 24.84900
C  19.38700 1.94300 26.30500
N  26.19900 0.28000 27.01900
C  25.34200 0.39700 25.95200
C  26.13400 0.39700 24.61300
C  27.61800 0.16000 25.07100
C  27.48200 -0.02800 26.61300
C  25.53100 -0.45400 23.50500
C  28.70600 1.17700 24.55100
C  28.80100 2.39900 25.44900
N  27.58800 0.15300 29.56400
C  28.70200 -0.17400 28.81300
C  29.79100 -0.35300 29.65000
C  29.30600 -0.10100 30.89800
C  27.92000 0.11800 30.81400
C  31.23200 -0.67400 29.17700
C  29.71300 0.01200 32.26200
O  30.83700 -0.06300 32.81200
C  28.42800 0.25800 33.06000
C  28.26300 -0.88000 33.98800
O  27.83000 -1.97700 33.74100
O  28.80800 -0.51300 35.22100
C  28.59800 -1.28500 36.41100
H  21.69500 0.82500 31.28500
H  23.45600 0.94200 25.10200
H  29.58100 -0.19500 26.87400
H  25.40700 -0.47200 34.09700
H  23.28500 1.47100 33.36700
H  23.01100 -0.73900 34.65500
H  22.58500 -1.48900 33.08000
H  21.70000 -0.07900 33.80400
H  24.81000 2.41100 34.39800
H  26.48500 2.03500 34.17500
H  25.57200 0.22400 36.11700
H  24.40800 1.54300 36.36800
H  19.74300 1.80600 29.50700
H  20.06100 0.11000 30.03900
H  19.30800 0.39100 28.46400
H  18.69500 1.13900 26.55400
H  18.95100 2.38800 25.41000
H  19.40000 2.81900 26.95300
H  25.99900 1.43900 24.32400
H  27.92500 -0.84800 24.79000
H  24.45400 -0.59100 23.60300
H  26.05800 -1.39900 23.37700
H  25.65500 0.05500 22.55000
H  28.33700 1.66700 23.65000
H  29.71900 0.81400 24.38100
H  28.07500 2.37200 26.26100
H  28.62100 3.29100 24.84900
H  29.74900 2.58000 25.95600
H  31.31000 -0.59000 28.09300
H  31.48200 -1.68700 29.49500
H  31.91400 0.07900 29.57000
H  28.46800 1.20000 33.60800
H  29.58500 -1.53000 36.80200
H  28.22000 -2.28200 36.18800
H  27.98800 -0.82200 37.18700
Mg 29.40000 58.69800 40.20800
C  26.56900 57.21100 39.02600
C  31.29800 56.31800 38.89200
C  32.08500 60.76700 40.69400
C  27.36000 61.48900 41.32800
N  28.89500 56.96000 39.09900
C  27.69600 56.51000 38.67200
C  27.85100 55.24000 37.80600
C  29.37700 54.86600 38.06300
C  29.90400 56.09400 38.78900
C  29.64100 53.53800 38.87200
C  27.47700 55.47000 36.31500
C  26.54000 54.41100 35.63400
H  25.59400 55.00200 34.49500
N  31.42000 58.61000 39.80000
C  32.03400 57.50400 39.31000
C  33.48400 57.64100 39.21500
C  33.73300 58.90400 39.81500
C  32.36100 59.51900 40.13900
C  34.46100 56.62500 38.77700
C  35.06900 59.56200 39.91100
O  36.08600 58.96000 39.50000
C  35.24900 60.93200 40.47500
N  29.66300 60.90600 40.72000
C  30.91700 61.37100 41.01100
C  30.82600 62.77700 41.62700
C  29.29400 62.87400 42.11700
C  28.71600 61.71500 41.27400
C  31.80700 63.03000 42.77300
C  28.71500 64.32000 41.95000
C  27.75900 64.73300 43.11000
N  27.43900 59.25500 40.28900
C  26.76500 60.34700 40.79700
C  25.30800 60.17300 40.62900
C  25.22300 58.95400 39.96000
C  26.51400 58.37900 39.78600
C  24.18600 61.12500 40.95400
C  24.23100 58.03400 39.39400
O  23.01300 58.02600 39.39300
C  25.06700 56.85000 38.75300
C  24.60000 55.65400 39.47500
O  24.67700 55.45900 40.68100
O  24.19000 54.69400 38.61600
C  23.99300 53.32900 39.12400
H  31.93400 55.53700 38.47000
H  32.92400 61.43200 40.91200
H  26.65000 62.14500 41.83600
H  27.22300 54.43700 38.19400
H  29.99400 54.71100 37.17800
H  30.35800 53.72700 39.67100
H  30.09600 52.83300 38.17700
H  28.70700 53.15200 39.28200
H  28.40000 55.66400 35.76800
H  26.94900 56.42300 36.26400
H  25.98300 53.81100 36.35400
H  27.18200 53.74200 35.06300
H  34.07000 55.66400 39.11300
H  35.38900 56.72200 39.34000
H  34.60100 56.60600 37.69600
H  36.31600 61.14900 40.52100
H  34.86300 61.08900 41.48200
H  34.80000 61.64100 39.77900
H  30.99700 63.54800 40.87500
H  29.18700 62.51400 43.14000
H  32.37300 63.90300 42.44800
H  32.40400 62.14200 42.97700
H  31.21700 63.36500 43.62600
H  28.15200 64.36700 41.01800
H  29.45800 65.11400 41.88700
H  26.72800 64.64800 42.76700
H  27.92100 65.73500 43.50700
H  27.85000 64.11100 44.00100
H  23.31300 60.47300 40.93800
H  24.05200 61.95200 40.25800
H  24.29900 61.52300 41.96200
H  24.89600 56.82000 37.67600
H  23.00800 53.05800 39.50400
H  24.74600 53.19000 39.90100
H  24.13500 52.68300 38.25800

