158

Mg 41.21300 6.57800 28.82300
C  42.77900 7.81700 31.66000
C  38.72300 5.30500 31.03100
C  39.64800 5.17300 26.22500
C  43.87600 7.62000 26.93800
N  40.68700 6.78600 31.12300
C  41.49400 7.30300 32.00800
C  40.97800 7.15400 33.41700
C  39.67700 6.31600 33.21300
C  39.65100 6.16200 31.71900
C  39.77200 4.97900 34.01900
C  40.86800 8.51000 34.15800
C  39.85000 8.55800 35.33200
H  40.22100 9.50200 36.45800
N  39.38000 5.56900 28.65700
C  38.53400 5.08800 29.64300
C  37.39600 4.43900 28.99500
C  37.51400 4.55900 27.64000
C  38.87000 5.17700 27.43400
C  36.27000 3.72400 29.77300
C  36.60900 4.15900 26.44000
O  36.88500 4.35700 25.26700
C  35.39700 3.45300 26.73600
N  41.75000 6.37100 26.86500
C  40.92500 5.65100 25.96800
C  41.45600 5.81200 24.55300
C  42.74000 6.71200 24.76200
C  42.87700 6.89800 26.27200
C  41.57600 4.46500 23.85000
C  42.78000 7.96600 23.87200
C  41.82500 9.15800 24.23300
N  42.93600 7.52500 29.14400
C  43.96100 7.91000 28.31900
C  44.98300 8.53500 29.08100
C  44.53000 8.53200 30.41700
C  43.32600 7.80400 30.43800
C  46.29100 9.07200 28.63700
C  44.93900 9.06300 31.71400
O  45.93100 9.58900 32.15300
C  43.72800 8.62400 32.54200
C  44.20500 7.82600 33.73100
O  44.49500 6.64600 33.69700
O  44.37400 8.63800 34.88000
C  44.75100 7.96500 36.12400
H  38.02000 4.80400 31.69900
H  39.17100 4.63800 25.40100
H  44.73900 7.97800 26.37400
H  41.85800 6.58900 33.72400
H  38.73900 6.84500 33.38700
H  39.15400 5.03300 34.91500
H  40.79900 4.81800 34.34600
H  39.42100 4.15000 33.40400
H  40.61200 9.29100 33.44200
H  41.84500 8.85100 34.50100
H  39.66600 7.54000 35.67700
H  38.86800 8.88600 34.99200
H  36.52300 3.58200 30.82300
H  36.24800 2.73200 29.32200
H  35.27600 4.17200 29.78800
H  34.69200 3.98300 27.37700
H  35.73100 2.54000 27.22800
H  34.85200 3.14900 25.84300
H  40.69200 6.39100 24.03400
H  43.61300 6.09100 24.56000
H  41.23200 3.55000 24.33200
H  42.63400 4.29000 23.65200
H  41.05800 4.46000 22.89100
H  42.41600 7.61100 22.90700
H  43.79900 8.35200 23.86200
H  41.17800 8.77200 25.02100
H  41.36500 9.43000 23.28300
H  42.39200 10.02800 24.56400
H  47.01000 8.90900 29.43900
H  46.19600 10.07000 28.20800
H  46.63700 8.45900 27.80400
H  43.42700 9.61100 32.89600
H  44.75500 6.87900 36.21800
H  44.06200 8.20600 36.93400
H  45.79800 8.18100 36.33400
Mg -1.46100 34.87200 26.53800
C  -2.89200 33.10400 29.16700
C  -0.38200 37.21300 28.76800
C  -0.48400 36.86600 24.01100
C  -2.97500 32.75800 24.21700
N  -1.69500 35.13600 28.70000
C  -2.11900 34.22100 29.61400
C  -1.81400 34.65300 31.07400
C  -0.96500 35.95700 30.90500
C  -1.10800 36.15000 29.35400
C  -1.34900 37.09400 31.85300
C  -1.06400 33.51400 31.87300
C  -1.78000 33.25900 33.20000
H  -0.97200 33.29700 34.56600
N  -0.51100 36.78100 26.42400
C  -0.10500 37.55400 27.47100
C  0.64500 38.74600 26.95600
C  0.61700 38.62900 25.52000
C  -0.11800 37.39800 25.27200
C  1.22000 39.82700 27.80400
C  1.17100 39.53400 24.43900
O  1.09800 39.31800 23.27300
C  1.87200 40.78800 24.79200
N  -1.81100 34.89300 24.45100
C  -1.22400 35.75000 23.63900
C  -1.39800 35.41500 22.14500
C  -2.01800 34.01700 22.26800
C  -2.30400 33.82700 23.73200
C  -2.16000 36.36200 21.25100
C  -1.10600 32.96500 21.62700
C  0.23000 32.62800 22.31600
N  -2.63900 33.20000 26.61400
C  -3.24400 32.46300 25.54600
C  -4.05100 31.41200 26.09800
C  -3.97300 31.68000 27.48000
C  -3.14700 32.78500 27.79400
C  -4.83000 30.36200 25.42000
C  -4.36100 31.17200 28.81300
O  -5.21400 30.36800 29.21000
C  -3.53100 31.97200 29.88600
C  -4.42800 32.42400 31.03100
O  -5.01400 33.46600 31.02800
O  -4.40900 31.48500 32.02800
C  -5.36500 31.73700 33.06400
H  -0.11700 38.01400 29.46100
H  -0.20100 37.46100 23.14000
H  -3.41400 31.99200 23.57500
H  -2.77700 34.93500 31.49900
H  0.10100 35.75400 31.01100
H  -1.96000 36.67700 32.65400
H  -1.90100 37.75300 31.18200
H  -0.46300 37.63200 32.18900
H  -0.07200 33.91500 32.08300
H  -1.03400 32.65600 31.20200
H  -1.93300 32.18100 33.26000
H  -2.76600 33.71500 33.28800
H  1.56500 39.32100 28.70600
H  0.53700 40.64100 28.04800
H  2.09500 40.20800 27.27800
H  1.99700 41.37800 23.88400
H  2.88600 40.52800 25.09600
H  1.30800 41.40100 25.49500
H  -0.41300 35.33600 21.68400
H  -2.94100 33.84400 21.71400
H  -1.43500 37.03700 20.79700
H  -2.97200 36.89000 21.75200
H  -2.58700 35.91800 20.35200
H  -0.88200 33.30000 20.61400
H  -1.68300 32.04000 21.64600
H  0.12900 31.64700 22.78100
H  0.31000 33.32400 23.15100
H  1.15300 32.71100 21.74300
H  -5.07300 29.50200 26.04400
H  -4.24000 30.08500 24.54600
H  -5.78600 30.80500 25.14000
H  -2.77500 31.36200 30.38100
H  -5.04300 32.44600 33.82600
H  -5.40400 30.76900 33.56300
H  -6.33200 32.05900 32.67800

