158

Mg -1.42200 17.17100 26.59800
C  -1.82400 15.11800 29.44600
C  -1.99600 19.87900 28.54700
C  -1.78900 18.83300 23.74600
C  -1.46300 14.17200 24.66100
N  -1.69300 17.38900 28.74100
C  -1.67900 16.46200 29.71700
C  -1.69500 17.14600 31.07700
C  -2.09500 18.61900 30.75200
C  -1.94800 18.64600 29.26100
C  -3.59900 18.99500 31.12900
C  -0.25500 16.98900 31.61600
C  0.06700 17.81500 32.91100
H  -0.05900 17.15600 34.30800
N  -1.65000 19.15600 26.20500
C  -1.85700 20.13400 27.17200
C  -2.01800 21.43500 26.42900
C  -2.21700 21.09500 25.05400
C  -1.87600 19.61600 24.94000
C  -2.19500 22.73300 27.21700
C  -2.58100 21.91400 23.95300
O  -2.62100 21.53600 22.77800
C  -3.00600 23.24200 24.23100
N  -1.37400 16.65600 24.51000
C  -1.50000 17.51100 23.54200
C  -1.48400 16.93100 22.07100
C  -1.33000 15.39700 22.42300
C  -1.40600 15.38200 23.94700
C  -2.68100 17.33500 21.12300
C  -0.08700 14.71800 21.87100
C  0.39200 15.09700 20.40100
N  -1.52600 15.08600 26.92800
C  -1.51800 14.02500 26.07900
C  -1.68800 12.73100 26.83700
C  -1.84100 13.18600 28.16300
C  -1.70900 14.63000 28.13600
C  -1.70000 11.41200 26.23700
C  -2.10700 12.69300 29.48300
O  -2.35900 11.55100 29.89800
C  -2.12200 13.93200 30.41900
C  -1.12500 13.67000 31.43000
O  0.05300 13.51400 31.19000
O  -1.72400 13.51100 32.65700
C  -0.86500 12.95000 33.68500
H  -2.15600 20.78500 29.13400
H  -1.86700 19.29200 22.75800
H  -1.42400 13.23800 24.09600
H  -2.42000 16.74000 31.78200
H  -1.33800 19.33900 31.06200
H  -3.97500 18.28000 31.86100
H  -4.24900 19.19900 30.27800
H  -3.45200 19.92400 31.67900
H  0.48200 17.09100 30.81900
H  -0.29500 15.92600 31.85100
H  -0.73200 18.55300 32.97800
H  1.01500 18.35100 32.86400
H  -3.26500 22.92500 27.30500
H  -1.90400 23.64100 26.69000
H  -1.90200 22.74400 28.26700
H  -3.29800 23.81500 23.35100
H  -2.16000 23.82500 24.59200
H  -3.83300 23.20200 24.94100
H  -0.56000 17.21200 21.56600
H  -2.18900 14.90700 21.96500
H  -3.28500 16.47400 20.83700
H  -2.32300 17.84800 20.23000
H  -3.27000 18.16800 21.50700
H  -0.31300 13.65500 21.78700
H  0.79000 14.82300 22.51000
H  1.26300 15.74700 20.48300
H  -0.42100 15.52600 19.81500
H  0.60700 14.13500 19.93700
H  -0.98100 10.94600 26.91000
H  -1.33600 11.41300 25.21000
H  -2.72300 11.04600 26.32300
H  -3.07900 14.01900 30.93300
H  -0.70400 13.75400 34.40400
H  0.08100 12.52000 33.35500
H  -1.20500 12.09200 34.26500
Mg 6.79800 53.95500 41.65700
C  6.18200 50.51000 41.55500
C  10.04300 53.38200 40.49300
C  6.93300 57.18100 40.81700
C  3.32000 54.30600 42.31700
N  7.82700 52.12700 40.90900
C  7.49000 50.84300 41.10600
C  8.69200 49.89600 40.96600
C  9.81800 50.92400 41.14600
C  9.19800 52.21900 40.75600
C  10.65400 51.00300 42.49300
C  8.74100 48.95800 39.63800
C  8.78800 49.79700 38.35600
H  7.76200 49.40800 37.27200
N  8.23600 55.13800 40.73500
C  9.54800 54.67700 40.36900
C  10.26000 55.80200 39.91600
C  9.33600 56.88200 39.76600
C  8.08700 56.43400 40.42100
C  11.66400 55.75200 39.29700
C  9.62100 58.17300 39.07600
O  10.73900 58.35900 38.62000
C  8.42500 59.20300 38.82200
N  5.34600 55.43500 41.59100
C  5.77100 56.71200 41.35300
C  4.58100 57.78400 41.65600
C  3.37200 56.79600 41.64200
C  4.04100 55.47900 41.87400
C  4.83000 58.49400 43.03300
C  2.35100 56.72200 40.48700
C  0.91200 56.38000 40.85100
N  5.12800 52.75200 42.09100
C  3.80900 53.01800 42.46000
C  3.04600 51.78200 42.76500
C  3.98300 50.78500 42.34600
C  5.18900 51.42000 41.90100
C  1.67100 51.63000 43.21200
C  4.12500 49.37500 42.25500
O  3.28500 48.52600 42.57500
C  5.58700 49.06400 41.73800
C  5.39200 48.39400 40.49200
O  4.85600 48.92300 39.48800
O  5.75300 47.14500 40.59500
C  5.51900 46.20700 39.41500
H  11.12900 53.26800 40.48300
H  6.90600 58.27200 40.77700
H  2.25900 54.43900 42.53700
H  8.62600 49.14900 41.75700
H  10.55200 50.65300 40.38700
H  10.71200 52.01300 42.89800
H  11.66700 50.61300 42.39100
H  10.24200 50.37300 43.28100
H  7.93700 48.22300 39.65500
H  9.67200 48.39400 39.69400
H  9.76600 49.79500 37.87400
H  8.74000 50.86100 38.59000
H  11.61300 55.98600 38.23400
H  12.16000 54.79000 39.41900
H  12.23100 56.58900 39.70400
H  7.61200 58.55700 38.48900
H  8.70400 59.83100 37.97600
H  8.25000 59.74300 39.75300
H  4.45000 58.56500 40.90600
H  2.81000 56.94500 42.56400
H  3.88000 58.50200 43.56700
H  5.15000 59.53500 42.97400
H  5.45900 57.97700 43.75800
H  2.57300 55.86700 39.84700
H  2.45300 57.63000 39.89300
H  0.90500 56.01600 41.87900
H  0.60400 55.53000 40.24200
H  0.30400 57.23500 40.55600
H  1.58600 50.66200 43.70600
H  1.14800 51.55900 42.25800
H  1.56400 52.51200 43.84200
H  6.24000 48.40000 42.30400
H  6.48000 45.74500 39.19100
H  5.25200 46.63300 38.44800
H  4.69200 45.52800 39.62400

