158

Mg 1.98800 -0.90600 44.69500
C  5.22800 0.13100 43.79700
C  0.75700 1.83900 43.11800
C  -1.01600 -2.04700 45.40000
C  3.48400 -4.07600 45.66600
N  2.90600 0.67400 43.36500
C  4.25400 0.95700 43.27900
C  4.44700 2.19900 42.34800
C  3.00300 2.86700 42.36300
C  2.15100 1.70200 42.95700
C  2.92000 4.10300 43.25700
C  4.84200 1.71300 40.94100
C  6.12500 2.32800 40.32300
H  6.10400 2.84100 38.83500
N  0.07400 -0.16800 44.34600
C  -0.20300 0.96000 43.68600
C  -1.60800 1.12200 43.64800
C  -2.19800 0.00200 44.29700
C  -1.07200 -0.77000 44.74000
C  -2.33200 2.19900 42.78400
C  -3.67200 -0.32900 44.24800
O  -4.51000 0.36300 43.66600
C  -4.14400 -1.63200 44.94100
N  1.33500 -2.75500 45.38300
C  -0.00800 -2.92300 45.69500
C  -0.29100 -4.31800 46.23100
C  1.10200 -5.02100 46.25300
C  2.09500 -3.92000 45.76400
C  -1.23700 -4.37900 47.45000
C  1.19800 -6.38300 45.37300
C  1.75300 -6.29800 43.93000
N  3.97100 -1.84500 44.74600
C  4.39800 -3.10500 45.18800
C  5.82600 -3.15200 45.04900
C  6.21300 -1.85300 44.55800
C  5.02900 -1.15600 44.32300
C  6.70900 -4.26500 45.37600
C  7.37300 -1.05700 44.23100
O  8.52700 -1.33400 44.17700
C  6.75200 0.26600 43.71400
C  7.16300 1.38100 44.56000
O  6.62900 1.75600 45.60800
O  8.38400 1.94300 43.98200
C  8.89500 3.16900 44.66000
H  0.41500 2.78400 42.69200
H  -1.92200 -2.51900 45.78700
H  3.78000 -5.05000 46.06300
H  5.24700 2.81200 42.76200
H  2.65700 3.20300 41.38500
H  2.93100 4.92000 42.53600
H  3.88000 4.13700 43.77100
H  2.02900 3.96800 43.86900
H  4.04800 1.77700 40.19800
H  5.12200 0.67100 41.10200
H  6.95100 1.62700 40.44000
H  6.17900 3.20200 40.97100
H  -2.93100 1.70100 42.02200
H  -1.59200 2.89100 42.38100
H  -3.13100 2.76000 43.26800
H  -5.18600 -1.76600 44.65200
H  -4.00600 -1.50400 46.01400
H  -3.66100 -2.52300 44.53900
H  -0.81900 -4.74400 45.37800
H  1.34300 -5.30900 47.27600
H  -2.28600 -4.37000 47.15500
H  -0.91000 -3.59100 48.12800
H  -1.05600 -5.37000 47.86600
H  0.20400 -6.82900 45.37600
H  1.81600 -7.09200 45.92300
H  1.14000 -6.91100 43.26900
H  2.82000 -6.50300 43.84200
H  1.61600 -5.30100 43.51100
H  7.71900 -3.93200 45.13900
H  6.54900 -5.18000 44.80600
H  6.60900 -4.56800 46.41800
H  7.20000 0.36300 42.72500
H  8.20500 3.99700 44.49600
H  9.73000 3.51600 44.05200
H  9.26200 3.02500 45.67600
Mg 48.11800 34.96600 27.86000
C  46.08400 33.25500 30.28700
C  48.43800 37.42100 30.07200
C  49.37200 36.70300 25.42900
C  47.42400 32.18800 25.67700
N  47.44000 35.23800 29.90800
C  46.73600 34.35600 30.76000
C  46.73100 34.87000 32.19400
C  47.10300 36.34500 31.96100
C  47.73800 36.33500 30.58600
C  45.87900 37.40000 32.04600
C  47.71300 34.10300 33.21300
C  47.69600 34.45100 34.66400
H  47.01500 35.64600 35.16200
N  48.88400 36.86400 27.81300
C  49.04600 37.74100 28.83600
C  49.58700 38.89400 28.31400
C  49.78200 38.78000 26.95100
C  49.30400 37.40900 26.62600
C  49.76100 40.17100 29.23000
C  50.32900 39.80200 25.94300
O  50.45800 39.55300 24.73500
C  50.99900 41.07800 26.38900
N  48.28900 34.53000 25.85800
C  48.97200 35.44500 25.07200
C  49.11400 34.93700 23.60400
C  48.52000 33.42800 23.66100
C  48.09300 33.33600 25.16900
C  48.46600 35.83700 22.50600
C  49.54600 32.24000 23.39300
C  49.06300 31.02000 22.60400
N  47.01500 33.04800 27.86200
C  46.81700 32.03900 26.91900
C  46.03500 30.95100 27.51000
C  45.69800 31.43600 28.79600
C  46.37400 32.71600 29.00000
C  45.68700 29.57500 26.92300
C  44.89400 31.08200 29.95000
O  44.31600 30.04100 30.24100
C  44.99400 32.37600 30.86000
C  45.22200 31.84000 32.16600
O  46.20300 31.20900 32.50700
O  44.18500 32.12400 32.99800
C  44.42900 31.83600 34.40100
H  48.56900 38.24300 30.77800
H  49.77200 37.21600 24.55200
H  47.29500 31.29200 25.06600
H  45.72200 34.79300 32.59900
H  47.85100 36.63700 32.69800
H  45.91300 38.12700 31.23500
H  45.92500 38.01300 32.94700
H  44.90900 36.90600 32.09900
H  48.73900 34.25300 32.87700
H  47.40100 33.07500 33.03100
H  48.73200 34.61900 34.95700
H  47.30700 33.66300 35.30800
H  50.78400 40.53300 29.33300
H  49.37800 39.99700 30.23600
H  49.09800 40.88800 28.74400
H  51.19600 41.25000 27.44800
H  50.46500 41.86400 25.85500
H  52.00900 41.00100 25.98600
H  50.16500 34.93200 23.31400
H  47.63000 33.35200 23.03600
H  48.02000 36.73000 22.94500
H  47.77500 35.32200 21.83800
H  49.25600 36.24100 21.87300
H  49.84700 31.97100 24.40600
H  50.34600 32.78600 22.89300
H  49.70900 30.91700 21.73200
H  48.03300 31.24800 22.32700
H  49.05000 30.05800 23.11600
H  45.56600 28.95100 27.80900
H  46.56700 29.27200 26.35500
H  44.83600 29.60200 26.24300
H  44.01800 32.85800 30.91900
H  44.42400 30.76600 34.60600
H  43.62800 32.24700 35.01600
H  45.33400 32.33900 34.74100

