158

Mg 6.83100 54.14000 39.87500
C  6.30500 50.53200 39.61200
C  10.10700 53.49300 39.24700
C  7.10900 57.24600 39.56000
C  3.28600 54.43600 39.95100
N  8.07500 52.21600 39.24200
C  7.66700 50.92900 39.38400
C  8.85900 49.99100 39.23800
C  9.97700 50.94800 39.56000
C  9.38800 52.37600 39.31600
C  10.59400 50.77000 40.97800
C  9.07400 49.27100 37.93300
C  8.78300 50.05300 36.62400
H  7.63500 49.59500 35.66700
N  8.38300 55.24800 39.41200
C  9.70200 54.83300 39.19500
C  10.56000 55.93800 39.15700
C  9.73100 57.15000 39.17300
C  8.36800 56.60100 39.41900
C  12.01900 55.86700 38.66500
C  10.15400 58.65300 38.99000
O  11.37700 58.90100 39.00700
C  9.18500 59.79400 38.91800
N  5.33200 55.58500 39.52700
C  5.78300 56.86500 39.61800
C  4.60300 57.88900 39.67500
C  3.34100 56.97200 39.72800
C  3.99200 55.56400 39.68800
C  4.71700 58.79100 40.93100
C  2.21200 57.22900 38.65900
C  0.96900 57.85200 39.16000
N  5.11600 52.81100 39.78700
C  3.76000 53.09200 39.97000
C  3.00900 51.84500 40.31500
C  4.01700 50.82500 40.20400
C  5.26800 51.48300 39.80800
C  1.59800 51.66700 40.75100
C  4.21200 49.41500 40.33400
O  3.42300 48.53400 40.68300
C  5.75500 49.14900 39.90700
C  5.72300 48.11100 38.86900
O  5.68400 48.31500 37.68500
O  5.68700 46.85700 39.38600
C  5.82900 45.71400 38.53700
H  11.17800 53.27600 39.25200
H  7.09600 58.31500 39.34000
H  2.22400 54.51300 40.19300
H  8.73900 49.25100 40.03000
H  10.80100 50.92800 38.84700
H  10.01300 50.24200 41.73400
H  10.74400 51.77400 41.37400
H  11.55500 50.27300 40.84000
H  8.48600 48.35700 37.84600
H  10.02900 48.74700 37.96900
H  9.70600 50.09800 36.04700
H  8.58600 51.07100 36.96100
H  12.51600 54.95800 39.00500
H  12.61600 56.64100 39.14900
H  12.11100 55.93800 37.58200
H  8.50500 59.78800 39.76900
H  8.60200 59.73800 37.99900
H  9.90700 60.60500 38.81900
H  4.81500 58.48600 38.78800
H  2.93500 56.94300 40.73900
H  4.70600 59.75400 40.42000
H  5.62000 58.51100 41.47300
H  3.80700 58.67500 41.51900
H  1.91700 56.29000 38.19100
H  2.66300 57.85200 37.88600
H  0.21100 57.24800 38.66200
H  0.92500 58.84200 38.70600
H  0.89400 57.82900 40.24700
H  0.98100 51.53300 39.86300
H  1.20400 52.57500 41.20800
H  1.33800 50.78700 41.34000
H  6.27200 48.78600 40.79500
H  6.62500 45.07100 38.91300
H  6.23600 45.77700 37.52800
H  4.84100 45.25300 38.54500
Mg -11.91800 16.52700 42.58700
C  -8.58300 15.26400 42.06100
C  -10.94800 19.34900 40.89600
C  -15.05300 17.56100 42.90500
C  -12.70600 13.44800 43.89100
N  -9.99200 17.19500 41.48500
C  -8.75500 16.55100 41.42800
C  -7.76800 17.44800 40.56900
C  -8.67300 18.68700 40.20800
C  -9.91500 18.42900 41.03700
C  -7.96400 20.07600 40.33100
C  -7.25000 16.63300 39.33300
C  -5.74200 16.47700 39.20100
H  -5.08500 17.10000 37.96900
N  -12.91900 18.21100 41.87500
C  -12.36200 19.30300 41.29000
C  -13.31900 20.33700 41.15000
C  -14.47700 19.94000 41.83300
C  -14.24100 18.51900 42.15000
C  -12.99300 21.67100 40.51000
C  -15.73600 20.77000 42.02600
O  -15.86400 21.92400 41.54700
C  -16.88200 20.24400 42.75300
N  -13.68800 15.53400 43.02200
C  -14.80400 16.26800 43.31100
C  -15.77200 15.44400 44.14900
C  -15.01100 14.09400 44.42100
C  -13.68600 14.34300 43.69500
C  -16.36100 16.12300 45.41600
C  -15.76600 12.74300 43.89000
C  -15.61200 11.56800 44.87500
N  -10.88000 14.76800 43.05800
C  -11.33600 13.57400 43.60500
C  -10.25600 12.67500 43.93100
C  -9.10100 13.27200 43.28900
C  -9.58800 14.52400 42.74900
C  -10.40300 11.35600 44.56000
C  -7.65400 13.15700 42.92500
O  -6.82800 12.26700 43.17400
C  -7.25600 14.43600 42.11700
C  -6.18400 15.07000 42.89100
O  -6.31300 15.40800 44.02000
O  -4.94600 14.96800 42.27800
C  -3.67600 15.17200 43.02400
H  -10.77700 20.34900 40.49200
H  -16.09400 17.87800 42.99500
H  -13.07700 12.51000 44.30900
H  -6.96400 17.77000 41.23200
H  -8.90800 18.49900 39.16100
H  -8.24300 20.56300 41.26500
H  -8.23800 20.68600 39.47100
H  -6.88500 19.92000 40.31500
H  -7.72200 16.89500 38.38600
H  -7.58100 15.60400 39.46800
H  -5.44800 15.42800 39.18400
H  -5.31100 16.95100 40.08300
H  -13.82500 22.37300 40.56000
H  -12.80600 21.63000 39.43700
H  -12.13000 22.18500 40.93100
H  -17.64200 20.99500 42.97200
H  -16.61300 19.89100 43.74800
H  -17.32800 19.44000 42.16700
H  -16.56500 15.16500 43.45500
H  -14.86000 14.05700 45.49900
H  -16.13200 17.18200 45.29800
H  -16.03400 15.64900 46.34200
H  -17.44600 16.07600 45.50400
H  -15.21400 12.45400 42.99500
H  -16.81600 12.91800 43.65900
H  -16.53400 11.05600 45.15200
H  -15.27700 11.94200 45.84200
H  -15.01800 10.69300 44.61100
H  -10.36600 11.61100 45.61900
H  -9.61000 10.63500 44.36400
H  -11.36800 10.91400 44.31200
H  -6.97400 14.15600 41.10200
H  -2.90600 14.41300 42.88500
H  -3.93000 14.99400 44.06900
H  -3.23600 16.16800 42.97200

