158

Mg 17.22800 -2.02800 27.23000
C  16.28000 0.01500 29.85900
C  19.22400 -3.77700 29.47200
C  18.69300 -3.48700 24.65200
C  15.26600 -0.13800 25.10400
N  17.82400 -1.74700 29.35500
C  17.21500 -0.92500 30.28600
C  17.66500 -1.19900 31.76500
C  18.76700 -2.24400 31.49700
C  18.65300 -2.62900 30.05000
C  20.29900 -1.80200 31.71800
C  16.49900 -1.75200 32.64600
C  16.50700 -1.34200 34.12100
H  17.74300 -0.85600 34.83800
N  18.57500 -3.55300 27.09000
C  19.24000 -4.17700 28.12100
C  19.96400 -5.27500 27.53800
C  19.96700 -5.08700 26.11300
C  19.05000 -3.98300 25.89400
C  20.69300 -6.37400 28.39700
C  20.67600 -5.93500 25.01200
O  20.70500 -5.70200 23.82400
C  21.32900 -7.19900 25.46000
N  17.21000 -1.63300 25.13100
C  17.79400 -2.51400 24.26900
C  17.46400 -2.17500 22.80200
C  16.03100 -1.51300 23.07700
C  16.18500 -0.97900 24.48800
C  18.48100 -1.27500 22.12400
C  14.82300 -2.51600 22.69200
C  14.24800 -3.29600 23.84200
N  16.01300 -0.31600 27.39800
C  15.24700 0.27200 26.42200
C  14.43500 1.27500 27.02800
C  14.76300 1.20900 28.39400
C  15.78100 0.27300 28.56600
C  13.34500 2.06900 26.34500
C  14.50900 1.71400 29.72800
O  13.67200 2.54100 30.11200
C  15.47100 0.97900 30.71300
C  16.35300 1.97500 31.39000
O  17.40400 2.45700 30.93900
O  15.72000 2.33800 32.53600
C  16.36700 3.44000 33.26700
H  19.78900 -4.46800 30.10000
H  19.12600 -3.83000 23.71000
H  14.57200 0.36100 24.42500
H  18.13700 -0.25000 32.02100
H  18.65100 -3.08000 32.18700
H  20.82600 -2.16500 30.83600
H  20.78800 -2.24000 32.58800
H  20.25600 -0.71600 31.79600
H  16.62900 -2.83400 32.63000
H  15.52500 -1.63800 32.17200
H  16.01500 -2.13600 34.68300
H  15.78900 -0.52200 34.14900
H  20.40000 -7.37700 28.08800
H  20.31600 -6.33900 29.42000
H  21.78200 -6.36400 28.35200
H  20.68800 -7.90200 25.99300
H  22.12400 -6.76400 26.06600
H  21.90000 -7.70400 24.68200
H  17.40600 -3.14900 22.31600
H  15.87800 -0.62700 22.46000
H  19.41000 -1.20800 22.69100
H  18.10200 -0.29800 21.82400
H  18.73100 -1.84100 21.22700
H  15.18600 -3.25900 21.98200
H  14.07300 -1.83200 22.29400
H  13.95900 -2.55900 24.59200
H  15.01000 -3.93400 24.28900
H  13.37400 -3.93700 23.72600
H  13.71100 2.66500 25.51000
H  12.74700 2.55500 27.11600
H  12.77000 1.27300 25.87200
H  14.77200 0.48200 31.38500
H  15.68900 3.88700 33.99300
H  16.63600 4.21000 32.54200
H  17.32800 3.19000 33.71500
Mg 35.47800 1.82000 29.32400
C  33.40200 3.02500 31.93600
C  38.18400 1.68100 31.53600
C  37.61400 1.21700 26.78900
C  32.94200 2.42900 27.14400
N  35.71200 2.27400 31.45400
C  34.71800 2.65600 32.32500
C  35.25700 2.51800 33.75700
C  36.80800 2.51600 33.61400
C  36.98000 2.13100 32.06800
C  37.50900 3.78900 34.06400
C  34.61200 1.33700 34.58600
C  33.83300 1.75900 35.82200
H  34.35000 2.94700 36.62800
N  37.62100 1.35600 29.18600
C  38.53800 1.27700 30.23900
C  39.87700 0.92300 29.72900
C  39.68300 0.72700 28.32900
C  38.28500 1.13400 28.02500
C  41.10900 0.63100 30.64000
C  40.61900 0.23000 27.23200
O  40.32700 -0.21200 26.07800
C  42.14400 0.17900 27.56500
N  35.27100 1.68700 27.23900
C  36.32400 1.48200 26.33500
C  35.76500 1.42500 24.90100
C  34.18500 1.56900 25.13500
C  34.12600 1.98900 26.60200
C  36.37200 2.51400 24.02500
C  33.34500 0.20800 24.97500
C  32.45600 0.14500 23.64700
N  33.50300 2.60400 29.42900
C  32.63300 2.73600 28.40600
C  31.36500 3.14400 29.05000
C  31.69600 3.47400 30.38500
C  32.97000 3.00000 30.59800
C  30.09800 3.17300 28.20500
C  31.17500 3.86300 31.65300
O  30.10100 4.34900 31.93000
C  32.19300 3.56300 32.75300
C  32.38700 4.83000 33.47100
O  32.96700 5.75900 33.04200
O  31.57800 4.79600 34.58300
C  31.69400 5.96000 35.44800
H  39.04000 1.45700 32.17600
H  38.28500 1.03600 25.94700
H  32.09700 2.52700 26.45900
H  34.91000 3.38600 34.31800
H  37.29400 1.75600 34.22600
H  37.86900 3.82000 35.09200
H  36.81500 4.62600 33.97500
H  38.37600 4.01200 33.44200
H  35.41900 0.68500 34.92000
H  33.95500 0.76700 33.92900
H  33.65700 0.89900 36.46800
H  32.82200 2.02900 35.51800
H  41.58300 -0.28700 30.29400
H  40.70100 0.43600 31.63200
H  41.87400 1.40700 30.64800
H  42.43700 0.96100 28.26600
H  42.82100 0.23100 26.71200
H  42.37100 -0.76700 28.05700
H  35.97400 0.47200 24.41500
H  33.75300 2.35700 24.51800
H  36.44600 2.21000 22.98100
H  37.32500 2.94000 24.33800
H  35.66100 3.32200 23.85500
H  32.69700 -0.07700 25.80500
H  33.96100 -0.69100 24.95700
H  32.89400 -0.56900 22.94900
H  32.35100 1.06700 23.07500
H  31.45200 -0.21900 23.86700
H  30.11100 2.50100 27.34800
H  29.94400 4.17800 27.81000
H  29.29300 2.85000 28.86600
H  31.68300 2.90400 33.45600
H  30.66900 6.16600 35.75500
H  32.14000 6.85700 35.01700
H  32.35000 5.77300 36.29800

