158

Mg 49.50100 44.16900 42.94200
C  46.06300 44.52200 41.80300
C  49.32400 40.85200 42.10000
C  52.88700 43.99400 42.82400
C  49.60300 47.63000 43.16100
N  47.88100 42.90900 42.00200
C  46.58700 43.24900 41.70500
C  45.89000 42.10800 41.00600
C  46.78000 40.89100 41.38500
C  48.09600 41.55600 41.87900
C  46.14000 39.95700 42.51700
C  45.76900 42.47900 39.50300
C  44.57400 41.94900 38.80000
H  44.78800 41.32000 37.37800
N  50.88300 42.57400 42.68900
C  50.67300 41.29700 42.34400
C  51.84400 40.50600 42.41900
C  52.90500 41.47900 42.69000
C  52.25000 42.78600 42.69000
C  51.99000 38.97600 42.19500
C  54.38600 41.11400 42.82200
O  54.76300 39.95800 42.69300
C  55.49000 42.02800 43.20400
N  51.00600 45.54000 42.99700
C  52.38000 45.27500 43.05300
C  53.27000 46.54500 43.17800
C  52.20200 47.62700 43.35100
C  50.85200 46.91900 43.21900
C  54.36800 46.52000 44.34500
C  52.28500 48.79400 42.26400
C  51.88300 50.19400 42.71600
N  48.13400 45.78100 42.69300
C  48.32600 47.13700 42.87500
C  47.07200 47.83800 42.67000
C  46.18300 46.85400 42.30100
C  46.89400 45.59600 42.29100
C  46.73800 49.29200 42.69600
C  44.83100 46.69700 41.74700
O  43.97800 47.52600 41.45200
C  44.69600 45.17800 41.43500
C  43.50200 44.54100 42.16000
O  42.57400 43.97100 41.52900
O  43.52700 44.83300 43.47100
C  42.24800 44.58000 44.15400
H  49.20500 39.77600 41.95700
H  53.96800 43.99000 42.98000
H  49.65500 48.71700 43.24400
H  44.88800 42.07700 41.43200
H  46.77000 40.23700 40.51300
H  45.69400 39.09900 42.01500
H  45.34000 40.48200 43.03800
H  46.79900 39.49900 43.25500
H  46.55800 42.04700 38.88700
H  45.82200 43.53300 39.23000
H  43.81600 42.72100 38.66700
H  44.19400 41.15100 39.43800
H  52.44500 38.73900 41.23400
H  51.01800 38.48500 42.24000
H  52.60700 38.42400 42.90500
H  56.39600 41.53000 43.55100
H  55.27800 42.51300 44.15700
H  55.71900 42.73900 42.41000
H  53.90300 46.76300 42.31700
H  52.16700 48.18500 44.28600
H  55.34600 46.88000 44.02400
H  54.62900 45.55800 44.78500
H  54.03700 47.23800 45.09500
H  51.54300 48.64900 41.47800
H  53.21500 48.81100 41.69500
H  52.54400 51.02700 42.47600
H  51.54800 50.25800 43.75100
H  51.01900 50.43600 42.09700
H  47.48200 49.95300 42.25200
H  46.61000 49.60100 43.73300
H  45.90800 49.31300 41.98900
H  44.45900 45.03000 40.38100
H  42.05100 43.53000 44.37000
H  41.37100 45.06900 43.72900
H  42.28200 44.96000 45.17600
Mg -1.79100 35.16200 26.71900
C  -3.46500 33.22700 29.18400
C  -0.59000 37.15600 29.24300
C  -0.85400 37.43900 24.41500
C  -3.59900 33.42400 24.37600
N  -2.13600 35.25800 28.93400
C  -2.79600 34.31500 29.75000
C  -2.52400 34.60500 31.22800
C  -1.81900 35.95500 31.21100
C  -1.40500 36.06600 29.75100
C  -2.73200 37.15400 31.52200
C  -1.48100 33.48000 31.75100
C  -1.84600 32.95400 33.13400
H  -0.86300 32.96100 34.33200
N  -0.74300 36.88400 26.81300
C  -0.23900 37.49600 27.93400
C  0.67900 38.57200 27.55000
C  0.59600 38.73000 26.15600
C  -0.37800 37.64500 25.72000
C  1.35500 39.40900 28.56800
C  1.30100 39.68200 25.18500
O  1.13300 39.72700 24.04600
C  2.32200 40.58300 25.68500
N  -2.24000 35.48300 24.69600
C  -1.76900 36.52500 23.94700
C  -2.35100 36.50500 22.53600
C  -2.89200 35.00100 22.41300
C  -2.96700 34.58300 23.92700
C  -3.35900 37.67200 22.30700
C  -1.96700 34.03400 21.69100
C  -2.64800 32.78100 21.05600
N  -3.12800 33.58300 26.74700
C  -3.73400 32.93000 25.71900
C  -4.38500 31.72000 26.15500
C  -4.36700 31.76800 27.51800
C  -3.60900 32.95600 27.85800
C  -5.16100 30.80800 25.25900
C  -4.86300 31.16500 28.77600
O  -5.55900 30.18500 29.01500
C  -4.11600 32.03300 29.93200
C  -5.11700 32.41100 30.90900
O  -6.25900 32.82400 30.60900
O  -4.67700 32.01000 32.17000
C  -5.67100 32.23100 33.26300
H  -0.14200 37.80800 29.99500
H  -0.54100 38.18400 23.68100
H  -4.07500 32.85400 23.57500
H  -3.51800 34.57400 31.67500
H  -0.97100 35.80600 31.87900
H  -3.61900 36.86800 32.08800
H  -2.97900 37.60800 30.56300
H  -2.23800 37.87500 32.17300
H  -0.46600 33.87700 31.72000
H  -1.46400 32.70000 30.99000
H  -2.20100 31.93700 32.96800
H  -2.71300 33.54400 33.43000
H  1.19700 40.47800 28.42500
H  2.42900 39.22800 28.51700
H  1.09300 39.28500 29.61900
H  2.99200 40.96600 24.91500
H  3.00900 39.98900 26.28800
H  2.03500 41.54000 26.12200
H  -1.55100 36.68600 21.81800
H  -3.85500 35.10000 21.91200
H  -3.71700 37.42100 21.30900
H  -2.83900 38.63000 22.30100
H  -4.22100 37.71600 22.97300
H  -1.26200 33.54100 22.35900
H  -1.35400 34.59400 20.98400
H  -3.71400 32.72000 21.27600
H  -2.25000 31.92000 21.59300
H  -2.54200 32.58400 19.98900
H  -5.95400 31.26600 24.66900
H  -5.69800 30.08400 25.87200
H  -4.56600 30.23100 24.55200
H  -3.39200 31.39700 30.43900
H  -6.40300 33.00000 33.01300
H  -5.11800 32.67200 34.09300
H  -6.06900 31.28200 33.62100

