158

Mg 2.98300 -1.16300 44.52500
C  6.45700 -0.70500 44.24600
C  2.61100 1.43400 42.15600
C  -0.17200 -2.16000 43.84200
C  3.50600 -4.12300 46.24200
N  4.35900 0.18400 43.33100
C  5.77200 0.14700 43.39300
C  6.35400 1.22000 42.33700
C  5.11500 2.15300 42.02600
C  3.97500 1.22300 42.54400
C  5.18700 3.49300 42.69500
C  7.02300 0.46300 41.16400
C  8.53700 0.67300 40.93800
H  8.98300 1.22200 39.54800
N  1.46100 -0.40500 43.34900
C  1.47700 0.69600 42.54400
C  0.09600 0.97500 42.06500
C  -0.75400 -0.08900 42.54500
C  0.21200 -0.98200 43.28800
C  -0.22700 2.20900 41.28100
C  -2.31800 -0.19200 42.34400
O  -2.94300 0.68700 41.69700
C  -3.19500 -1.23300 42.96900
N  1.85600 -3.11100 44.69700
C  0.59100 -3.09700 44.55300
C  -0.05900 -4.21800 45.36800
C  1.15100 -4.96000 46.07300
C  2.28700 -4.03200 45.63700
C  -1.17400 -3.67000 46.26800
C  1.41700 -6.41700 45.61600
C  1.50900 -7.50500 46.67400
N  4.62200 -2.16700 45.19900
C  4.67800 -3.35200 45.92800
C  6.04700 -3.71000 46.27900
C  6.81300 -2.59100 45.69900
C  5.84100 -1.78700 44.97500
C  6.44900 -4.90200 47.16900
C  8.08400 -1.96600 45.50100
O  9.17500 -2.25900 45.83500
C  7.87500 -0.68500 44.66800
C  8.16500 0.58400 45.33500
O  7.47700 1.26000 46.11500
O  9.35900 1.06800 44.81600
C  9.41400 2.53900 44.94600
H  2.51300 2.21300 41.39600
H  -1.22200 -2.45800 43.82100
H  3.66900 -5.04500 46.80400
H  7.05000 1.85100 42.88900
H  4.94300 2.27000 40.95600
H  6.23400 3.79600 42.70300
H  4.63100 3.46800 43.63300
H  4.69200 4.27900 42.12400
H  6.54100 0.82800 40.25700
H  6.86900 -0.61300 41.07900
H  9.08900 -0.26500 40.99900
H  8.88200 1.34800 41.72100
H  0.39800 2.31900 40.39500
H  0.06600 3.06900 41.88300
H  -1.28200 2.42500 41.10900
H  -4.24600 -1.00800 42.79100
H  -2.85400 -1.19300 44.00400
H  -2.95800 -2.22400 42.58300
H  -0.52000 -4.90000 44.65300
H  1.11700 -4.95400 47.16200
H  -1.31600 -2.59200 46.18900
H  -1.08200 -4.02600 47.29400
H  -2.07900 -4.08100 45.82100
H  2.41300 -6.45300 45.17500
H  0.72100 -6.92300 44.94700
H  2.43900 -8.06500 46.57700
H  0.65100 -8.11800 46.39500
H  1.32200 -7.21200 47.70700
H  5.83300 -5.13800 48.03600
H  7.44600 -4.63400 47.51900
H  6.53300 -5.82900 46.60100
H  8.52500 -0.84700 43.80700
H  8.48000 2.98600 44.60400
H  10.16400 2.87100 44.22900
H  9.78800 2.88800 45.90800
Mg -13.18800 38.46100 41.51000
C  -11.05600 35.77100 40.51400
C  -11.11700 40.58500 39.99500
C  -15.59800 40.76700 41.91000
C  -15.60900 35.94400 42.54900
N  -11.31000 38.28300 40.42000
C  -10.64900 37.04600 40.07600
C  -9.35600 37.33800 39.28500
C  -9.48900 38.87600 39.14200
C  -10.69700 39.28000 39.94500
C  -8.21500 39.71600 39.43200
C  -9.12900 36.48800 38.00000
C  -7.66600 35.92300 37.80100
H  -6.67900 36.73800 36.99700
N  -13.29200 40.45500 41.08800
C  -12.33300 41.14600 40.43300
C  -12.78600 42.49300 40.27000
C  -14.17900 42.55200 40.66200
C  -14.44700 41.21200 41.22600
C  -11.97700 43.57800 39.59300
C  -15.16600 43.66100 40.40900
O  -14.74700 44.75300 39.98000
C  -16.56200 43.42300 40.55100
N  -15.33900 38.34400 42.18600
C  -16.10800 39.46900 42.23800
C  -17.57800 39.21400 42.64200
C  -17.51300 37.65800 42.93100
C  -16.06000 37.25500 42.55000
C  -18.09900 40.07700 43.84000
C  -18.71300 36.93600 42.33200
C  -18.56600 36.60500 40.82900
N  -13.30200 36.36100 41.65900
C  -14.30100 35.53300 42.17100
C  -13.82200 34.16000 42.13300
C  -12.51700 34.25400 41.66800
C  -12.28300 35.60200 41.25800
C  -14.53200 32.88600 42.70700
C  -11.39600 33.44300 41.28500
O  -11.39700 32.15300 41.21100
C  -10.40200 34.39000 40.59300
C  -9.17500 34.42000 41.47900
O  -9.05400 35.00500 42.53800
O  -8.10900 33.72200 40.84600
C  -6.88200 33.52100 41.66000
H  -10.44200 41.30100 39.52100
H  -16.45400 41.44000 42.00000
H  -16.26800 35.13300 42.86500
H  -8.58500 37.17900 40.03900
H  -9.89900 38.99400 38.13900
H  -7.93000 40.31000 38.56400
H  -7.39000 39.02000 39.58100
H  -8.35900 40.38800 40.27800
H  -9.45200 37.11900 37.17200
H  -9.84200 35.66500 37.94600
H  -7.67800 34.93500 37.34200
H  -7.20400 35.75400 38.77400
H  -11.83900 44.36800 40.33200
H  -12.32800 44.03600 38.66800
H  -11.00900 43.16000 39.31700
H  -16.83100 42.48200 40.07300
H  -17.15300 44.13900 39.98000
H  -16.81900 43.51300 41.60700
H  -18.15500 39.41900 41.74000
H  -17.47800 37.52500 44.01300
H  -18.43100 39.51200 44.71100
H  -18.95100 40.67100 43.50900
H  -17.33600 40.82100 44.06900
H  -19.65500 37.44300 42.53900
H  -18.77900 35.98700 42.86300
H  -19.52700 36.79300 40.35100
H  -18.25000 35.56700 40.72800
H  -17.68100 37.16400 40.52600
H  -14.28700 31.99600 42.12800
H  -15.59300 33.12000 42.80400
H  -14.08700 32.78900 43.69700
H  -10.06900 34.09300 39.59800
H  -6.00900 33.63200 41.01700
H  -6.79700 32.60000 42.23700
H  -6.73200 34.41600 42.26500

