158

Mg -12.05700 37.91200 42.30000
C  -9.31200 35.85500 42.01900
C  -9.96900 40.73300 41.93100
C  -14.72600 39.91300 42.28300
C  -14.08600 35.07100 43.01500
N  -9.86900 38.18400 41.82100
C  -8.97700 37.19400 41.82500
C  -7.58300 37.81700 41.51800
C  -7.69500 39.32000 41.95300
C  -9.24000 39.49100 41.88900
C  -7.26600 39.57800 43.45800
C  -7.06200 37.70300 39.99100
C  -5.78600 36.86500 39.66900
H  -5.93800 35.80100 38.58400
N  -12.25500 40.03500 41.89900
C  -11.33300 41.02000 41.91800
C  -11.95500 42.35700 41.73400
C  -13.36400 42.15400 41.66700
C  -13.52300 40.59900 41.89600
C  -11.14400 43.72000 41.43600
C  -14.42200 43.20500 41.44300
O  -14.11200 44.35900 41.33200
C  -15.94300 42.91100 41.16700
N  -14.10000 37.60100 42.42700
C  -15.03000 38.57100 42.48900
C  -16.40400 38.09400 42.82500
C  -16.19800 36.56900 42.79500
C  -14.71300 36.37100 42.77800
C  -16.88100 38.63500 44.21100
C  -16.99700 35.71000 41.70300
C  -16.28100 35.14800 40.42500
N  -11.84000 35.84400 42.53800
C  -12.70300 34.83500 42.89000
C  -11.93700 33.62900 43.00600
C  -10.59400 33.95800 42.64900
C  -10.62200 35.31300 42.39400
C  -12.45700 32.29900 43.48300
C  -9.30100 33.46500 42.47200
O  -8.94400 32.31900 42.60300
C  -8.33600 34.66200 42.02900
C  -7.21800 34.79000 42.93300
O  -7.28300 35.17800 44.13400
O  -6.05100 34.15400 42.45200
C  -4.94400 33.87600 43.39300
H  -9.27100 41.57000 42.00500
H  -15.45000 40.67400 42.58000
H  -14.76700 34.27200 43.31500
H  -6.87900 37.36100 42.21400
H  -7.26200 40.02800 41.24600
H  -6.59800 38.81600 43.86200
H  -8.16700 39.73500 44.05000
H  -6.67000 40.48200 43.58600
H  -6.93300 38.71100 39.59700
H  -7.86400 37.22300 39.42900
H  -5.36800 36.31000 40.50900
H  -4.97300 37.54800 39.42400
H  -11.75600 44.43100 40.88000
H  -10.18700 43.52300 40.95300
H  -10.98100 44.17400 42.41300
H  -16.13700 41.88900 40.84100
H  -16.25300 43.52500 40.32200
H  -16.49000 43.20300 42.06300
H  -17.04800 38.40700 42.00300
H  -16.62500 36.12700 43.69500
H  -16.02400 38.88200 44.83800
H  -17.45000 37.80300 44.62600
H  -17.60100 39.45400 44.21100
H  -17.83900 36.29300 41.32900
H  -17.34900 34.84500 42.26500
H  -16.58800 34.10200 40.44100
H  -15.19700 35.24500 40.47900
H  -16.48800 35.65800 39.48400
H  -12.16700 32.15100 44.52300
H  -12.01500 31.43700 42.98500
H  -13.54400 32.24200 43.42600
H  -7.90100 34.47900 41.04700
H  -4.12500 33.44900 42.81300
H  -5.29500 33.02000 43.96900
H  -4.67600 34.67900 44.08000
Mg -6.07600 25.34700 25.61000
C  -4.22800 26.42500 28.25200
C  -7.31200 22.79400 27.79700
C  -7.70400 23.98200 23.01600
C  -4.06800 27.08800 23.40300
N  -5.85000 24.69500 27.74600
C  -5.12200 25.40900 28.59900
C  -5.35200 25.01900 30.00500
C  -6.06100 23.60600 29.79500
C  -6.37200 23.67200 28.33500
C  -5.36700 22.32600 30.19800
C  -6.15800 26.08700 30.81000
C  -6.69900 25.61900 32.18900
H  -5.77200 24.70100 33.06700
N  -7.46900 23.72900 25.47500
C  -7.76800 22.80000 26.44800
C  -8.77800 21.93700 25.87200
C  -9.08100 22.43000 24.52300
C  -8.08000 23.44800 24.28400
C  -9.39200 20.74700 26.62000
C  -10.19200 22.03200 23.58000
O  -10.36500 22.55700 22.51100
C  -11.23500 20.99300 24.01800
N  -5.90400 25.62300 23.44800
C  -6.70700 24.90300 22.63400
C  -6.41000 25.25500 21.11200
C  -5.37900 26.45200 21.31700
C  -5.10300 26.37800 22.78300
C  -5.98100 23.95900 20.25000
C  -5.99100 27.88600 20.92100
C  -6.08000 28.23100 19.40200
N  -4.55900 26.61200 25.73500
C  -3.77400 27.17900 24.79700
C  -2.65300 27.92800 25.46500
C  -2.82200 27.68900 26.82800
C  -3.97200 26.88500 26.95300
C  -1.55400 28.75600 24.70700
C  -2.26800 27.91600 28.15300
O  -1.30200 28.54800 28.60900
C  -3.23100 27.19100 29.10700
C  -2.37200 26.31800 30.03700
O  -1.68900 25.33700 29.67700
O  -2.39000 26.75800 31.34900
C  -1.66500 26.01600 32.36400
H  -7.71600 22.10000 28.53800
H  -8.12400 23.36200 22.22100
H  -3.43500 27.66400 22.72600
H  -4.33900 24.81200 30.35000
H  -7.04200 23.58900 30.27000
H  -5.37000 21.53600 29.44700
H  -5.87200 21.96200 31.09300
H  -4.38200 22.67100 30.51100
H  -7.00400 26.32200 30.16500
H  -5.75400 27.09900 30.79200
H  -7.55900 24.98600 31.97000
H  -7.22800 26.38500 32.75500
H  -9.48100 19.85300 26.00400
H  -10.38900 21.02700 26.96100
H  -8.92200 20.45900 27.56100
H  -10.70600 20.05100 23.87600
H  -12.09200 21.18700 23.37200
H  -11.43100 21.32400 25.03800
H  -7.33500 25.62800 20.67200
H  -4.45300 26.33200 20.75600
H  -4.89200 24.00500 20.23900
H  -6.53600 23.96200 19.31200
H  -6.35200 23.02600 20.67400
H  -5.36500 28.59800 21.45800
H  -7.03000 28.16000 21.10800
H  -6.19200 27.26900 18.90100
H  -5.21000 28.83200 19.14000
H  -7.00000 28.75000 19.13600
H  -1.17500 28.22900 23.83200
H  -0.83700 29.08300 25.46000
H  -2.05400 29.61600 24.26300
H  -3.71200 27.90700 29.77300
H  -2.40700 25.29100 32.69900
H  -1.41400 26.67500 33.19400
H  -0.83500 25.42400 31.97800

