158

Mg 25.47800 0.73400 29.92300
C  27.60400 0.66200 32.83900
C  22.88300 0.49400 32.12300
C  23.48100 0.58400 27.25700
C  28.24800 0.47000 27.95800
N  25.36700 0.65500 32.21100
C  26.28500 0.72300 33.18900
C  25.70300 0.81700 34.59700
C  24.19600 0.66500 34.29800
C  24.13100 0.61600 32.79100
C  23.60600 -0.65900 34.77800
C  26.18500 2.10200 35.32100
C  25.37800 2.41800 36.60100
H  26.09900 2.66800 37.91200
N  23.40900 0.60700 29.71700
C  22.48300 0.50500 30.75700
C  21.13500 0.38500 30.18100
C  21.34900 0.46000 28.77900
C  22.79400 0.59300 28.54100
C  19.88800 0.31500 31.02400
C  20.25300 0.52300 27.65800
O  20.53600 0.58600 26.46300
C  18.82400 0.59100 28.01400
N  25.84300 0.66300 27.87700
C  24.87400 0.75500 26.97700
C  25.36700 0.77900 25.58200
C  26.90000 0.92000 25.80100
C  27.01200 0.65700 27.30500
C  24.91400 -0.31800 24.57300
C  27.65200 2.12400 25.31000
C  28.76300 1.85900 24.31300
N  27.49300 0.55900 30.26300
C  28.47600 0.37000 29.31900
C  29.73500 0.19600 29.95400
C  29.45600 0.28900 31.33300
C  28.04400 0.58300 31.51200
C  30.99500 -0.09000 29.26600
C  30.00800 0.24700 32.71700
O  31.11600 -0.11300 33.09900
C  28.94700 0.71200 33.67600
C  29.01100 -0.09500 34.89500
O  28.53700 -1.17700 35.01700
O  29.83800 0.54500 35.78700
C  29.80900 -0.06300 37.13300
H  22.07700 0.57300 32.85600
H  22.90400 0.59200 26.33000
H  29.04200 0.55000 27.21200
H  26.11400 0.00500 35.19600
H  23.67200 1.53600 34.69100
H  24.22400 -1.10800 35.55600
H  23.36400 -1.39800 34.01500
H  22.64300 -0.49000 35.26000
H  26.06100 3.01900 34.74400
H  27.25300 1.96600 35.49100
H  24.82000 1.50200 36.79700
H  24.75200 3.29200 36.41600
H  19.35400 1.26300 30.96800
H  20.19100 0.09400 32.04800
H  19.22300 -0.47700 30.67900
H  18.14200 0.81400 27.19400
H  18.70100 1.48300 28.62800
H  18.43600 -0.29900 28.51000
H  25.02600 1.72100 25.15200
H  27.43200 0.10200 25.31500
H  24.38400 -1.03600 25.19900
H  25.74300 -0.87700 24.13900
H  24.24100 0.10300 23.82600
H  28.05300 2.79400 26.07000
H  26.95500 2.75800 24.76200
H  28.31600 1.83400 23.31900
H  29.28100 0.90300 24.39900
H  29.37100 2.75300 24.44900
H  31.61200 0.54200 29.90400
H  31.08800 0.29300 28.25000
H  31.23000 -1.14800 29.38600
H  29.10200 1.77600 33.85700
H  30.44400 -0.93100 36.95600
H  28.82200 -0.23500 37.56200
H  30.44700 0.48700 37.82500
Mg 48.72900 35.06700 26.19200
C  47.14100 33.51200 28.98200
C  49.23500 37.80800 28.02800
C  50.25200 36.25000 23.55000
C  48.17700 32.01600 24.44100
N  48.13500 35.60600 28.31500
C  47.70700 34.76900 29.30900
C  48.05200 35.32200 30.64700
C  48.38600 36.79700 30.29100
C  48.60800 36.80100 28.76800
C  47.28600 37.83400 30.58000
C  49.15800 34.58600 31.41100
C  49.20200 34.66900 32.94300
H  48.04000 35.34700 33.75800
N  49.56200 36.83800 25.81800
C  49.62700 37.88800 26.67500
C  50.31000 39.01000 25.89900
C  50.70200 38.53800 24.62000
C  50.20800 37.12700 24.63200
C  50.61000 40.33000 26.68400
C  51.46000 39.23100 23.52000
O  51.92100 38.68400 22.53300
C  51.65800 40.75700 23.52100
N  49.21500 34.16300 24.24000
C  49.89500 34.91200 23.35300
C  50.18300 34.05500 22.07200
C  49.46500 32.66100 22.31400
C  48.97800 32.89500 23.79500
C  49.71100 34.79000 20.77300
C  50.45900 31.47300 22.22200
C  51.52800 31.49900 21.08200
N  47.78800 33.22300 26.52000
C  47.66400 32.10400 25.72200
C  46.94400 31.07400 26.42600
C  46.70500 31.57500 27.72500
C  47.24300 32.87500 27.70600
C  46.63100 29.66100 25.91600
C  46.16500 31.27100 29.05300
O  45.78900 30.20600 29.49600
C  46.26800 32.57200 29.81000
C  46.89800 32.18700 31.15000
O  48.05500 31.87400 31.37000
O  45.94600 32.17800 32.15800
C  46.38700 31.83500 33.52000
H  49.38000 38.71400 28.62000
H  50.69700 36.77600 22.70300
H  48.15800 31.06300 23.90900
H  47.19400 35.26800 31.31600
H  49.32700 37.06100 30.77400
H  47.42900 38.40600 31.49700
H  46.35300 37.28600 30.70800
H  47.07500 38.52600 29.76400
H  50.06000 35.16600 31.21100
H  49.48800 33.64400 30.97300
H  50.17400 35.07500 33.22500
H  49.25700 33.60600 33.18000
H  51.65100 40.33300 27.00700
H  49.87600 40.36900 27.48800
H  50.55000 41.18800 26.01400
H  52.03400 41.20300 22.60100
H  52.41900 41.05700 24.24200
H  50.71600 41.24900 23.76500
H  51.25200 33.86800 21.97000
H  48.64000 32.52300 21.61600
H  49.41800 34.23600 19.88100
H  50.50300 35.36200 20.29000
H  48.79300 35.35500 20.93000
H  49.83000 30.58900 22.12100
H  51.01700 31.24700 23.13000
H  52.46000 31.77300 21.57600
H  51.18800 32.04400 20.20100
H  51.60900 30.50400 20.64500
H  45.60000 29.48400 25.60900
H  46.95500 28.94900 26.67500
H  47.33300 29.43000 25.11500
H  45.33300 33.06900 30.07000
H  47.43500 31.54600 33.44500
H  45.79200 31.05400 33.99400
H  46.21400 32.81100 33.97400

