158

Mg 35.69700 0.92700 29.80100
C  33.29700 1.65800 32.31400
C  38.13500 1.52000 32.19000
C  37.92000 0.42500 27.45500
C  33.07300 1.13100 27.38300
N  35.57600 1.31700 32.04100
C  34.58500 1.45400 32.82500
C  34.99200 1.83600 34.22000
C  36.51400 2.19700 34.00000
C  36.80700 1.65900 32.61900
C  36.97200 3.64700 34.07900
C  34.67400 0.78500 35.26100
C  34.16100 1.40200 36.55100
H  35.03400 2.39000 37.28400
N  37.77300 0.79300 29.85200
C  38.62500 1.07900 30.85600
C  39.97900 1.02900 30.45200
C  39.89700 0.56900 29.09100
C  38.52100 0.61400 28.75800
C  41.11600 1.36800 31.43700
C  41.03400 0.36000 28.05900
O  40.83000 0.02800 26.89500
C  42.38700 0.32200 28.48600
N  35.51700 0.80400 27.80600
C  36.60400 0.49000 27.03900
C  36.19300 0.34700 25.57300
C  34.67700 0.50000 25.62600
C  34.37700 0.78700 27.04900
C  36.97500 1.21000 24.56300
C  33.87100 -0.65400 25.04100
C  33.76100 -1.96600 25.88900
N  33.61600 1.42700 29.78800
C  32.77400 1.45600 28.74800
C  31.49100 1.94200 29.24700
C  31.63200 1.98700 30.66300
C  32.94200 1.63300 30.92900
C  30.30800 2.37600 28.45800
C  30.98600 2.31000 31.86500
O  29.92600 2.85400 32.04100
C  32.05700 2.11800 33.01500
C  32.31300 3.38400 33.73000
O  33.09400 4.26100 33.33500
O  31.64200 3.42300 34.98900
C  31.85900 4.63700 35.83500
H  38.90600 1.86300 32.88200
H  38.51600 0.08700 26.60400
H  32.34700 1.28600 26.58300
H  34.56200 2.79400 34.51200
H  37.14300 1.65800 34.70800
H  36.15900 4.29300 34.41100
H  37.27900 4.05100 33.11400
H  37.77300 3.77000 34.80800
H  35.52000 0.14900 35.52200
H  33.85000 0.14800 34.94000
H  33.99700 0.60400 37.27500
H  33.23000 1.91600 36.31100
H  41.17000 2.45300 31.53200
H  42.10900 1.05100 31.11800
H  40.87900 0.91700 32.40000
H  42.94300 -0.15400 27.67800
H  42.40000 -0.34500 29.34800
H  42.71500 1.32500 28.75800
H  36.37500 -0.68800 25.28400
H  34.40800 1.41700 25.10200
H  36.37900 2.10200 24.36800
H  37.30600 0.71800 23.64800
H  37.92600 1.50000 25.00800
H  34.11100 -0.87500 24.00100
H  32.82200 -0.35800 25.05300
H  34.57200 -1.91400 26.61600
H  33.92700 -2.83700 25.25500
H  32.79600 -2.06200 26.38600
H  30.55500 3.18700 27.77300
H  29.44100 2.62900 29.06800
H  30.05400 1.49600 27.86800
H  31.58400 1.41900 33.70400
H  32.21000 5.47900 35.23900
H  32.64200 4.33700 36.53100
H  30.94000 4.90200 36.35800
Mg 47.05100 16.05600 27.82300
C  45.20800 15.94900 30.81200
C  49.05800 18.43300 29.28000
C  48.45300 16.52200 24.74400
C  44.54700 14.25100 26.30800
N  47.06000 17.05600 29.84500
C  46.31900 16.74100 30.96800
C  46.84000 17.39400 32.19000
C  47.92100 18.45000 31.62000
C  48.09900 17.89600 30.16900
C  47.57900 19.93400 31.74200
C  47.43400 16.32300 33.19300
C  47.03200 16.52100 34.69900
H  48.15000 16.14000 35.68100
N  48.51900 17.29500 27.10900
C  49.28200 18.14800 27.93000
C  50.24700 18.78900 27.07500
C  50.13400 18.28300 25.71300
C  48.97500 17.32700 25.80200
C  51.07800 19.96900 27.60700
C  50.97100 18.57200 24.42800
O  50.66100 18.06600 23.34800
C  52.17000 19.57500 24.53100
N  46.69200 15.36200 25.86700
C  47.42800 15.60400 24.76700
C  46.98400 14.84200 23.54100
C  45.77200 14.11000 24.07900
C  45.62100 14.62000 25.50300
C  46.63300 15.75600 22.23600
C  45.91300 12.51800 23.85100
C  46.51900 11.72700 24.89200
N  45.30400 15.20700 28.39800
C  44.39700 14.47900 27.64700
C  43.26600 13.95100 28.47400
C  43.57400 14.52800 29.72600
C  44.78300 15.30500 29.65200
C  42.00100 13.20700 28.03900
C  43.06600 14.59700 31.03100
O  42.07600 14.12300 31.50500
C  44.17200 15.44600 31.86000
C  43.46500 16.43100 32.59100
O  42.80800 17.37100 32.09400
O  43.49300 16.15200 33.91600
C  42.70700 17.14100 34.75800
H  49.70100 19.16200 29.77600
H  48.93000 16.46900 23.76400
H  43.75200 13.56400 26.00900
H  46.02300 17.97200 32.62200
H  48.67700 18.25000 32.38000
H  46.58800 20.07400 32.17300
H  47.73400 20.40000 30.76900
H  48.26200 20.20400 32.54800
H  48.52200 16.40000 33.19600
H  47.09900 15.36800 32.78800
H  46.19500 15.89300 35.00400
H  46.74700 17.57000 34.78800
H  50.66800 20.43700 28.50200
H  51.07100 20.74200 26.83900
H  52.12200 19.71300 27.78900
H  51.68100 20.53200 24.35100
H  52.89400 19.32100 23.75700
H  52.73100 19.61300 25.46500
H  47.78000 14.15500 23.25400
H  44.90500 14.37700 23.47500
H  46.08200 15.15100 21.51600
H  47.52300 16.10400 21.71100
H  46.01000 16.61500 22.48700
H  46.38800 12.20200 22.92100
H  44.88900 12.16100 23.74100
H  46.74500 12.29900 25.79200
H  47.53400 11.42600 24.63200
H  46.02800 10.76500 25.03800
H  41.45900 13.77400 27.28200
H  41.33400 12.91000 28.84800
H  42.39100 12.32900 27.52300
H  44.68600 14.76600 32.53900
H  43.21400 18.10400 34.69700
H  42.72200 16.87000 35.81400
H  41.71900 17.37700 34.36300

