158

Mg 55.40300 24.04100 45.06300
C  53.03300 26.57700 44.21900
C  53.09000 21.76500 43.89100
C  57.87900 21.78100 44.95600
C  57.77200 26.59600 45.79000
N  53.34400 24.14300 43.99900
C  52.55700 25.29800 43.88900
C  51.13900 24.88300 43.44200
C  51.07900 23.37200 43.82500
C  52.56700 23.03000 43.84600
C  50.35400 22.88500 45.03600
C  50.94100 25.21200 41.92800
C  49.55100 25.57800 41.45600
H  49.19400 25.46400 39.93900
N  55.44400 22.07700 44.49400
C  54.36600 21.32300 44.11400
C  54.86300 19.94600 43.89300
C  56.25700 19.89300 44.12900
C  56.59900 21.28700 44.54500
C  53.83800 18.87300 43.41100
C  57.12600 18.68900 43.93400
O  56.63600 17.61300 43.57100
C  58.61300 18.74500 44.19800
N  57.58900 24.17900 45.31900
C  58.32600 23.04000 45.39200
C  59.78200 23.45800 45.76500
C  59.75900 25.01700 45.95600
C  58.25200 25.30100 45.71600
C  60.34700 22.74400 47.00800
C  60.75900 25.70400 44.89500
C  61.50900 26.95500 45.48600
N  55.41300 26.13500 45.11500
C  56.42700 26.97400 45.53600
C  55.83200 28.34300 45.55400
C  54.52600 28.20600 45.02800
C  54.31800 26.82900 44.80800
C  56.57100 29.54900 45.96700
C  53.28500 28.86900 44.81100
O  52.92100 30.04700 44.91300
C  52.40000 27.93200 44.03600
C  52.32200 28.37300 42.59900
O  53.16800 28.28200 41.73600
O  51.03300 28.94300 42.44800
C  50.76400 29.26800 41.06100
H  52.31700 21.01400 43.71300
H  58.71600 21.08600 45.04600
H  58.52000 27.34600 46.05400
H  50.33900 25.40200 43.96900
H  50.56900 22.92300 42.97300
H  49.83900 23.72800 45.49600
H  51.08600 22.46400 45.72500
H  49.67800 22.10300 44.69000
H  51.12000 24.27900 41.39400
H  51.57600 26.06400 41.68400
H  49.37900 26.63000 41.68200
H  48.73400 25.06100 41.95900
H  53.75900 18.64100 42.34900
H  52.82000 19.03600 43.76600
H  54.14600 17.92900 43.86100
H  59.14600 19.52000 43.64700
H  59.14400 17.85900 43.85100
H  58.73300 18.74800 45.28100
H  60.33200 23.16600 44.87100
H  59.89200 25.23700 47.01500
H  61.09900 21.97200 46.85000
H  59.53400 22.27300 47.56100
H  60.76100 23.49800 47.67800
H  60.11400 26.06300 44.09300
H  61.51100 25.04300 44.46400
H  62.47700 27.08700 45.00100
H  61.58800 26.85600 46.56800
H  60.85600 27.81000 45.30900
H  57.43800 29.89000 45.40200
H  56.83600 29.20100 46.96500
H  55.80600 30.32500 46.02600
H  51.41800 27.91100 44.50800
H  51.54300 29.92500 40.67400
H  49.76300 29.69900 41.03600
H  50.85000 28.33600 40.50200
Mg -0.26600 43.88600 25.96800
C  2.06400 43.78500 28.80100
C  -2.75500 43.33200 28.21900
C  -2.31200 43.24400 23.36200
C  2.44900 44.23600 23.91000
N  -0.24000 43.36000 28.25800
C  0.76100 43.47400 29.15500
C  0.15100 43.41400 30.59100
C  -1.32000 43.08800 30.34200
C  -1.46900 43.31500 28.88000
C  -1.71800 41.59100 30.74800
C  0.41000 44.74300 31.37000
C  1.03000 44.71500 32.79800
H  0.69900 43.40900 33.61700
N  -2.36300 43.55700 25.84300
C  -3.21100 43.39200 26.90800
C  -4.54100 43.12400 26.34100
C  -4.47400 43.09500 24.90400
C  -3.05900 43.26000 24.66000
C  -5.74800 43.04000 27.26300
C  -5.53900 42.85300 23.85100
O  -5.33300 42.96400 22.64000
C  -6.85500 42.37000 24.36400
N  0.02400 43.64900 23.97300
C  -0.96100 43.30600 23.10400
C  -0.31600 43.14700 21.69800
C  0.98300 43.98600 21.80200
C  1.18800 43.96000 23.29100
C  -0.08800 41.72300 21.13400
C  0.87500 45.35900 21.08500
C  2.21100 46.04400 20.60500
N  1.83400 44.05800 26.17600
C  2.82600 44.35600 25.27600
C  4.08200 44.55000 26.00100
C  3.80900 44.40400 27.29000
C  2.43400 44.07800 27.39300
C  5.41500 44.85800 25.36600
C  4.46300 44.36600 28.63100
O  5.61400 44.44700 28.94500
C  3.28800 44.00300 29.63600
C  3.73100 42.77000 30.26900
O  3.22600 41.64900 30.00700
O  4.70600 42.96500 31.16900
C  5.21700 41.73700 31.82700
H  -3.57900 43.14100 28.90900
H  -2.85800 43.13500 22.42200
H  3.28900 44.55300 23.28900
H  0.75200 42.60700 31.01000
H  -1.93800 43.70500 30.99400
H  -2.44800 41.61100 31.55700
H  -0.91700 40.92800 31.07500
H  -2.19700 41.11600 29.89200
H  -0.55600 45.21500 31.54700
H  1.07600 45.41300 30.82600
H  0.61500 45.59400 33.29100
H  2.10200 44.85200 32.65900
H  -6.25000 42.07300 27.25400
H  -6.39500 43.77800 26.78900
H  -5.62900 43.41100 28.28100
H  -6.66600 41.38900 24.80100
H  -7.45000 42.21800 23.46300
H  -7.35300 43.15900 24.92700
H  -1.08000 43.63000 21.08800
H  1.84600 43.49200 21.35600
H  -0.79900 41.03600 21.59300
H  0.91100 41.36000 21.37800
H  -0.21300 41.82500 20.05600
H  0.34300 45.98500 21.80100
H  0.27300 45.28900 20.17900
H  2.30500 46.93200 21.23100
H  2.13500 46.28700 19.54500
H  3.06400 45.37200 20.69900
H  5.40300 45.78400 24.79000
H  5.71100 44.12100 24.61900
H  6.19800 44.88100 26.12400
H  3.29200 44.79900 30.38000
H  5.15600 40.88800 31.14500
H  4.45000 41.53700 32.57500
H  6.21500 41.83200 32.25500

