158

Mg 48.65000 44.55900 43.06800
C  45.28300 43.90000 43.11100
C  49.13100 41.30600 42.30800
C  51.94900 45.16600 42.57300
C  48.00200 47.94500 42.89000
N  47.31100 42.78800 42.83700
C  45.98400 42.70900 42.90000
C  45.51400 41.29100 42.70500
C  46.77000 40.39400 42.68400
C  47.81200 41.54200 42.53000
C  46.91500 39.57200 44.01900
C  44.69300 41.13800 41.41000
C  45.04100 42.03900 40.16000
H  45.88200 41.36000 39.07200
N  50.31900 43.39200 42.51700
C  50.31800 42.03700 42.28900
C  51.67400 41.54600 42.24500
C  52.54600 42.61300 42.28300
C  51.61900 43.79500 42.40100
C  51.98700 40.00000 42.18900
C  54.04500 42.62400 42.30300
O  54.68800 41.58100 42.19700
C  54.91000 43.73600 42.54500
N  49.82500 46.24700 42.71500
C  51.15200 46.28000 42.66000
C  51.72400 47.72400 42.68600
C  50.46900 48.58900 42.92500
C  49.32800 47.57900 42.82200
C  52.91500 47.86100 43.71600
C  50.28800 49.79300 41.90000
C  49.84700 51.13300 42.52200
N  47.01100 45.73200 43.00400
C  46.85500 47.09700 43.00600
C  45.52000 47.45900 43.33500
C  44.89800 46.26900 43.41300
C  45.82900 45.21400 43.15500
C  44.93100 48.82500 43.34700
C  43.53700 45.67700 43.53100
O  42.42400 46.22400 43.63200
C  43.78600 44.06900 43.40200
C  43.19500 43.31200 44.59000
O  41.97300 42.97500 44.56400
O  44.18200 42.96500 45.47400
C  43.72400 42.16300 46.57200
H  49.33300 40.25500 42.08900
H  53.00900 45.39200 42.43600
H  47.78700 49.01500 42.92300
H  44.90700 41.15500 43.59900
H  46.90200 39.65600 41.89300
H  47.83200 39.78200 44.56900
H  46.87000 38.50700 43.79300
H  46.10400 39.85200 44.69100
H  43.62400 41.17500 41.62000
H  44.78600 40.09600 41.10500
H  45.52100 42.97500 40.44500
H  44.09300 42.33200 39.70900
H  52.08000 39.56200 41.19500
H  51.22100 39.40900 42.69200
H  52.89500 39.76500 42.74400
H  54.96100 44.30400 41.61600
H  55.93600 43.43800 42.75800
H  54.53700 44.36700 43.35200
H  52.05600 48.04900 41.70000
H  50.46600 49.04400 43.91500
H  52.88000 48.84300 44.18800
H  53.85600 47.68800 43.19400
H  52.84500 47.07900 44.47300
H  49.63000 49.47200 41.09200
H  51.30900 50.05200 41.62100
H  49.13200 51.51500 41.79300
H  50.67400 51.83900 42.60500
H  49.44500 51.03000 43.53000
H  45.49100 49.32100 44.13900
H  43.89800 48.88200 43.69100
H  45.21200 49.38400 42.45400
H  43.23200 43.63500 42.56900
H  43.00400 42.72700 47.16500
H  44.65700 41.87100 47.05500
H  43.29900 41.24900 46.15700
Mg 16.76700 51.59600 26.76200
C  18.65100 50.32300 29.33900
C  14.29500 52.45500 28.91700
C  14.98100 52.67400 24.11200
C  19.33300 50.57100 24.43400
N  16.43400 51.24500 28.80400
C  17.36500 50.72400 29.72400
C  16.86500 50.91600 31.16700
C  15.37200 51.33100 30.99200
C  15.34300 51.74600 29.49600
C  14.32100 50.17800 31.29200
C  17.66500 52.07700 31.79000
C  18.12600 51.80700 33.28000
H  17.24500 52.31300 34.37000
N  14.85100 52.52500 26.55200
C  14.01500 52.83200 27.55800
C  12.86600 53.54500 27.05100
C  13.12600 53.69300 25.64000
C  14.33600 52.90600 25.39400
C  11.70700 53.99100 27.91000
C  12.28300 54.36400 24.55500
O  12.56800 54.23900 23.35200
C  11.00800 55.14800 24.86600
N  17.21400 51.79000 24.53700
C  16.18500 52.10600 23.75900
C  16.62900 51.95400 22.27100
C  18.04900 51.44400 22.34600
C  18.22600 51.18400 23.80300
C  15.60700 51.01400 21.48900
C  19.11200 52.35800 21.68300
C  19.60800 51.94200 20.28100
N  18.60200 50.65500 26.79600
C  19.53900 50.30400 25.80800
C  20.65200 49.75300 26.39900
C  20.42600 49.75300 27.86200
C  19.13000 50.30700 27.98900
C  21.88000 49.27500 25.71000
C  20.81800 49.32000 29.16400
O  21.84900 48.83500 29.55600
C  19.68800 49.72800 30.21500
C  19.24400 48.55600 31.05500
O  18.51300 47.66700 30.66900
O  19.78500 48.63400 32.28100
C  19.43000 47.60300 33.27600
H  13.53300 52.59300 29.68800
H  14.46300 52.84900 23.16600
H  19.94300 50.06700 23.68200
H  16.93400 50.00200 31.75700
H  14.99900 52.19300 31.54400
H  13.32100 50.42500 30.93600
H  14.25100 50.07900 32.37600
H  14.66200 49.24100 30.85200
H  17.04200 52.97000 31.83800
H  18.59000 52.24500 31.23800
H  19.11600 52.25400 33.37200
H  18.33300 50.73900 33.34300
H  10.74300 53.59900 27.58700
H  11.69100 55.07700 28.00400
H  11.81400 53.68600 28.95100
H  11.30000 56.00700 25.47100
H  10.42600 54.46400 25.48400
H  10.55000 55.31100 23.89100
H  16.53500 52.93700 21.80900
H  18.14400 50.59500 21.66900
H  15.20300 51.62200 20.68000
H  14.81500 50.56400 22.08800
H  16.18300 50.34500 20.85100
H  19.96700 52.54800 22.33100
H  18.69700 53.36600 21.67200
H  19.47900 52.66600 19.47600
H  19.26200 50.96000 19.95600
H  20.65500 51.97000 20.58200
H  21.59000 48.36800 25.18000
H  22.53900 48.94700 26.51400
H  22.50300 49.91700 25.08800
H  20.02200 50.48200 30.92700
H  18.41300 47.21300 33.31600
H  19.60100 48.02700 34.26500
H  20.10800 46.76500 33.11200

