158

Mg 36.31700 49.79400 25.90800
C  36.83100 47.93800 28.81800
C  35.14600 52.27100 27.73400
C  35.94000 51.41000 23.01400
C  37.19300 46.89600 23.96300
N  35.95100 50.00300 28.04800
C  36.42400 49.22100 29.03700
C  36.19800 49.91900 30.39800
C  35.45200 51.25500 30.05700
C  35.44100 51.21100 28.48300
C  34.00000 51.32300 30.54200
C  37.49100 50.08400 31.21300
C  37.49200 49.61300 32.60600
H  36.22900 49.71400 33.40300
N  35.70500 51.63000 25.39200
C  35.26300 52.53000 26.33500
C  35.00500 53.81800 25.70600
C  35.17200 53.62800 24.30200
C  35.56700 52.20300 24.17700
C  34.55900 54.91100 26.52500
C  35.04700 54.61700 23.19600
O  35.08300 54.32000 21.99100
C  34.83100 56.11000 23.48500
N  36.36600 49.14300 23.90800
C  36.26300 50.05700 22.92700
C  36.40800 49.40600 21.52000
C  36.99800 48.01200 21.80200
C  36.79400 48.00200 23.30300
C  35.05500 49.33700 20.64500
C  38.53200 47.88000 21.38100
C  38.84200 47.08600 20.02300
N  36.75000 47.76000 26.27200
C  37.06400 46.70600 25.39700
C  37.48400 45.54900 26.14800
C  37.40000 45.97900 27.51900
C  36.98800 47.31900 27.55300
C  38.05900 44.29400 25.60500
C  37.62900 45.56900 28.91700
O  37.95500 44.46400 29.33700
C  37.20100 46.82100 29.79800
C  36.08800 46.37000 30.63200
O  34.91600 46.39100 30.38000
O  36.56700 45.99100 31.94200
C  35.57200 45.56300 32.96000
H  34.77900 53.13900 28.28600
H  35.89600 51.98000 22.08300
H  37.36500 46.04400 23.30200
H  35.45200 49.21900 30.77600
H  36.04800 52.09100 30.42300
H  33.37500 51.78300 29.77700
H  34.03300 51.97500 31.41500
H  33.70900 50.31800 30.84800
H  37.78400 51.12800 31.09600
H  38.23800 49.57100 30.60800
H  38.16000 50.22700 33.20900
H  37.85400 48.58900 32.69300
H  35.42500 55.57000 26.59400
H  34.10800 54.75300 27.50400
H  33.82800 55.50600 25.97800
H  35.51100 56.29900 24.31700
H  33.74900 56.18000 23.59600
H  35.12700 56.64100 22.58100
H  37.11100 50.00700 20.94300
H  36.39800 47.18100 21.43000
H  35.28900 49.08500 19.61100
H  34.40300 50.20800 20.71200
H  34.53300 48.47300 21.05500
H  39.02400 47.38800 22.22000
H  38.94900 48.88700 21.37400
H  37.87600 46.63500 19.79500
H  39.64600 46.38000 20.22800
H  39.06700 47.67200 19.13100
H  38.46100 44.45200 24.60400
H  37.22600 43.59600 25.52200
H  38.85400 44.03200 26.30200
H  38.03900 47.19800 30.38400
H  36.08000 45.13700 33.82500
H  35.03400 44.82500 32.36500
H  34.90200 46.39500 33.17900
Mg 9.51900 48.54000 25.26400
C  7.58100 48.93500 28.07200
C  12.11600 49.95100 27.04700
C  11.46300 48.25800 22.58200
C  6.73700 47.99900 23.34500
N  9.74500 49.30600 27.26800
C  8.89700 49.26400 28.27800
C  9.43600 49.88100 29.61900
C  10.64000 50.63800 29.00400
C  10.84100 49.94000 27.68400
C  10.49200 52.18100 28.92100
C  9.79600 48.82900 30.69700
C  9.25500 49.14600 32.19400
H  9.97900 50.09500 33.12900
N  11.55700 48.89700 24.93700
C  12.43100 49.48200 25.81200
C  13.72300 49.43000 25.21400
C  13.62000 48.95400 23.94900
C  12.18800 48.65700 23.74500
C  15.00400 49.74600 25.96600
C  14.67100 48.81000 22.85000
O  14.38600 48.44600 21.70200
C  16.20200 49.17500 23.04300
N  9.11300 48.40200 23.22200
C  10.11300 48.07900 22.35600
C  9.54500 47.78700 20.92000
C  8.00600 47.62800 21.16800
C  7.91000 48.09400 22.67200
C  10.13800 48.76200 19.83300
C  7.40000 46.20900 20.93000
C  6.78300 46.12300 19.48400
N  7.48800 48.46900 25.59800
C  6.46100 48.21800 24.74300
C  5.19200 48.15600 25.50600
C  5.62200 48.36800 26.80600
C  6.99100 48.63000 26.78400
C  3.83400 47.92400 24.94100
C  5.16900 48.58000 28.18000
O  4.02900 48.54400 28.70200
C  6.42700 48.94000 28.99700
C  6.54300 47.89300 30.00900
O  7.01800 46.78300 29.74300
O  6.16500 48.22000 31.29300
C  6.18000 47.10400 32.21800
H  12.86700 50.37200 27.71900
H  11.98200 48.04100 21.64600
H  5.92400 47.64800 22.70600
H  8.67000 50.56200 29.99000
H  11.55000 50.42200 29.56400
H  9.77800 52.54000 29.66300
H  9.87300 52.40300 28.05200
H  11.45900 52.68100 28.97400
H  10.85800 48.58200 30.68900
H  9.36700 47.92400 30.26700
H  9.06700 48.22500 32.74600
H  8.27700 49.59800 32.02400
H  15.00300 50.15700 26.97600
H  15.41900 50.57000 25.38500
H  15.67900 48.89000 25.96600
H  16.81500 48.64600 23.77300
H  16.05500 50.23400 23.25200
H  16.71700 49.01700 22.09500
H  9.89300 46.76300 20.78600
H  7.49300 48.30900 20.49000
H  9.37500 49.54000 19.82400
H  10.20400 48.32000 18.83800
H  11.13700 49.16600 19.99300
H  6.58300 46.08200 21.64000
H  8.15100 45.43100 21.07400
H  7.52100 45.72600 18.78700
H  6.22200 46.95400 19.05600
H  6.13300 45.24900 19.46400
H  3.75800 46.91200 24.54400
H  3.70800 48.60900 24.10200
H  3.03300 47.92300 25.68000
H  6.26700 49.91000 29.46800
H  7.18200 46.67800 32.26400
H  5.39500 46.43000 31.87600
H  5.83700 47.49600 33.17600

