158

Mg 27.26700 50.57000 25.93800
C  25.40900 51.49800 28.56600
C  29.70200 49.40800 27.86100
C  28.94300 49.74300 23.06900
C  24.59700 51.66100 23.80600
N  27.59400 50.57000 28.02800
C  26.62300 50.80400 28.92200
C  27.04200 50.40300 30.35700
C  28.54800 49.98900 30.08200
C  28.69600 50.07800 28.60200
C  29.56400 50.98000 30.63400
C  26.02400 49.29500 30.83000
C  25.51800 49.34900 32.31400
H  26.46000 49.91300 33.39600
N  29.09300 49.65400 25.49600
C  29.88800 49.16700 26.50000
C  31.05400 48.44600 25.88300
C  30.88200 48.64300 24.40500
C  29.60300 49.40500 24.27600
C  32.14900 47.60600 26.64500
C  31.75000 48.15200 23.27800
O  31.44200 48.26000 22.11100
C  33.04400 47.64000 23.65500
N  26.79100 50.63700 23.74400
C  27.71000 50.31800 22.81100
C  27.18100 50.56300 21.32300
C  25.68300 50.82100 21.66400
C  25.67500 51.02000 23.13500
C  27.82700 51.69200 20.50500
C  24.58200 49.78400 21.27000
C  23.45900 50.11600 20.32200
N  25.45200 51.57100 26.15000
C  24.49200 51.90800 25.20600
C  23.36400 52.56600 25.86900
C  23.68500 52.42600 27.21200
C  24.95900 51.80500 27.31600
C  22.18600 53.02400 25.13500
C  23.25100 52.64000 28.58000
O  22.28100 53.19100 29.03800
C  24.32900 52.00000 29.49000
C  24.82500 53.06900 30.41500
O  25.59800 54.06100 30.12600
O  24.10100 52.90400 31.61900
C  24.51300 53.97400 32.53600
H  30.37200 48.89800 28.55700
H  29.44200 49.35500 22.17900
H  23.63500 51.90000 23.34600
H  27.00500 51.30300 30.97100
H  28.80500 49.00300 30.47000
H  29.11000 51.56300 31.43600
H  29.85100 51.63400 29.81100
H  30.37000 50.44800 31.14000
H  26.45800 48.30700 30.66900
H  25.25000 49.29000 30.06300
H  25.28000 48.32800 32.61400
H  24.64500 49.99400 32.41300
H  31.86400 47.55000 27.69500
H  33.03100 48.23100 26.50500
H  32.13500 46.66600 26.09300
H  32.96700 46.59800 23.96400
H  33.35500 48.42500 24.34500
H  33.67300 47.62300 22.76400
H  27.30800 49.69700 20.67500
H  25.38300 51.79100 21.26800
H  28.06000 51.34900 19.49700
H  28.71200 52.07700 21.01200
H  27.28300 52.63200 20.41600
H  24.05300 49.47100 22.17000
H  25.06600 48.86900 20.92900
H  23.64600 51.16000 20.07200
H  22.54200 49.95000 20.88700
H  23.52400 49.43100 19.47700
H  21.65300 52.36600 24.44900
H  22.50500 53.84600 24.49400
H  21.49600 53.25300 25.94700
H  23.87500 51.18800 30.05900
H  24.20200 54.97000 32.22300
H  25.58400 54.01400 32.73300
H  24.00800 53.73100 33.47100
Mg -12.26100 15.66900 41.64000
C  -9.17800 13.92600 41.46200
C  -10.70000 18.42700 40.35900
C  -15.35900 17.04700 40.96200
C  -13.81000 12.62000 42.34900
N  -10.16200 16.03600 40.83900
C  -9.09700 15.27600 41.04900
C  -7.87900 15.96400 40.54800
C  -8.40600 17.46500 40.43900
C  -9.80500 17.33400 40.63600
C  -7.75200 18.45900 41.37700
C  -7.24500 15.33200 39.29000
C  -5.71500 15.56800 39.15400
H  -5.17500 16.26800 37.90300
N  -12.96600 17.52500 40.91800
C  -12.07100 18.51900 40.54600
C  -12.86900 19.68300 40.27000
C  -14.24000 19.35800 40.52700
C  -14.27100 17.92200 40.85500
C  -12.29700 21.05600 39.90000
C  -15.40900 20.29300 40.31200
O  -15.16900 21.43300 39.97000
C  -16.83400 19.95300 40.68000
N  -14.30300 14.85900 41.41300
C  -15.39900 15.65000 41.29600
C  -16.70900 14.85700 41.41000
C  -16.17900 13.49400 41.90600
C  -14.66600 13.61200 41.84400
C  -17.84500 15.46100 42.26000
C  -16.73600 12.24300 41.11600
C  -17.19800 11.15100 42.05000
N  -11.69900 13.69500 41.92800
C  -12.40600 12.61600 42.36400
C  -11.53000 11.46300 42.62000
C  -10.24100 12.00800 42.34100
C  -10.42500 13.30900 41.89100
C  -12.00700 10.18200 43.21900
C  -8.83800 11.66700 42.31600
O  -8.21900 10.64900 42.59500
C  -8.11000 12.89700 41.73900
C  -7.06500 13.24100 42.71800
O  -7.24800 13.47800 43.90800
O  -5.89500 13.49300 42.09000
C  -4.91100 14.31000 42.88000
H  -10.26000 19.38100 40.06500
H  -16.30500 17.55900 40.77600
H  -14.27500 11.69300 42.69100
H  -7.07900 16.01500 41.28600
H  -8.20300 17.90600 39.46300
H  -6.75100 18.16500 41.69100
H  -8.31100 18.62100 42.29900
H  -7.55200 19.35200 40.78500
H  -7.75100 15.82600 38.46100
H  -7.41500 14.25500 39.31100
H  -5.23200 14.59400 39.22400
H  -5.48000 16.04500 40.10500
H  -11.35600 21.12600 39.35500
H  -12.19900 21.57100 40.85500
H  -12.94500 21.67100 39.27500
H  -17.23800 19.22100 39.98000
H  -17.54400 20.74900 40.45400
H  -16.84100 19.69100 41.73800
H  -17.15300 14.69100 40.42800
H  -16.36500 13.46200 42.97900
H  -18.51400 16.02700 41.61100
H  -17.40600 16.14100 42.98900
H  -18.32900 14.63400 42.77900
H  -16.07200 11.74200 40.41200
H  -17.64100 12.65100 40.66500
H  -16.48700 10.33000 41.96800
H  -18.21400 10.76200 41.98700
H  -17.21400 11.43800 43.10100
H  -12.89700 9.83400 42.69600
H  -12.17400 10.39500 44.27500
H  -11.23600 9.41200 43.19800
H  -7.48000 12.52500 40.93100
H  -5.36100 15.21400 43.29200
H  -4.17300 14.76400 42.21900
H  -4.42800 13.69000 43.63600

