158

Mg 41.13500 8.69000 29.86700
C  43.00600 9.73600 32.45200
C  39.06000 7.15300 31.96100
C  39.43800 7.50500 27.09200
C  43.77300 9.75000 27.67100
N  40.95800 8.62000 32.00600
C  41.92000 9.01800 32.87700
C  41.41700 8.80800 34.30500
C  40.21500 7.81800 34.10300
C  40.02700 7.86000 32.61200
C  40.48000 6.35400 34.64000
C  40.94300 10.19100 34.85500
C  40.58200 10.04100 36.33200
H  41.31500 11.03300 37.36700
N  39.33300 7.67100 29.62500
C  38.61900 6.98900 30.60900
C  37.43000 6.34000 29.99500
C  37.40900 6.70100 28.61200
C  38.80500 7.33700 28.38400
C  36.37200 5.54300 30.86300
C  36.23500 6.63300 27.51700
O  36.43300 7.00300 26.35600
C  34.87400 6.09800 27.92800
N  41.65200 8.54800 27.63100
C  40.70100 8.06100 26.73700
C  41.18600 8.26600 25.32500
C  42.52300 9.14700 25.48700
C  42.64700 9.18900 27.05100
C  41.50500 6.94700 24.50200
C  42.43000 10.62800 24.89800
C  41.64700 11.61700 25.79400
N  43.01600 9.59000 29.94800
C  43.96400 10.01400 29.02700
C  44.95800 10.77900 29.67700
C  44.64900 10.66500 31.00300
C  43.50600 9.92300 31.16000
C  46.05900 11.50000 28.96100
C  45.08600 11.06000 32.24100
O  45.96600 11.86300 32.48300
C  44.06800 10.46100 33.36300
C  44.71000 9.47400 34.28400
O  45.23600 8.42100 33.95900
O  44.60200 9.95500 35.60100
C  45.20400 9.24900 36.68200
H  38.38400 6.62000 32.63300
H  38.84700 7.17900 26.23300
H  44.38700 10.32500 26.97500
H  42.21900 8.43800 34.94300
H  39.33700 8.32000 34.51000
H  39.68700 6.16400 35.36400
H  41.48500 6.29800 35.05800
H  40.49600 5.63800 33.81800
H  40.04200 10.50900 34.33000
H  41.69600 10.97500 34.77700
H  40.80700 9.07000 36.77300
H  39.51000 10.09400 36.52300
H  36.47800 5.50800 31.94700
H  36.42100 4.50300 30.54100
H  35.39200 5.96900 30.64800
H  34.19600 6.00100 27.08000
H  34.51900 6.75500 28.72200
H  35.01800 5.15500 28.45500
H  40.44900 8.91100 24.84600
H  43.37200 8.60900 25.06400
H  41.42400 6.09100 25.17300
H  42.53400 7.00100 24.14700
H  40.67500 6.85900 23.80200
H  41.87200 10.68000 23.96300
H  43.45100 10.99400 24.78800
H  41.18800 11.22200 26.70000
H  40.83200 12.02900 25.19900
H  42.28100 12.48200 25.98700
H  45.71500 12.21100 28.20900
H  46.76200 10.77500 28.55100
H  46.44200 12.16400 29.73600
H  43.77600 11.37600 33.87800
H  44.63900 9.34000 37.60900
H  46.22400 9.60900 36.82300
H  45.22400 8.18400 36.45300
Mg 0.22100 43.34700 24.89800
C  2.13900 43.28000 28.00500
C  -2.60700 42.74900 26.92100
C  -1.46600 42.80200 22.14400
C  3.20000 43.61200 23.23700
N  -0.08600 43.03000 27.28100
C  0.77600 43.15400 28.34400
C  0.07400 43.10400 29.70200
C  -1.47800 42.82500 29.22500
C  -1.44500 42.87100 27.75400
C  -1.99500 41.37100 29.56000
C  0.13200 44.33800 30.53300
C  0.57200 44.14700 32.02900
H  0.45500 42.77200 32.78800
N  -1.76900 42.98900 24.50100
C  -2.76500 42.76000 25.47000
C  -4.00500 42.44500 24.80500
C  -3.80100 42.65100 23.37500
C  -2.30000 42.81400 23.25600
C  -5.23300 42.04000 25.56100
C  -4.74900 42.72300 22.26000
O  -4.40200 42.88700 21.08800
C  -6.29200 42.65000 22.52100
N  0.81300 43.05200 22.99700
C  -0.08300 42.97600 21.99900
C  0.56800 43.14100 20.64900
C  1.93700 43.78700 21.08200
C  2.03600 43.35000 22.51200
C  0.71800 41.64000 20.02900
C  1.82900 45.34200 20.88500
C  3.13500 46.14000 20.76100
N  2.33900 43.43600 25.46000
C  3.43000 43.62900 24.63600
C  4.65300 43.75300 25.41400
C  4.18100 43.60700 26.73500
C  2.77100 43.41500 26.73400
C  6.06100 44.01900 24.90400
C  4.58900 43.53600 28.12800
O  5.76200 43.60300 28.54600
C  3.25100 43.42700 29.05200
C  3.41200 42.30700 29.89700
O  3.23800 41.14900 29.58700
O  4.02100 42.79800 31.03700
C  4.41700 41.75900 32.01700
H  -3.53700 42.74700 27.49300
H  -1.86300 42.68900 21.13300
H  4.09300 43.91400 22.68600
H  0.49700 42.25000 30.23100
H  -2.20300 43.57700 29.53500
H  -1.34900 40.90400 30.30400
H  -1.94400 40.78000 28.64500
H  -3.02400 41.49700 29.89400
H  -0.81500 44.87500 30.58600
H  0.75300 45.09400 30.05300
H  -0.19900 44.74700 32.51400
H  1.52200 44.67500 32.11600
H  -5.69600 41.33600 24.87000
H  -6.04200 42.76900 25.58100
H  -5.09500 41.64500 26.56800
H  -6.76600 42.91500 21.57600
H  -6.52200 43.54800 23.09300
H  -6.67300 41.77000 23.03800
H  -0.01000 43.80100 20.00400
H  2.76300 43.39200 20.49000
H  0.62700 41.80800 18.95600
H  -0.07200 40.93500 20.28900
H  1.64600 41.11300 20.24900
H  1.16500 45.82100 21.60500
H  1.43400 45.52800 19.88600
H  3.18400 46.54800 19.75100
H  3.94100 45.43100 20.95300
H  3.25200 46.95500 21.47500
H  6.27700 45.05700 25.15900
H  6.03600 43.86700 23.82500
H  6.69900 43.27500 25.38000
H  3.14000 44.37000 29.58700
H  3.95000 40.79900 31.79600
H  4.00700 42.09200 32.97100
H  5.48900 41.60200 32.13700

