158

Mg 1.28000 -1.54000 44.39600
C  4.61200 -0.24900 44.00000
C  0.21500 1.27500 42.74300
C  -1.73600 -3.00900 43.94600
C  2.51500 -4.23900 45.90200
N  2.33700 0.15000 43.20800
C  3.68000 0.52300 43.30500
C  3.98900 1.88300 42.75700
C  2.57200 2.54000 42.83700
C  1.62100 1.27500 42.90900
C  2.38900 3.50100 44.02800
C  4.55500 1.80500 41.33100
C  6.01400 2.12900 40.90500
H  6.15800 2.99200 39.60900
N  -0.66800 -0.83400 43.59300
C  -0.85800 0.35400 42.97500
C  -2.19900 0.53600 42.58000
C  -2.77800 -0.78300 42.86600
C  -1.70000 -1.61200 43.47000
C  -2.72000 1.81200 41.91300
C  -4.19300 -1.17600 42.56500
O  -4.91700 -0.42300 41.92300
C  -4.73800 -2.43200 43.06200
N  0.57500 -3.40000 44.78300
C  -0.72100 -3.69500 44.61500
C  -1.00100 -5.00800 45.34500
C  0.30700 -5.49600 45.90500
C  1.17100 -4.30800 45.48800
C  -2.06600 -4.81000 46.40900
C  0.80700 -6.89300 45.32000
C  1.13900 -7.88900 46.43100
N  3.14200 -2.21500 44.78400
C  3.52400 -3.34200 45.45000
C  4.86100 -3.29200 45.83500
C  5.36000 -2.11800 45.27200
C  4.27300 -1.48300 44.60500
C  5.64000 -4.27600 46.70600
C  6.50600 -1.25300 45.24600
O  7.62200 -1.29000 45.76600
C  6.12800 -0.07800 44.27700
C  6.38500 1.12600 45.04900
O  5.61000 1.60200 45.90700
O  7.59000 1.64000 44.65300
C  8.09600 2.71700 45.36900
H  -0.05100 2.29200 42.44800
H  -2.59300 -3.68600 43.97600
H  2.95200 -5.05100 46.48700
H  4.61200 2.44800 43.45000
H  2.35200 3.21200 42.00800
H  3.27000 3.83000 44.57900
H  1.69000 3.03600 44.72300
H  1.95600 4.44700 43.70300
H  3.98900 2.44400 40.65300
H  4.32500 0.90000 40.76800
H  6.35900 1.12300 40.66900
H  6.54400 2.56500 41.75300
H  -2.85500 1.56100 40.86100
H  -2.11900 2.72000 41.86500
H  -3.71500 2.03000 42.30200
H  -5.78900 -2.62300 42.84300
H  -4.53900 -2.31100 44.12700
H  -4.12700 -3.16600 42.53700
H  -1.31500 -5.71900 44.58000
H  0.19400 -5.47000 46.98900
H  -1.46100 -4.39700 47.21600
H  -2.48200 -5.78600 46.66100
H  -2.90300 -4.22400 46.03100
H  1.76000 -6.65100 44.85100
H  0.16100 -7.41500 44.61400
H  2.09000 -7.57900 46.86400
H  1.11700 -8.90800 46.04400
H  0.37000 -7.98100 47.19700
H  5.97500 -5.01300 45.97600
H  4.98600 -4.80100 47.40200
H  6.44600 -3.63900 47.07100
H  6.81900 0.00500 43.43800
H  9.12900 2.91700 45.08600
H  8.10800 2.44800 46.42500
H  7.50400 3.59300 45.10400
Mg -6.25800 25.66800 26.08000
C  -5.08400 27.15000 29.04000
C  -8.22800 23.61900 28.08900
C  -6.89000 23.90400 23.43400
C  -3.91900 27.55000 24.37600
N  -6.54000 25.46100 28.36200
C  -5.96300 26.11500 29.36800
C  -6.53800 25.66400 30.62500
C  -7.33000 24.40600 30.28100
C  -7.42900 24.53500 28.79700
C  -6.63200 23.06900 30.72900
C  -7.45000 26.77400 31.31000
C  -7.40300 26.82500 32.90700
H  -6.64300 25.69700 33.73100
N  -7.45900 24.03600 25.72900
C  -8.27600 23.44600 26.64200
C  -9.05200 22.39900 26.01800
C  -8.62300 22.31400 24.66800
C  -7.59700 23.36500 24.54100
C  -10.10000 21.54600 26.70300
C  -9.18700 21.47400 23.62600
O  -8.75800 21.57200 22.46500
C  -10.25600 20.42100 23.88700
N  -5.39000 25.64900 24.18000
C  -6.00500 24.92100 23.24100
C  -5.42600 25.22300 21.84900
C  -4.56300 26.52900 22.05200
C  -4.68400 26.64700 23.60000
C  -4.70800 23.99000 21.15900
C  -5.08600 27.69800 21.24100
C  -6.41700 28.33800 21.63700
N  -4.79400 27.12000 26.48400
C  -3.83300 27.72900 25.74100
C  -3.15700 28.73900 26.48500
C  -3.59000 28.54200 27.78200
C  -4.51400 27.47900 27.74800
C  -2.21300 29.66300 25.94200
C  -3.45300 29.00500 29.14900
O  -2.90200 30.01600 29.65200
C  -4.31700 28.03600 30.01300
C  -3.44800 27.40200 30.99900
O  -2.89700 26.30900 30.92600
O  -3.31900 28.28700 32.06100
C  -2.65600 27.69400 33.27200
H  -8.83500 22.98400 28.73800
H  -6.91700 23.24000 22.56700
H  -3.19600 28.15700 23.82800
H  -5.67700 25.43000 31.25200
H  -8.34700 24.48400 30.66600
H  -6.41200 22.51400 29.81700
H  -7.24100 22.42700 31.36600
H  -5.70800 23.23700 31.28300
H  -8.50700 26.67200 31.06500
H  -7.09800 27.74600 30.96300
H  -8.44800 26.82100 33.22000
H  -6.98600 27.78500 33.21300
H  -9.65100 20.55300 26.74000
H  -11.01600 21.45400 26.12000
H  -10.22600 21.69500 27.77500
H  -9.88900 19.82600 24.72400
H  -10.39400 19.83700 22.97700
H  -11.21100 20.85000 24.19200
H  -6.34200 25.27100 21.26000
H  -3.53100 26.22100 21.87900
H  -5.27100 23.55200 20.33500
H  -4.50100 23.18800 21.86800
H  -3.73600 24.29500 20.77300
H  -5.19900 27.29000 20.23700
H  -4.30000 28.44700 21.33500
H  -7.04800 27.52100 21.98600
H  -6.97800 28.76300 20.80500
H  -6.34800 29.17400 22.33300
H  -2.36000 30.58800 26.49800
H  -2.37800 29.74500 24.86700
H  -1.17400 29.43000 26.17700
H  -4.97400 28.68400 30.59300
H  -3.44900 27.63200 34.01700
H  -1.84600 28.29800 33.68200
H  -2.35500 26.64800 33.22100

