158

Mg -11.80600 39.10500 42.70100
C  -10.00700 36.46000 41.50600
C  -9.28900 41.23600 41.53600
C  -14.00400 41.72400 43.08600
C  -14.48300 36.97200 43.57800
N  -9.92000 38.94900 41.51000
C  -9.39500 37.64400 41.19200
C  -8.08700 37.86000 40.43100
C  -7.78700 39.39800 40.48700
C  -9.01200 39.90300 41.31000
C  -6.36700 39.78000 41.09200
C  -8.02800 37.23200 38.92600
C  -6.80900 36.27000 38.69600
H  -5.86700 36.79200 37.64100
N  -11.67800 41.14600 42.37500
C  -10.55500 41.84700 41.87600
C  -10.82100 43.27000 41.86400
C  -12.16700 43.44000 42.31600
C  -12.70900 42.11700 42.63100
C  -9.82600 44.41400 41.43000
C  -12.82800 44.82900 42.41700
O  -12.29600 45.82800 42.01200
C  -14.21500 44.96800 43.02900
N  -13.98900 39.36200 43.19100
C  -14.65700 40.50300 43.42200
C  -16.04300 40.33100 44.01900
C  -16.18600 38.71900 43.85500
C  -14.78100 38.30900 43.54700
C  -16.16100 40.93800 45.47000
C  -17.17800 38.20900 42.73900
C  -18.23600 37.11500 43.26000
N  -12.15700 37.09600 42.78100
C  -13.22700 36.39100 43.11100
C  -12.86700 34.98400 42.94600
C  -11.59900 35.00800 42.31300
C  -11.29500 36.32000 42.10400
C  -13.66400 33.73800 43.36800
C  -10.55900 34.13100 41.75700
O  -10.51400 32.90700 41.70300
C  -9.48900 35.01900 41.26400
C  -8.33700 34.66000 42.14700
O  -8.37500 34.43200 43.37400
O  -7.24300 34.54400 41.36900
C  -5.98400 34.23900 42.01000
H  -8.51100 41.94500 41.24400
H  -14.62400 42.60000 43.29000
H  -15.18200 36.20600 43.92000
H  -7.39700 37.36200 41.11200
H  -7.65500 39.80200 39.48300
H  -6.00700 38.98700 41.74700
H  -6.60400 40.61100 41.75600
H  -5.62900 40.08000 40.34800
H  -8.02600 38.00700 38.16000
H  -8.90100 36.64700 38.63600
H  -7.21900 35.26800 38.57500
H  -6.18300 36.24700 39.58800
H  -10.24800 44.97100 40.59300
H  -8.83000 43.98300 41.32800
H  -9.75900 45.22800 42.15200
H  -14.85200 44.45600 42.30700
H  -14.50400 46.01700 43.08700
H  -14.25600 44.60600 44.05600
H  -16.74200 40.84900 43.36300
H  -16.39000 38.22900 44.80700
H  -15.23700 41.41900 45.79200
H  -16.36000 40.17300 46.22100
H  -16.96400 41.67500 45.49300
H  -16.63300 37.80200 41.88800
H  -17.84800 39.01000 42.42800
H  -19.16500 37.39300 42.76200
H  -18.37000 37.14500 44.34100
H  -17.92200 36.18200 42.79200
H  -14.13400 33.89200 44.33900
H  -12.96500 32.90200 43.34900
H  -14.43200 33.55700 42.61700
H  -9.28800 34.84900 40.20600
H  -5.95600 33.15100 41.95700
H  -5.89500 34.73500 42.97700
H  -5.35100 34.73600 41.27500
Mg 0.61000 43.50200 26.56600
C  2.98500 43.29400 29.13500
C  -1.72100 42.62100 28.81400
C  -1.52200 42.93400 23.99800
C  3.25300 43.91200 24.26900
N  0.64900 43.08200 28.83800
C  1.66400 43.07600 29.68100
C  1.20700 42.88800 31.16300
C  -0.34600 42.59600 30.97900
C  -0.45300 42.68300 29.43000
C  -0.87200 41.28100 31.52100
C  1.66200 44.07900 32.05300
C  1.94100 43.71500 33.51800
H  1.41800 42.39300 34.07300
N  -1.36100 43.12900 26.43300
C  -2.16000 42.69000 27.47800
C  -3.54000 42.51300 27.02300
C  -3.42700 42.58100 25.60500
C  -2.05000 42.86300 25.30900
C  -4.69200 42.03100 27.96700
C  -4.51600 42.31400 24.61800
O  -4.31600 42.35500 23.40300
C  -5.83700 41.98500 25.04400
N  0.77000 43.62700 24.43800
C  -0.25000 43.25000 23.57700
C  0.19000 43.52100 22.13600
C  1.65700 44.07200 22.25100
C  1.93600 43.82100 23.71000
C  0.18800 42.28100 21.24400
C  1.82600 45.54000 21.79900
C  1.55100 45.69400 20.26600
N  2.60600 43.60200 26.63800
C  3.58900 43.76900 25.64000
C  4.88800 43.64600 26.22200
C  4.66700 43.39500 27.56000
C  3.30200 43.50900 27.76300
C  6.16500 43.65400 25.42000
C  5.36200 43.04000 28.79100
O  6.54900 42.68300 28.99500
C  4.32700 43.24000 29.94400
C  4.50900 42.15100 30.96200
O  4.14200 41.03100 30.82400
O  5.15000 42.69100 32.04600
C  5.47400 41.65900 33.08900
H  -2.52600 42.38100 29.51200
H  -2.05900 42.88600 23.04900
H  4.13600 44.14000 23.66900
H  1.61700 41.93600 31.50000
H  -0.99600 43.40800 31.30500
H  -1.88300 41.43500 31.90100
H  -0.20200 41.05900 32.35200
H  -0.88100 40.46600 30.79700
H  0.91700 44.87100 31.97700
H  2.65400 44.36600 31.70500
H  1.76600 44.54100 34.20700
H  3.02100 43.63000 33.64300
H  -4.35500 42.32000 28.96300
H  -4.80600 40.94700 27.93700
H  -5.71100 42.40400 27.85900
H  -5.81500 41.04500 25.59700
H  -6.45000 41.88900 24.14800
H  -6.11900 42.79900 25.71100
H  -0.26600 44.37900 21.64300
H  2.36400 43.41000 21.75000
H  0.17700 41.39100 21.87200
H  0.93500 42.25100 20.45100
H  -0.82300 42.32000 20.83800
H  2.78500 45.94700 22.11800
H  1.01700 46.01700 22.35400
H  0.54200 45.98200 19.97100
H  1.75100 44.77000 19.72300
H  2.22200 46.46600 19.88800
H  6.11800 43.07500 24.49800
H  6.87900 43.12900 26.05500
H  6.46900 44.68800 25.25900
H  4.46100 44.25600 30.31700
H  6.27900 41.99700 33.74100
H  5.73100 40.73400 32.57300
H  4.65800 41.43900 33.77800

