158

Mg 26.75700 0.82800 29.31300
C  28.45900 1.01700 32.35100
C  23.82700 1.73700 31.09300
C  24.98900 0.62500 26.43100
C  29.55000 -0.21800 27.74300
N  26.20500 1.40200 31.51500
C  27.04100 1.34700 32.61600
C  26.34900 1.65800 34.02500
C  24.87300 1.69000 33.49100
C  24.98800 1.58900 31.91000
C  24.01700 0.54700 34.08900
C  26.82700 3.02200 34.53900
C  27.50300 3.00500 35.90000
H  26.82600 3.67100 37.04400
N  24.65000 1.07900 28.86600
C  23.63400 1.41900 29.69700
C  22.43300 1.58900 28.99100
C  22.75800 1.33300 27.63200
C  24.18100 0.90400 27.57300
C  21.06400 1.85400 29.69900
C  21.88600 1.43100 26.35900
O  22.27200 1.20900 25.17200
C  20.44500 1.91900 26.54800
N  27.22700 0.38800 27.40100
C  26.34400 0.32200 26.35200
C  27.01800 0.09800 25.03100
C  28.54200 -0.22400 25.41200
C  28.49300 0.04900 26.90900
C  26.33500 -0.94500 24.12300
C  29.55700 0.64300 24.55400
C  30.53900 -0.21000 23.71700
N  28.56700 0.36900 29.93700
C  29.65000 -0.00600 29.12100
C  30.84100 0.01800 29.92600
C  30.49400 0.36600 31.16200
C  29.03100 0.57000 31.14300
C  32.13200 -0.27500 29.42700
C  30.92100 0.77200 32.47500
O  32.05000 0.89800 32.98900
C  29.65000 0.95300 33.35300
C  29.69200 -0.13500 34.41200
O  29.35600 -1.29500 34.19800
O  30.16500 0.32600 35.64700
C  29.88100 -0.51600 36.79000
H  23.01300 2.05100 31.75000
H  24.41700 0.64600 25.50100
H  30.52500 -0.38500 27.28100
H  26.63400 0.88500 34.73900
H  24.32500 2.60200 33.73000
H  23.27500 1.08400 34.68000
H  24.75700 -0.13200 34.51300
H  23.61800 -0.04900 33.26900
H  26.07000 3.80300 34.60200
H  27.60500 3.29900 33.82800
H  28.46700 3.49400 35.76300
H  27.72000 1.97700 36.19000
H  20.51500 2.61300 29.14100
H  21.12400 2.06500 30.76600
H  20.55700 0.90300 29.53800
H  20.01700 1.82200 25.55100
H  20.54000 2.96800 26.82500
H  19.83800 1.43300 27.31200
H  26.97500 1.07500 24.54800
H  28.71100 -1.28900 25.25000
H  25.58900 -1.46600 24.72300
H  27.12400 -1.58500 23.72700
H  25.83800 -0.38600 23.33000
H  30.06000 1.26300 25.29600
H  28.97700 1.15400 23.78600
H  31.54500 0.15100 23.93000
H  30.38800 0.01900 22.66200
H  30.46500 -1.28800 23.85900
H  32.56200 0.57600 28.89900
H  31.98900 -1.10300 28.73100
H  32.82500 -0.59700 30.20400
H  29.91400 1.85600 33.90400
H  29.48600 0.06300 37.62400
H  30.79300 -0.94500 37.20400
H  29.09700 -1.23900 36.56900
Mg 5.26500 54.96200 41.43200
C  4.92000 51.57000 41.77000
C  8.12600 54.48400 39.54200
C  5.27700 58.16200 40.45000
C  2.01600 55.39300 42.80600
N  6.26700 53.25000 40.59700
C  5.98000 51.96400 40.92700
C  7.09000 51.04100 40.46600
C  8.25500 51.99100 40.02000
C  7.53600 53.32000 40.07400
C  9.55600 52.07400 40.90900
C  6.50800 50.17700 39.23800
C  5.33300 50.72600 38.36300
H  5.44600 51.09600 36.86800
N  6.50800 56.17900 40.14200
C  7.67500 55.80500 39.52300
C  8.34500 56.96800 38.92500
C  7.56300 58.05100 39.40800
C  6.40200 57.51300 40.05200
C  9.66600 56.90800 38.13100
C  8.00900 59.48700 39.24800
O  9.02700 59.77600 38.64600
C  7.33100 60.56100 39.92900
N  3.79500 56.44500 41.40300
C  4.06800 57.75000 41.01300
C  2.98100 58.76800 41.42100
C  1.79000 57.84900 41.90200
C  2.60300 56.50600 42.14300
C  3.29700 59.86400 42.55000
C  0.69200 57.57900 40.82800
C  -0.62600 56.88900 41.30700
N  3.85100 53.78100 42.47100
C  2.60800 54.07200 42.90200
C  1.99100 52.89700 43.41600
C  2.89000 51.82700 43.09900
C  4.02100 52.44000 42.40400
C  0.65000 52.80900 44.03000
C  3.24200 50.38900 43.16800
O  2.72900 49.48300 43.70700
C  4.52400 50.23300 42.33500
C  4.22100 49.18200 41.37400
O  3.35000 49.20400 40.55000
O  4.95100 48.08100 41.64900
C  4.74800 46.87700 40.79700
H  9.08000 54.25400 39.06300
H  5.29700 59.19000 40.08200
H  1.02600 55.60600 43.21400
H  7.49600 50.30000 41.15400
H  8.69700 51.83300 39.03700
H  9.61300 52.88500 41.63500
H  10.46100 52.13400 40.30500
H  9.57200 51.25800 41.63200
H  6.35900 49.15800 39.59500
H  7.27500 50.16900 38.46400
H  5.01700 51.70000 38.73600
H  4.45500 50.09700 38.51200
H  9.38200 57.04400 37.08700
H  10.07700 55.91400 38.30600
H  10.43600 57.53500 38.58200
H  6.40700 60.73500 39.37800
H  7.94900 61.44600 39.77700
H  7.13600 60.27300 40.96300
H  2.76900 59.31700 40.50300
H  1.37400 58.18300 42.85200
H  2.96200 60.84800 42.22100
H  4.34000 59.94000 42.85500
H  2.69900 59.72400 43.45000
H  1.16700 56.83200 40.19200
H  0.48800 58.47800 40.24700
H  -1.37900 57.52600 40.84300
H  -0.73700 56.98900 42.38600
H  -0.76400 55.85700 40.98400
H  0.23000 53.81300 43.97600
H  0.61000 52.46000 45.06200
H  0.00600 52.08700 43.52800
H  5.39500 49.84000 42.85900
H  3.76400 46.47300 41.03200
H  5.58200 46.19000 40.94300
H  4.77000 47.00900 39.71500

