158

Mg 0.56400 7.72000 27.52500
C  1.49000 9.76400 30.07700
C  0.37400 5.03800 29.72300
C  -0.13100 5.59400 24.88500
C  0.97800 10.34900 25.33000
N  1.02100 7.42000 29.59900
C  1.25500 8.45300 30.51200
C  1.10300 7.88600 31.92900
C  1.18900 6.30100 31.66600
C  0.85500 6.22800 30.20800
C  2.48500 5.60900 32.04100
C  -0.25500 8.34300 32.66800
C  -0.35100 8.02000 34.18000
H  1.02300 7.89700 34.90000
N  0.32300 5.53600 27.35200
C  0.15200 4.63100 28.42700
C  -0.34000 3.39200 27.83000
C  -0.38100 3.52500 26.45200
C  -0.09900 4.95600 26.19400
C  -0.61200 2.23700 28.72500
C  -0.76700 2.48900 25.39000
O  -0.78000 2.73000 24.20400
C  -1.13900 1.04600 25.82900
N  0.51200 7.98400 25.36900
C  0.19100 6.97900 24.51300
C  0.24700 7.44300 23.10600
C  0.63400 8.92600 23.20000
C  0.67000 9.17000 24.71700
C  1.37000 6.64100 22.38800
C  -0.16000 9.93400 22.34200
C  -1.40000 10.49200 22.91400
N  1.06700 9.73700 27.60700
C  1.18400 10.71800 26.63500
C  1.54000 11.97600 27.30000
C  1.69100 11.67600 28.66800
C  1.32400 10.29500 28.78300
C  1.91800 13.33300 26.57300
C  2.08100 12.10100 29.99700
O  2.55300 13.13500 30.38700
C  1.89000 10.96100 30.97800
C  3.01600 10.75200 31.95900
O  3.92000 9.95100 32.02800
O  2.68400 11.57800 32.99500
C  3.50800 11.53100 34.24900
H  0.15400 4.27800 30.47600
H  -0.44100 4.99400 24.02700
H  1.08400 11.23200 24.69700
H  1.91700 8.31500 32.51300
H  0.44500 5.73900 32.23100
H  2.93200 5.09200 31.19200
H  2.33600 4.90500 32.86000
H  3.17100 6.41700 32.29500
H  -1.12600 7.94900 32.14400
H  -0.30300 9.43200 32.64300
H  -0.92200 7.09200 34.22600
H  -0.88100 8.75100 34.79000
H  -1.63200 1.98500 28.43500
H  -0.63200 2.52700 29.77600
H  0.10000 1.44400 28.49700
H  -0.42400 0.54900 26.48600
H  -1.30600 0.46300 24.92400
H  -2.16100 0.97300 26.19900
H  -0.71000 7.20900 22.63900
H  1.66000 9.02500 22.84800
H  2.00500 6.10000 23.08900
H  2.00500 7.26200 21.75600
H  0.88300 5.90000 21.75400
H  -0.36500 9.54500 21.34500
H  0.58300 10.73000 22.39200
H  -1.15400 11.45000 23.37200
H  -1.80400 9.74700 23.60000
H  -2.10400 10.64700 22.09600
H  2.54200 13.02600 25.73400
H  2.40000 14.12500 27.14600
H  0.95800 13.74600 26.26100
H  1.05800 11.24100 31.62400
H  2.89200 11.08700 35.03100
H  3.82700 12.50900 34.60800
H  4.43700 10.97400 34.13200
Mg 24.99800 1.13100 28.61000
C  27.14500 0.54000 31.39400
C  22.29800 0.88000 30.79300
C  22.85600 0.96800 25.93600
C  27.68900 0.45600 26.52500
N  24.79700 0.72000 30.77100
C  25.77700 0.64900 31.70700
C  25.26300 0.92900 33.12700
C  23.67700 0.90100 32.86900
C  23.55300 0.79700 31.36400
C  23.04900 -0.31400 33.55600
C  25.76500 2.31700 33.66500
C  25.26100 2.71600 35.06000
H  26.22200 2.72400 36.29700
N  22.83700 1.14600 28.41100
C  21.90100 1.02500 29.41300
C  20.61900 1.13200 28.82300
C  20.76100 1.19200 27.42500
C  22.22300 1.03700 27.18000
C  19.31000 1.19300 29.56800
C  19.63000 1.27500 26.32700
O  19.85800 1.76600 25.18700
C  18.25800 0.89500 26.67800
N  25.22000 0.82700 26.49400
C  24.19000 0.88900 25.61400
C  24.69000 0.99700 24.16500
C  26.30900 0.85100 24.33600
C  26.42500 0.72000 25.89400
C  23.95200 0.08200 23.19300
C  27.03100 2.09700 23.79500
C  26.74700 3.44900 24.50700
N  27.07700 0.68400 28.81600
C  28.02000 0.34900 27.88000
C  29.25600 0.04300 28.55200
C  29.01300 0.17200 29.96000
C  27.61800 0.50000 30.04900
C  30.51000 -0.30300 27.82400
C  29.55300 -0.01600 31.33000
O  30.68100 -0.36300 31.74200
C  28.34000 0.42900 32.22800
C  28.19400 -0.50400 33.33900
O  27.31000 -1.38300 33.43600
O  29.22000 -0.19500 34.29100
C  29.16700 -0.96200 35.50400
H  21.52800 0.97300 31.56200
H  22.23500 0.99000 25.03800
H  28.50200 0.27400 25.81900
H  25.55400 0.13500 33.81400
H  23.21500 1.80800 33.26000
H  22.47500 -0.92300 32.85700
H  22.34000 -0.00100 34.32200
H  23.73700 -1.06900 33.93500
H  25.63900 3.14700 32.97000
H  26.83500 2.52500 33.64700
H  24.57200 1.91700 35.33300
H  24.88000 3.72700 34.91100
H  18.59800 0.40100 29.33300
H  18.99000 2.20000 29.30000
H  19.28000 1.12000 30.65500
H  18.39000 -0.07400 27.15900
H  17.72100 0.68200 25.75400
H  17.92600 1.70100 27.33300
H  24.56100 2.00200 23.76400
H  26.67400 -0.05200 23.84800
H  23.62900 0.67600 22.33800
H  23.24600 -0.57300 23.70300
H  24.70900 -0.54300 22.71900
H  26.77300 2.21200 22.74200
H  28.11100 2.01700 23.92100
H  25.94500 3.37100 25.24000
H  26.29300 4.10300 23.76300
H  27.67000 3.80000 24.96900
H  30.46900 -0.07900 26.75800
H  30.62600 -1.38500 27.88500
H  31.40200 0.02200 28.35800
H  28.65200 1.37400 32.67200
H  28.54500 -0.41100 36.20900
H  30.19100 -1.10400 35.84800
H  28.83800 -1.99700 35.40300

