158

Mg 40.40500 10.24000 30.15900
C  41.98300 11.74300 32.73100
C  38.05500 9.02300 32.34900
C  38.71100 8.86900 27.60500
C  42.89800 11.19100 27.94100
N  39.95000 10.48300 32.34000
C  40.86500 11.01400 33.22300
C  40.43400 10.84400 34.68200
C  39.23100 9.83100 34.52600
C  38.99200 9.82300 32.98000
C  39.62700 8.35800 35.06200
C  40.03300 12.08800 35.38300
C  40.70400 12.26100 36.75000
H  40.11900 13.24200 37.75400
N  38.62500 9.15500 30.01800
C  37.80800 8.67400 30.97500
C  36.73300 7.92400 30.41800
C  36.81900 8.01000 29.03200
C  38.07300 8.78000 28.78200
C  35.54800 7.27000 31.33300
C  35.90200 7.41600 27.95600
O  35.97400 7.57000 26.72200
C  34.62700 6.67300 28.46000
N  40.74400 10.12400 28.00300
C  39.91100 9.47400 27.19900
C  40.52100 9.40100 25.74300
C  41.75000 10.36800 25.86100
C  41.79400 10.59500 27.35300
C  40.95400 7.96100 25.28600
C  41.58100 11.64500 25.00000
C  40.75300 12.82300 25.54700
N  42.12500 11.19900 30.25500
C  43.03700 11.57300 29.29300
C  44.03200 12.44500 29.89200
C  43.58600 12.48200 31.25100
C  42.42900 11.80100 31.40200
C  45.22100 13.06800 29.24200
C  44.06500 12.96000 32.52200
O  45.06800 13.57000 32.84800
C  42.99200 12.56400 33.53600
C  43.64900 11.77100 34.61900
O  43.72600 10.57000 34.57900
O  44.03400 12.50100 35.70800
C  44.71300 11.80900 36.90000
H  37.44300 8.44300 33.04300
H  38.31200 8.29700 26.76500
H  43.61100 11.59500 27.21800
H  41.32000 10.36500 35.09800
H  38.41400 10.14500 35.17600
H  38.78300 7.88300 35.56200
H  40.48300 8.51200 35.71900
H  39.94100 7.61700 34.32700
H  38.94800 12.17200 35.44700
H  40.42500 12.94400 34.83300
H  41.69000 12.60800 36.43900
H  40.74800 11.31700 37.29200
H  34.58800 7.71400 31.07100
H  35.77700 7.49700 32.37500
H  35.55500 6.18600 31.21800
H  35.05800 5.78200 28.91900
H  33.96300 6.46900 27.62100
H  33.95400 7.26600 29.07900
H  39.77800 9.74000 25.02100
H  42.72000 10.04500 25.48500
H  40.66500 7.13700 25.93900
H  42.04100 7.92100 25.21800
H  40.52400 7.77100 24.30300
H  41.04600 11.30400 24.11400
H  42.53700 12.09200 24.73000
H  40.19600 13.30000 24.74100
H  41.55200 13.48000 25.89200
H  40.07900 12.57500 26.36700
H  44.89700 13.27700 28.22200
H  46.06200 12.37400 29.26000
H  45.50700 13.86300 29.93000
H  42.54600 13.48100 33.92100
H  45.30700 10.92900 36.65700
H  43.84100 11.53400 37.49400
H  45.35700 12.50200 37.44200
Mg -11.04700 37.89800 41.99800
C  -9.48400 34.86000 40.94600
C  -8.81700 39.63400 40.18000
C  -12.99500 40.48300 42.62000
C  -13.73800 35.58500 43.13000
N  -9.39700 37.27800 40.68400
C  -8.95400 35.98000 40.36500
C  -7.96300 36.06600 39.17600
C  -7.57600 37.58200 39.25000
C  -8.70300 38.25300 40.00200
C  -6.15400 37.98100 39.80100
C  -8.55000 35.57300 37.85800
C  -7.67400 34.68600 36.96100
H  -6.69600 35.34600 36.07700
N  -10.81300 39.85000 41.67500
C  -9.78000 40.37000 40.91300
C  -9.86000 41.75300 40.99300
C  -11.11200 42.09900 41.74900
C  -11.68900 40.82200 42.10700
C  -8.88200 42.75500 40.36400
C  -11.69700 43.48400 42.04100
O  -11.20600 44.52000 41.57500
C  -12.81800 43.64600 43.02500
N  -13.00200 37.96700 42.85200
C  -13.58100 39.21200 42.98000
C  -15.06500 39.15000 43.47700
C  -15.24500 37.60500 43.71300
C  -13.89800 37.00000 43.16200
C  -15.33400 40.00600 44.69400
C  -16.44700 36.94100 42.90300
C  -17.32900 35.89100 43.65500
N  -11.54900 35.66400 42.19100
C  -12.62000 34.94900 42.60700
C  -12.44600 33.55200 42.30800
C  -11.18600 33.40700 41.78000
C  -10.67200 34.77300 41.68500
C  -13.29000 32.43100 42.75800
C  -10.15500 32.48100 41.21700
O  -10.08400 31.28300 41.10600
C  -9.02500 33.44900 40.71300
C  -7.77400 33.17000 41.44000
O  -6.66600 33.28600 40.90400
O  -8.00000 32.98200 42.78900
C  -6.76700 33.27500 43.58600
H  -8.03500 40.08700 39.56700
H  -13.82300 41.19400 42.64800
H  -14.56400 34.92100 43.39200
H  -7.10900 35.42600 39.40100
H  -7.54700 38.02600 38.25500
H  -5.56500 38.55100 39.08300
H  -5.55500 37.11800 40.09100
H  -6.32000 38.58900 40.69100
H  -8.77600 36.41000 37.19700
H  -9.53900 35.12200 37.94300
H  -8.30100 33.92800 36.49000
H  -7.05700 34.00700 37.55000
H  -9.29900 43.10000 39.41700
H  -7.97500 42.19700 40.13200
H  -8.80100 43.49200 41.16300
H  -12.82900 44.50200 43.69800
H  -12.69600 42.85000 43.76000
H  -13.75200 43.61900 42.46400
H  -15.70500 39.45300 42.64800
H  -15.35100 37.54600 44.79700
H  -16.31100 40.42800 44.45800
H  -14.68300 40.87000 44.82500
H  -15.44300 39.53500 45.67100
H  -16.07500 36.51800 41.97000
H  -17.08700 37.78000 42.62800
H  -17.51500 34.98300 43.08200
H  -18.33200 36.31300 43.72800
H  -17.00900 35.58100 44.64900
H  -13.43000 31.72300 41.94100
H  -14.21800 32.84600 43.15000
H  -12.74400 31.88900 43.52900
H  -8.88000 33.17500 39.66800
H  -6.07200 32.43600 43.54200
H  -7.19000 33.58500 44.54200
H  -6.29200 34.19500 43.24700

