158

Mg 17.38500 -2.29500 28.11000
C  16.31200 -0.41400 30.80600
C  19.22900 -4.26700 30.23100
C  18.67200 -3.88800 25.41000
C  15.68800 -0.06100 25.99600
N  17.82800 -2.26000 30.27900
C  17.18600 -1.47800 31.18400
C  17.41200 -1.98700 32.61800
C  18.43500 -3.11100 32.40100
C  18.52600 -3.22000 30.85200
C  19.83700 -2.91800 33.09400
C  16.07900 -2.30000 33.34300
C  16.02300 -2.10200 34.89400
H  17.16100 -1.38600 35.61500
N  18.68100 -3.98100 27.83800
C  19.40200 -4.64500 28.83900
C  20.25900 -5.66500 28.29200
C  20.00000 -5.55100 26.90800
C  19.02700 -4.47000 26.66700
C  21.16000 -6.62500 29.06400
C  20.53300 -6.48000 25.83300
O  20.27900 -6.37600 24.63100
C  21.31800 -7.68900 26.22900
N  17.10800 -2.14600 26.04700
C  17.92800 -2.77800 25.07200
C  17.60900 -2.33500 23.67300
C  16.51000 -1.32400 23.92100
C  16.50200 -1.04800 25.43100
C  18.83500 -1.90000 22.92600
C  15.13000 -1.72900 23.16300
C  14.85900 -1.31500 21.71100
N  16.25800 -0.47400 28.29200
C  15.56500 0.19800 27.35000
C  14.66600 1.13900 27.99100
C  14.93900 0.97100 29.41600
C  15.92100 -0.08100 29.52300
C  13.87000 2.16500 27.35000
C  14.72100 1.47300 30.75100
O  13.98500 2.33800 31.16600
C  15.52500 0.52600 31.70500
C  16.46900 1.35100 32.57500
O  17.69300 1.47900 32.37000
O  15.76300 2.17400 33.42300
C  16.58400 3.00800 34.28800
H  19.90800 -4.81000 30.89100
H  19.06800 -4.24200 24.45600
H  15.17600 0.67700 25.37600
H  17.83100 -1.12600 33.13900
H  18.02100 -4.07400 32.69700
H  19.67700 -2.99200 34.17000
H  20.22600 -1.91300 32.93300
H  20.48600 -3.74900 32.81600
H  15.91900 -3.37700 33.29500
H  15.15200 -2.04000 32.83200
H  15.80900 -3.06500 35.35700
H  15.12400 -1.50300 35.04200
H  20.63800 -7.58200 29.09600
H  21.25500 -6.26200 30.08800
H  22.18100 -6.68600 28.68700
H  21.58400 -8.35100 25.40500
H  20.71200 -8.34300 26.85700
H  22.26200 -7.49100 26.73700
H  17.13800 -3.11500 23.07600
H  16.82700 -0.38500 23.46800
H  19.75000 -1.97100 23.51400
H  18.65000 -0.88800 22.56600
H  18.84000 -2.58300 22.07700
H  14.42300 -1.16700 23.77200
H  14.91700 -2.79600 23.23000
H  14.24300 -0.41600 21.69100
H  14.52900 -2.12000 21.05500
H  15.78300 -0.82500 21.40300
H  12.83100 1.83400 27.36600
H  14.13400 2.13500 26.29300
H  13.87100 3.15400 27.80700
H  14.84700 -0.01700 32.36400
H  17.64100 2.74000 34.29500
H  16.42500 2.77400 35.34000
H  16.50300 4.06900 34.05000
Mg 46.93500 34.17900 27.25100
C  45.36100 32.58500 29.96200
C  46.96900 37.14900 29.01500
C  47.72900 35.78100 24.46400
C  45.93800 31.38800 25.28300
N  46.20000 34.74400 29.29100
C  45.87000 33.89700 30.32000
C  46.07400 34.55700 31.64700
C  46.16600 36.11400 31.26800
C  46.45700 36.03300 29.75400
C  44.85500 36.93300 31.62400
C  47.32500 33.99400 32.39200
C  47.37100 34.13000 33.91000
H  46.54900 35.26900 34.63300
N  47.39800 36.18200 26.84100
C  47.41500 37.24700 27.66700
C  47.90800 38.45900 27.01000
C  48.27100 38.06100 25.71300
C  47.86000 36.60900 25.62400
C  48.01300 39.75400 27.77100
C  48.77400 38.87800 24.54100
O  49.10500 38.44500 23.51100
C  48.91700 40.38400 24.77800
N  46.77900 33.68000 25.21400
C  47.26300 34.51300 24.23400
C  47.26800 33.90800 22.83100
C  46.86400 32.48100 23.19000
C  46.48400 32.53700 24.63500
C  46.40000 34.47200 21.63300
C  47.91100 31.45100 22.83200
C  47.55500 30.83200 21.52200
N  46.03500 32.26000 27.56100
C  45.63800 31.29500 26.64700
C  45.15900 30.15600 27.39500
C  45.01500 30.63800 28.69600
C  45.47100 31.95600 28.73000
C  44.80700 28.77600 26.86500
C  44.56400 30.27300 29.94200
O  44.26300 29.18400 30.40500
C  44.51300 31.56000 30.84100
C  44.79400 31.53100 32.29400
O  45.75200 30.98100 32.80800
O  43.80800 32.10300 33.01500
C  43.94800 32.01800 34.47800
H  46.98000 38.02700 29.66400
H  47.90600 36.34300 23.54500
H  45.58100 30.52700 24.71500
H  45.21600 34.39500 32.30100
H  47.05700 36.52500 31.74300
H  43.99600 36.35200 31.96300
H  44.47900 37.45900 30.74600
H  45.07800 37.66500 32.39900
H  48.28600 34.41600 32.10000
H  47.22000 32.95000 32.09600
H  48.37600 34.29200 34.30100
H  46.97700 33.14800 34.17300
H  49.08800 39.91300 27.68900
H  47.78000 39.74500 28.83600
H  47.34100 40.44700 27.26500
H  49.24600 40.66100 23.77600
H  49.77200 40.56000 25.43100
H  47.93500 40.81200 24.97800
H  48.31700 33.89600 22.53600
H  45.87700 32.35400 22.74400
H  45.86100 33.71300 21.06500
H  47.13200 35.02300 21.04400
H  45.71300 35.27900 21.88700
H  48.00300 30.67500 23.59200
H  48.87900 31.92500 22.66700
H  47.34200 31.59700 20.77600
H  46.64900 30.22600 21.54200
H  48.37300 30.26600 21.07500
H  45.62400 28.08200 26.66700
H  44.23800 29.03100 25.97000
H  44.11500 28.37500 27.60600
H  43.48600 31.92500 30.83000
H  44.69100 32.76300 34.76300
H  44.36400 31.04600 34.74000
H  42.99400 32.23000 34.96200

