158

Mg 17.27700 -1.62500 27.17800
C  16.14000 0.23100 29.98000
C  19.07100 -3.64400 29.18700
C  18.59900 -3.14100 24.40000
C  15.54600 0.60500 25.14700
N  17.37900 -1.79100 29.38700
C  16.90300 -0.89200 30.28500
C  17.43300 -1.26200 31.66900
C  18.57000 -2.26800 31.31300
C  18.38200 -2.60700 29.87400
C  19.99100 -1.75300 31.75500
C  16.34700 -1.61300 32.76100
C  16.66800 -1.25500 34.23800
H  18.07100 -0.82600 34.70400
N  18.44100 -3.28300 26.85400
C  19.03600 -4.03000 27.85300
C  19.50200 -5.27700 27.16100
C  19.48000 -5.06500 25.75000
C  18.83500 -3.77300 25.61900
C  20.07600 -6.35900 28.04900
C  19.83400 -6.01000 24.66700
O  19.48700 -5.83800 23.47300
C  20.66300 -7.14300 24.91600
N  17.17700 -1.15900 25.15000
C  17.88700 -1.92400 24.15400
C  17.73700 -1.26100 22.80000
C  16.55000 -0.30100 23.04200
C  16.33200 -0.32800 24.54600
C  19.05200 -0.48000 22.35600
C  15.33300 -0.64000 22.20700
C  15.17100 0.21400 20.98400
N  16.06500 0.13000 27.44900
C  15.33100 0.86000 26.49800
C  14.50000 1.80700 27.22600
C  14.86800 1.70100 28.60600
C  15.78500 0.60100 28.67600
C  13.61600 2.70900 26.59200
C  14.68500 2.18300 29.92600
O  13.88000 3.02200 30.25400
C  15.52700 1.28500 30.92300
C  16.50400 2.21100 31.67500
O  17.64700 2.46000 31.28400
O  16.02600 2.55600 32.86200
C  16.97400 3.16400 33.82000
H  19.62000 -4.25500 29.90600
H  19.05700 -3.38300 23.43800
H  15.05000 1.36100 24.53600
H  17.87600 -0.37200 32.11300
H  18.49300 -3.21200 31.85300
H  19.92500 -0.69700 32.01600
H  20.60100 -1.90500 30.86400
H  20.32300 -2.18200 32.70100
H  16.14900 -2.68200 32.67700
H  15.42100 -1.09400 32.51500
H  16.37500 -2.21900 34.65400
H  15.99500 -0.46300 34.56800
H  21.16000 -6.31300 28.15600
H  19.70100 -7.32100 27.69800
H  19.64700 -6.20100 29.03800
H  20.11300 -7.96600 25.37300
H  21.45300 -6.71600 25.53400
H  21.12100 -7.51700 24.00100
H  17.44200 -1.99400 22.04900
H  16.82600 0.71900 22.77300
H  19.72500 -0.56600 23.20900
H  18.71900 0.48700 21.97900
H  19.34200 -1.01600 21.45300
H  14.41500 -0.56400 22.79000
H  15.24500 -1.66400 21.84600
H  16.06000 0.74000 20.63600
H  14.36300 0.93500 21.11000
H  14.93200 -0.30600 20.05700
H  12.63900 2.36300 26.92900
H  13.66700 2.61400 25.50700
H  13.75600 3.72000 26.97400
H  14.83700 0.85900 31.65200
H  17.21800 4.15100 33.42800
H  17.93400 2.64800 33.79800
H  16.59600 3.04100 34.83500
Mg 9.12700 47.55600 25.50800
C  6.88700 47.87600 28.26500
C  11.57000 48.68200 27.62300
C  11.00500 48.00300 22.83900
C  6.36900 47.43300 23.40900
N  9.27400 48.15900 27.75400
C  8.21100 48.05500 28.68200
C  8.78100 48.31000 30.12300
C  10.19600 48.90100 29.84400
C  10.40000 48.57200 28.35900
C  10.28400 50.40800 29.92000
C  8.74300 47.07900 31.14800
C  8.46100 47.54500 32.55300
H  8.08100 46.42300 33.55000
N  11.00300 48.16100 25.26400
C  11.89600 48.50300 26.28500
C  13.22100 48.65800 25.74800
C  13.07100 48.37200 24.33400
C  11.64600 48.13600 24.09000
C  14.43900 49.02100 26.61000
C  14.10900 48.26500 23.28300
O  13.90300 47.86200 22.16100
C  15.52900 48.51600 23.67800
N  8.73700 47.65000 23.40000
C  9.66500 47.92000 22.52100
C  9.17000 47.86600 20.97000
C  7.74200 47.32000 21.21400
C  7.57100 47.48700 22.74200
C  9.22600 49.35800 20.38600
C  7.40800 45.91400 20.63600
C  6.25100 45.88900 19.68900
N  7.09200 47.59000 25.72000
C  6.07500 47.59300 24.75500
C  4.75700 47.66400 25.39400
C  5.07100 47.65300 26.71000
C  6.43200 47.70100 26.90700
C  3.42100 47.63200 24.76900
C  4.52300 47.69200 28.06400
O  3.33400 47.75500 28.30700
C  5.62600 47.74900 29.12100
C  5.53600 46.52500 29.89100
O  5.74100 45.43500 29.39900
O  5.17800 46.80200 31.19800
C  4.80800 45.66000 31.99300
H  12.39800 48.95800 28.27800
H  11.63800 48.01300 21.95000
H  5.48500 47.37600 22.77100
H  8.21600 49.15300 30.52100
H  10.89700 48.49200 30.57100
H  11.18300 50.81600 29.45800
H  10.38200 50.74000 30.95300
H  9.50700 50.93700 29.36900
H  9.73000 46.61900 31.09800
H  8.08000 46.25500 30.88500
H  7.73700 48.35900 32.53600
H  9.41200 47.88000 32.96600
H  15.18600 48.23300 26.52100
H  14.30000 49.20500 27.67600
H  14.92800 49.96100 26.35500
H  16.05300 48.61400 22.72700
H  15.81300 47.60600 24.20500
H  15.81600 49.34800 24.32100
H  9.87400 47.19700 20.47500
H  7.09500 48.02900 20.69700
H  8.29500 49.90700 20.52600
H  9.49200 49.29200 19.33100
H  10.10400 49.76000 20.89300
H  7.07000 45.28600 21.46000
H  8.19500 45.34400 20.14300
H  6.55800 45.39100 18.76900
H  5.86000 46.86100 19.38900
H  5.33200 45.37800 19.97800
H  2.85400 46.88700 25.32800
H  3.58300 47.46300 23.70500
H  3.04600 48.63200 24.98700
H  5.51400 48.64500 29.73100
H  3.73000 45.58200 31.85200
H  5.05800 45.72800 33.05200
H  5.18000 44.66100 31.76300

