158

Mg 17.28500 -1.18000 28.61100
C  15.78400 0.87200 31.06300
C  19.06900 -2.78300 31.07500
C  18.78300 -2.88100 26.22700
C  15.83300 0.90800 26.17300
N  17.28700 -1.05400 30.88000
C  16.61800 -0.10300 31.67800
C  16.92100 -0.29800 33.15700
C  18.29300 -1.18100 33.01900
C  18.27100 -1.75900 31.54800
C  19.55800 -0.27600 33.36900
C  15.80000 -0.98300 33.97500
C  15.81500 -0.70500 35.49500
H  16.99700 -0.09600 36.24300
N  18.66400 -2.70500 28.63900
C  19.23600 -3.26000 29.73900
C  20.08700 -4.28500 29.32900
C  19.98100 -4.38300 27.92500
C  19.10700 -3.24300 27.50300
C  20.89200 -5.07300 30.40000
C  20.75100 -5.28600 26.96000
O  20.70500 -5.17300 25.76100
C  21.54500 -6.51600 27.45700
N  17.46800 -0.83400 26.52100
C  17.98100 -1.85100 25.78500
C  17.83900 -1.54200 24.29800
C  16.95000 -0.30400 24.22600
C  16.68400 -0.03400 25.71000
C  19.21500 -1.57100 23.49400
C  15.68000 -0.38200 23.25800
C  14.27000 -0.91900 23.64600
N  16.01300 0.48000 28.60800
C  15.52300 1.22200 27.49700
C  14.67400 2.27700 27.98200
C  14.81700 2.21000 29.37100
C  15.56300 1.09100 29.70300
C  13.97700 3.34500 27.14700
C  14.51000 2.89300 30.59000
O  13.96500 3.98400 30.81300
C  15.10800 2.05800 31.80200
C  16.01400 2.75600 32.67500
O  17.12500 3.07800 32.38100
O  15.33100 3.15400 33.88000
C  16.12900 3.87200 34.85600
H  19.63200 -3.31600 31.84400
H  19.18000 -3.57500 25.48400
H  15.30000 1.52400 25.44600
H  17.19500 0.62600 33.66400
H  18.38800 -2.02600 33.70100
H  20.36000 -0.82900 32.87900
H  19.69700 -0.24200 34.44900
H  19.47200 0.77500 33.09100
H  15.88600 -2.06000 33.82600
H  14.89000 -0.76500 33.41700
H  15.64300 -1.72500 35.83900
H  14.96000 -0.15400 35.88500
H  20.29000 -5.82600 30.90900
H  21.27400 -4.38900 31.15800
H  21.77300 -5.50100 29.92100
H  21.91200 -7.14000 26.64200
H  20.94700 -7.14200 28.11900
H  22.34000 -6.09000 28.07000
H  17.23400 -2.35000 23.88700
H  17.59300 0.51700 23.91100
H  20.08900 -1.50100 24.14200
H  19.37100 -0.66700 22.90500
H  19.19500 -2.47400 22.88300
H  15.97800 -0.91800 22.35700
H  15.48800 0.61400 22.85700
H  13.59000 -0.10100 23.88500
H  14.47700 -1.64500 24.43100
H  14.00300 -1.45600 22.73600
H  14.64400 3.42600 26.28900
H  13.79000 4.35800 27.50300
H  13.00800 2.92400 26.87900
H  14.24600 1.64800 32.32700
H  17.14100 4.08200 34.50900
H  16.12000 3.25500 35.75400
H  15.64500 4.80400 35.14800
Mg -10.14700 39.34000 40.75200
C  -8.82200 36.31300 39.88100
C  -7.19700 40.92800 39.86000
C  -11.71000 42.35100 40.81900
C  -13.27500 37.77100 41.43100
N  -8.32500 38.74100 39.56900
C  -8.00100 37.43700 39.48200
C  -6.58400 37.34800 38.81400
C  -5.93900 38.68500 39.42000
C  -7.20500 39.53600 39.69800
C  -5.21700 38.51300 40.77000
C  -6.74800 37.38100 37.20800
C  -6.03100 36.26000 36.51700
H  -6.78000 35.70100 35.29700
N  -9.53200 41.30200 40.38400
C  -8.26100 41.75100 40.06600
C  -8.25400 43.15400 39.94600
C  -9.59800 43.58100 40.20800
C  -10.34400 42.41100 40.57100
C  -6.96800 43.88300 39.62100
C  -10.09900 44.96500 40.29000
O  -9.29100 45.82100 39.96700
C  -11.43400 45.42400 40.81500
N  -12.30800 39.97200 40.99300
C  -12.60400 41.27400 41.04800
C  -14.06700 41.50300 41.07000
C  -14.64300 40.02400 41.19700
C  -13.34700 39.17500 41.27200
C  -14.65800 42.44600 42.20400
C  -15.51700 39.54300 40.00700
C  -16.95600 39.49500 40.21200
N  -10.90400 37.37800 40.81300
C  -12.14100 36.86700 41.21900
C  -12.03600 35.42300 41.24000
C  -10.71100 35.18600 40.73200
C  -10.16300 36.35900 40.38900
C  -13.01100 34.42800 41.75500
C  -9.73700 34.11800 40.41000
O  -9.86700 32.89500 40.44200
C  -8.47400 34.84000 39.67200
C  -7.21400 34.33500 40.32700
O  -6.87500 34.50100 41.45200
O  -6.54200 33.54800 39.39000
C  -5.35400 32.80200 39.76200
H  -6.23900 41.42200 39.68600
H  -12.31200 43.25800 40.73300
H  -14.23600 37.28800 41.61800
H  -6.06900 36.43000 39.09600
H  -5.30700 39.19500 38.69300
H  -4.26300 39.04000 40.78500
H  -4.94600 37.47700 40.97400
H  -5.89300 38.87600 41.54500
H  -6.29100 38.28400 36.80500
H  -7.81500 37.35600 36.98700
H  -5.77400 35.40900 37.14800
H  -5.09200 36.68800 36.16500
H  -6.92400 44.36400 38.64400
H  -6.04700 43.33900 39.83200
H  -7.06300 44.74100 40.28600
H  -12.18100 45.53300 40.02900
H  -11.40600 46.44900 41.18600
H  -11.75700 44.85000 41.68300
H  -14.48600 42.09200 40.25300
H  -15.13400 39.97000 42.16900
H  -14.53900 43.47800 41.87300
H  -14.00300 42.31900 43.06600
H  -15.70900 42.27800 42.44100
H  -15.24300 38.53000 39.71200
H  -15.39800 40.20900 39.15200
H  -17.25800 39.79200 41.21600
H  -17.27100 38.45100 40.20500
H  -17.41900 39.92500 39.32300
H  -12.61700 33.41900 41.63400
H  -13.86900 34.50100 41.08700
H  -13.22500 34.51300 42.82000
H  -8.41000 34.66500 38.59800
H  -4.69400 32.78900 38.89500
H  -5.55200 31.80600 40.15700
H  -4.84800 33.27200 40.60500

