158

Mg 25.13600 1.50900 29.94500
C  27.10200 1.04400 32.86600
C  22.36600 1.28000 32.08900
C  23.24700 1.60100 27.29200
C  27.88500 0.59800 28.05000
N  24.85500 1.37700 32.23900
C  25.76800 1.25800 33.20400
C  25.19900 1.31700 34.67800
C  23.76200 1.18800 34.37200
C  23.60200 1.31000 32.79000
C  22.93600 -0.02300 34.92900
C  25.65800 2.57800 35.55600
C  26.18000 2.23600 36.97400
H  25.69300 3.09800 38.16600
N  23.03300 1.60400 29.75400
C  22.10800 1.50300 30.72300
C  20.84200 1.74600 30.00100
C  21.02700 1.74300 28.59000
C  22.47400 1.69900 28.47400
C  19.62900 2.11300 30.66800
C  20.09200 1.81400 27.45100
O  20.44200 1.80800 26.24000
C  18.59100 1.89100 27.75400
N  25.45600 0.73300 27.96600
C  24.57500 1.16800 27.03100
C  25.07600 1.14100 25.57700
C  26.58200 0.74200 25.83200
C  26.66500 0.75300 27.41500
C  24.24700 0.15200 24.71000
C  27.54200 1.69400 25.04200
C  28.04200 2.97900 25.80000
N  27.13500 1.05000 30.29500
C  28.13400 0.75100 29.42100
C  29.33600 0.68700 30.17300
C  28.97300 0.88000 31.52400
C  27.61900 1.06000 31.53600
C  30.63900 0.39200 29.58600
C  29.54300 0.68700 32.80500
O  30.67400 0.39000 33.22300
C  28.29800 0.87500 33.76500
C  28.39500 -0.30000 34.73500
O  27.83500 -1.42700 34.59700
O  29.03400 0.08100 35.81300
C  28.82400 -0.71400 37.06400
H  21.51400 1.21300 32.76900
H  22.81500 1.71400 26.29600
H  28.79400 0.48500 27.45700
H  25.52900 0.44300 35.24000
H  23.21000 2.08900 34.64000
H  22.22200 0.34200 35.66700
H  23.56900 -0.70900 35.49200
H  22.61300 -0.79900 34.23500
H  24.82800 3.28400 35.57900
H  26.54400 3.02300 35.10200
H  27.27000 2.22000 36.99100
H  25.85400 1.25800 37.32900
H  19.64800 2.05500 31.75600
H  18.96500 1.25500 30.56100
H  19.19700 3.04200 30.29600
H  18.05200 1.82700 26.80900
H  18.26300 2.80200 28.25500
H  18.26300 1.08600 28.41200
H  25.03900 2.12000 25.09900
H  26.76800 -0.31600 25.64300
H  23.34500 -0.11800 25.25900
H  24.81600 -0.72200 24.39300
H  23.83200 0.61200 23.81300
H  27.05300 2.03100 24.12800
H  28.47200 1.22900 24.71500
H  27.56500 2.91500 26.77800
H  27.69400 3.82100 25.20200
H  29.13100 2.95600 25.79600
H  31.48900 0.80100 30.13200
H  30.69400 0.79900 28.57600
H  30.66700 -0.68700 29.43400
H  28.32600 1.77400 34.37900
H  28.27200 -1.64600 36.94300
H  28.35200 -0.07400 37.81000
H  29.79100 -0.96900 37.49700
Mg 42.36500 42.20200 26.31700
C  41.54300 44.46300 28.89300
C  43.46900 39.96900 28.71900
C  43.64400 40.30400 23.77500
C  41.91500 44.83900 24.04200
N  42.64500 42.27800 28.56800
C  42.06700 43.24700 29.36900
C  42.06400 42.75200 30.83500
C  42.86500 41.40100 30.77800
C  42.92600 41.13400 29.26300
C  44.21900 41.41700 31.58400
C  40.59000 42.65100 31.23400
C  40.23600 42.77600 32.73000
H  41.18500 43.12400 33.88300
N  43.26400 40.26200 26.25800
C  43.69600 39.55400 27.36100
C  44.20200 38.29700 26.86700
C  44.08300 38.22700 25.40400
C  43.60900 39.64700 25.06200
C  44.75400 37.22800 27.79700
C  44.38200 37.18100 24.43000
O  44.04200 37.23800 23.24700
C  45.08000 35.90900 24.90000
N  42.93400 42.57600 24.28100
C  43.34700 41.57300 23.42000
C  43.23700 41.96400 21.95800
C  42.41500 43.30000 22.02400
C  42.43900 43.68500 23.49200
C  44.59000 41.92900 21.13700
C  41.02500 43.19600 21.45700
C  40.02600 42.31500 22.28400
N  41.85800 44.23600 26.35500
C  41.76500 45.20900 25.36800
C  41.23200 46.48700 25.92900
C  41.08700 46.18100 27.24400
C  41.52700 44.86600 27.47900
C  40.87300 47.64100 25.05700
C  40.68000 46.71600 28.51400
O  40.17400 47.79800 28.76600
C  41.01700 45.61500 29.61000
C  41.89000 46.12300 30.72900
O  42.97600 46.63600 30.54200
O  41.40600 45.86800 32.05400
C  42.20700 46.46600 33.11800
H  43.68100 39.20000 29.46500
H  43.90800 39.60800 22.97600
H  41.85100 45.50200 23.17600
H  42.58800 43.42200 31.51600
H  42.22700 40.57500 31.09400
H  44.92700 40.68400 31.19500
H  44.01200 41.12600 32.61400
H  44.64000 42.42000 31.64700
H  40.34400 41.60000 31.08200
H  39.97900 43.32800 30.63700
H  39.62900 41.90200 32.96400
H  39.61300 43.67000 32.68100
H  45.74900 36.86900 27.53600
H  44.17600 36.30400 27.79600
H  44.93000 37.61900 28.80000
H  44.45800 35.34100 25.59200
H  45.97500 36.14300 25.47700
H  45.42500 35.31100 24.05600
H  42.63700 41.20300 21.46100
H  42.98000 44.12200 21.58600
H  45.39200 41.46100 21.70700
H  44.95800 42.90500 20.82200
H  44.47500 41.30400 20.25100
H  41.03900 42.78700 20.44700
H  40.53500 44.16400 21.35400
H  39.52600 42.98700 22.98200
H  40.54500 41.55900 22.87200
H  39.27500 41.79000 21.69400
H  40.38400 48.36700 25.70700
H  40.26100 47.30300 24.22100
H  41.81900 48.11800 24.80000
H  40.06900 45.44500 30.12000
H  42.48200 47.47700 32.81900
H  43.12500 45.95600 33.41000
H  41.63900 46.48000 34.04800

