158

Mg 24.68200 -5.54200 45.91900
C  27.23700 -3.63600 44.38800
C  22.52000 -4.35200 43.60300
C  22.59700 -8.11300 46.68300
C  27.26000 -7.13800 47.73600
N  24.85900 -4.10200 44.24600
C  25.92400 -3.40200 43.86000
C  25.58700 -2.50200 42.66600
C  24.05300 -2.48700 42.76600
C  23.74200 -3.69100 43.61900
C  23.43100 -1.20800 43.48200
C  26.06100 -3.12000 41.36800
C  27.08700 -2.32200 40.51500
H  26.57900 -2.08600 39.02200
N  22.72900 -6.11600 45.31600
C  22.04900 -5.49300 44.34700
C  20.72000 -6.13800 44.13100
C  20.75300 -7.26800 45.06000
C  22.08600 -7.19400 45.75600
C  19.60000 -5.67200 43.20300
C  19.64800 -8.35500 45.14100
O  18.62500 -8.22100 44.49100
C  19.85200 -9.58700 45.87900
N  24.90900 -7.32900 47.00000
C  23.86900 -8.17300 47.28200
C  24.25300 -9.32600 48.19300
C  25.75700 -9.02500 48.55800
C  26.01300 -7.72700 47.73200
C  23.33400 -9.51700 49.40800
C  26.64400 -10.25400 48.42900
C  27.03500 -11.06800 49.65900
N  26.78900 -5.40800 46.14500
C  27.61500 -6.03900 46.97600
C  28.89500 -5.45500 46.89600
C  28.83200 -4.44900 45.87200
C  27.52900 -4.52800 45.46500
C  29.99400 -5.80900 47.79800
C  29.51100 -3.40800 45.13500
O  30.58100 -2.97400 45.24100
C  28.49700 -2.85800 44.02200
C  28.22000 -1.38300 44.22200
O  27.29600 -0.86700 44.75300
O  29.24500 -0.62900 43.68700
C  29.21600 0.83900 44.11100
H  21.71900 -3.96900 42.96700
H  21.91900 -8.87400 47.07500
H  27.96500 -7.61900 48.41800
H  26.03200 -1.51000 42.74500
H  23.58200 -2.59900 41.78900
H  22.91000 -1.38100 44.42300
H  22.67700 -0.72200 42.86300
H  24.17300 -0.45700 43.75200
H  25.30900 -3.34600 40.61200
H  26.51600 -4.08500 41.58900
H  28.05800 -2.80100 40.38900
H  27.41800 -1.37200 40.93400
H  18.93700 -6.47700 42.88500
H  20.13800 -5.40600 42.29300
H  18.92500 -4.90200 43.57600
H  19.09800 -10.30000 45.54600
H  19.74700 -9.50400 46.96100
H  20.80600 -10.02400 45.58500
H  24.26100 -10.20800 47.55300
H  25.80600 -8.63800 49.57500
H  22.45200 -8.87700 49.43500
H  23.96800 -9.40900 50.28800
H  22.78400 -10.45600 49.35100
H  27.63300 -9.95900 48.08100
H  26.23600 -10.95400 47.70100
H  26.87800 -12.11200 49.38800
H  26.43600 -10.93900 50.56000
H  28.05800 -10.82100 49.94200
H  29.69200 -6.62600 48.45300
H  30.16400 -5.01500 48.52400
H  30.97300 -5.96300 47.34400
H  28.81800 -3.11500 43.01300
H  28.40000 1.20100 43.48600
H  30.20000 1.20600 43.82000
H  28.89300 0.98200 45.14200
Mg 9.96100 48.14300 25.52100
C  7.66900 48.29500 28.09300
C  12.33000 49.63400 27.69000
C  12.24400 48.15100 22.92100
C  7.41900 47.37000 23.36600
N  10.01100 48.77700 27.71900
C  8.93800 48.67000 28.55700
C  9.40600 49.17700 29.97300
C  10.90100 49.69900 29.85800
C  11.14000 49.35000 28.34000
C  11.18400 51.20200 30.21800
C  9.22700 48.05000 31.05500
C  10.08200 48.00500 32.37900
H  9.48600 47.99200 33.74000
N  12.00100 48.67500 25.34600
C  12.77400 49.15400 26.36700
C  14.15100 49.33600 25.87200
C  14.08000 48.88700 24.51600
C  12.74800 48.53300 24.18000
C  15.26900 49.97700 26.61200
C  15.25200 48.86100 23.47000
O  15.05900 48.49100 22.30100
C  16.64500 49.25400 23.90400
N  9.88500 47.59900 23.44900
C  10.89900 47.73600 22.58500
C  10.49300 47.43900 21.15100
C  8.93900 47.28900 21.26800
C  8.69800 47.39500 22.81200
C  10.81100 48.58900 20.11000
C  8.56900 45.92000 20.73100
C  9.10200 44.75900 21.55400
N  7.97200 47.86000 25.58700
C  7.01900 47.48200 24.65600
C  5.72700 47.30200 25.29900
C  5.96500 47.64400 26.61600
C  7.26600 47.99500 26.76000
C  4.40300 46.99700 24.61100
C  5.28800 47.66500 27.88900
O  4.12200 47.43200 28.22100
C  6.42700 48.08000 28.91600
C  6.45200 46.86800 29.79600
O  7.10500 45.86400 29.60600
O  5.75200 47.06300 30.98900
C  6.05200 46.13500 32.10500
H  12.95900 50.27500 28.31100
H  12.89300 48.01100 22.05400
H  6.66300 47.16300 22.60500
H  8.77500 50.04300 30.17600
H  11.59000 49.03900 30.38500
H  10.45000 51.52400 30.95700
H  11.21500 51.81400 29.31700
H  12.14300 51.29600 30.72800
H  9.36100 47.12400 30.49600
H  8.21500 48.18000 31.44000
H  10.85000 48.77400 32.46200
H  10.51300 47.00600 32.30500
H  15.07800 49.94500 27.68500
H  15.40000 50.97700 26.19900
H  16.22600 49.47000 26.48500
H  16.72400 50.21700 24.40800
H  17.28100 49.37300 23.02700
H  16.95800 48.45200 24.57300
H  10.95800 46.49700 20.85800
H  8.38800 48.07000 20.74500
H  11.23300 49.49400 20.54700
H  9.90800 49.02600 19.68400
H  11.60200 48.31200 19.41300
H  9.10200 45.82200 19.78600
H  7.48500 45.83400 20.65000
H  9.70700 44.10600 20.92400
H  8.26000 44.14800 21.87900
H  9.73600 44.94600 22.42000
H  4.28600 45.91600 24.53100
H  4.48700 47.37900 23.59400
H  3.56400 47.43500 25.15100
H  5.99700 48.97600 29.36200
H  5.99000 45.16400 31.61300
H  5.34500 46.16900 32.93400
H  7.08100 46.32400 32.41100

