158

Mg 8.97300 3.08900 28.09100
C  10.04300 1.43300 30.98800
C  7.17700 5.24400 30.01200
C  7.23200 4.05900 25.27500
C  10.14900 0.36400 26.20200
N  8.54400 3.36200 30.24000
C  9.26300 2.59400 31.19400
C  8.90700 3.07000 32.57000
C  7.99400 4.31800 32.27600
C  7.82100 4.33500 30.76700
C  6.60100 4.15600 33.00300
C  10.17900 3.40800 33.32600
C  10.30400 2.99100 34.76400
H  10.80300 4.00100 35.85400
N  7.65900 4.60400 27.62700
C  7.11600 5.41600 28.55600
C  6.24600 6.40200 27.97100
C  6.33300 6.09400 26.59200
C  7.10700 4.86000 26.39800
C  5.55600 7.49600 28.70200
C  5.57900 6.84500 25.44900
O  5.79000 6.59200 24.29800
C  4.73100 7.95700 25.72000
N  8.93100 2.45400 25.93500
C  8.07700 2.93500 25.04900
C  8.16500 2.12700 23.69500
C  9.41400 1.20900 24.04000
C  9.44100 1.32400 25.48400
C  6.87500 1.43500 23.34700
C  10.74700 1.60200 23.33500
C  11.68400 0.45100 22.87200
N  10.01200 1.35500 28.47500
C  10.45400 0.37600 27.58800
C  11.28500 -0.58300 28.31000
C  11.16600 -0.24000 29.65100
C  10.36400 0.89000 29.67700
C  12.03400 -1.67200 27.68700
C  11.51500 -0.58000 31.04200
O  12.16000 -1.50600 31.49900
C  10.78600 0.49700 31.92100
C  9.88400 -0.10200 32.95500
O  8.73000 -0.37700 32.64400
O  10.59800 -0.36100 34.07600
C  9.72600 -0.91800 35.15700
H  6.61100 5.93900 30.63600
H  6.53300 4.41000 24.51400
H  10.50200 -0.48800 25.61700
H  8.36600 2.24100 33.02500
H  8.37600 5.28800 32.59300
H  6.35800 5.09000 33.51100
H  6.47800 3.31500 33.68600
H  5.82500 4.09800 32.24000
H  10.45100 4.46300 33.35100
H  11.06500 2.95500 32.88100
H  10.99100 2.16000 34.92500
H  9.31500 2.64700 35.06400
H  5.86200 7.60600 29.74200
H  4.49300 7.25800 28.65600
H  5.52800 8.41600 28.11900
H  4.11200 7.79000 26.60200
H  4.14000 8.09000 24.81300
H  5.40200 8.76200 26.01700
H  8.27900 2.86800 22.90400
H  9.13700 0.19700 23.74500
H  7.10200 0.37900 23.19800
H  6.36400 1.61800 22.40200
H  6.16300 1.47700 24.17100
H  11.33100 2.18200 24.05000
H  10.51700 2.34600 22.57300
H  12.61600 0.48800 23.43700
H  11.99000 0.46600 21.82600
H  11.24200 -0.53600 23.01100
H  11.41000 -2.54200 27.48500
H  12.88800 -1.95100 28.30500
H  12.46900 -1.34900 26.74100
H  11.50400 0.95300 32.60200
H  9.13200 -1.74700 34.77100
H  9.03000 -0.21800 35.62000
H  10.39300 -1.37700 35.88700
Mg 35.74300 49.32100 25.00200
C  36.01100 47.88800 28.23900
C  34.77700 52.22100 26.49500
C  35.66400 50.57900 21.96000
C  36.58800 46.13900 23.68000
N  35.52100 49.93900 27.18000
C  35.64600 49.21100 28.29900
C  35.40600 50.06600 29.58500
C  34.84200 51.38200 28.98100
C  35.03700 51.16800 27.44800
C  33.46700 51.85200 29.51300
C  36.65600 50.17600 30.52200
C  36.49300 49.74100 32.01500
H  35.16100 50.08400 32.66300
N  35.30500 51.14300 24.31200
C  34.85400 52.21700 25.06400
C  34.54600 53.32500 24.19000
C  34.88600 52.87700 22.84400
C  35.36400 51.46100 23.01200
C  34.00500 54.59400 24.61700
C  34.78000 53.64300 21.44500
O  35.20800 53.19400 20.36700
C  34.24600 55.03700 21.47600
N  35.80800 48.46700 23.06100
C  35.91500 49.20300 21.97200
C  36.27000 48.42400 20.63900
C  36.74000 47.03100 21.28300
C  36.25000 47.19300 22.76400
C  34.97500 48.24100 19.75900
C  38.27100 46.72000 21.08600
C  38.63700 45.28500 20.56000
N  36.23500 47.41000 25.72600
C  36.53000 46.24300 25.10000
C  36.64100 45.17800 26.04700
C  36.47200 45.79700 27.25700
C  36.22500 47.11200 27.04700
C  37.02000 43.73300 25.73400
C  36.49300 45.55500 28.68300
O  36.81100 44.60800 29.31700
C  36.06000 46.84100 29.33700
C  34.84000 46.85000 30.14300
O  33.75300 47.25900 29.81300
O  35.02700 46.11600 31.29900
C  33.93000 46.05700 32.23500
H  34.53500 53.15600 27.00500
H  35.73000 51.08700 20.99600
H  37.01400 45.23100 23.25000
H  34.52000 49.64700 30.06100
H  35.53000 52.13600 29.36600
H  32.83300 51.01800 29.81400
H  33.08800 52.41000 28.65700
H  33.72500 52.44400 30.39200
H  36.95500 51.22000 30.61700
H  37.51000 49.61200 30.14800
H  37.35000 50.01300 32.63000
H  36.74200 48.68000 32.03600
H  34.76900 55.33700 24.39100
H  33.80400 54.66800 25.68500
H  33.06500 54.86200 24.13400
H  33.33600 55.04900 22.07600
H  34.08400 55.44300 20.47700
H  35.04400 55.70700 21.79300
H  37.08000 48.99000 20.18000
H  36.16600 46.13200 21.05700
H  34.10800 48.26200 20.41900
H  35.11600 47.26500 19.29600
H  34.91500 49.08900 19.07600
H  38.77700 46.75500 22.05100
H  38.67000 47.43500 20.36600
H  37.74700 44.66300 20.46000
H  39.35500 44.77000 21.19800
H  39.20700 45.26700 19.63100
H  37.78000 43.67100 24.95500
H  36.19100 43.11100 25.39700
H  37.49800 43.19900 26.55500
H  36.88400 47.10000 30.00200
H  33.08200 45.66200 31.67500
H  33.66400 47.02900 32.65100
H  34.03200 45.42800 33.12000

