158

Mg 16.22500 -2.89400 28.32500
C  15.15700 -0.76100 30.86600
C  18.64800 -4.17500 30.33400
C  17.65000 -4.56600 25.72400
C  14.32700 -0.99200 26.02400
N  16.83600 -2.48000 30.33700
C  16.20700 -1.64500 31.26500
C  16.87400 -1.75300 32.64400
C  18.04200 -2.81700 32.38100
C  17.87500 -3.14100 30.89100
C  19.53600 -2.35800 32.77600
C  15.79700 -2.13600 33.73100
C  15.68000 -1.29000 35.04100
H  16.89200 -0.51400 35.60500
N  17.73100 -4.44900 28.11100
C  18.58100 -4.81300 29.06500
C  19.50200 -5.82500 28.58000
C  19.29900 -5.96600 27.17000
C  18.13600 -4.98400 26.92200
C  20.58100 -6.39200 29.42000
C  19.84800 -6.94200 26.15800
O  19.50400 -6.93800 24.93800
C  20.94000 -7.86600 26.59800
N  16.08300 -2.74400 26.14400
C  16.83800 -3.45200 25.37600
C  16.65900 -2.94000 23.91000
C  15.48300 -1.97200 23.99200
C  15.20900 -1.92900 25.45200
C  17.89700 -2.27500 23.26200
C  14.22700 -2.37900 23.09500
C  13.98300 -1.44800 21.89100
N  15.11100 -1.20300 28.32300
C  14.25900 -0.64000 27.34200
C  13.41600 0.31000 27.97500
C  13.76600 0.33400 29.28100
C  14.77500 -0.63100 29.51100
C  12.30200 1.06500 27.28500
C  13.45300 0.94400 30.55200
O  12.69300 1.89200 30.87100
C  14.39000 0.33400 31.61900
C  15.33100 1.39300 32.14500
O  16.48800 1.51400 31.79900
O  14.76300 2.17100 33.16300
C  15.60000 3.20900 33.82200
H  19.52300 -4.46500 30.91900
H  18.13900 -4.97100 24.83500
H  13.69000 -0.42900 25.33800
H  17.35200 -0.84800 33.01800
H  17.91900 -3.71500 32.98700
H  20.15700 -3.24800 32.87500
H  19.46700 -1.73300 33.66600
H  20.06200 -1.88700 31.94500
H  16.07700 -3.13000 34.07800
H  14.81000 -2.17600 33.27200
H  15.55600 -2.00100 35.85800
H  14.71000 -0.79500 34.99900
H  20.92400 -7.35300 29.03700
H  20.31300 -6.52000 30.46900
H  21.34500 -5.62000 29.51200
H  21.77800 -7.22600 26.87700
H  21.24700 -8.54500 25.80300
H  20.70000 -8.42500 27.50200
H  16.35000 -3.74100 23.23800
H  15.76400 -0.96400 23.68700
H  18.12300 -2.61500 22.25100
H  18.73000 -2.54800 23.90900
H  17.78500 -1.19200 23.31900
H  13.30900 -2.43900 23.68100
H  14.29100 -3.36400 22.63200
H  12.91700 -1.57900 21.70800
H  14.57200 -1.82200 21.05300
H  14.23300 -0.40600 22.09000
H  11.91800 0.74300 26.31700
H  12.47000 2.13800 27.19800
H  11.42800 0.95400 27.92700
H  13.80700 -0.03500 32.46200
H  15.87000 3.85500 32.98600
H  16.53500 2.77200 34.17300
H  15.02900 3.59800 34.66500
Mg 10.20300 47.51500 26.05000
C  8.17200 47.80000 28.89400
C  12.82000 48.77300 27.84400
C  12.02600 47.22100 23.28000
C  7.29500 46.55900 24.26400
N  10.46500 48.16100 28.09400
C  9.52700 48.12200 29.12200
C  10.18900 48.44400 30.47100
C  11.40000 49.28700 29.95400
C  11.63400 48.79600 28.58200
C  11.17600 50.88800 30.02200
C  10.61400 47.17000 31.26900
C  10.73400 47.28800 32.74500
H  10.46300 46.12700 33.74200
N  12.23500 47.94600 25.59700
C  13.16400 48.44000 26.48900
C  14.50800 48.35900 25.85700
C  14.22100 47.91800 24.51500
C  12.79200 47.65100 24.37100
C  15.71600 48.76500 26.63800
C  15.20100 47.78900 23.31300
O  14.87000 47.60800 22.12300
C  16.73600 47.94500 23.63600
N  9.70600 47.16400 23.94400
C  10.67100 46.97600 23.06200
C  10.01200 46.68700 21.64600
C  8.56200 46.31600 22.01800
C  8.50900 46.66700 23.47500
C  10.08500 47.93600 20.75300
C  8.10800 44.85100 21.70800
C  8.20600 43.67900 22.77900
N  8.09100 47.30000 26.45600
C  7.02300 46.89600 25.59900
C  5.81200 46.97800 26.36700
C  6.21500 47.19200 27.68200
C  7.59600 47.48100 27.69600
C  4.35400 46.58700 26.01900
C  5.77400 47.31900 29.06600
O  4.69600 47.06300 29.61400
C  7.07500 47.65700 29.97000
C  7.23400 46.42300 30.75100
O  7.34000 45.27800 30.30500
O  7.25800 46.76800 32.08900
C  7.20000 45.58400 33.02600
H  13.59900 49.18900 28.48600
H  12.48500 47.16500 22.29100
H  6.41000 46.30000 23.68000
H  9.43900 49.04700 30.98400
H  12.37800 49.19100 30.42400
H  12.12600 51.32300 30.33300
H  10.47900 51.14100 30.82100
H  10.85200 51.28600 29.06100
H  11.63000 46.93400 30.95500
H  9.98100 46.29200 31.13900
H  10.18500 48.08200 33.25100
H  11.75300 47.65000 32.88200
H  15.51200 48.53200 27.68300
H  16.01000 49.80300 26.48400
H  16.50500 48.06500 26.36400
H  16.91200 47.32700 24.51600
H  16.84300 48.93200 24.08600
H  17.34900 47.77200 22.75100
H  10.65100 45.87000 21.30900
H  7.80200 46.92700 21.53100
H  9.10300 48.13500 20.32300
H  10.83200 47.80400 19.97000
H  10.24900 48.89500 21.24400
H  8.66000 44.47500 20.84700
H  7.06500 44.89100 21.39400
H  8.38500 43.82700 23.84400
H  8.94400 42.90200 22.57800
H  7.26800 43.14500 22.63000
H  4.38100 45.60100 25.55400
H  4.02400 47.32900 25.29200
H  3.67200 46.61100 26.86800
H  6.89500 48.53500 30.59100
H  6.46700 44.80900 32.80600
H  6.99700 45.98900 34.01700
H  8.12200 45.00400 33.07100

