158

Mg 3.03300 -0.92600 42.92500
C  6.49400 -0.34100 42.49300
C  2.32200 1.87500 41.11100
C  -0.28400 -1.98600 42.59800
C  3.87400 -4.15900 44.29500
N  4.30100 0.51000 41.85400
C  5.67500 0.60000 41.82200
C  6.14800 1.94600 41.15700
C  4.79300 2.61600 40.79500
C  3.71900 1.63600 41.25300
C  4.67700 4.10700 41.19300
C  7.03400 1.66500 39.96900
C  6.49800 0.74400 38.85700
H  6.23900 1.25400 37.40100
N  1.35600 -0.07300 42.20200
C  1.23000 1.13000 41.62100
C  -0.19800 1.54000 41.60000
C  -0.96900 0.46300 41.96100
C  0.04100 -0.62100 42.25700
C  -0.63700 2.89000 41.05200
C  -2.52600 0.43400 42.04400
O  -3.27700 1.35800 41.64400
C  -3.23800 -0.78100 42.66900
N  2.00800 -2.82500 43.33100
C  0.57100 -2.93000 43.11700
C  0.09000 -4.36500 43.50900
C  1.34400 -4.98600 44.15100
C  2.50600 -3.96400 43.92200
C  -1.21500 -4.44000 44.42000
C  1.57300 -6.47400 43.66200
C  1.45900 -7.58400 44.72600
N  4.72900 -2.00600 43.40500
C  4.89100 -3.25900 43.98600
C  6.27500 -3.41200 44.30400
C  6.92500 -2.33800 43.75300
C  5.94700 -1.52000 43.17300
C  6.93800 -4.54600 45.07000
C  8.25900 -1.66200 43.65800
O  9.41900 -1.90100 44.02100
C  7.97400 -0.38300 42.72100
C  8.42100 0.90000 43.27000
O  9.14100 1.67800 42.71100
O  7.95100 1.08800 44.58700
C  8.32000 2.42900 45.14700
H  2.11900 2.87200 40.71600
H  -1.25600 -2.39600 42.31200
H  4.12900 -5.14500 44.68800
H  6.70800 2.53500 41.88400
H  4.63900 2.56000 39.71800
H  3.94400 4.25100 41.98700
H  4.30700 4.63600 40.31500
H  5.62800 4.53900 41.50500
H  7.95100 1.18800 40.31600
H  7.36200 2.63900 39.60800
H  5.54100 0.32800 39.17000
H  7.16200 -0.12100 38.84400
H  -1.17600 2.88100 40.10500
H  0.23600 3.54000 40.99200
H  -1.24200 3.33700 41.84100
H  -2.68300 -1.23600 43.48900
H  -3.27400 -1.49400 41.84400
H  -4.22300 -0.57500 43.08700
H  -0.18100 -4.84900 42.57100
H  1.14300 -5.00200 45.22200
H  -1.59600 -3.42800 44.56000
H  -0.96800 -4.86600 45.39200
H  -1.95900 -5.07600 43.94000
H  2.56100 -6.47400 43.20100
H  0.86100 -6.64800 42.85400
H  2.37800 -8.15200 44.86600
H  0.73700 -8.31900 44.37100
H  1.16700 -7.19800 45.70400
H  6.45100 -4.56000 46.04500
H  8.02300 -4.55300 45.16600
H  6.59300 -5.49900 44.66900
H  8.54000 -0.71300 41.85000
H  7.35300 2.91400 45.27800
H  8.78300 3.16400 44.48900
H  8.89000 2.35800 46.07300
Mg 35.79700 1.34100 29.50800
C  33.44700 2.62900 31.81700
C  38.24100 1.74600 32.01600
C  38.04400 0.57000 27.19000
C  33.33700 1.78900 27.07800
N  35.81000 2.32800 31.63500
C  34.68300 2.51700 32.39400
C  35.04100 2.52000 33.86300
C  36.66800 2.46100 33.89900
C  36.98200 2.14900 32.43200
C  37.50900 3.74400 34.27800
C  34.31900 1.35700 34.61200
C  33.92900 1.53700 36.13500
H  34.66300 2.70400 36.82200
N  37.83000 1.10900 29.60000
C  38.62300 1.20100 30.67400
C  39.93400 0.73200 30.26500
C  39.95000 0.49800 28.86600
C  38.56000 0.73800 28.50200
C  41.09500 0.73000 31.26700
C  41.07600 0.09900 27.92200
O  40.90500 0.12900 26.68800
C  42.48500 -0.29600 28.44300
N  35.71200 1.32200 27.46300
C  36.73400 0.92600 26.73600
C  36.42900 0.74400 25.22600
C  34.88800 1.17700 25.20700
C  34.57400 1.45400 26.68700
C  37.26400 1.70800 24.41500
C  33.99200 0.12000 24.56000
C  33.55500 -1.13300 25.32000
N  33.78500 1.95100 29.41300
C  32.91400 2.01400 28.38000
C  31.63100 2.54200 28.81800
C  31.80400 2.69900 30.19400
C  33.11300 2.39700 30.46000
C  30.56500 3.00800 27.94800
C  31.09100 3.13000 31.38400
O  29.94300 3.53100 31.58800
C  32.15200 3.06500 32.47400
C  32.30400 4.39200 33.15600
O  32.93400 5.30600 32.69500
O  31.69400 4.45300 34.36300
C  32.06800 5.58400 35.14600
H  38.92300 1.74800 32.86900
H  38.74200 0.22600 26.42300
H  32.56800 1.82300 26.30300
H  34.58900 3.45700 34.18800
H  36.99400 1.58200 34.45500
H  38.22000 3.52200 35.07300
H  36.70000 4.38000 34.63600
H  37.99100 4.22000 33.42400
H  34.80700 0.39600 34.77300
H  33.36900 1.18300 34.10800
H  34.05200 0.67000 36.78500
H  32.84800 1.52400 36.27300
H  41.91900 1.34200 30.89900
H  41.37100 -0.32300 31.20400
H  40.92000 0.97500 32.31400
H  42.34200 -1.07200 29.19500
H  43.01500 0.59000 28.79400
H  43.07000 -0.61700 27.58200
H  36.63000 -0.28400 24.92600
H  34.79300 2.14400 24.71200
H  38.20800 1.18300 24.27200
H  37.47200 2.64600 24.92900
H  36.72300 1.94300 23.49800
H  34.46200 -0.29000 23.66600
H  33.09300 0.64800 24.24200
H  32.53200 -0.94200 25.64400
H  34.23600 -1.30900 26.15200
H  33.59500 -2.01400 24.67900
H  31.11400 3.59200 27.20900
H  29.83000 3.67100 28.40300
H  30.15700 2.10600 27.49300
H  31.77700 2.41200 33.26200
H  31.31300 6.36300 35.03900
H  33.05700 6.01000 34.98000
H  32.05000 5.27000 36.19000

