158

Mg 36.09100 2.10700 31.05000
C  33.58800 3.32400 33.22800
C  38.39500 2.38900 33.48600
C  38.53100 1.55600 28.79600
C  33.82900 2.76100 28.41600
N  35.98100 2.91000 33.04700
C  34.84900 3.11800 33.84800
C  35.19900 3.14700 35.38600
C  36.83600 3.13800 35.39300
C  37.12100 2.80900 33.88300
C  37.51500 4.47000 35.93500
C  34.44400 1.90600 36.06300
C  33.99700 2.20500 37.53500
H  34.78700 3.29100 38.39800
N  38.16900 1.72800 31.22200
C  38.87800 1.85200 32.33400
C  40.24700 1.41800 32.03100
C  40.24200 1.09700 30.64900
C  38.97000 1.43900 30.14300
C  41.34300 1.33700 33.09300
C  41.34600 0.68200 29.74300
O  41.24600 0.58600 28.53600
C  42.80800 0.47700 30.32600
N  36.17200 2.19900 28.94200
C  37.24400 1.75300 28.24900
C  36.97100 1.71900 26.75000
C  35.48600 1.93300 26.60900
C  35.11500 2.34800 28.03800
C  37.94200 2.72200 25.96500
C  34.69900 0.63000 26.28100
C  33.48100 0.91300 25.41900
N  34.08700 2.78900 30.77100
C  33.30100 2.99100 29.67400
C  31.99800 3.34800 30.12500
C  32.05800 3.45900 31.50400
C  33.34700 3.20000 31.84500
C  30.82800 3.57700 29.25200
C  31.30900 3.79100 32.68200
O  30.16700 4.18800 32.76700
C  32.27400 3.79400 33.85300
C  32.37400 5.20800 34.36600
O  32.71300 6.19000 33.79000
O  32.04300 5.20000 35.70000
C  31.86400 6.53500 36.30700
H  39.02500 2.45100 34.37500
H  39.27900 1.39600 28.01600
H  33.10400 2.90600 27.61300
H  34.80800 4.08100 35.79000
H  37.21200 2.25900 35.91700
H  36.76200 5.25000 36.04300
H  38.21500 4.83900 35.18600
H  38.14300 4.28800 36.80700
H  35.14100 1.07200 35.97500
H  33.54100 1.66700 35.50200
H  34.11500 1.22500 37.99800
H  32.94200 2.43600 37.39000
H  42.15000 0.63000 32.89700
H  40.85000 1.06400 34.02600
H  41.84500 2.29400 33.23500
H  43.55600 0.36800 29.54100
H  42.72100 -0.26100 31.12300
H  42.98600 1.38500 30.90200
H  37.18900 0.71400 26.38700
H  35.32200 2.79300 25.95900
H  38.59500 3.28200 26.63500
H  37.27400 3.40600 25.44200
H  38.50500 2.14500 25.23200
H  34.28900 0.11600 27.15000
H  35.37400 -0.12900 25.88500
H  33.52800 1.88600 24.93000
H  32.56900 0.69800 25.97700
H  33.60700 0.25000 24.56300
H  29.99500 2.94000 29.55100
H  31.04800 3.31500 28.21700
H  30.66000 4.65400 29.25300
H  32.05900 3.05100 34.62100
H  31.69800 6.44700 37.38000
H  30.99800 6.90500 35.75700
H  32.74200 7.13700 36.07100
Mg 48.18100 23.96700 28.06200
C  49.09800 26.39600 30.60000
C  47.46300 21.88100 30.64200
C  47.57400 21.75200 25.78500
C  49.29300 26.28900 25.65300
N  48.29900 24.20600 30.41600
C  48.58900 25.24100 31.19400
C  48.47400 24.95300 32.69200
C  48.10000 23.39900 32.62500
C  47.93300 23.11600 31.16600
C  49.12700 22.42800 33.27000
C  47.43700 25.90900 33.39000
C  46.56800 25.47600 34.59100
H  46.54200 26.38100 35.82700
N  47.54500 22.01100 28.18000
C  47.30600 21.30000 29.32300
C  46.82900 20.01900 28.93400
C  46.74500 20.02700 27.52200
C  47.29100 21.27000 27.08600
C  46.47900 18.94900 29.94500
C  46.29700 19.01700 26.53100
O  46.39000 19.06700 25.32100
C  45.61200 17.80000 27.06300
N  48.68900 23.84500 26.08200
C  48.18600 22.85700 25.28900
C  48.35500 23.14300 23.78900
C  49.07300 24.52400 23.77100
C  48.98700 24.94100 25.27900
C  49.20500 22.03600 23.09200
C  48.37000 25.50300 22.83900
C  49.21600 25.59800 21.45800
N  48.90700 25.98600 28.05600
C  49.31100 26.80000 26.94600
C  49.67000 28.14100 27.44000
C  49.69400 27.96700 28.84600
C  49.14000 26.67000 29.19400
C  50.18200 29.23700 26.66600
C  50.00200 28.70100 30.04700
O  50.43600 29.78800 30.14700
C  49.49200 27.76200 31.19900
C  50.57200 27.77200 32.25000
O  51.67000 27.27900 32.18600
O  50.16200 28.68900 33.17900
C  50.86100 28.66500 34.46500
H  47.20500 21.18300 31.44200
H  47.30900 21.08900 24.95800
H  49.65800 26.86700 24.80200
H  49.48400 25.07600 33.08100
H  47.11600 23.19200 33.04500
H  49.57800 21.72800 32.56700
H  48.53100 21.82500 33.95500
H  49.80300 23.04500 33.86100
H  46.83600 26.49100 32.69300
H  47.93500 26.78600 33.80300
H  46.91700 24.55200 35.05200
H  45.53100 25.27900 34.31800
H  45.47200 18.55700 29.80800
H  46.59200 19.29800 30.97100
H  47.08600 18.05300 29.81800
H  46.23800 17.18600 27.71100
H  45.26000 17.07300 26.33100
H  44.79000 18.20400 27.65400
H  47.35800 23.04100 23.35900
H  50.10600 24.30500 23.50100
H  49.77300 21.40900 23.77900
H  49.87500 22.44200 22.33400
H  48.51000 21.36600 22.58500
H  48.35900 26.47900 23.32300
H  47.34900 25.17900 22.63500
H  48.66900 25.01300 20.71900
H  50.25700 25.28100 21.51100
H  49.22400 26.66300 21.22400
H  49.48900 30.06000 26.84400
H  50.27200 28.97500 25.61200
H  51.11600 29.50000 27.16300
H  48.66800 28.32600 31.63800
H  51.90900 28.36500 34.45800
H  50.23300 28.25400 35.25600
H  50.84600 29.73900 34.65000

