158

Mg 23.92000 -5.55400 45.57400
C  25.93000 -2.99600 44.47000
C  21.34100 -4.00400 43.67300
C  22.19800 -8.26400 45.92900
C  26.59700 -7.02000 47.13000
N  23.70500 -3.75200 44.15600
C  24.70300 -2.93700 43.83700
C  24.37100 -1.90800 42.77700
C  22.83000 -1.96500 42.69400
C  22.60200 -3.37900 43.50900
C  22.05400 -0.86200 43.39600
C  25.16200 -2.01500 41.44500
C  25.43500 -0.64700 40.72300
H  25.17600 -0.57600 39.25000
N  22.01900 -6.08900 44.85300
C  21.06100 -5.28700 44.25200
C  19.78100 -5.96700 44.23700
C  19.96400 -7.29600 44.79500
C  21.36800 -7.20800 45.30400
C  18.47100 -5.40600 43.62800
C  18.92900 -8.38100 44.88700
O  17.77100 -8.16300 44.49800
C  19.30400 -9.83900 45.35100
N  24.39300 -7.53200 46.19200
C  23.50600 -8.48900 46.31500
C  23.99600 -9.63600 47.23500
C  25.40500 -9.22600 47.54400
C  25.46500 -7.86500 46.93500
C  23.11100 -9.99100 48.49200
C  26.47500 -10.21100 46.99800
C  26.85500 -11.29300 47.92000
N  25.88500 -5.11300 45.84600
C  26.83200 -5.74500 46.60600
C  28.03300 -4.91200 46.56800
C  27.66300 -3.87200 45.74600
C  26.37300 -4.02800 45.30700
C  29.38800 -5.21700 47.04600
C  28.23000 -2.65000 45.15200
O  29.30600 -2.12500 45.38500
C  27.12200 -2.04900 44.28000
C  26.75900 -0.71200 44.80700
O  26.02500 -0.48900 45.77400
O  27.46800 0.21300 44.11800
C  27.25600 1.59600 44.35500
H  20.52600 -3.52200 43.12800
H  21.59600 -9.09500 46.30400
H  27.43400 -7.48400 47.65700
H  24.66700 -0.95300 43.21200
H  22.45500 -2.00300 41.67100
H  22.09200 -0.01600 42.71000
H  22.68900 -0.68500 44.26500
H  21.06800 -1.19300 43.72100
H  24.74500 -2.64600 40.66000
H  26.18200 -2.34800 41.63500
H  26.49100 -0.37500 40.73800
H  24.86600 0.17700 41.15400
H  18.55700 -4.54500 42.96500
H  17.95100 -5.16300 44.55400
H  17.94900 -6.17800 43.06200
H  18.37600 -10.35600 45.10600
H  19.24200 -9.75400 46.43600
H  20.25500 -10.27100 45.04000
H  23.91500 -10.33400 46.40200
H  25.59700 -9.13700 48.61400
H  23.79100 -10.39600 49.24300
H  22.36700 -10.66600 48.07000
H  22.41100 -9.21700 48.80500
H  27.36800 -9.68600 46.65700
H  26.13800 -10.73800 46.10500
H  26.14100 -11.22200 48.74000
H  27.88000 -11.20200 48.28200
H  26.59200 -12.26500 47.50400
H  29.86900 -6.00900 46.47100
H  29.28300 -5.54600 48.07900
H  29.99900 -4.31500 47.00200
H  27.47900 -1.94600 43.25600
H  26.68500 2.13600 43.60000
H  28.20200 2.13800 44.34700
H  26.89000 1.75300 45.37000
Mg 35.36600 2.12700 30.22600
C  33.12400 3.25500 32.64500
C  37.91900 2.15900 32.44600
C  37.51000 1.21100 27.69200
C  32.99700 2.71400 27.84700
N  35.47000 2.73300 32.24500
C  34.43200 3.05900 33.11600
C  34.83300 2.84000 34.55400
C  36.38200 2.91900 34.41400
C  36.66600 2.62400 32.90100
C  37.04100 4.30900 34.82400
C  34.23100 1.48600 35.10700
C  33.81700 1.55800 36.58400
H  34.61300 2.48400 37.57300
N  37.38600 1.61500 30.08100
C  38.24500 1.67600 31.12100
C  39.56600 1.20700 30.81600
C  39.49400 1.00000 29.41600
C  38.10100 1.23600 28.99700
C  40.69900 1.05200 31.83800
C  40.61500 0.68700 28.44000
O  40.41700 0.54900 27.24200
C  42.01300 0.45400 29.00900
N  35.35400 1.98100 28.06900
C  36.32700 1.61400 27.19600
C  35.84900 1.49000 25.72500
C  34.36700 1.97500 25.81600
C  34.22000 2.29100 27.32400
C  36.63300 2.43100 24.78500
C  33.33500 0.85600 25.34100
C  33.16700 0.54700 23.81600
N  33.48800 2.78400 30.14800
C  32.66800 3.03500 29.11200
C  31.32400 3.26600 29.61000
C  31.42500 3.39400 31.01500
C  32.80900 3.12400 31.28400
C  30.11000 3.49500 28.79200
C  30.67200 3.70200 32.27000
O  29.52600 4.07300 32.51600
C  31.85100 3.66200 33.36200
C  31.89100 4.92800 34.09200
O  32.23300 6.04300 33.74700
O  31.56500 4.48300 35.39300
C  32.04700 5.47800 36.36900
H  38.67300 2.33800 33.21500
H  38.06700 0.96400 26.78600
H  32.19300 2.79400 27.11200
H  34.54300 3.72900 35.11400
H  36.83000 2.17400 35.07200
H  36.33200 5.03200 35.22600
H  37.55800 4.76600 33.98000
H  37.66700 3.99500 35.65900
H  34.88900 0.61700 35.08400
H  33.39000 1.21900 34.46800
H  33.77900 0.57200 37.04700
H  32.75400 1.79500 36.54900
H  40.78400 -0.02400 31.98900
H  40.43000 1.61000 32.73400
H  41.48800 1.51200 31.24300
H  42.11500 -0.11900 29.93100
H  42.53400 1.40300 29.13700
H  42.51500 -0.11800 28.22800
H  35.79200 0.43800 25.44800
H  34.18300 2.89300 25.25700
H  37.34300 3.04200 25.34200
H  35.97500 3.00000 24.12800
H  37.23800 1.86200 24.07900
H  32.35300 0.97800 25.79800
H  33.67100 -0.12800 25.66600
H  33.76700 -0.33400 23.58800
H  33.61300 1.37700 23.26700
H  32.11800 0.32700 23.62100
H  29.39000 3.92100 29.49100
H  29.73100 2.57400 28.34900
H  30.37600 4.11700 27.93800
H  31.56100 2.80500 33.96900
H  32.03300 4.96200 37.32900
H  31.39900 6.35400 36.34600
H  33.08900 5.76500 36.22900

