158

Mg 25.72300 0.09300 29.29900
C  27.47600 -0.20300 32.33700
C  22.91600 0.46300 31.02000
C  24.21800 0.35300 26.38000
C  28.65700 -0.85600 27.67000
N  25.35500 0.26900 31.44800
C  26.17400 0.15500 32.53800
C  25.44200 0.49200 33.81900
C  23.90200 0.63200 33.38300
C  24.06000 0.41100 31.87000
C  22.84800 -0.31600 34.15600
C  25.94800 1.82600 34.43300
C  27.03600 1.79300 35.52500
H  26.88800 2.53100 36.73400
N  23.81200 0.36500 28.79300
C  22.81900 0.69200 29.62700
C  21.59700 0.91200 28.87300
C  21.95600 0.81000 27.52100
C  23.41700 0.59100 27.51900
C  20.24400 0.87100 29.54900
C  20.99500 0.85700 26.28200
O  21.32300 0.79100 25.11000
C  19.51400 1.08800 26.43900
N  26.31700 -0.30100 27.37100
C  25.55200 0.02700 26.29400
C  26.20900 -0.24600 24.94900
C  27.66500 -0.58300 25.40800
C  27.54100 -0.65700 26.89200
C  25.59300 -1.40900 24.02400
C  28.75600 0.36700 24.81300
C  28.88600 1.68200 25.58900
N  27.73700 -0.50900 29.82700
C  28.80100 -0.77700 29.10800
C  29.98500 -1.02600 29.87100
C  29.55100 -0.86100 31.20600
C  28.16600 -0.51600 31.11800
C  31.38300 -1.34500 29.39800
C  29.85800 -0.96100 32.59800
O  30.89200 -1.33300 33.11600
C  28.58100 -0.48400 33.33800
C  28.22000 -1.52300 34.33700
O  27.36800 -2.44400 34.16500
O  28.88900 -1.35300 35.51600
C  28.51900 -2.40800 36.52600
H  21.92700 0.50000 31.48200
H  23.76000 0.37700 25.38900
H  29.49600 -1.11400 27.02000
H  25.48000 -0.35200 34.50800
H  23.54300 1.65900 33.44300
H  22.01500 0.34200 34.40500
H  23.13800 -0.63500 35.15700
H  22.44600 -1.11700 33.53500
H  25.14200 2.39500 34.89700
H  26.19500 2.49200 33.60600
H  27.96300 2.05600 35.01500
H  27.30200 0.75000 35.69600
H  20.30100 1.55600 30.39500
H  20.14100 -0.10600 30.02200
H  19.31400 1.12900 29.04300
H  18.92300 1.02800 25.52500
H  19.38700 2.15000 26.65100
H  19.14000 0.46100 27.24800
H  26.13800 0.66100 24.34800
H  28.02200 -1.58400 25.16400
H  26.13800 -2.30700 24.31500
H  25.66500 -1.22600 22.95200
H  24.55500 -1.41900 24.35800
H  28.52500 0.57700 23.76900
H  29.70400 -0.17100 24.81100
H  28.41300 1.64100 26.57000
H  28.47100 2.50000 25.00000
H  29.93200 1.97000 25.69700
H  31.55100 -0.82000 28.45800
H  31.41000 -2.42200 29.23700
H  32.03400 -0.93000 30.16700
H  28.83400 0.38400 33.94700
H  29.15100 -2.17300 37.38300
H  28.86200 -3.40000 36.23200
H  27.48900 -2.45200 36.88000
Mg 34.97400 49.15300 24.43100
C  35.17600 47.20900 27.33000
C  33.62700 51.65400 26.46500
C  34.68600 51.02700 21.67400
C  35.97500 46.33000 22.52800
N  34.27900 49.34000 26.65500
C  34.76800 48.51500 27.62300
C  34.42900 49.06500 29.06700
C  33.63300 50.38600 28.75700
C  33.79100 50.45300 27.17300
C  32.17200 50.59200 29.19400
C  35.66100 49.07100 30.01100
C  35.45700 48.42900 31.40500
H  34.00500 48.60500 32.02400
N  34.23200 51.07200 24.13300
C  33.80900 51.98500 25.07900
C  33.44000 53.20700 24.42700
C  33.75400 53.02700 23.03900
C  34.22800 51.65800 22.89200
C  32.99100 54.41400 25.32400
C  33.64800 54.10300 21.89900
O  33.98200 53.87600 20.73300
C  33.02900 55.50300 22.26900
N  35.27900 48.78600 22.41100
C  35.20500 49.75800 21.49500
C  35.60800 49.24800 20.06400
C  36.20700 47.81600 20.41800
C  35.83000 47.62700 21.83700
C  34.46500 49.34100 19.02300
C  37.75600 47.62600 20.37000
C  38.23600 46.18100 20.05900
N  35.33500 47.18500 24.74500
C  35.75200 46.19500 23.89000
C  35.87700 45.02300 24.62400
C  35.73000 45.35500 25.96300
C  35.34600 46.68200 26.00200
C  36.25900 43.73200 24.06700
C  35.74300 44.86000 27.34200
O  36.08000 43.82100 27.88900
C  35.35700 46.05900 28.25600
C  34.15500 45.73300 29.08000
O  33.04500 46.00100 28.69400
O  34.41300 44.95800 30.19100
C  33.33600 44.50600 31.05800
H  33.22300 52.43700 27.11000
H  34.54600 51.57300 20.73800
H  36.43100 45.54000 21.92700
H  33.70600 48.38200 29.51200
H  34.11700 51.18100 29.32500
H  31.95500 49.75700 29.86000
H  31.41000 50.64000 28.41700
H  32.01600 51.37000 29.94200
H  35.92500 50.12900 30.02000
H  36.47800 48.53600 29.52600
H  36.13000 48.73700 32.20500
H  35.68200 47.39100 31.16200
H  33.68200 55.22200 25.08200
H  32.93000 54.33800 26.41000
H  32.01300 54.81000 25.05000
H  33.13800 56.14000 21.39200
H  33.75700 55.86100 22.99700
H  31.98900 55.43100 22.58400
H  36.47700 49.81700 19.73400
H  35.67700 47.12400 19.76300
H  33.58900 49.73500 19.53900
H  34.09100 48.34900 18.77000
H  34.60400 50.00100 18.16700
H  38.00300 47.89400 21.39700
H  38.32100 48.23900 19.66700
H  38.83400 45.72100 20.84600
H  38.85600 46.21400 19.16400
H  37.44300 45.49000 19.77200
H  35.91700 43.00500 24.80400
H  37.30200 43.59700 23.78200
H  35.71200 43.56700 23.13900
H  36.26100 46.15100 28.85900
H  32.46700 45.16200 31.11700
H  33.69600 44.46000 32.08600
H  32.84000 43.58400 30.75300

