158

Mg 48.10700 16.05600 29.04000
C  45.79700 15.60900 31.62400
C  49.83600 18.12000 31.29100
C  50.06500 16.86300 26.57200
C  45.62600 14.85800 26.72000
N  47.87400 16.71900 31.23600
C  46.89800 16.36200 32.10400
C  47.09900 16.78600 33.52300
C  48.24000 17.86600 33.32000
C  48.66600 17.59200 31.83700
C  47.79500 19.35600 33.48500
C  47.64500 15.52500 34.28600
C  47.99900 15.69200 35.78900
H  47.44300 16.74800 36.73100
N  49.82300 17.15500 29.01600
C  50.38200 17.91800 30.04700
C  51.63300 18.46300 29.57200
C  51.65500 18.23600 28.15300
C  50.52000 17.33900 27.80800
C  52.52600 19.26500 30.48300
C  52.66900 18.75300 27.09800
O  52.47600 18.56400 25.88800
C  53.87000 19.41500 27.62900
N  47.92200 15.75800 27.00700
C  48.92400 16.11100 26.18800
C  48.73000 15.78200 24.70600
C  47.37200 14.96300 24.84000
C  46.93800 15.16000 26.29500
C  48.53100 17.05500 23.81900
C  47.56300 13.40000 24.59100
C  46.77000 12.71500 23.52500
N  46.11100 15.36900 29.12600
C  45.27500 14.77800 28.13100
C  44.04600 14.30900 28.72300
C  44.30500 14.58800 30.05900
C  45.51100 15.18900 30.29700
C  42.90500 13.56200 28.21100
C  43.70400 14.34400 31.35200
O  42.65600 13.88900 31.73500
C  44.65800 15.01300 32.42400
C  43.87800 16.06600 33.08900
O  43.22500 16.95300 32.58500
O  43.96200 15.81700 34.43200
C  43.33200 16.79300 35.32500
H  50.37500 18.85100 31.89700
H  50.75300 17.13000 25.76700
H  44.87600 14.44700 26.04100
H  46.16800 17.04700 34.02700
H  49.13100 17.66700 33.91600
H  46.70600 19.37900 33.44400
H  48.23000 19.98200 32.70500
H  48.03400 19.74100 34.47700
H  48.61300 15.27100 33.85600
H  46.95800 14.72300 34.01500
H  49.08800 15.64800 35.79100
H  47.61900 14.84400 36.35900
H  53.36400 18.62900 30.77100
H  52.09000 19.65800 31.40200
H  52.84000 20.20100 30.02000
H  54.59200 19.50600 26.81800
H  54.31900 18.78400 28.39600
H  53.54000 20.37200 28.03200
H  49.48400 15.07300 24.36600
H  46.71500 15.29600 24.03700
H  47.54400 17.29600 23.42400
H  49.08500 16.79800 22.91600
H  49.03300 17.86500 24.34800
H  47.21500 12.84600 25.46400
H  48.62600 13.16400 24.55600
H  45.99600 12.04000 23.89100
H  47.40900 12.07400 22.91900
H  46.33600 13.48100 22.88200
H  42.80600 13.54700 27.12500
H  42.01500 14.02000 28.64200
H  42.97900 12.55600 28.62500
H  44.93400 14.29500 33.19700
H  43.25600 17.76700 34.84100
H  43.99000 16.86400 36.19100
H  42.37300 16.56700 35.79100
Mg -10.87900 38.56900 40.84500
C  -9.34500 35.59200 39.93600
C  -8.49500 40.36300 39.28100
C  -12.83500 41.35000 41.12300
C  -13.64000 36.60500 42.08500
N  -9.12700 38.03900 39.76000
C  -8.64700 36.79500 39.48000
C  -7.44000 36.74100 38.49700
C  -7.07000 38.33900 38.55100
C  -8.37200 38.98500 39.19300
C  -5.87500 38.73500 39.56400
C  -7.77700 36.19900 37.04200
C  -6.75700 35.29000 36.20500
H  -6.43100 35.57600 34.70500
N  -10.66600 40.59000 40.33700
C  -9.54300 41.11900 39.76300
C  -9.55300 42.56100 39.73800
C  -10.80700 42.94900 40.23400
C  -11.49000 41.63400 40.66200
C  -8.42800 43.37700 39.11900
C  -11.35800 44.33600 40.36000
O  -10.63500 45.24200 40.03800
C  -12.76700 44.70000 40.77000
N  -12.97900 38.87600 41.43200
C  -13.52100 40.14400 41.43900
C  -15.07300 40.03600 41.71400
C  -15.32100 38.48800 41.87500
C  -13.87000 37.95200 41.83100
C  -15.51600 41.06700 42.83600
C  -16.32900 37.91800 40.80700
C  -15.81100 37.42700 39.46200
N  -11.35100 36.51600 41.05900
C  -12.43700 35.90200 41.65500
C  -12.12400 34.45600 41.77100
C  -10.91800 34.26400 41.08200
C  -10.53700 35.57100 40.69200
C  -12.98700 33.47700 42.54000
C  -9.80900 33.36600 40.71600
O  -9.64400 32.18600 41.08200
C  -8.91300 34.09400 39.77700
C  -7.44600 33.81900 40.11800
O  -6.70000 34.57800 40.81300
O  -7.02500 32.78000 39.37500
C  -5.65500 32.35300 39.65800
H  -7.64800 40.85300 38.79600
H  -13.44600 42.25500 41.08900
H  -14.42800 35.98400 42.51700
H  -6.55800 36.23500 38.88900
H  -6.68300 38.73500 37.61300
H  -5.90000 37.96100 40.33100
H  -5.96900 39.66500 40.12500
H  -4.93700 38.60600 39.02500
H  -8.02600 37.02300 36.37300
H  -8.74400 35.69700 37.04900
H  -7.06800 34.25500 36.34900
H  -5.84400 35.30200 36.80000
H  -8.75900 44.24900 38.55500
H  -7.82000 42.88100 38.36300
H  -7.75700 43.73500 39.90100
H  -12.84900 44.37200 41.80600
H  -13.54200 44.15500 40.23100
H  -12.86000 45.78600 40.73900
H  -15.57500 40.40600 40.82000
H  -15.71000 38.34100 42.88200
H  -16.19100 41.87900 42.56500
H  -14.56600 41.51000 43.13200
H  -15.92700 40.61600 43.74000
H  -17.06400 38.67000 40.52100
H  -16.82200 37.02900 41.20300
H  -14.72700 37.38800 39.56800
H  -15.99200 38.23900 38.75700
H  -16.22900 36.49300 39.08700
H  -12.68500 32.44100 42.38600
H  -14.05300 33.64200 42.38700
H  -12.62900 33.52300 43.56900
H  -9.01300 33.87700 38.71400
H  -5.58700 31.26900 39.55900
H  -5.32600 32.61900 40.66300
H  -4.91500 32.68500 38.92900

