158

Mg 26.12600 1.21000 28.82500
C  28.24700 0.77400 31.63800
C  23.54400 1.75600 31.13100
C  23.96600 1.54500 26.30400
C  28.62400 0.52200 26.74200
N  25.93400 1.19700 31.20100
C  26.97900 1.13700 32.08600
C  26.36400 1.09900 33.46000
C  24.88500 1.52100 33.31500
C  24.75800 1.45000 31.76800
C  23.83300 0.67600 34.18000
C  27.17000 1.96200 34.53100
C  26.44300 2.92100 35.40000
H  27.14800 3.12900 36.71700
N  24.10200 1.61500 28.75700
C  23.20100 1.81700 29.76100
C  21.87500 2.15600 29.15200
C  22.02100 1.80100 27.79900
C  23.42900 1.61200 27.55300
C  20.67200 2.55700 30.01600
C  20.87500 1.79600 26.73400
O  21.02200 1.42100 25.61200
C  19.42700 1.92700 27.20800
N  26.25900 1.20700 26.84200
C  25.26000 1.37700 25.99500
C  25.79600 1.37600 24.58700
C  27.33700 1.13500 24.72400
C  27.46200 1.04400 26.19900
C  25.20700 0.41000 23.55400
C  28.23900 2.30200 24.25600
C  28.44100 3.47400 25.25600
N  27.99100 0.53300 29.03100
C  28.92400 0.31700 28.09000
C  30.18100 -0.00700 28.70400
C  29.97900 0.19100 30.08100
C  28.61800 0.45000 30.26200
C  31.42900 -0.53000 28.03000
C  30.66100 0.21100 31.35200
O  31.82300 -0.11800 31.59600
C  29.52800 0.61500 32.43100
C  29.57400 -0.46000 33.48500
O  29.47200 -1.65400 33.27900
O  29.76800 0.03800 34.68700
C  29.64400 -0.81000 35.91800
H  22.77300 2.03700 31.85200
H  23.31700 1.64600 25.43200
H  29.43300 0.25200 26.06000
H  26.34000 0.04800 33.74700
H  24.75400 2.57600 33.55500
H  23.12600 0.15100 33.53800
H  23.19300 1.30000 34.80400
H  24.40300 -0.00600 34.81100
H  27.92600 2.48900 33.95000
H  27.77900 1.32100 35.16900
H  25.50700 2.38700 35.55900
H  26.15300 3.86800 34.94500
H  20.83600 3.17300 30.89900
H  20.21600 1.62300 30.34300
H  19.98900 3.14600 29.40300
H  19.29800 1.36100 28.13100
H  18.83000 1.55700 26.37500
H  19.38300 3.01500 27.24600
H  25.51400 2.38900 24.29900
H  27.70100 0.13700 24.47900
H  24.54400 1.08500 23.01200
H  24.62900 -0.36600 24.05600
H  26.07200 0.06200 22.99000
H  27.71700 2.51200 23.32200
H  29.23100 1.85800 24.16900
H  27.96500 3.37200 26.23200
H  27.90200 4.33700 24.86300
H  29.46100 3.76700 25.50500
H  31.71700 0.19600 27.27000
H  31.31800 -1.47200 27.49400
H  32.29500 -0.54000 28.69100
H  29.89300 1.53600 32.88500
H  30.58900 -1.12800 36.35800
H  29.04600 -1.66400 35.60100
H  29.22700 -0.21200 36.72800
Mg 5.28000 54.42400 40.61700
C  5.06500 50.74300 40.51500
C  8.58100 54.06800 39.95600
C  5.20000 57.57200 39.65900
C  1.76600 54.40000 41.09500
N  6.58600 52.61600 39.89800
C  6.37400 51.24400 40.14400
C  7.71300 50.41400 40.18300
C  8.81500 51.50700 40.08300
C  7.93300 52.85000 40.00600
C  9.90900 51.48900 41.16700
C  7.82900 49.22000 39.20900
C  7.17500 49.54500 37.83700
H  8.05800 49.86700 36.58900
N  6.77300 55.72400 40.15300
C  8.03800 55.35300 39.87700
C  8.76400 56.54200 39.51100
C  7.80600 57.59200 39.46000
C  6.50900 57.01800 39.77400
C  10.27900 56.54600 39.13800
C  8.18800 59.02800 39.19500
O  9.31400 59.29600 38.88300
C  7.17200 60.23800 39.23200
N  3.70700 55.72400 40.23700
C  3.96800 57.04500 40.01500
C  2.68500 57.91000 39.91100
C  1.64600 56.88600 40.51700
C  2.36100 55.55800 40.57600
C  2.79200 59.26500 40.60900
C  0.24400 56.82900 39.91000
C  -0.99100 57.17000 40.81200
N  3.72900 53.00200 40.77200
C  2.35600 53.18000 41.10800
C  1.76300 51.88500 41.45600
C  2.86200 51.01200 41.39300
C  3.93900 51.65200 40.76500
C  0.36900 51.64000 41.82200
C  3.22600 49.62500 41.66400
O  2.62900 48.72900 42.23000
C  4.61300 49.35100 40.93800
C  4.48000 48.40300 39.72900
O  4.13400 48.71500 38.59600
O  4.73200 47.14000 40.10800
C  4.57800 46.12000 39.02400
H  9.66800 53.97100 39.93500
H  5.22000 58.55100 39.17600
H  0.70600 54.41200 41.35700
H  7.63800 50.04600 41.20600
H  9.32500 51.32900 39.13600
H  10.86900 51.45200 40.65100
H  9.72000 50.66000 41.84800
H  9.81900 52.36800 41.80600
H  7.46800 48.28300 39.63300
H  8.83700 48.92900 38.91200
H  6.41900 50.33000 37.82000
H  6.67200 48.63400 37.51100
H  10.92900 55.80600 39.60600
H  10.81000 57.45100 39.43200
H  10.51700 56.37000 38.08900
H  7.70000 61.19200 39.24300
H  6.61100 60.18100 40.16400
H  6.58800 60.15600 38.31500
H  2.48800 58.14400 38.86500
H  1.66700 57.22500 41.55300
H  3.68700 59.19900 41.22700
H  2.01900 59.55400 41.32100
H  2.89100 60.07400 39.88500
H  0.14600 55.83100 39.48200
H  0.21600 57.47800 39.03500
H  -1.70900 57.95500 40.57400
H  -0.70400 57.28100 41.85800
H  -1.55100 56.24200 40.93300
H  0.53400 51.08000 42.74300
H  -0.19800 50.95800 41.18900
H  -0.20500 52.55000 41.99500
H  5.35100 48.94500 41.63000
H  4.83400 45.21400 39.57400
H  5.18000 46.33600 38.14100
H  3.55000 45.95000 38.70400

