158

Mg 40.82500 9.09900 29.22700
C  42.53100 10.45700 31.89000
C  38.71500 7.48700 31.50000
C  38.97000 8.08700 26.62400
C  43.30300 10.27900 27.15000
N  40.77800 8.73200 31.49000
C  41.56000 9.53600 32.32400
C  41.10000 9.27800 33.80700
C  40.04700 8.08800 33.66800
C  39.85100 8.01100 32.15100
C  40.23400 6.79700 34.45900
C  40.59700 10.60600 34.44800
C  39.84100 10.54900 35.77600
H  40.45800 11.17100 36.92500
N  39.01000 8.12800 29.09000
C  38.26600 7.59400 30.12300
C  37.03200 7.04800 29.58700
C  37.19000 7.12300 28.13900
C  38.43700 7.81200 27.88800
C  35.99600 6.39300 30.42700
C  36.20400 6.75300 27.01900
O  36.36100 7.02800 25.84000
C  34.82900 6.22100 27.39900
N  41.13300 9.12400 27.18100
C  40.24800 8.64400 26.29800
C  40.83300 8.69900 24.82400
C  42.07100 9.66400 25.07600
C  42.23900 9.59500 26.58200
C  41.27200 7.34400 24.21700
C  41.97500 11.09100 24.51400
C  43.23500 11.84800 23.94400
N  42.55400 10.08000 29.40000
C  43.44700 10.53800 28.46300
C  44.49000 11.24700 29.09100
C  44.16000 11.30400 30.44000
C  42.97500 10.55800 30.55000
C  45.76800 11.71600 28.39100
C  44.60400 11.69100 31.73300
O  45.64100 12.29300 32.00700
C  43.50800 11.26000 32.67700
C  44.11300 10.49100 33.80600
O  44.61100 9.35000 33.65600
O  44.07400 11.06600 34.97600
C  44.45700 10.35900 36.18800
H  37.92100 6.99900 32.07000
H  38.38700 8.02800 25.70200
H  43.99700 10.73300 26.44000
H  41.89800 8.85500 34.41700
H  39.13200 8.50900 34.08400
H  39.29000 6.59700 34.96500
H  41.05100 6.82000 35.18000
H  40.35400 5.89600 33.85800
H  39.89100 10.99800 33.71500
H  41.45400 11.27700 34.50400
H  39.43800 9.55300 35.96200
H  38.86300 10.98000 35.56000
H  36.50200 5.75200 31.14900
H  35.31500 5.72100 29.90500
H  35.33200 7.07800 30.95500
H  35.05100 5.18400 27.65000
H  34.08900 6.05400 26.61600
H  34.45100 6.78400 28.25200
H  40.08100 9.29000 24.30100
H  43.00500 9.19600 24.76600
H  41.21100 6.52600 24.93400
H  42.25700 7.41100 23.75500
H  40.65600 7.04800 23.36800
H  41.44200 11.66500 25.27100
H  41.28700 11.10600 23.66800
H  44.15600 11.26700 23.98100
H  43.44600 12.76300 24.49700
H  43.08800 12.17400 22.91500
H  46.36400 12.32000 29.07400
H  45.57600 12.40700 27.57000
H  46.35600 10.89400 27.98100
H  43.11700 12.24400 32.93500
H  43.67600 9.67700 36.52500
H  44.62900 11.07500 36.99100
H  45.41100 9.83600 36.12600
Mg 47.94700 15.91300 28.21100
C  45.36500 15.98600 30.69400
C  50.15700 17.13500 30.49300
C  50.12700 16.31600 25.69700
C  45.46700 15.08800 25.93600
N  47.69600 16.63100 30.33200
C  46.61500 16.38200 31.16900
C  46.96800 16.75700 32.60300
C  48.36000 17.56300 32.35500
C  48.79700 17.10500 30.97000
C  48.25600 19.10100 32.48200
C  47.04800 15.45100 33.46200
C  46.98000 15.52900 35.01300
H  46.62500 16.84700 35.66500
N  49.88700 16.49700 28.13100
C  50.63300 16.91000 29.18900
C  51.98800 17.08600 28.85300
C  52.06000 16.87300 27.39000
C  50.65200 16.53300 27.02000
C  53.08200 17.55400 29.85000
C  53.28200 16.95400 26.58700
O  53.29500 16.74500 25.38500
C  54.60900 17.31800 27.16800
N  47.80600 16.12000 26.05600
C  48.88100 16.14900 25.22700
C  48.47600 15.77000 23.76700
C  47.07200 15.12700 24.00100
C  46.74300 15.48200 25.43300
C  48.63600 16.92300 22.70600
C  46.88400 13.63900 23.64000
C  47.11700 12.62200 24.83700
N  45.87600 15.56500 28.24700
C  45.07400 15.13100 27.29000
C  43.74000 14.67600 27.83400
C  43.80800 15.08800 29.14600
C  45.15000 15.53500 29.41800
C  42.63500 14.00100 27.07100
C  43.02400 15.23400 30.31600
O  41.86700 15.05200 30.41800
C  44.06500 15.74100 31.44000
C  43.52900 16.85400 32.25300
O  43.56700 18.05500 31.99800
O  42.90600 16.38100 33.41700
C  42.48300 17.40600 34.47000
H  50.83300 17.36400 31.32000
H  50.83800 16.13100 24.88900
H  44.78800 14.69000 25.17900
H  46.30600 17.43600 33.14000
H  49.09600 17.27900 33.10700
H  47.23200 19.47400 32.46600
H  48.77100 19.47700 31.59800
H  48.88700 19.45100 33.29900
H  48.04800 15.03300 33.35100
H  46.25400 14.77800 33.13700
H  47.92500 15.16000 35.41200
H  46.24400 14.83800 35.42400
H  52.75800 17.73900 30.87400
H  53.23600 18.57500 29.50000
H  53.94800 16.89800 29.77500
H  54.55600 18.33500 27.55800
H  55.45000 17.26600 26.47700
H  54.95900 16.61300 27.92200
H  49.12000 14.94400 23.46400
H  46.31100 15.62300 23.39900
H  47.64800 17.04100 22.26200
H  49.42300 16.64200 22.00600
H  48.81800 17.87300 23.20800
H  47.42000 13.30200 22.75200
H  45.86000 13.52900 23.28400
H  47.37700 13.11300 25.77500
H  47.89500 11.92400 24.52400
H  46.17700 12.08500 24.96200
H  42.93300 13.81500 26.03900
H  41.76500 14.65200 27.15100
H  42.69900 13.06900 27.63200
H  44.18700 14.95500 32.18500
H  42.80700 17.01100 35.43300
H  41.40500 17.48900 34.60900
H  43.04700 18.33800 34.41900

