158

Mg 24.96600 0.97000 29.33500
C  27.15800 0.78200 32.18400
C  22.28000 0.81400 31.62100
C  22.99600 0.62900 26.81400
C  27.77100 0.15900 27.45000
N  24.75600 0.85900 31.66700
C  25.78500 0.96500 32.54300
C  25.31700 1.45100 33.92500
C  23.72200 1.17900 33.85600
C  23.53800 1.04200 32.26300
C  23.12000 -0.06200 34.64000
C  25.61300 2.92800 34.29400
C  26.24800 3.00100 35.73700
H  25.53600 3.87900 36.77700
N  22.99900 0.90200 29.21800
C  22.04000 0.89200 30.21300
C  20.67600 0.82600 29.65500
C  20.87000 0.83000 28.25000
C  22.34900 0.75200 28.01600
C  19.42000 0.94300 30.54500
C  19.96500 0.80100 27.13200
O  20.24100 0.93500 25.97000
C  18.52800 0.65300 27.44000
N  25.40300 0.57500 27.39800
C  24.40100 0.58300 26.50400
C  24.87800 0.63000 25.04400
C  26.41800 0.52800 25.27100
C  26.58300 0.31700 26.76500
C  24.20000 -0.35000 24.05700
C  27.18300 1.78300 24.71300
C  27.25500 3.04900 25.59800
N  27.10800 0.47700 29.68400
C  28.12000 0.25700 28.80200
C  29.37600 0.20300 29.53100
C  29.03500 0.36600 30.85000
C  27.65100 0.51900 30.89700
C  30.70400 -0.04400 28.87400
C  29.60700 0.58100 32.14100
O  30.81900 0.52300 32.52700
C  28.39300 0.89400 33.10100
C  28.39200 -0.03900 34.30000
O  28.13300 -1.20800 34.27400
O  28.83800 0.64000 35.42400
C  29.06400 -0.14800 36.63700
H  21.43800 0.73700 32.31100
H  22.51500 0.67700 25.83500
H  28.54100 0.00700 26.69100
H  25.78300 0.71500 34.58100
H  23.09800 2.02900 34.13200
H  22.35300 -0.53800 34.02900
H  22.59500 0.30500 35.52200
H  23.96200 -0.69800 34.91400
H  24.69500 3.51200 34.23000
H  26.31600 3.30000 33.54900
H  27.27700 3.31400 35.56000
H  26.27600 1.98400 36.12900
H  19.05800 1.97100 30.56700
H  19.52900 0.46600 31.51900
H  18.60900 0.34900 30.12600
H  18.55700 -0.37100 27.81200
H  17.89300 0.75200 26.56000
H  18.22000 1.45500 28.11200
H  24.50800 1.62600 24.80400
H  26.78100 -0.40800 24.84700
H  23.36700 0.12100 23.53600
H  23.81800 -1.27500 24.48800
H  24.92700 -0.67000 23.31000
H  26.66900 2.09700 23.80400
H  28.14800 1.48100 24.30600
H  26.99900 2.76700 26.61900
H  26.63500 3.87400 25.24700
H  28.24700 3.47500 25.74900
H  31.01200 0.84400 28.32300
H  30.60300 -0.91700 28.22900
H  31.46400 -0.08100 29.65500
H  28.45900 1.90200 33.51100
H  28.08300 -0.33400 37.07400
H  29.71200 0.26900 37.40800
H  29.50000 -1.11800 36.39500
Mg 42.79700 42.27300 26.13700
C  41.69300 44.52200 28.64400
C  44.35600 40.46600 28.54100
C  43.99500 40.28700 23.74400
C  41.84300 44.62200 23.76300
N  42.79500 42.39800 28.40900
C  42.27400 43.36800 29.21300
C  42.29700 42.93000 30.67000
C  43.29900 41.63700 30.57300
C  43.57800 41.51900 29.06000
C  44.65500 41.85700 31.40500
C  40.85100 42.64900 31.18500
C  40.69800 41.81100 32.43800
H  40.05900 42.68400 33.54900
N  43.89400 40.55700 26.07200
C  44.40100 39.89900 27.25600
C  45.08000 38.72200 26.81600
C  44.99100 38.64900 25.41400
C  44.30100 39.89100 25.03200
C  45.84900 37.82100 27.77000
C  45.49100 37.53300 24.46700
O  45.36900 37.66300 23.23500
C  46.10500 36.29100 25.10900
N  42.89500 42.50300 24.09900
C  43.38200 41.48800 23.29500
C  43.37900 41.82500 21.81700
C  42.55200 43.11300 21.77600
C  42.48800 43.50400 23.27800
C  44.79100 42.09200 21.12500
C  41.03400 42.99000 21.34600
C  40.40300 41.61500 21.58600
N  41.96900 44.23200 26.15000
C  41.63400 45.06300 25.13600
C  41.18300 46.30700 25.64600
C  41.03500 46.12700 26.98100
C  41.65700 44.86500 27.27800
C  40.90100 47.45900 24.73000
C  40.63800 46.74600 28.29600
O  40.10600 47.81200 28.55000
C  40.99100 45.65500 29.38100
C  41.87900 46.34300 30.38400
O  42.92800 46.82200 30.17500
O  41.33100 46.35200 31.65800
C  42.12000 46.94100 32.75300
H  44.72300 39.83700 29.35400
H  44.28000 39.70800 22.86300
H  41.56000 45.35200 23.00200
H  42.74600 43.74800 31.23400
H  42.81800 40.77200 31.03100
H  44.61500 42.79000 31.96700
H  45.48300 42.00000 30.71100
H  44.83200 41.01000 32.06700
H  40.15800 42.30900 30.41500
H  40.45100 43.64700 31.36300
H  41.71600 41.52800 32.70300
H  40.08200 40.97200 32.11400
H  46.88700 37.76600 27.44100
H  45.44800 36.80800 27.74200
H  45.95400 38.25000 28.76600
H  47.06500 36.60500 25.51800
H  46.26100 35.50800 24.36600
H  45.52000 35.87700 25.93000
H  42.78400 41.12900 21.22500
H  42.99400 43.94000 21.22100
H  44.81400 41.60100 20.15200
H  45.42000 41.48500 21.77600
H  45.08100 43.14100 21.06000
H  40.91700 43.42400 20.35300
H  40.49000 43.73900 21.92100
H  39.32400 41.74900 21.51900
H  40.57400 41.21900 22.58800
H  40.74100 40.97600 20.77000
H  40.27900 47.13900 23.89500
H  41.84200 47.76500 24.27400
H  40.48300 48.26900 25.32800
H  40.07600 45.37300 29.90300
H  41.64200 47.90500 32.92600
H  43.12500 47.26200 32.47900
H  42.03500 46.35700 33.67000

