158

Mg 45.83900 3.66500 47.07500
C  43.49300 6.27300 46.52800
C  43.21300 1.42300 46.92300
C  48.00700 1.08600 46.95300
C  48.31100 5.90900 46.78300
N  43.65200 3.87800 46.77700
C  42.90400 5.00000 46.55100
C  41.42800 4.72300 46.45800
C  41.34200 3.27400 46.98200
C  42.82400 2.77800 46.91400
C  40.78700 3.18400 48.42000
C  40.84800 4.81800 44.91400
C  39.67700 5.78900 44.66700
H  39.81000 6.86600 43.62000
N  45.60000 1.49400 47.04400
C  44.45300 0.79100 47.05500
C  44.73000 -0.60700 47.23800
C  46.16200 -0.68800 47.20900
C  46.67300 0.66300 47.06200
C  43.69000 -1.66500 47.24200
C  46.91600 -1.90600 47.48800
O  46.32300 -2.97000 47.79700
C  48.41700 -1.95300 47.56000
N  47.80000 3.53400 46.66700
C  48.49700 2.39800 46.78800
C  50.01600 2.58700 46.85800
C  50.08100 4.20200 46.76300
C  48.63500 4.56400 46.62200
C  50.62100 2.30400 48.21600
C  51.02100 4.73900 45.65800
C  52.24800 5.48200 46.08200
N  45.94400 5.64700 46.68500
C  47.07500 6.48700 46.77900
C  46.73700 7.92100 46.68800
C  45.26500 7.87700 46.59400
C  44.87900 6.48800 46.66700
C  47.61000 9.19000 46.59900
C  44.07300 8.64900 46.53500
O  43.86100 9.87600 46.58400
C  42.78100 7.64400 46.59800
C  42.04700 7.73900 47.92700
O  42.30600 7.23000 49.00300
O  41.10000 8.68200 47.77100
C  40.10500 8.95500 48.84400
H  42.45500 0.65700 47.10000
H  48.89400 0.46000 47.06800
H  49.14700 6.60900 46.71400
H  40.84500 5.44500 47.03000
H  40.74000 2.68200 46.29200
H  40.46800 4.17400 48.74400
H  41.61400 2.86700 49.05600
H  39.96400 2.47500 48.51100
H  40.52900 3.81700 44.62400
H  41.63700 5.12000 44.22600
H  39.27900 6.30000 45.54300
H  38.75600 5.27300 44.39800
H  43.87000 -2.57200 46.66600
H  42.76000 -1.21700 46.89200
H  43.43300 -2.01500 48.24200
H  48.78000 -2.96600 47.73400
H  48.83000 -1.46200 48.44100
H  48.80400 -1.53200 46.63200
H  50.52500 2.06100 46.05000
H  50.39000 4.66000 47.70300
H  51.33800 3.09500 48.43700
H  51.17300 1.36500 48.19400
H  49.96600 2.35000 49.08600
H  50.27100 5.25700 45.05900
H  51.37000 3.83600 45.15600
H  52.39600 5.59000 47.15700
H  52.40400 6.48200 45.67800
H  53.10000 5.04800 45.55900
H  48.62300 8.82900 46.42500
H  47.46300 9.68000 47.56200
H  47.35400 9.79700 45.73100
H  42.07100 7.84600 45.79600
H  40.14000 10.00900 49.12000
H  40.42700 8.57200 49.81200
H  39.10500 8.61800 48.57300
Mg -10.86900 17.59300 41.33000
C  -7.25600 17.43100 41.87100
C  -10.48700 20.92700 40.59200
C  -14.12500 17.51800 40.36200
C  -10.72100 14.06200 41.28100
N  -9.04700 18.93800 41.30700
C  -7.74000 18.70400 41.50000
C  -6.86500 19.92000 41.31700
C  -7.98200 21.03000 41.42400
C  -9.26700 20.26600 41.06200
C  -8.10000 21.77800 42.71400
C  -6.35400 19.97100 39.78600
C  -4.90400 19.55700 39.47900
H  -4.72200 18.59900 38.30500
N  -12.11300 19.05800 40.65700
C  -11.77700 20.34800 40.49400
C  -12.92900 21.10700 40.07900
C  -14.05400 20.18300 40.03700
C  -13.52800 18.83400 40.33200
C  -12.84300 22.62300 39.69300
C  -15.42600 20.61200 39.45800
O  -15.72700 21.78700 39.31700
C  -16.46000 19.54200 39.16300
N  -12.26100 15.96000 40.86600
C  -13.60600 16.20500 40.55300
C  -14.39300 14.90500 40.41000
C  -13.23000 13.85600 40.43000
C  -11.96800 14.63700 40.94400
C  -15.37200 14.56500 41.59400
C  -12.94400 13.06200 39.16800
C  -13.88500 12.01400 38.82000
N  -9.30700 16.01500 41.61900
C  -9.46800 14.65400 41.61500
C  -8.23300 14.03200 42.07000
C  -7.37200 15.08600 42.10500
C  -8.06100 16.24500 41.85700
C  -7.82700 12.62400 42.39900
C  -5.99900 15.39200 42.36500
O  -5.00100 14.66900 42.49400
C  -5.86200 16.99300 42.31600
C  -5.48700 17.57200 43.64200
O  -4.51500 18.34900 43.71000
O  -6.24100 17.11500 44.66800
C  -6.03800 17.81100 45.89900
H  -10.24800 21.97500 40.39900
H  -15.19200 17.49900 40.13100
H  -10.77200 12.98900 41.47700
H  -6.15500 20.09600 42.12500
H  -7.91800 21.72400 40.58600
H  -8.87500 21.31600 43.32600
H  -8.49300 22.77000 42.49000
H  -7.11400 21.75400 43.17700
H  -6.32300 21.02200 39.49800
H  -6.99000 19.35100 39.15300
H  -4.49700 19.12200 40.39100
H  -4.34500 20.48600 39.36700
H  -13.10500 22.48300 38.64400
H  -11.84900 22.97500 39.97200
H  -13.57700 23.15300 40.30000
H  -15.96300 18.79500 38.54400
H  -17.24100 19.93100 38.51000
H  -16.74800 19.06700 40.10100
H  -14.92400 14.85200 39.46000
H  -13.21500 13.07000 41.18600
H  -15.09900 15.31700 42.33500
H  -15.18700 13.53300 41.89000
H  -16.38000 14.64000 41.18700
H  -11.98700 12.59800 39.40700
H  -12.75100 13.66900 38.28400
H  -14.41500 11.54900 39.65100
H  -13.27600 11.24600 38.34300
H  -14.65200 12.33000 38.11200
H  -7.44900 12.00100 41.58900
H  -8.58700 12.09100 42.97000
H  -6.95400 12.73400 43.04300
H  -5.08500 17.20700 41.58200
H  -5.80900 17.02600 46.62000
H  -6.95900 18.30000 46.21400
H  -5.17500 18.46800 46.00700

