158

Mg 48.02500 35.29100 27.06700
C  46.23900 33.41800 29.57700
C  48.14700 37.80100 29.33000
C  49.11700 37.07100 24.49600
C  47.00600 32.69500 24.83000
N  47.33300 35.50800 29.24800
C  46.74000 34.60600 30.04800
C  46.72100 35.08500 31.52700
C  46.98900 36.64200 31.33300
C  47.54000 36.67500 29.90400
C  45.73500 37.55900 31.60000
C  47.97100 34.43900 32.26400
C  47.95000 34.37000 33.81900
H  47.02300 35.34800 34.51500
N  48.68800 37.14500 26.96600
C  48.79000 38.04400 28.03500
C  49.51100 39.22800 27.55200
C  49.73300 39.01200 26.11100
C  49.16400 37.68400 25.74700
C  49.78600 40.46100 28.40400
C  50.51400 39.90700 25.11200
O  50.66600 39.58700 23.97100
C  51.01400 41.23300 25.63600
N  48.05900 34.89000 25.01100
C  48.61600 35.81900 24.14600
C  48.66000 35.37100 22.75200
C  47.97600 33.93900 22.86500
C  47.66500 33.80000 24.34600
C  47.85900 36.31800 21.81300
C  48.98400 32.82500 22.42900
C  50.13600 32.44500 23.30700
N  47.08500 33.32900 27.18900
C  46.75600 32.40400 26.15300
C  46.11200 31.23700 26.78200
C  45.81900 31.55900 28.02800
C  46.41000 32.85000 28.27300
C  45.74700 29.95600 26.03300
C  45.11700 31.14100 29.23700
O  44.52400 30.16800 29.54100
C  45.39100 32.32100 30.26400
C  45.74500 31.94100 31.62600
O  46.82700 31.36000 31.83300
O  44.96900 32.30800 32.66500
C  45.17500 31.63800 33.94700
H  48.13500 38.62400 30.04800
H  49.57200 37.59800 23.65400
H  46.58000 31.95400 24.15200
H  45.75000 34.90600 31.99000
H  47.83800 37.00500 31.91100
H  44.95700 37.06900 32.18500
H  45.34100 38.00100 30.68400
H  46.00100 38.36200 32.28700
H  48.88700 34.96100 31.98600
H  48.13800 33.44300 31.85500
H  48.92400 34.42100 34.30600
H  47.59700 33.39100 34.14100
H  49.37400 40.17900 29.37300
H  49.22200 41.30900 28.01600
H  50.83600 40.60100 28.66100
H  50.24400 41.87600 26.06500
H  51.33800 41.77100 24.74500
H  51.79800 41.08500 26.37900
H  49.68200 35.43100 22.37900
H  47.07800 33.89900 22.24900
H  47.53700 37.12000 22.47800
H  47.00900 35.80900 21.36000
H  48.52800 36.65100 21.01900
H  49.38300 33.25500 21.51100
H  48.38300 31.94100 22.21400
H  51.11300 32.61900 22.85600
H  50.00200 31.36700 23.40300
H  50.14200 32.94400 24.27600
H  46.53900 29.29600 26.38700
H  45.71100 30.12200 24.95600
H  44.84100 29.46700 26.39100
H  44.37600 32.70000 30.38400
H  44.77600 30.62300 33.94200
H  44.70900 32.27300 34.70100
H  46.22700 31.51100 34.20200
Mg -2.07700 34.76500 27.22500
C  -3.55900 33.00400 30.00400
C  -0.57300 36.73500 29.24100
C  -0.75700 36.04300 24.44000
C  -3.98600 32.50500 25.17600
N  -2.21400 34.87700 29.29000
C  -2.81100 34.21700 30.28900
C  -2.50000 34.77100 31.70700
C  -1.72500 36.07700 31.38600
C  -1.51500 35.86100 29.88600
C  -2.30800 37.46200 31.74100
C  -1.64300 33.68700 32.49700
C  -2.35300 33.04800 33.68200
H  -1.77900 33.30100 35.13000
N  -0.88700 36.16600 26.90200
C  -0.21300 36.85300 27.88900
C  0.74100 37.75300 27.28400
C  0.74200 37.49900 25.92300
C  -0.34200 36.56200 25.68300
C  1.51800 38.69000 28.19200
C  1.55300 38.23800 24.78100
O  1.29800 38.17600 23.63600
C  2.58700 39.29200 25.22800
N  -2.49300 34.44100 25.05100
C  -1.69000 35.05300 24.13900
C  -2.21700 34.71100 22.74900
C  -2.98700 33.34500 23.02200
C  -3.17800 33.41000 24.53400
C  -3.08900 35.89500 22.23600
C  -2.38500 32.04600 22.50400
C  -1.02300 31.57900 23.08000
N  -3.48200 33.11100 27.45400
C  -4.15000 32.31800 26.53600
C  -4.94200 31.32300 27.13500
C  -4.68000 31.50500 28.48400
C  -3.83500 32.63500 28.68000
C  -5.74600 30.22200 26.46800
C  -4.84400 30.96800 29.83700
O  -5.40300 29.96400 30.19500
C  -4.23700 31.97500 30.84300
C  -5.36500 32.48300 31.67400
O  -6.05200 33.41800 31.31100
O  -5.55300 31.70600 32.75600
C  -6.52800 32.22600 33.68700
H  -0.07900 37.29700 30.03600
H  -0.40100 36.59900 23.57000
H  -4.33400 31.70500 24.52000
H  -3.41600 35.00200 32.24900
H  -0.75800 36.06700 31.88900
H  -2.75100 37.85700 30.82700
H  -1.50500 38.14600 32.01500
H  -3.03700 37.36600 32.54600
H  -0.69700 34.19200 32.69100
H  -1.49100 32.85200 31.81200
H  -2.49400 31.98000 33.52100
H  -3.35600 33.47100 33.62200
H  2.53500 38.47000 27.86500
H  1.36900 38.63300 29.27100
H  1.35300 39.70900 27.84200
H  3.40700 38.65000 25.55000
H  2.30100 39.92100 26.07200
H  2.98800 39.92200 24.43400
H  -1.37400 34.56900 22.07200
H  -4.01700 33.34700 22.66500
H  -2.86100 36.79100 22.81300
H  -4.15800 35.70500 22.32400
H  -2.75800 36.06800 21.21200
H  -2.18000 32.23500 21.45000
H  -3.10600 31.22800 22.51400
H  -0.89400 32.10100 24.02800
H  -0.29500 31.90500 22.33600
H  -1.05500 30.51000 23.29300
H  -5.33200 30.01200 25.48200
H  -6.77300 30.55800 26.32600
H  -5.70300 29.34700 27.11700
H  -3.61000 31.39900 31.52300
H  -6.25000 33.13800 34.21500
H  -6.80000 31.45000 34.40200
H  -7.45600 32.48500 33.17800

