158

Mg 27.10300 51.41900 27.02700
C  24.89500 52.49000 29.34700
C  29.19200 50.30600 29.57000
C  29.27100 50.43000 24.67900
C  25.14100 52.96600 24.53100
N  26.96400 51.36600 29.22200
C  25.93000 51.79200 29.99900
C  26.21600 51.63200 31.50800
C  27.67800 51.06700 31.46100
C  27.99300 50.87700 29.97400
C  28.78200 51.87400 32.18800
C  25.19800 50.62800 32.18300
C  24.44300 51.14600 33.43800
H  25.26400 51.26900 34.77900
N  29.01000 50.54700 27.11300
C  29.64300 50.06000 28.19000
C  30.85300 49.42300 27.77500
C  30.85800 49.35500 26.38600
C  29.60900 50.10200 25.97500
C  31.89600 48.95500 28.81800
C  31.84900 48.70700 25.48400
O  31.66700 48.61900 24.24900
C  33.14800 48.28900 25.98700
N  27.22000 51.68500 24.93700
C  28.20800 51.16100 24.14000
C  27.88300 51.25500 22.66800
C  26.63400 52.21100 22.62200
C  26.36400 52.40300 24.09300
C  29.10600 51.87800 21.93500
C  25.41100 51.67700 21.81800
C  24.79100 50.38900 22.43100
N  25.27100 52.46900 26.89900
C  24.55100 53.00000 25.79000
C  23.34900 53.53800 26.27600
C  23.40800 53.39100 27.68100
C  24.63700 52.74500 27.98700
C  22.29200 54.27700 25.58000
C  22.71700 53.65700 29.00700
O  21.70300 54.25400 29.23100
C  23.66900 52.98100 30.08300
C  24.07900 53.98100 31.07500
O  25.04500 54.66500 31.02100
O  23.16300 54.02100 32.06500
C  23.47700 54.93800 33.22500
H  29.94600 50.08400 30.32700
H  29.88300 50.05900 23.85400
H  24.62400 53.55300 23.76900
H  26.20100 52.58900 32.02900
H  27.72000 50.04900 31.84600
H  29.30600 52.43100 31.41100
H  29.53100 51.20500 32.61200
H  28.33300 52.57700 32.89100
H  25.64500 49.68400 32.49400
H  24.41900 50.48600 31.43300
H  23.56300 50.54600 33.66700
H  24.00300 52.12100 33.22600
H  32.49500 49.83500 29.05100
H  32.52700 48.12000 28.51100
H  31.40700 48.64400 29.74100
H  33.88200 48.32400 25.18100
H  33.13400 47.27000 26.37300
H  33.45600 48.99200 26.76100
H  27.59200 50.26400 22.32100
H  26.90600 53.20000 22.25400
H  29.75500 52.23400 22.73500
H  28.80500 52.68600 21.26800
H  29.53400 51.04200 21.38300
H  25.73900 51.36500 20.82700
H  24.64000 52.44400 21.73800
H  23.70400 50.43800 22.36800
H  25.12800 50.18900 23.44800
H  25.13500 49.48200 21.93200
H  22.05500 53.82700 24.61600
H  22.54800 55.31900 25.39200
H  21.50000 54.28000 26.32900
H  23.08000 52.25200 30.64000
H  24.34100 54.57200 33.78100
H  22.58600 55.14600 33.81800
H  23.72000 55.92000 32.82100
Mg -11.46400 16.88100 40.06100
C  -7.96300 16.36400 40.43400
C  -10.69700 20.31400 39.65000
C  -14.54200 17.51400 39.19300
C  -11.86000 13.36300 40.01600
N  -9.50300 18.18900 39.98000
C  -8.23200 17.68000 40.18200
C  -7.18600 18.82200 40.10700
C  -8.14300 20.09900 40.22700
C  -9.54400 19.51700 39.93700
C  -7.95400 20.90800 41.52500
C  -6.43600 19.03200 38.78400
C  -5.15700 18.23800 38.54000
H  -5.03500 17.03000 37.57900
N  -12.49400 18.66400 39.46400
C  -11.99200 19.92200 39.36100
C  -12.99200 20.81900 38.92400
C  -14.19300 20.07400 38.84500
C  -13.81100 18.70500 39.14500
C  -12.75800 22.26200 38.79000
C  -15.58300 20.63500 38.46600
O  -15.75700 21.85500 38.24900
C  -16.83700 19.83700 38.49700
N  -12.89600 15.63800 39.48700
C  -14.12300 16.16100 39.36700
C  -15.19500 14.99600 39.32000
C  -14.34200 13.71200 39.36100
C  -12.95200 14.25200 39.67100
C  -16.44200 15.10500 40.33500
C  -14.48600 12.84000 38.10800
C  -14.33000 11.31700 38.36100
N  -10.20200 15.12500 40.24000
C  -10.53100 13.80600 40.12900
C  -9.33700 13.06400 40.30800
C  -8.30300 14.03700 40.55300
C  -8.90900 15.32000 40.39600
C  -9.12700 11.65900 40.40100
C  -6.89800 14.21500 40.81300
O  -6.01500 13.39100 40.93400
C  -6.64700 15.76200 40.83800
C  -6.31900 15.99400 42.29300
O  -7.07100 16.19500 43.22700
O  -4.93500 15.80200 42.47600
C  -4.34100 15.99800 43.81300
H  -10.45100 21.36300 39.46900
H  -15.58200 17.61500 38.87500
H  -12.03200 12.28400 40.02800
H  -6.56900 18.66800 40.99200
H  -7.91700 20.83200 39.45300
H  -7.01900 21.46200 41.61900
H  -7.90700 20.13400 42.29100
H  -8.83500 21.54800 41.57000
H  -6.23700 20.10000 38.69000
H  -7.12900 18.75200 37.99100
H  -4.73400 18.03900 39.52400
H  -4.68500 19.10900 38.08400
H  -12.80900 22.67600 39.79700
H  -13.43800 22.75500 38.09600
H  -11.75100 22.58200 38.52500
H  -16.71300 19.12500 37.68100
H  -17.71800 20.45100 38.31100
H  -16.93700 19.29900 39.44000
H  -15.56500 15.18200 38.31200
H  -14.78800 13.22700 40.23000
H  -16.16800 15.87900 41.05200
H  -16.76400 14.25900 40.94200
H  -17.31500 15.42800 39.76800
H  -13.76000 13.20300 37.37900
H  -15.46200 13.02000 37.65700
H  -15.27100 10.91200 37.98900
H  -14.32400 11.13600 39.43500
H  -13.44400 10.94800 37.84500
H  -8.12600 11.27900 40.60300
H  -9.55000 11.30600 39.46000
H  -9.80100 11.21400 41.13300
H  -5.80300 15.96100 40.17800
H  -3.43600 16.58700 43.66300
H  -4.06400 14.97600 44.07100
H  -4.97800 16.37400 44.61300

