158

Mg 25.13600 1.50900 29.94500
C  27.10200 1.04400 32.86600
C  22.36600 1.28000 32.08900
C  23.24700 1.60100 27.29200
C  27.88500 0.59800 28.05000
N  24.85500 1.37700 32.23900
C  25.76800 1.25800 33.20400
C  25.19900 1.31700 34.67800
C  23.76200 1.18800 34.37200
C  23.60200 1.31000 32.79000
C  22.93600 -0.02300 34.92900
C  25.65800 2.57800 35.55600
C  26.18000 2.23600 36.97400
H  25.69300 3.09800 38.16600
N  23.03300 1.60400 29.75400
C  22.10800 1.50300 30.72300
C  20.84200 1.74600 30.00100
C  21.02700 1.74300 28.59000
C  22.47400 1.69900 28.47400
C  19.62900 2.11300 30.66800
C  20.09200 1.81400 27.45100
O  20.44200 1.80800 26.24000
C  18.59100 1.89100 27.75400
N  25.45600 0.73300 27.96600
C  24.57500 1.16800 27.03100
C  25.07600 1.14100 25.57700
C  26.58200 0.74200 25.83200
C  26.66500 0.75300 27.41500
C  24.24700 0.15200 24.71000
C  27.54200 1.69400 25.04200
C  28.04200 2.97900 25.80000
N  27.13500 1.05000 30.29500
C  28.13400 0.75100 29.42100
C  29.33600 0.68700 30.17300
C  28.97300 0.88000 31.52400
C  27.61900 1.06000 31.53600
C  30.63900 0.39200 29.58600
C  29.54300 0.68700 32.80500
O  30.67400 0.39000 33.22300
C  28.29800 0.87500 33.76500
C  28.39500 -0.30000 34.73500
O  27.83500 -1.42700 34.59700
O  29.03400 0.08100 35.81300
C  28.82400 -0.71400 37.06400
H  21.51400 1.21300 32.76900
H  22.81500 1.71400 26.29600
H  28.79400 0.48500 27.45700
H  25.52900 0.44300 35.24000
H  23.21000 2.08900 34.64000
H  22.22200 0.34200 35.66700
H  23.56900 -0.70900 35.49200
H  22.61300 -0.79900 34.23500
H  24.82800 3.28400 35.57900
H  26.54400 3.02300 35.10200
H  27.27000 2.22000 36.99100
H  25.85400 1.25800 37.32900
H  19.64800 2.05500 31.75600
H  18.96500 1.25500 30.56100
H  19.19700 3.04200 30.29600
H  18.05200 1.82700 26.80900
H  18.26300 2.80200 28.25500
H  18.26300 1.08600 28.41200
H  25.03900 2.12000 25.09900
H  26.76800 -0.31600 25.64300
H  23.34500 -0.11800 25.25900
H  24.81600 -0.72200 24.39300
H  23.83200 0.61200 23.81300
H  27.05300 2.03100 24.12800
H  28.47200 1.22900 24.71500
H  27.56500 2.91500 26.77800
H  27.69400 3.82100 25.20200
H  29.13100 2.95600 25.79600
H  31.48900 0.80100 30.13200
H  30.69400 0.79900 28.57600
H  30.66700 -0.68700 29.43400
H  28.32600 1.77400 34.37900
H  28.27200 -1.64600 36.94300
H  28.35200 -0.07400 37.81000
H  29.79100 -0.96900 37.49700
Mg 17.17400 51.48500 26.40600
C  19.04900 50.33500 29.16100
C  14.63900 52.31600 28.51800
C  15.45500 52.39100 23.71200
C  19.79700 50.27600 24.23600
N  16.83000 51.30400 28.55700
C  17.80200 50.95800 29.55400
C  17.29500 51.14200 30.96700
C  15.81100 51.64400 30.67400
C  15.74300 51.79500 29.14900
C  14.66200 50.79200 31.24800
C  17.97900 52.16200 31.82300
C  17.97500 51.90100 33.38400
H  17.48400 53.06800 34.31400
N  15.27800 52.22800 26.14000
C  14.39100 52.50600 27.13300
C  13.20800 52.95800 26.49600
C  13.32200 52.89800 25.09500
C  14.75300 52.51400 24.95400
C  11.96600 53.30500 27.34600
C  12.31400 53.22300 24.09300
O  12.58400 53.09100 22.90400
C  10.97200 53.90100 24.43400
N  17.55300 51.28400 24.24500
C  16.72600 51.90200 23.40000
C  17.30400 51.89000 21.97000
C  18.81600 51.46400 22.22100
C  18.72900 50.94300 23.62700
C  16.65100 50.95800 20.93100
C  19.98400 52.38500 22.02600
C  20.80000 51.97900 20.78400
N  18.97000 50.41700 26.58500
C  19.91200 50.03600 25.62800
C  21.04300 49.38900 26.30000
C  20.70700 49.43800 27.69600
C  19.47400 50.05100 27.81300
C  22.25900 48.86900 25.61000
C  21.08100 49.11100 29.05900
O  22.08000 48.53300 29.41400
C  20.09500 49.69600 30.09400
C  19.69100 48.69900 31.06800
O  19.16400 47.60400 30.84600
O  20.11800 49.14300 32.31100
C  19.80600 48.45800 33.57300
H  13.85300 52.50600 29.25100
H  14.93800 52.89600 22.89300
H  20.65500 50.02400 23.61000
H  17.32600 50.17700 31.47200
H  15.61500 52.64700 31.05300
H  15.06000 50.03400 31.92400
H  14.25300 50.14600 30.47200
H  13.87300 51.30800 31.79600
H  17.58000 53.17300 31.73900
H  19.00100 52.23800 31.45100
H  18.95900 51.51500 33.65100
H  17.20000 51.14400 33.51000
H  12.03300 54.26400 27.86000
H  11.84300 52.58000 28.15100
H  10.96900 53.33700 26.90600
H  11.14400 54.76700 25.07400
H  10.28700 53.19300 24.90000
H  10.45900 54.19600 23.51800
H  17.28000 52.89000 21.53700
H  19.02100 50.65200 21.52300
H  15.86800 51.33300 20.27100
H  16.22600 50.07400 21.40800
H  17.42300 50.63500 20.23200
H  20.57400 52.37400 22.94300
H  19.63500 53.40800 21.88200
H  20.40400 51.14800 20.20000
H  21.81800 51.83200 21.14500
H  20.83900 52.83400 20.10900
H  22.66700 49.54700 24.86000
H  21.85300 47.93200 25.22800
H  23.06900 48.72100 26.32400
H  20.59200 50.51000 30.62300
H  18.90900 48.93600 33.96600
H  20.61300 48.52500 34.30300
H  19.63500 47.39200 33.42600

