158

Mg 28.28900 56.81100 39.66200
C  26.36900 53.84700 39.29900
C  31.08100 54.89800 38.70100
C  29.98800 59.65000 39.39600
C  25.35700 58.50100 40.25000
N  28.65000 54.64500 38.97400
C  27.71000 53.69500 38.93500
C  28.31600 52.41200 38.39900
C  29.84500 52.61100 38.45900
C  29.90300 54.13900 38.76400
C  30.47300 51.77300 39.57100
C  27.79600 51.95200 36.97700
C  27.21600 52.98800 35.93000
H  27.47900 52.76700 34.38000
N  30.29100 57.19700 39.27100
C  31.24400 56.29500 38.83900
C  32.48100 57.06700 38.64000
C  32.15500 58.43900 38.83700
C  30.74500 58.46600 39.21300
C  33.76700 56.38300 38.25800
C  33.22400 59.55500 38.70600
O  34.33400 59.34600 38.32300
C  33.02900 60.98100 39.24900
N  27.71800 58.75400 39.67500
C  28.61500 59.74800 39.72000
C  28.03400 61.02900 40.14800
C  26.49100 60.74200 40.03700
C  26.54200 59.21500 40.11200
C  28.50900 61.50500 41.56400
C  25.78300 61.24300 38.71900
C  24.74800 62.38000 38.86100
N  26.26300 56.34300 39.68400
C  25.15900 57.09300 39.95700
C  23.94200 56.28100 40.05700
C  24.39300 54.93700 39.83100
C  25.77400 55.08200 39.59400
C  22.60900 56.79300 40.47200
C  24.04400 53.58800 39.80600
O  22.94400 53.03900 39.87900
C  25.27600 52.79000 39.53300
C  25.40100 51.91200 40.67600
O  24.70100 50.93100 40.84700
O  26.44100 52.22500 41.47400
C  26.69600 51.38000 42.65300
H  31.93600 54.30600 38.36800
H  30.45700 60.63300 39.48500
H  24.44200 59.08100 40.38400
H  27.94500 51.73600 39.16900
H  30.33300 52.47400 37.49400
H  29.95700 50.85800 39.86200
H  30.47600 52.40600 40.45800
H  31.43700 51.39000 39.23400
H  27.03100 51.26100 37.33200
H  28.47000 51.23000 36.51600
H  27.81900 53.86200 36.17400
H  26.16700 53.26000 36.04600
H  33.98600 56.47800 37.19500
H  33.78500 55.29600 38.34400
H  34.61800 56.78500 38.80900
H  32.47600 60.86100 40.18100
H  32.44800 61.61200 38.57600
H  34.03500 61.36500 39.42200
H  28.35700 61.86400 39.52600
H  25.91900 61.05500 40.91100
H  27.70000 61.44200 42.29100
H  28.85500 62.52900 41.42500
H  29.41200 60.92500 41.75300
H  25.23100 60.42500 38.25600
H  26.51200 61.51700 37.95700
H  24.71400 62.80100 37.85600
H  25.25000 63.10000 39.50700
H  23.80300 62.03900 39.28600
H  22.05900 57.25900 39.65400
H  22.79800 57.54300 41.23900
H  22.07200 55.94900 40.90400
H  25.07700 52.22700 38.62100
H  27.49900 51.95800 43.11100
H  27.17100 50.47100 42.28400
H  25.78800 51.13400 43.20300
Mg 8.91700 48.81600 26.12900
C  7.11600 49.13100 28.93800
C  11.70000 49.98900 27.56600
C  10.58300 48.46200 23.08200
C  5.83100 48.63400 24.18900
N  9.32400 49.49500 28.05600
C  8.50800 49.40800 29.13700
C  9.26900 49.96200 30.42400
C  10.58500 50.57800 29.84700
C  10.51800 50.05700 28.33800
C  10.77900 52.06200 30.01400
C  9.62700 48.81500 31.39300
C  9.01300 48.90700 32.73700
H  8.99000 47.64400 33.49300
N  10.88400 48.99600 25.45200
C  11.92000 49.48800 26.27200
C  13.17200 49.31600 25.50500
C  12.89500 48.78600 24.17000
C  11.37500 48.67800 24.19600
C  14.54000 49.43300 26.16400
C  13.82100 48.23800 23.09800
O  13.36000 47.76200 22.03500
C  15.29700 48.32500 23.26000
N  8.25700 48.62300 23.85000
C  9.16800 48.48200 22.83500
C  8.45100 48.15200 21.46000
C  7.00300 48.60800 21.79800
C  6.94600 48.59600 23.36300
C  8.96400 48.71800 20.10400
C  5.98800 47.52800 21.22400
C  5.27100 47.94800 19.97600
N  6.90300 48.84700 26.44800
C  5.78300 48.62700 25.61100
C  4.55000 48.71000 26.45800
C  5.05400 48.91100 27.77900
C  6.45300 48.96500 27.69700
C  3.21100 48.46600 25.96500
C  4.69100 48.98800 29.12400
O  3.56100 48.89700 29.65000
C  6.00400 49.13100 29.94900
C  6.05200 47.99000 30.92900
O  6.78200 47.00300 30.82100
O  5.13100 48.24300 31.92700
C  4.83900 47.05100 32.72700
H  12.60600 50.37600 28.03700
H  11.08900 48.43300 22.11400
H  4.87700 48.46700 23.68400
H  8.69600 50.63000 31.06500
H  11.48100 50.10400 30.24900
H  10.11800 52.46200 30.78200
H  10.63800 52.62800 29.09300
H  11.78400 52.19100 30.41600
H  10.68500 48.77800 31.65100
H  9.30800 47.86400 30.96600
H  8.05700 49.43000 32.76300
H  9.54400 49.66400 33.31400
H  14.97100 48.43100 26.15500
H  14.33100 49.74000 27.18800
H  15.12200 50.23800 25.71500
H  15.64300 49.35800 23.23000
H  15.79900 47.90900 22.38600
H  15.71200 47.72700 24.07000
H  8.52500 47.06600 21.39700
H  6.80400 49.62300 21.45700
H  9.83100 49.31900 20.37900
H  8.24100 49.44000 19.72400
H  9.21800 47.96900 19.35400
H  5.19500 47.17500 21.88400
H  6.50500 46.59200 21.01100
H  5.39600 49.02200 19.83500
H  4.20800 47.72600 20.06600
H  5.83600 47.48500 19.16800
H  2.49100 48.99500 26.59000
H  2.93600 47.41200 26.00900
H  3.06700 48.76700 24.92700
H  5.95900 50.06100 30.51700
H  3.76600 46.85800 32.74000
H  5.09900 47.35500 33.74000
H  5.40300 46.16000 32.45000

