158

Mg 1.14200 7.74900 26.76400
C  1.65200 9.81700 29.67700
C  1.40000 5.02900 28.85200
C  1.42500 5.77700 24.10100
C  1.16400 10.55600 24.78700
N  1.45400 7.50200 29.00100
C  1.49600 8.48200 30.03900
C  1.38400 7.83700 31.45300
C  1.57400 6.35200 31.08800
C  1.50300 6.27100 29.55800
C  2.81700 5.61500 31.67100
C  0.03600 8.23100 32.18800
C  0.14600 8.41700 33.69600
H  1.34600 7.80100 34.52700
N  1.18300 5.70700 26.50800
C  1.30400 4.76000 27.47100
C  1.43200 3.42300 26.85100
C  1.32100 3.62300 25.46300
C  1.25900 5.04400 25.25600
C  1.72200 2.09900 27.56900
C  1.20000 2.53500 24.36700
O  0.98900 2.88800 23.21800
C  1.14500 1.05000 24.59500
N  1.09800 8.12600 24.69600
C  1.26300 7.12800 23.81900
C  1.39600 7.72800 22.40300
C  0.84100 9.23600 22.51900
C  1.06300 9.37600 24.05700
C  2.72400 7.48900 21.64800
C  -0.69400 9.37100 22.30000
C  -1.14700 10.49200 21.31800
N  1.41700 9.78700 27.08800
C  1.40900 10.85000 26.14400
C  1.68300 12.09100 26.86200
C  1.74100 11.72000 28.20900
C  1.57000 10.31100 28.34600
C  1.86600 13.46700 26.26100
C  2.08900 12.25300 29.53500
O  2.55600 13.36600 29.83900
C  1.87000 11.03400 30.55300
C  3.00200 11.00700 31.47500
O  3.96300 10.22700 31.31400
O  2.83500 11.89300 32.48000
C  3.73900 11.62400 33.63200
H  1.51700 4.18200 29.53200
H  1.53000 5.21700 23.17000
H  1.15500 11.52000 24.27400
H  2.21300 8.32500 31.96500
H  0.72700 5.84000 31.54500
H  2.34700 4.82700 32.26000
H  3.35300 6.39700 32.20900
H  3.36600 5.13600 30.86100
H  -0.59400 7.34900 32.07100
H  -0.37600 9.15100 31.77600
H  -0.72700 8.16700 34.29900
H  0.25300 9.48800 33.86600
H  0.76200 1.72100 27.92100
H  2.18800 2.29800 28.53400
H  2.41100 1.47200 27.00500
H  2.15200 0.67800 24.78400
H  0.79600 0.46700 23.74300
H  0.54200 0.88900 25.48800
H  0.69600 7.23700 21.72800
H  1.43700 9.92200 21.91700
H  3.16700 8.30000 21.07100
H  2.60000 6.64100 20.97300
H  3.46000 7.04600 22.31900
H  -1.25500 9.58200 23.21000
H  -1.11500 8.45300 21.88900
H  -2.06100 10.22600 20.78600
H  -0.39300 10.74500 20.57300
H  -1.37600 11.40000 21.87500
H  1.63100 13.33800 25.20400
H  2.87300 13.86900 26.37600
H  1.15200 14.13200 26.74600
H  0.86800 11.14900 30.96800
H  3.35200 12.40000 34.29300
H  4.74300 11.86600 33.28200
H  3.73400 10.57400 33.92200
Mg 1.15300 42.69100 25.84500
C  2.47200 42.86900 29.12200
C  -1.99300 42.02100 27.21900
C  -0.11200 42.32800 22.72300
C  4.23700 43.36100 24.56300
N  0.39400 42.47000 27.96200
C  1.02200 42.66800 29.11000
C  0.11800 42.50800 30.33300
C  -1.22600 42.12100 29.71500
C  -0.94100 42.18400 28.17700
C  -1.80000 40.79000 30.28400
C  0.11900 43.94600 31.10000
C  0.35100 43.91000 32.66000
H  0.28300 42.63000 33.40800
N  -0.85200 42.24300 25.08700
C  -2.00600 42.15200 25.77600
C  -3.11600 42.18500 24.84500
C  -2.60300 42.11000 23.51800
C  -1.16200 42.21700 23.73100
C  -4.51500 42.17400 25.28700
C  -3.32500 41.89000 22.19800
O  -2.73400 41.85800 21.13200
C  -4.85300 41.62200 22.12700
N  1.89800 42.84400 24.00300
C  1.21900 42.59500 22.80900
C  1.98200 43.00700 21.55100
C  3.29300 43.59700 22.12900
C  3.16000 43.29000 23.66300
C  2.19400 41.91700 20.48900
C  3.43400 45.07300 21.78000
C  4.14400 45.33100 20.52200
N  3.01600 42.81400 26.61800
C  4.21100 43.12400 25.95900
C  5.28500 43.27400 26.92200
C  4.62600 43.18100 28.15400
C  3.24100 42.85500 27.95500
C  6.76700 43.65900 26.62200
C  4.85700 43.32300 29.54100
O  5.91600 43.40500 30.16500
C  3.45500 43.11300 30.24300
C  3.62400 41.96200 31.14200
O  3.56000 40.77900 30.70700
O  4.13400 42.36500 32.37200
C  4.87100 41.23200 33.00700
H  -2.97800 41.80700 27.63900
H  -0.61900 42.29900 21.75700
H  5.12100 43.86000 24.16100
H  0.56300 41.76200 30.99100
H  -1.97600 42.88200 29.93000
H  -2.58500 40.41800 29.62500
H  -2.09000 41.01900 31.30900
H  -1.02300 40.02600 30.24900
H  -0.81800 44.47900 30.93600
H  0.88800 44.63000 30.74000
H  -0.21500 44.71000 33.13800
H  1.36800 44.24900 32.85700
H  -4.96600 41.18400 25.22300
H  -5.08200 42.83400 24.63100
H  -4.64200 42.67600 26.24700
H  -5.13200 40.86400 22.85900
H  -4.98900 41.14700 21.15600
H  -5.55000 42.46000 22.09700
H  1.49100 43.82700 21.02600
H  4.11500 43.02800 21.69400
H  1.63600 42.30500 19.63600
H  1.77200 40.96200 20.80400
H  3.24300 41.77900 20.22800
H  3.86100 45.55500 22.66000
H  2.47400 45.57700 21.66800
H  4.90600 46.09300 20.69000
H  3.44100 45.83600 19.86000
H  4.59000 44.42200 20.11800
H  7.36900 44.19900 27.35300
H  6.80200 44.43000 25.85200
H  7.20800 42.74600 26.22300
H  3.06700 43.95900 30.81000
H  5.68600 41.00000 32.32200
H  4.14300 40.43200 33.14300
H  5.24700 41.63800 33.94600

