158

Mg 42.76700 42.15300 25.99100
C  42.17200 44.49900 28.42900
C  43.95700 39.96500 28.44000
C  43.90200 40.08500 23.47900
C  41.95800 44.47700 23.61800
N  42.97600 42.19700 28.21800
C  42.59700 43.25700 29.00900
C  42.74600 42.98200 30.51300
C  43.37600 41.55900 30.48400
C  43.50700 41.24300 28.95500
C  44.65600 41.30700 31.32500
C  41.38800 43.06500 31.32500
C  41.38600 43.82300 32.64400
H  42.31900 43.41300 33.81400
N  43.70500 40.21800 25.96800
C  44.08100 39.45500 27.11900
C  44.64100 38.15600 26.66500
C  44.57400 38.18200 25.18300
C  44.07700 39.53400 24.83300
C  45.13100 37.09600 27.67200
C  44.87500 37.10400 24.23800
O  44.94000 37.18000 22.99200
C  45.14600 35.73100 24.80000
N  43.11200 42.37000 23.80900
C  43.43700 41.32600 23.00500
C  43.27200 41.76100 21.53800
C  42.30000 43.00000 21.64400
C  42.41100 43.29500 23.11200
C  44.54700 42.02400 20.61200
C  40.92700 42.75200 21.08400
C  39.97500 41.86600 21.96400
N  42.15000 44.12300 25.99400
C  41.87200 44.95200 24.98200
C  41.60300 46.30200 25.41700
C  41.72200 46.17000 26.82300
C  42.05400 44.80200 27.08900
C  41.19000 47.46600 24.53200
C  41.59900 46.88700 28.06900
O  41.40900 48.02300 28.35500
C  41.78200 45.79600 29.14100
C  42.70000 46.37300 30.15400
O  43.91500 46.44000 30.02700
O  41.97900 46.94500 31.18700
C  42.66000 47.62400 32.26200
H  44.13500 39.28700 29.27700
H  44.13400 39.37000 22.68800
H  41.56800 45.20800 22.90600
H  43.41100 43.73100 30.94300
H  42.68700 40.79200 30.83900
H  44.81200 42.05900 32.09800
H  45.60800 41.18800 30.80700
H  44.44500 40.35600 31.81400
H  40.99700 42.07000 31.53900
H  40.68700 43.53700 30.63700
H  40.36200 43.94500 33.00000
H  41.71900 44.84700 32.47400
H  44.68500 36.11700 27.50000
H  45.02900 37.35800 28.72500
H  46.20100 37.00500 27.48400
H  44.25700 35.48400 25.38200
H  46.02900 36.01800 25.37100
H  45.40200 34.97600 24.05700
H  42.75100 40.90000 21.12100
H  42.71500 43.80500 21.03800
H  45.40900 42.06100 21.27800
H  44.43800 42.95100 20.04900
H  44.62300 41.16000 19.95200
H  41.01800 42.38100 20.06300
H  40.42000 43.71700 21.06800
H  39.34500 41.19900 21.37500
H  39.40200 42.51800 22.62300
H  40.57400 41.23800 22.62400
H  40.56900 48.10700 25.15800
H  40.64900 47.12800 23.64800
H  42.05700 48.01500 24.16400
H  40.86000 45.63000 29.69800
H  42.98400 46.80100 32.89800
H  41.91300 48.19100 32.81900
H  43.42400 48.34100 31.96000
Mg 7.98900 53.08800 41.81700
C  7.55900 49.63600 41.05600
C  11.06200 52.81600 40.42700
C  8.24600 56.43300 42.23000
C  4.56400 53.17000 42.56800
N  9.09900 51.46500 40.64800
C  8.70600 50.12800 40.45100
C  9.69500 49.48700 39.54200
C  11.04600 50.31700 39.83700
C  10.35100 51.57300 40.28900
C  11.89300 49.74600 40.96000
C  9.25000 49.71500 38.02400
C  9.19500 48.53200 37.08900
H  8.32100 48.56900 35.88700
N  9.43100 54.44300 41.32800
C  10.67800 54.12500 40.84700
C  11.34800 55.36200 40.67600
C  10.61400 56.34900 41.31400
C  9.34800 55.78000 41.66200
C  12.73100 55.39300 39.98300
C  11.18700 57.78200 41.54600
O  12.17100 58.07900 40.97900
C  10.42000 58.87000 42.24300
N  6.68600 54.56000 42.33900
C  6.94800 55.92400 42.40900
C  5.68000 56.80200 42.41800
C  4.55000 55.74400 42.38000
C  5.28500 54.38000 42.51000
C  5.73300 57.67700 43.74400
C  3.55800 55.79900 41.14800
C  2.06900 55.87900 41.41000
N  6.43300 51.76800 41.97800
C  5.08800 51.87700 42.39000
C  4.44700 50.56900 42.57200
C  5.43100 49.70000 42.12800
C  6.58200 50.43800 41.76100
C  3.11800 50.30500 43.19200
C  5.66300 48.29600 41.90500
O  4.98400 47.28600 42.05100
C  7.03900 48.23000 41.16400
C  6.66800 47.59800 39.82500
O  5.76700 47.86800 38.98800
O  7.55400 46.46800 39.75300
C  7.13500 45.57900 38.71200
H  12.10500 52.57900 40.20900
H  8.43900 57.46800 42.52000
H  3.47500 53.19000 42.65400
H  9.88600 48.42700 39.70700
H  11.65100 50.38800 38.93400
H  11.76100 48.66500 41.00100
H  11.66000 50.21700 41.91500
H  12.94700 49.94200 40.76400
H  9.90900 50.48200 37.61500
H  8.25100 50.14200 38.10500
H  9.10000 47.62100 37.68000
H  10.20000 48.49200 36.66900
H  12.51600 55.80000 38.99600
H  13.19200 54.41900 39.81900
H  13.56500 55.89500 40.47300
H  10.02800 58.55200 43.20900
H  9.67600 59.17600 41.50800
H  10.99500 59.79000 42.34800
H  5.62000 57.47900 41.56600
H  4.03200 55.82200 43.33600
H  5.60000 58.71400 43.43700
H  6.68900 57.49800 44.23500
H  4.99100 57.33200 44.46500
H  3.65700 55.00500 40.40800
H  3.74200 56.68000 40.53300
H  1.76500 56.77400 40.86800
H  1.80000 55.89600 42.46700
H  1.49400 55.03200 41.03600
H  2.26500 50.67700 42.62500
H  3.20100 50.82800 44.14500
H  3.06900 49.23500 43.39600
H  7.86400 47.68700 41.62500
H  7.61200 45.74300 37.74600
H  6.06500 45.47800 38.53200
H  7.50100 44.64200 39.13000

