158

Mg 6.19700 53.62600 40.97100
C  5.27200 50.26400 40.37500
C  9.36800 52.92100 39.87500
C  6.90800 56.88700 41.07400
C  2.83700 54.33700 41.84100
N  7.17400 51.70300 40.02100
C  6.67200 50.39000 40.02400
C  7.79700 49.43600 39.76600
C  9.11000 50.39400 39.99700
C  8.52200 51.76600 39.85300
C  9.79100 50.22600 41.33000
C  7.88300 48.68000 38.43600
C  8.00200 49.58200 37.18800
H  6.93700 49.32500 36.06800
N  7.93800 54.76000 40.66000
C  9.11900 54.26400 40.14000
C  10.08900 55.36000 40.16000
C  9.41600 56.59800 40.46800
C  8.00000 56.11700 40.76300
C  11.56800 55.25400 40.05700
C  9.99600 57.98300 40.52700
O  11.10400 58.19500 40.05400
C  9.27400 59.26400 40.97200
N  4.98300 55.40000 41.27800
C  5.56900 56.66100 41.27400
C  4.44500 57.75100 41.31100
C  3.20500 56.93600 41.94300
C  3.64600 55.44800 41.62200
C  4.75000 59.08500 42.00600
C  1.86900 57.38800 41.19100
C  1.49500 56.95700 39.82200
N  4.31500 52.57900 41.04300
C  3.13600 52.95800 41.57100
C  2.22700 51.74300 41.59900
C  3.06700 50.71500 41.13500
C  4.29500 51.24300 40.79500
C  0.75300 51.78000 41.78400
C  3.06200 49.32700 40.81900
O  2.21400 48.44400 40.94900
C  4.50000 48.97500 40.43900
C  4.32900 48.29000 39.10800
O  3.66800 48.68800 38.16800
O  4.90300 47.06800 39.19200
C  4.71100 46.24400 38.03400
H  10.36600 52.65700 39.51800
H  7.08300 57.95400 41.22800
H  1.85200 54.48600 42.28800
H  7.94000 48.79900 40.63900
H  9.84400 50.17400 39.22200
H  9.47000 49.31100 41.82900
H  9.72400 51.13000 41.93500
H  10.82400 50.17400 40.98700
H  7.05700 47.97200 38.36200
H  8.74700 48.01800 38.38800
H  8.99400 49.53200 36.74000
H  7.82200 50.60700 37.51300
H  12.13300 55.91700 40.71200
H  11.95500 55.23500 39.03800
H  11.80700 54.21000 40.26300
H  10.06800 59.97700 41.19100
H  8.75000 59.03000 41.89900
H  8.72900 59.45400 40.04800
H  4.22100 57.92000 40.25800
H  3.13000 57.09000 43.02000
H  5.05600 59.93800 41.40000
H  5.57900 58.96000 42.70200
H  3.86900 59.44100 42.54000
H  1.65700 58.44500 41.35300
H  1.00500 56.93900 41.68100
H  1.30900 57.85400 39.23000
H  0.67400 56.27300 39.60900
H  2.32400 56.37500 39.42000
H  0.39600 52.38900 40.95300
H  0.55700 52.28200 42.73100
H  0.39000 50.75700 41.69400
H  4.86900 48.39600 41.28500
H  5.23500 46.61500 37.15300
H  3.64200 46.14000 37.84500
H  5.04400 45.23300 38.26500
Mg 1.18800 42.08800 25.72700
C  1.97500 42.36900 28.96600
C  -1.75700 40.74100 26.68600
C  0.52000 41.17300 22.46900
C  4.38800 43.05500 24.78200
N  0.16900 41.81300 27.60500
C  0.71000 42.07900 28.81900
C  -0.33700 41.95900 29.96100
C  -1.49100 41.22100 29.16300
C  -0.98200 41.14500 27.72800
C  -1.91100 39.88100 29.82000
C  -0.79300 43.33000 30.46800
C  -0.82700 43.33500 31.98300
H  -1.68800 42.30400 32.71700
N  -0.55800 41.25800 24.65500
C  -1.57800 40.69500 25.27100
C  -2.45200 40.09900 24.22200
C  -1.91200 40.29700 22.98400
C  -0.59600 40.96900 23.33800
C  -3.79300 39.45700 24.49900
C  -2.42000 39.99600 21.60800
O  -1.81600 40.30100 20.62100
C  -3.70200 39.26900 21.48200
N  2.28900 42.06100 23.94600
C  1.75800 41.72600 22.72300
C  2.67100 42.19800 21.57600
C  3.76800 43.03000 22.28000
C  3.49800 42.73300 23.76300
C  3.30600 40.99200 20.73300
C  3.73100 44.51900 21.89000
C  4.87800 45.06400 21.11100
N  2.91900 42.47500 26.66800
C  4.11300 42.91300 26.20900
C  4.94100 43.32200 27.29700
C  4.20400 43.07600 28.48500
C  2.96900 42.57400 27.96300
C  6.39700 43.65900 27.19300
C  4.17600 42.99000 29.88300
O  5.09600 43.24300 30.66100
C  2.78400 42.51900 30.34200
C  2.84500 41.25500 31.07600
O  3.47600 40.19700 30.73800
O  2.03000 41.34100 32.11500
C  2.04000 40.35200 33.16300
H  -2.65700 40.28200 27.10100
H  0.33500 40.95400 21.41500
H  5.33700 43.45200 24.41500
H  0.04200 41.28500 30.72900
H  -2.41400 41.77600 28.99600
H  -1.34400 39.05800 29.38600
H  -2.98500 39.69400 29.79700
H  -1.63400 39.96600 30.87100
H  -1.83200 43.41200 30.14900
H  -0.25600 44.17300 30.03500
H  -1.20100 44.33800 32.19300
H  0.21700 43.22300 32.27500
H  -3.89500 39.41400 25.58400
H  -3.67400 38.44200 24.12200
H  -4.64400 40.06900 24.19700
H  -3.71600 38.41100 22.15400
H  -3.81400 39.02300 20.42600
H  -4.39200 40.08100 21.71100
H  2.16800 42.86100 20.87200
H  4.65900 42.50900 21.93000
H  3.09000 40.04400 21.22600
H  4.36800 40.95300 20.49000
H  3.01300 41.08100 19.68700
H  3.61100 45.03700 22.84100
H  2.89000 44.75500 21.23800
H  5.64400 44.29700 20.99600
H  5.32600 45.95500 21.55100
H  4.50000 45.33100 20.12400
H  7.12800 42.85500 27.28100
H  6.55900 44.32500 28.04100
H  6.52600 44.11000 26.20900
H  2.36400 43.29700 30.97900
H  2.64400 39.48300 32.90200
H  1.04300 39.93800 33.31400
H  2.40000 40.78900 34.09400

