158

Mg 44.56900 4.13300 46.43800
C  42.31100 6.75100 46.54800
C  41.87600 1.89600 45.89800
C  46.78700 1.60700 45.56800
C  47.14100 6.40400 46.10500
N  42.38800 4.33600 46.24000
C  41.66600 5.52300 46.31300
C  40.17500 5.23700 46.36200
C  40.00700 3.67400 46.13900
C  41.51100 3.26100 46.15000
C  39.12000 2.88500 47.24300
C  39.36900 6.08100 45.39700
C  39.33100 5.85000 43.89500
H  39.51200 7.03700 42.90000
N  44.36200 2.02500 45.98700
C  43.18100 1.35800 45.86400
C  43.43300 -0.02000 45.44400
C  44.85200 -0.15800 45.47000
C  45.46400 1.18000 45.65900
C  42.34100 -1.02000 45.11800
C  45.60200 -1.43500 45.19100
O  45.08400 -2.54600 44.98000
C  47.16800 -1.53700 45.14800
N  46.74400 3.99600 45.88800
C  47.39100 2.79500 45.78700
C  48.88800 2.98600 45.53100
C  48.96600 4.58800 45.41500
C  47.58700 5.05000 45.90900
C  49.85700 2.28700 46.55300
C  49.09300 5.17400 43.98500
C  50.54500 5.25400 43.57500
N  44.73100 6.12800 46.31100
C  45.83900 6.89700 46.39500
C  45.55300 8.27600 46.69700
C  44.15900 8.24800 46.79500
C  43.71600 6.96100 46.46200
C  46.45800 9.44100 46.77300
C  42.99100 9.02100 47.25900
O  42.93900 10.18000 47.61000
C  41.71600 8.12200 46.94500
C  40.85000 8.09400 48.07000
O  40.95500 7.41700 49.10700
O  39.76600 8.85200 47.76800
C  38.56900 8.65200 48.66000
H  41.02100 1.21900 45.84700
H  47.45600 0.81800 45.21900
H  47.93200 7.15400 46.17700
H  39.82000 5.53000 47.35000
H  39.47900 3.40700 45.22400
H  38.24000 2.33800 46.90500
H  38.75200 3.69100 47.87800
H  39.81000 2.32400 47.87400
H  39.55900 7.15200 45.46600
H  38.33200 6.20300 45.71100
H  38.34400 5.46500 43.64000
H  40.09500 5.10800 43.66200
H  42.67400 -1.73900 44.37000
H  41.37900 -0.59400 44.83300
H  42.08300 -1.54800 46.03600
H  47.69100 -1.25700 46.06200
H  47.62200 -1.00900 44.31000
H  47.50100 -2.57200 45.06300
H  49.06300 2.59500 44.52900
H  49.81600 4.83000 46.05300
H  50.62300 1.90000 45.88000
H  49.39700 1.48400 47.12900
H  50.40100 3.05100 47.10700
H  48.67600 6.17600 43.88200
H  48.60000 4.64400 43.17000
H  51.16700 4.95600 44.41900
H  50.78500 6.27200 43.26800
H  50.73400 4.48900 42.82200
H  47.25200 9.44800 46.02600
H  46.83100 9.37200 47.79500
H  45.96600 10.38900 46.55500
H  41.19800 8.61300 46.12100
H  37.71200 8.68000 47.98800
H  38.40200 9.47900 49.35000
H  38.52600 7.72200 49.22700
Mg 29.98600 58.31500 41.03100
C  27.23800 56.67600 39.89400
C  31.94700 55.73700 39.69800
C  32.66400 60.32700 41.16900
C  27.93600 61.31800 41.66000
N  29.61900 56.50600 39.72800
C  28.39800 55.92500 39.61000
C  28.43700 54.52300 39.15600
C  29.97700 54.20400 39.18300
C  30.57300 55.55800 39.51300
C  30.32500 53.07400 40.24200
C  27.71100 54.26800 37.82600
C  27.08500 55.34000 36.86300
H  27.33200 55.18000 35.40600
N  32.02300 58.03700 40.63100
C  32.59600 56.90300 40.09000
C  34.02800 57.19800 39.90800
C  34.28200 58.51500 40.33800
C  32.94300 59.03300 40.74100
C  34.98600 56.33100 39.15800
C  35.61200 59.19500 40.24600
O  36.65400 58.58600 39.84900
C  35.81100 60.63800 40.54300
N  30.20400 60.56100 41.34000
C  31.48500 60.99000 41.51400
C  31.49100 62.48100 41.93800
C  30.02300 62.76100 42.24100
C  29.29100 61.49400 41.67000
C  32.46000 62.92000 43.03500
C  29.34600 64.08600 41.63200
C  28.59700 65.04400 42.61300
N  27.99600 58.94500 40.97100
C  27.26500 60.15300 41.18800
C  25.83300 59.81500 41.20100
C  25.81200 58.48700 40.63800
C  27.16100 57.98500 40.49300
C  24.62600 60.78300 41.36800
C  24.92000 57.40100 40.29300
O  23.72000 57.38100 40.34000
C  25.78900 56.23700 39.77100
C  25.46400 54.92800 40.51900
O  25.87900 54.51400 41.62700
O  24.69700 54.22200 39.67800
C  24.09700 53.08500 40.31200
H  32.51200 54.81800 39.52700
H  33.39000 61.13900 41.25300
H  27.30300 62.07800 42.12300
H  27.93400 53.93800 39.92600
H  30.41600 53.94400 38.22000
H  29.53600 52.93800 40.98100
H  31.25000 53.20300 40.80300
H  30.38600 52.05800 39.85300
H  26.85500 53.67400 38.14500
H  28.34200 53.55700 37.29300
H  27.39800 56.35300 37.11600
H  26.04300 55.10900 37.08400
H  35.21700 56.69300 38.15600
H  34.58100 55.32400 39.05600
H  35.88100 56.20400 39.76800
H  35.07500 61.25600 40.02900
H  36.71400 60.99400 40.04700
H  35.82300 60.93600 41.59100
H  31.81700 62.97000 41.02000
H  29.73000 62.77700 43.29100
H  31.93000 63.39300 43.86300
H  33.08100 63.66300 42.53400
H  32.97500 62.03000 43.39600
H  28.64100 63.75400 40.87000
H  30.20000 64.63300 41.23100
H  27.92300 64.58000 43.33200
H  28.11600 65.67100 41.86100
H  29.30600 65.63700 43.19100
H  23.69900 60.21100 41.41900
H  24.45100 61.58900 40.65500
H  24.71400 61.25400 42.34700
H  25.37400 56.13900 38.76800
H  23.62300 53.30100 41.26900
H  24.75600 52.22000 40.39000
H  23.25200 52.73800 39.71700

