158

Mg 40.48200 9.47900 29.55200
C  42.32400 11.06500 32.12000
C  38.12700 8.41400 31.71000
C  39.06300 7.93200 26.90300
C  43.34800 10.16100 27.53700
N  40.33100 9.64300 31.61500
C  41.14500 10.41200 32.53900
C  40.41600 10.49200 33.81800
C  39.35000 9.38200 33.72200
C  39.27400 9.09200 32.24900
C  39.39400 8.07800 34.56100
C  39.88800 11.92900 34.12000
C  39.44400 12.10700 35.60000
H  40.39600 12.89000 36.53600
N  38.65200 8.52700 29.24900
C  37.83400 8.11800 30.34200
C  36.70300 7.45700 29.76100
C  36.94900 7.40200 28.38200
C  38.21900 7.93700 28.07500
C  35.59300 6.90700 30.66400
C  36.11800 6.71300 27.31100
O  36.51300 6.71100 26.14900
C  34.74800 6.10900 27.71500
N  41.19400 9.07600 27.53200
C  40.36900 8.46200 26.60500
C  40.93400 8.39000 25.17700
C  42.29600 9.24700 25.42800
C  42.29600 9.59100 26.92700
C  41.11600 6.99200 24.64500
C  42.56700 10.46900 24.42500
C  42.00700 11.92000 24.66000
N  42.54200 10.43800 29.70300
C  43.52000 10.60300 28.85600
C  44.51200 11.47000 29.31100
C  44.13900 11.63900 30.69500
C  42.91000 10.93900 30.83800
C  45.60300 12.07100 28.57100
C  44.48700 12.28400 31.94800
O  45.38000 13.06900 32.13500
C  43.28300 11.88800 32.96400
C  43.94300 11.05200 34.05700
O  44.78200 10.18300 33.82300
O  43.64100 11.59400 35.31900
C  44.04000 10.73000 36.46200
H  37.41600 8.10000 32.47700
H  38.64300 7.56600 25.96400
H  44.15800 10.47000 26.87300
H  41.06600 10.21400 34.64800
H  38.42900 9.86900 34.04100
H  40.26800 7.51200 34.24000
H  38.52800 7.44900 34.35700
H  39.36400 8.34600 35.61700
H  38.99200 12.12700 33.53100
H  40.63000 12.68900 33.87600
H  39.32900 11.13500 36.08100
H  38.45000 12.55400 35.60300
H  34.58000 7.03200 30.28100
H  35.54700 7.25700 31.69500
H  35.82100 5.84200 30.62200
H  34.09900 6.94100 27.99100
H  34.85400 5.36300 28.50200
H  34.37400 5.67300 26.78900
H  40.23500 8.99000 24.59500
H  43.15100 8.61200 25.19900
H  42.06800 6.83700 24.13500
H  40.30100 6.78000 23.95300
H  41.06000 6.23200 25.42400
H  42.29000 10.13400 23.42600
H  43.65600 10.42900 24.38500
H  41.12900 11.80800 25.29600
H  41.61400 12.36200 23.74500
H  42.77900 12.57000 25.07100
H  45.35500 12.40700 27.56500
H  46.31700 11.26100 28.42100
H  46.02700 12.97100 29.01700
H  42.78400 12.76900 33.36800
H  44.01200 9.70900 36.08300
H  43.25200 10.77000 37.21400
H  45.06200 10.93300 36.78000
Mg -12.04200 37.94000 42.79800
C  -10.55300 35.05200 41.90500
C  -9.72700 39.74400 41.22700
C  -14.12300 40.56100 43.03100
C  -14.72400 35.95600 44.21100
N  -10.28000 37.43900 41.84800
C  -9.89500 36.19000 41.38400
C  -8.75100 36.19500 40.29300
C  -8.32000 37.68400 40.45700
C  -9.47400 38.37500 41.24400
C  -6.89600 37.86900 41.15500
C  -9.36300 36.00600 38.90300
C  -8.33100 35.55500 37.83700
H  -7.73500 36.61200 36.91300
N  -11.97300 39.88700 42.08700
C  -10.86000 40.50700 41.57100
C  -11.12900 41.84000 41.37200
C  -12.46900 42.15700 41.80800
C  -12.91300 40.82500 42.37900
C  -10.20400 42.66000 40.64300
C  -13.30700 43.45300 41.63700
O  -12.75100 44.34900 41.08500
C  -14.69800 43.60300 42.03500
N  -14.19200 38.26700 43.56900
C  -14.78400 39.43000 43.58800
C  -16.03100 39.44500 44.48900
C  -16.39800 37.88100 44.55000
C  -15.00400 37.35100 44.14400
C  -15.84700 40.02100 45.86900
C  -17.65600 37.58900 43.59800
C  -18.30000 36.30800 43.84100
N  -12.49100 35.90900 43.13800
C  -13.55000 35.26700 43.78300
C  -13.20300 33.83500 43.89800
C  -11.99000 33.66900 43.19600
C  -11.76000 35.01200 42.66300
C  -13.96200 32.71200 44.62900
C  -10.96600 32.79400 42.78700
O  -10.80800 31.62100 42.93400
C  -10.09200 33.61900 41.72700
C  -8.61300 33.39400 42.03400
O  -7.85400 32.76000 41.32000
O  -8.15500 34.29800 42.97500
C  -6.76200 34.25100 43.37600
H  -8.91200 40.30700 40.76800
H  -14.67900 41.46400 43.29000
H  -15.50300 35.39900 44.73600
H  -8.00400 35.46700 40.61000
H  -8.25900 38.12200 39.46000
H  -6.96600 37.76000 42.23700
H  -6.49800 38.85600 40.91700
H  -6.16700 37.17900 40.73100
H  -9.82200 36.93200 38.55900
H  -10.20500 35.31800 38.97200
H  -8.74500 34.64200 37.41100
H  -7.43500 35.25000 38.37900
H  -9.19100 42.25900 40.63600
H  -10.19500 43.55000 41.27300
H  -10.57700 43.09200 39.71500
H  -15.25300 42.75900 41.62600
H  -15.12700 44.56700 41.76300
H  -14.57000 43.59600 43.11800
H  -16.85000 40.03700 44.08100
H  -16.65600 37.58700 45.56700
H  -16.57700 39.81000 46.65000
H  -15.95500 41.10500 45.83500
H  -14.87800 39.72300 46.27000
H  -17.31400 37.61000 42.56300
H  -18.34200 38.43300 43.53100
H  -19.33300 36.32500 43.49400
H  -18.24100 35.98300 44.88000
H  -17.85700 35.48600 43.27900
H  -14.62000 32.17100 43.94800
H  -14.61700 33.13400 45.39200
H  -13.43800 31.91400 45.15400
H  -10.42300 33.27000 40.75000
H  -6.17800 34.88900 42.71300
H  -6.39500 33.22500 43.39400
H  -6.58500 34.72500 44.34100

