158

Mg -12.07500 37.34000 42.90400
C  -9.65900 34.92200 41.78000
C  -10.30000 39.77000 41.37400
C  -14.85700 39.27400 43.05300
C  -14.08300 34.55600 44.03800
N  -10.16500 37.30300 41.77200
C  -9.29000 36.25400 41.41800
C  -8.12700 36.72400 40.58500
C  -8.24700 38.25600 40.84300
C  -9.65000 38.51800 41.43200
C  -7.20100 38.71600 41.94500
C  -8.24000 36.34100 39.01400
C  -7.19600 35.36100 38.47600
H  -6.07500 35.74100 37.53600
N  -12.44700 39.22600 42.48500
C  -11.53200 40.10100 41.88500
C  -12.12000 41.40600 41.81900
C  -13.43300 41.37100 42.38300
C  -13.65900 39.84300 42.68500
C  -11.41400 42.66400 41.25900
C  -14.28100 42.56200 42.54500
O  -13.98500 43.69300 42.11600
C  -15.62500 42.49100 43.20800
N  -14.18900 36.92700 43.39200
C  -15.10700 37.95400 43.46400
C  -16.46100 37.56000 44.06700
C  -16.21800 36.03100 44.38000
C  -14.77300 35.84300 43.92500
C  -17.01600 38.37700 45.25900
C  -17.30000 35.16500 43.61400
C  -17.63600 33.75500 44.20600
N  -11.90200 35.18800 42.92600
C  -12.75800 34.25300 43.56600
C  -12.01800 32.96400 43.65700
C  -10.80800 33.18200 42.92000
C  -10.80000 34.54600 42.47400
C  -12.38800 31.71300 44.40000
C  -9.61900 32.57900 42.40700
O  -9.11900 31.44100 42.56000
C  -8.83300 33.69500 41.69100
C  -7.54800 33.84600 42.36800
O  -6.55500 33.31900 41.96000
O  -7.60500 34.55500 43.57600
C  -6.37300 34.69300 44.35400
H  -9.64300 40.50700 40.90800
H  -15.75900 39.85400 43.25900
H  -14.75400 33.80300 44.45700
H  -7.25500 36.33200 41.10800
H  -8.32200 38.87200 39.94600
H  -6.75800 39.69800 41.77700
H  -6.44000 37.93500 41.96800
H  -7.77500 38.82000 42.86500
H  -8.24200 37.21100 38.35700
H  -9.26700 35.99500 38.89700
H  -7.87800 34.72400 37.91200
H  -6.83700 34.72600 39.28500
H  -10.33500 42.61300 41.40700
H  -11.66900 43.55500 41.83300
H  -11.79400 42.86500 40.25700
H  -16.06500 43.48200 43.09700
H  -15.61000 42.42200 44.29600
H  -16.28800 41.77900 42.71500
H  -17.18000 37.71600 43.26200
H  -16.34700 35.79200 45.43600
H  -16.19300 38.99700 45.61500
H  -17.27800 37.64000 46.01700
H  -17.86200 39.05900 45.17300
H  -17.05400 35.16000 42.55200
H  -18.16900 35.76700 43.87800
H  -17.42800 33.09600 43.36200
H  -18.72400 33.69600 44.23900
H  -17.11100 33.55600 45.14000
H  -11.88200 31.57100 45.35500
H  -12.23200 30.88200 43.71200
H  -13.44700 31.90900 44.57100
H  -8.76300 33.28500 40.68300
H  -6.66000 34.82100 45.39700
H  -5.80200 35.56600 44.04000
H  -5.79300 33.77600 44.25100
Mg -1.95700 34.64500 27.03800
C  -3.64700 32.80000 29.38700
C  -0.59100 36.50800 29.53600
C  -1.01700 36.81000 24.64000
C  -3.88000 32.91900 24.53400
N  -2.16700 34.67400 29.18800
C  -2.82200 33.75000 29.95900
C  -2.60800 34.00800 31.47200
C  -1.70100 35.26200 31.45900
C  -1.39500 35.43500 29.88800
C  -2.10500 36.59500 32.13300
C  -1.88600 32.82900 32.31100
C  -2.62700 32.67500 33.69200
H  -1.72300 32.52000 34.88300
N  -0.85900 36.37500 27.02000
C  -0.35600 36.97000 28.20600
C  0.49300 38.11400 27.82600
C  0.35800 38.23600 26.39900
C  -0.60200 37.16400 25.94600
C  1.32200 38.93500 28.79000
C  1.01000 39.27500 25.49300
O  0.84300 39.24700 24.25700
C  1.88600 40.37300 25.90600
N  -2.48300 34.88800 24.88600
C  -1.86700 35.85400 24.08500
C  -2.31200 35.63800 22.58300
C  -3.16500 34.35400 22.69600
C  -3.13700 33.98100 24.13500
C  -3.01000 36.85900 22.05200
C  -2.86700 33.27700 21.59500
C  -3.99500 32.96000 20.54900
N  -3.38100 33.13700 26.92600
C  -3.96200 32.48800 25.89100
C  -4.78000 31.43900 26.33300
C  -4.70400 31.50100 27.71400
C  -3.81900 32.53400 28.03600
C  -5.38700 30.44300 25.43600
C  -5.15900 30.91200 28.91400
O  -5.97200 30.05300 29.14400
C  -4.44600 31.67300 30.07500
C  -5.42900 32.39600 30.92000
O  -6.06300 33.34300 30.51400
O  -5.59100 31.73200 32.18500
C  -6.59200 32.46300 33.08000
H  -0.19300 37.03400 30.40600
H  -0.55100 37.41300 23.85700
H  -4.40300 32.49200 23.67600
H  -3.55500 34.34700 31.89300
H  -0.74100 34.99700 31.90100
H  -2.60800 37.24800 31.42000
H  -1.16400 36.94700 32.55600
H  -2.68400 36.37900 33.03100
H  -0.81300 32.99000 32.42200
H  -1.98500 31.97000 31.64700
H  -3.13700 31.71400 33.62400
H  -3.35800 33.47300 33.81600
H  2.36600 38.83400 28.49500
H  1.18600 38.62500 29.82600
H  1.07600 39.99700 28.76600
H  1.29900 41.00500 26.57200
H  2.29200 40.87300 25.02700
H  2.69600 39.97800 26.51900
H  -1.41900 35.55600 21.96300
H  -4.21000 34.64800 22.59700
H  -2.94300 37.66200 22.78600
H  -4.06600 36.64300 21.89000
H  -2.55600 37.18100 21.11500
H  -2.61900 32.32100 22.05600
H  -1.96700 33.62900 21.09000
H  -4.46700 31.99700 20.74700
H  -3.57800 32.85000 19.54800
H  -4.63900 33.83200 20.66300
H  -4.71200 30.29400 24.59300
H  -6.34200 30.69400 24.97500
H  -5.56200 29.49800 25.94900
H  -3.80600 31.00900 30.65600
H  -7.33400 33.09500 32.59300
H  -6.01400 33.11400 33.73600
H  -7.12000 31.77800 33.74300

