158

Mg 0.61300 7.63600 25.67700
C  1.32300 9.70600 28.62100
C  1.03300 5.03700 27.89800
C  0.20800 5.72700 23.12600
C  0.61000 10.57700 23.84100
N  1.17400 7.40500 28.04900
C  1.22400 8.39000 29.02600
C  1.49000 7.74300 30.37100
C  1.64600 6.21600 30.07100
C  1.16600 6.18300 28.61600
C  3.00100 5.57500 30.36800
C  0.39000 8.12400 31.30100
C  0.71600 7.98400 32.81200
H  1.76300 6.96700 33.33900
N  0.62900 5.63900 25.53600
C  0.79200 4.72900 26.53500
C  0.67200 3.38800 25.99500
C  0.41900 3.52900 24.55400
C  0.37500 5.00400 24.36600
C  0.71700 2.16200 26.77200
C  0.27700 2.52900 23.46400
O  -0.07900 2.85700 22.33300
C  0.46800 1.08400 23.72100
N  0.63600 8.14900 23.75400
C  0.36100 7.13400 22.80400
C  0.11300 7.79900 21.39800
C  -0.17300 9.29200 21.75600
C  0.40000 9.35000 23.21600
C  1.30600 7.46900 20.43100
C  -1.73600 9.59600 21.77700
C  -2.19100 10.93000 21.21900
N  0.98700 9.74800 26.09500
C  0.92000 10.81700 25.18300
C  1.38600 12.04100 25.87400
C  1.50100 11.70000 27.25000
C  1.28800 10.30100 27.31500
C  1.41200 13.48000 25.25200
C  1.70200 12.20600 28.55800
O  1.95200 13.34900 28.92300
C  1.63400 10.97700 29.49700
C  2.84800 10.81300 30.35300
O  3.87300 10.17300 30.08000
O  2.62400 11.43700 31.52000
C  3.67200 11.37400 32.54200
H  1.04800 4.15500 28.54100
H  0.04100 5.17700 22.19700
H  0.41300 11.40300 23.15500
H  2.42600 8.15600 30.74600
H  0.86100 5.70800 30.63200
H  3.40800 5.36200 29.37900
H  2.90000 4.64200 30.92300
H  3.46300 6.31300 31.02300
H  -0.48800 7.48300 31.22500
H  0.13600 9.15600 31.05800
H  -0.19300 7.71200 33.34900
H  1.04100 8.97900 33.11600
H  -0.00400 1.42400 26.42000
H  0.36900 2.40900 27.77500
H  1.71200 1.72300 26.85500
H  1.35600 0.92800 24.33300
H  0.48800 0.46400 22.82400
H  -0.37000 0.78700 24.35100
H  -0.78700 7.38000 20.94900
H  0.27600 9.92200 20.98900
H  1.95600 6.80500 21.00200
H  1.84800 8.38800 20.20600
H  0.87300 7.04300 19.52600
H  -1.96000 9.66600 22.84100
H  -2.38100 8.80900 21.38600
H  -1.31900 11.44400 20.81400
H  -2.72500 11.54000 21.94800
H  -2.87800 10.76200 20.38900
H  0.62700 14.13600 25.62900
H  1.22800 13.54200 24.18000
H  2.34200 13.98900 25.50300
H  0.82900 11.20200 30.19700
H  4.27500 12.27800 32.44800
H  4.33100 10.51800 32.39600
H  3.11400 11.41600 33.47700
Mg 50.07600 45.64300 42.72200
C  46.85600 46.13500 41.18500
C  49.67700 42.25700 41.97200
C  53.31600 45.22800 43.29200
C  50.37600 49.01000 43.16100
N  48.38700 44.44500 41.66800
C  47.22600 44.83000 41.18100
C  46.51300 43.65400 40.50300
C  47.18500 42.42700 41.23200
C  48.53600 43.05000 41.67300
C  46.49400 41.70500 42.41800
C  46.60200 43.64300 38.98100
C  45.45300 43.08400 38.18200
H  45.85100 42.17300 36.96400
N  51.32600 43.94800 42.76200
C  50.98900 42.65600 42.34100
C  52.14400 41.81200 42.44100
C  53.25400 42.64000 42.91200
C  52.67300 43.98200 43.02200
C  52.22800 40.37600 42.10400
C  54.65200 42.20300 43.32900
O  54.93800 41.03100 43.19800
C  55.68800 43.17700 43.97300
N  51.67200 46.92900 43.02000
C  52.89300 46.52900 43.35600
C  53.82500 47.68800 43.53300
C  52.90300 48.93900 43.61500
C  51.55700 48.23700 43.25200
C  54.77100 47.57900 44.69500
C  53.23200 50.10200 42.59100
C  53.12900 51.50600 43.00000
N  48.82000 47.25400 42.43100
C  49.12900 48.55200 42.65000
C  47.95400 49.39600 42.18000
C  47.07500 48.46100 41.65400
C  47.67300 47.22600 41.79000
C  47.76900 50.99100 42.42500
C  45.75500 48.31900 41.05300
O  44.89700 49.21600 40.87100
C  45.65900 46.80100 40.62700
C  44.33900 46.21500 41.03400
O  43.58100 45.71100 40.19700
O  43.98800 46.50900 42.30300
C  42.69100 46.06300 42.73400
H  49.55400 41.19400 41.75500
H  54.38800 45.01800 43.32000
H  50.41700 50.08000 43.37600
H  45.45300 43.70000 40.75400
H  47.37500 41.62100 40.52200
H  47.13800 41.73000 43.29600
H  46.18500 40.68400 42.19300
H  45.61800 42.29900 42.68000
H  47.50600 43.12900 38.65200
H  46.71700 44.67300 38.64300
H  44.84800 43.79200 37.61600
H  44.74700 42.55900 38.82600
H  53.08800 40.36700 41.43400
H  51.42000 40.04100 41.45400
H  52.29300 39.72400 42.97600
H  56.10200 43.89200 43.26200
H  56.55100 42.57800 44.26500
H  55.43500 43.79600 44.83400
H  54.39000 47.70300 42.60100
H  52.85400 49.36300 44.61800
H  54.55800 46.71900 45.33000
H  54.91000 48.41600 45.38000
H  55.75400 47.43600 44.24800
H  52.47600 49.88200 41.83700
H  54.15400 49.97800 42.02300
H  52.58700 52.10300 42.26700
H  54.04800 52.08100 43.11600
H  52.56600 51.52700 43.93400
H  46.77100 51.19300 42.03500
H  48.59600 51.55700 41.99600
H  47.81600 51.17900 43.49800
H  45.71500 46.66800 39.54700
H  42.57300 45.00300 42.51000
H  41.84200 46.62600 42.34700
H  42.72800 46.20500 43.81500

