158

Mg 36.13500 1.60600 28.90000
C  34.06700 2.74900 31.48900
C  38.82200 1.80600 31.09900
C  38.20200 0.96700 26.30800
C  33.44500 2.11900 26.68200
N  36.48300 2.41400 30.92500
C  35.39900 2.58800 31.84800
C  35.91900 2.53900 33.25300
C  37.45500 2.44100 33.16000
C  37.60600 2.14700 31.64500
C  38.18900 3.71600 33.63000
C  35.25600 1.32400 33.93400
C  34.68000 1.57900 35.39200
H  35.02100 2.85800 36.20700
N  38.19500 1.37100 28.74700
C  39.15900 1.48200 29.71100
C  40.39600 1.10900 29.21100
C  40.25300 0.83400 27.81900
C  38.80400 1.03800 27.59300
C  41.67000 1.08800 30.07500
C  41.36500 0.38900 26.80100
O  41.20100 0.17100 25.63000
C  42.82700 0.29500 27.32900
N  35.89600 1.60500 26.84700
C  36.85100 1.17100 25.95100
C  36.24500 0.75000 24.56200
C  34.74400 1.12600 24.79600
C  34.68100 1.70800 26.22000
C  36.91300 1.37100 23.27200
C  33.69700 -0.01100 24.44700
C  34.15600 -1.07900 23.37400
N  34.13000 2.19700 29.01600
C  33.15900 2.33100 28.05700
C  31.91200 2.62800 28.60400
C  32.14100 2.80100 30.02600
C  33.52800 2.54800 30.21100
C  30.67200 2.76300 27.90000
C  31.54900 2.99500 31.35300
O  30.38900 3.24600 31.70700
C  32.78200 2.84000 32.32100
C  32.68000 4.21200 32.97800
O  33.22200 5.20100 32.55300
O  31.85600 4.05900 34.10800
C  31.68000 5.26700 34.92900
H  39.63200 1.60200 31.80200
H  38.76700 0.50500 25.49600
H  32.53300 2.17800 26.08400
H  35.42900 3.41000 33.68900
H  37.83900 1.68000 33.83900
H  39.13000 3.40100 34.08100
H  37.61100 4.17900 34.43000
H  38.45100 4.38800 32.81200
H  35.94200 0.48300 34.03100
H  34.42900 0.96500 33.32100
H  34.73500 0.69000 36.02000
H  33.59000 1.62200 35.38000
H  42.61100 1.48700 29.69700
H  41.79500 0.06900 30.44100
H  41.56400 1.67900 30.98500
H  43.45000 -0.03300 26.49800
H  42.98200 -0.41700 28.14000
H  43.07000 1.31900 27.61500
H  36.29800 -0.33900 24.57100
H  34.45000 2.02100 24.24800
H  36.81100 0.65200 22.45900
H  37.95500 1.66900 23.38700
H  36.35800 2.29300 23.09600
H  32.79100 0.43900 24.04300
H  33.35900 -0.60200 25.29800
H  34.72800 -1.94600 23.70400
H  34.80800 -0.69800 22.58800
H  33.21200 -1.43500 22.96100
H  30.50600 2.17400 26.99700
H  30.76000 3.78500 27.53400
H  29.81400 2.69900 28.56900
H  32.54400 2.04500 33.02800
H  30.91200 5.92600 34.52600
H  32.62000 5.81800 34.91900
H  31.37800 5.10200 35.96400
Mg -5.31600 25.07300 25.66900
C  -4.09000 26.84100 28.55800
C  -6.87000 22.93100 28.00700
C  -6.22700 23.19000 23.07700
C  -3.26000 27.03600 23.73000
N  -5.55500 24.97300 28.05600
C  -4.88500 25.72300 28.94900
C  -5.27800 25.31600 30.39400
C  -5.95900 23.87600 30.16600
C  -6.10300 23.88500 28.68600
C  -5.24400 22.60000 30.68100
C  -6.25000 26.37000 30.99200
C  -6.73100 26.16100 32.37700
H  -6.23200 24.96700 33.20500
N  -6.41000 23.28700 25.54400
C  -7.14200 22.70600 26.55300
C  -8.04400 21.69500 25.96600
C  -7.78700 21.69400 24.55600
C  -6.80200 22.73800 24.31600
C  -9.10500 20.91100 26.80700
C  -8.40700 20.85400 23.47600
O  -7.98400 20.94000 22.33500
C  -9.48200 19.76900 23.86700
N  -4.79200 25.07000 23.74000
C  -5.29300 24.19900 22.79700
C  -4.85300 24.53000 21.34500
C  -4.05300 25.90900 21.66200
C  -3.98900 26.02800 23.11200
C  -4.04700 23.36600 20.64200
C  -4.74200 27.20400 21.19800
C  -3.79400 28.16300 20.47200
N  -3.88500 26.67200 25.98900
C  -3.16000 27.38300 25.09400
C  -2.54700 28.49600 25.72900
C  -2.77700 28.24000 27.13100
C  -3.62200 27.11000 27.28600
C  -1.84400 29.63300 24.99300
C  -2.50100 28.68400 28.43700
O  -1.81900 29.59000 28.95400
C  -3.33800 27.80900 29.44000
C  -2.36900 27.13700 30.43400
O  -1.43800 26.44600 30.03500
O  -2.79200 27.20700 31.71100
C  -1.94700 26.61000 32.78700
H  -7.36100 22.18000 28.63000
H  -6.56700 22.63400 22.20000
H  -2.67200 27.77100 23.17700
H  -4.34300 25.17000 30.93500
H  -6.89800 23.94100 30.71500
H  -4.52900 22.16200 29.98400
H  -5.93000 21.82800 31.03200
H  -4.69800 22.77200 31.60900
H  -7.14500 26.30600 30.37300
H  -5.81300 27.36400 30.88900
H  -7.81800 26.08300 32.34400
H  -6.47800 27.07100 32.92100
H  -9.35700 21.51100 27.68100
H  -8.67800 19.98700 27.19700
H  -10.10200 20.76900 26.38900
H  -9.04000 19.32500 24.75900
H  -9.58700 18.99800 23.10300
H  -10.42400 20.27300 24.08000
H  -5.67300 24.77500 20.67000
H  -3.01500 25.87100 21.32900
H  -2.97000 23.52000 20.58100
H  -4.36800 23.19900 19.61400
H  -4.22100 22.44200 21.19300
H  -5.21200 27.70500 22.04400
H  -5.54100 26.97200 20.49400
H  -4.28200 28.53300 19.57100
H  -2.89700 27.61800 20.18000
H  -3.45300 29.02000 21.05300
H  -1.83300 30.58700 25.52000
H  -2.30400 29.81900 24.02300
H  -0.78000 29.53400 24.77700
H  -4.03700 28.48700 29.92800
H  -2.06100 25.53200 32.67400
H  -2.24200 26.96900 33.77300
H  -0.92000 26.91300 32.58000

