158

Mg 27.08000 50.00900 26.63100
C  25.05400 51.14500 29.23900
C  29.27800 49.11800 28.85000
C  29.30300 49.67000 23.97100
C  24.98900 51.83300 24.33300
N  27.06300 50.13600 28.79600
C  26.15600 50.47700 29.75600
C  26.66500 50.29000 31.17900
C  28.13300 50.01100 30.91000
C  28.16500 49.76800 29.37100
C  29.03200 51.23800 31.27300
C  25.85200 49.25800 32.00100
C  25.11600 49.81300 33.19500
H  25.87400 50.08500 34.52200
N  28.98500 49.32400 26.49100
C  29.70100 48.86300 27.49700
C  30.96500 48.34700 26.99200
C  31.03300 48.57000 25.58100
C  29.75400 49.24300 25.29500
C  31.99700 47.67200 27.85700
C  32.11400 48.06000 24.64300
O  31.97200 48.31700 23.42000
C  33.35200 47.28200 25.18800
N  27.12400 50.64600 24.42000
C  28.09800 50.25900 23.53400
C  27.73600 50.44600 22.03000
C  26.36700 51.18600 22.25400
C  26.09300 51.18400 23.73800
C  28.69700 51.17800 21.13300
C  25.15300 50.68000 21.44100
C  24.37800 49.48800 22.00800
N  25.35000 51.16000 26.71500
C  24.58700 51.77900 25.68100
C  23.45600 52.54800 26.33200
C  23.60100 52.26500 27.68100
C  24.79300 51.47700 27.87500
C  22.42500 53.31100 25.59100
C  22.98400 52.51500 28.95800
O  21.96700 53.07400 29.21300
C  24.01400 51.90100 30.02700
C  24.66600 53.10200 30.66600
O  25.84100 53.46800 30.49400
O  23.90500 53.48000 31.71600
C  24.62200 54.47400 32.59600
H  29.94800 48.70600 29.60700
H  29.98400 49.46300 23.14300
H  24.29500 52.13700 23.54700
H  26.56300 51.23400 31.71300
H  28.52000 49.11300 31.39000
H  29.10300 51.94800 30.44900
H  30.01600 51.03700 31.69600
H  28.52600 51.78700 32.06700
H  26.53000 48.47900 32.35000
H  25.15800 48.73500 31.34300
H  24.32700 49.09900 33.42800
H  24.55100 50.72700 33.01500
H  32.01300 46.65200 27.47300
H  31.79900 47.58800 28.92500
H  32.87000 48.31700 27.76200
H  33.99700 47.20900 24.31300
H  32.93100 46.34600 25.55500
H  33.82400 47.91800 25.93700
H  27.58200 49.44500 21.62700
H  26.37700 52.25700 22.05500
H  28.32000 52.10500 20.70200
H  28.76300 50.59400 20.21500
H  29.60400 51.40100 21.69500
H  25.52600 50.51800 20.43000
H  24.37000 51.42900 21.32000
H  24.96800 48.94800 22.74900
H  24.28600 48.84700 21.13100
H  23.46600 49.86800 22.46800
H  22.28600 54.33700 25.93400
H  21.52700 52.69800 25.66700
H  22.70200 53.36400 24.53800
H  23.46600 51.46400 30.86200
H  25.50100 53.98500 33.01700
H  23.92800 54.85500 33.34500
H  24.93200 55.31700 31.98000
Mg 6.85000 53.01500 40.23500
C  6.00800 49.59600 40.07600
C  10.02800 52.18400 39.57300
C  7.43700 56.25700 39.93200
C  3.39200 53.61700 40.64000
N  7.82400 51.11400 39.78800
C  7.37400 49.81500 39.82200
C  8.49300 48.77800 39.69900
C  9.73700 49.67500 39.79100
C  9.18600 51.06800 39.65300
C  10.65100 49.54100 41.02200
C  8.52200 47.99100 38.33900
C  8.41300 48.90800 37.15400
H  7.49800 48.56100 35.98000
N  8.44500 54.05000 39.74800
C  9.73100 53.55700 39.61600
C  10.64700 54.62300 39.30700
C  9.92600 55.84600 39.28900
C  8.58000 55.44200 39.68300
C  12.12100 54.36000 38.97900
C  10.46700 57.24700 38.88500
O  11.64100 57.43000 38.50100
C  9.53600 58.37200 38.62600
N  5.59600 54.70200 40.17300
C  6.08300 55.97300 40.23500
C  5.08700 57.00300 40.43600
C  3.72900 56.19000 40.43000
C  4.26200 54.72200 40.42500
C  5.35500 57.83100 41.74400
C  2.77000 56.30700 39.17200
C  1.42500 56.81800 39.44500
N  5.07100 51.89600 40.44000
C  3.70600 52.28200 40.62200
C  2.89200 51.18400 40.80400
C  3.74500 50.03300 40.59300
C  5.07300 50.59100 40.37200
C  1.40200 51.16600 41.06500
C  3.74500 48.52900 40.44500
O  2.86200 47.63800 40.49900
C  5.24300 48.23100 40.19800
C  5.24700 47.40400 38.94100
O  4.98900 47.75400 37.80200
O  5.54700 46.14100 39.32900
C  5.71400 45.07800 38.32200
H  11.04400 51.91400 39.27700
H  7.57600 57.33900 39.90200
H  2.34000 53.89200 40.74200
H  8.40700 48.12100 40.56500
H  10.33400 49.52200 38.89200
H  10.48400 50.37500 41.70400
H  11.67800 49.60100 40.66100
H  10.37800 48.60400 41.50800
H  7.69000 47.29100 38.26000
H  9.51200 47.53700 38.31000
H  9.40700 49.00800 36.71900
H  8.10800 49.91900 37.42300
H  12.30600 54.16200 37.92300
H  12.32400 53.44200 39.53100
H  12.81400 55.08600 39.40300
H  10.04700 59.27000 38.27900
H  9.10700 58.59300 39.60300
H  8.71000 58.12700 37.95700
H  5.01500 57.70600 39.60600
H  3.17000 56.41800 41.33700
H  6.15800 57.43400 42.36500
H  4.45000 57.98700 42.33100
H  5.78000 58.75900 41.36300
H  2.61200 55.36600 38.64500
H  3.20200 57.01900 38.46800
H  1.33600 57.40600 40.35900
H  0.67800 56.02700 39.36900
H  1.14700 57.39900 38.56500
H  0.90200 51.64700 40.22400
H  1.17000 51.55600 42.05600
H  1.05300 50.13500 41.11300
H  5.69900 47.66700 41.01100
H  4.73300 44.71700 38.01000
H  6.25100 44.19900 38.67800
H  6.27100 45.41400 37.44700

