158

Mg 30.61100 58.15400 40.10000
C  28.07900 56.17400 38.70000
C  32.76300 55.84300 39.01100
C  33.07300 60.47200 40.61800
C  28.21400 60.73500 40.43700
N  30.40100 56.30500 38.82800
C  29.27200 55.56600 38.62400
C  29.60700 54.16800 38.12800
C  31.05700 53.97100 38.73300
C  31.44900 55.45300 38.86100
C  31.10700 53.19700 40.14100
C  29.63700 54.11100 36.51200
C  28.44800 53.37600 35.83900
H  27.59600 54.18700 34.83700
N  32.62000 58.16200 39.86200
C  33.30600 57.07700 39.28900
C  34.70700 57.38300 39.38800
C  34.88400 58.70000 39.88900
C  33.51000 59.22200 40.11400
C  35.77500 56.42800 38.87200
C  36.21200 59.42700 40.19100
O  37.25800 58.83800 39.96300
C  36.31100 60.80400 40.73800
N  30.64800 60.32400 40.61200
C  31.78400 60.93800 40.92600
C  31.50800 62.41100 41.32600
C  29.96800 62.40000 41.45700
C  29.58100 61.12000 40.69900
C  32.20300 62.89900 42.56000
C  29.17200 63.64100 40.92800
C  28.67700 64.59300 41.90100
N  28.52400 58.41300 39.83000
C  27.72400 59.56300 39.97100
C  26.38200 59.17900 39.53900
C  26.49600 57.87500 39.00000
C  27.82400 57.48200 39.16200
C  25.11800 59.96400 39.57800
C  25.71300 56.75500 38.42500
O  24.51700 56.62800 38.23000
C  26.69000 55.65500 38.21600
C  26.24900 54.45600 38.88000
O  26.81600 53.93400 39.82200
O  25.11900 53.90900 38.32900
C  24.40300 52.78200 38.90900
H  33.45000 55.02100 38.80000
H  33.82900 61.25000 40.74300
H  27.49600 61.52000 40.68300
H  28.98500 53.36300 38.52000
H  31.75100 53.56100 38.00000
H  31.59500 52.22600 40.05300
H  30.09200 52.82500 40.28500
H  31.43300 53.76400 41.01300
H  30.50100 53.50800 36.23300
H  29.69600 55.14700 36.17800
H  27.84000 52.96800 36.64700
H  28.80200 52.44000 35.40600
H  35.39200 55.62300 38.24500
H  36.20200 55.89400 39.72100
H  36.57900 56.93700 38.34100
H  37.33300 61.04300 41.03100
H  35.71300 60.92900 41.64100
H  36.05200 61.59100 40.03000
H  31.82000 62.95300 40.43400
H  29.55900 62.08800 42.41800
H  32.74500 63.79500 42.25600
H  32.82600 62.12900 43.01500
H  31.47900 63.19600 43.31800
H  28.24000 63.41200 40.41100
H  29.77600 64.22500 40.23300
H  28.68500 65.59700 41.47400
H  29.18600 64.55600 42.86400
H  27.62000 64.44800 42.12400
H  25.45000 60.92900 39.19600
H  24.77200 60.10800 40.60100
H  24.38900 59.55800 38.87700
H  26.72200 55.40300 37.15600
H  23.40500 53.12400 39.18100
H  24.88800 52.52000 39.84900
H  24.53000 51.91200 38.26500
Mg 2.02200 42.79300 26.50600
C  3.16900 42.84300 29.66100
C  -0.96300 41.36900 27.62600
C  1.16700 41.69300 23.34400
C  5.08400 43.65700 25.36100
N  1.19100 42.21600 28.36300
C  1.92200 42.28500 29.49300
C  1.01100 42.09500 30.70800
C  -0.27200 41.42300 30.10500
C  0.01500 41.65200 28.62600
C  -0.44500 39.93300 30.59800
C  0.83600 43.29900 31.58200
C  0.99500 43.11600 33.11800
H  0.44800 41.89800 33.73300
N  0.26500 41.85000 25.65700
C  -0.89100 41.46500 26.26000
C  -1.85400 40.95900 25.27300
C  -1.20300 40.97100 23.98100
C  0.11400 41.58200 24.29900
C  -3.14600 40.43200 25.62200
C  -1.68200 40.57700 22.67500
O  -1.09200 40.64300 21.64000
C  -3.01800 39.99500 22.45500
N  2.97300 42.63200 24.63000
C  2.42200 42.29400 23.48600
C  3.41300 42.38400 22.34300
C  4.51700 43.35400 22.89100
C  4.15900 43.29500 24.40700
C  3.97800 41.02100 21.87500
C  4.43700 44.79700 22.24900
C  3.80600 45.98300 23.08800
N  3.75000 43.21800 27.30700
C  4.92500 43.57300 26.76200
C  5.90700 43.67300 27.74800
C  5.28900 43.54400 28.96300
C  3.94500 43.21300 28.60100
C  7.39400 43.86100 27.56700
C  5.50200 43.37100 30.34300
O  6.48100 43.39400 31.09600
C  4.05900 42.92300 30.92900
C  4.31100 41.65900 31.58900
O  4.74900 40.69400 31.03600
O  4.07900 41.79300 32.96000
C  4.15400 40.44900 33.66900
H  -1.92400 41.03400 28.02300
H  1.08300 41.18300 22.38200
H  6.01500 44.16100 25.09400
H  1.56700 41.35700 31.28700
H  -1.14500 42.00800 30.39500
H  0.33900 39.49300 31.21400
H  -0.61500 39.31600 29.71600
H  -1.32900 39.98300 31.23200
H  -0.15600 43.74100 31.48600
H  1.49000 44.15300 31.40700
H  0.54500 43.94200 33.66900
H  2.06900 43.15500 33.30100
H  -3.09900 39.37400 25.88000
H  -3.96000 40.64300 24.92800
H  -3.53600 40.88900 26.53200
H  -3.16300 39.28500 23.27000
H  -3.07600 39.44200 21.51800
H  -3.66200 40.87200 22.50100
H  2.97600 42.78900 21.43000
H  5.49500 42.87200 22.88400
H  3.34800 40.25100 22.32000
H  4.95300 40.89000 22.34400
H  4.08800 40.94400 20.79300
H  3.79800 44.71800 21.36900
H  5.44200 45.05700 21.91500
H  3.46500 45.67800 24.07800
H  2.98300 46.35500 22.47900
H  4.64000 46.65900 23.28000
H  7.65100 44.60400 26.81200
H  7.91900 42.98500 27.18600
H  7.83100 44.09400 28.53900
H  3.72000 43.66000 31.65600
H  5.02800 40.47600 34.32100
H  4.09000 39.55800 33.04500
H  3.44400 40.22500 34.46600

