158

Mg 8.86500 3.05700 26.73000
C  10.11100 1.64300 29.72800
C  7.11100 5.31700 28.69700
C  7.35100 4.17900 24.02200
C  10.55200 0.59200 24.92200
N  8.63900 3.42000 29.01500
C  9.40400 2.78500 30.00500
C  9.02400 3.41100 31.37700
C  7.89700 4.45800 31.02600
C  7.83000 4.43800 29.46100
C  6.48900 4.15000 31.66600
C  10.20100 4.04200 32.20000
C  9.81700 4.58000 33.55200
H  10.25600 3.83800 34.81900
N  7.42700 4.59400 26.42500
C  6.93600 5.42400 27.33600
C  6.04100 6.40200 26.65400
C  6.06500 6.03700 25.29500
C  6.96900 4.87600 25.19000
C  5.19000 7.44600 27.31200
C  5.36800 6.76900 24.08600
O  5.30000 6.27800 22.96700
C  4.55900 8.09600 24.27200
N  8.88900 2.46300 24.76600
C  8.20700 3.09900 23.78500
C  8.30200 2.38600 22.45200
C  9.45600 1.42000 22.70400
C  9.65100 1.45400 24.21900
C  6.94400 1.64500 22.09000
C  10.73400 1.67000 21.97300
C  11.62000 0.48700 21.43700
N  10.06700 1.40400 27.21000
C  10.68200 0.50900 26.35800
C  11.41600 -0.47700 27.16300
C  11.32400 0.01200 28.50900
C  10.36000 1.06600 28.47000
C  12.30600 -1.46200 26.56500
C  11.72300 -0.19500 29.85900
O  12.52800 -0.92400 30.47500
C  11.00400 0.89500 30.67200
C  10.25200 0.24800 31.77900
O  9.18000 -0.35700 31.65500
O  10.81400 0.53600 32.97200
C  10.13600 0.04200 34.18500
H  6.55100 6.02200 29.31600
H  6.95900 4.59300 23.09100
H  11.07000 -0.15000 24.31000
H  8.63200 2.61100 32.00400
H  8.17500 5.49300 31.22200
H  5.76900 3.78900 30.93200
H  6.05300 5.08000 32.03000
H  6.56400 3.38500 32.44000
H  10.67100 4.91100 31.74200
H  11.09900 3.42500 32.19400
H  8.73800 4.67200 33.43000
H  10.34600 5.52200 33.69800
H  5.78500 8.35500 27.40600
H  4.89500 7.10100 28.30300
H  4.27000 7.78400 26.83500
H  3.62400 7.96400 24.81600
H  4.30700 8.54200 23.31000
H  5.28100 8.81200 24.66400
H  8.58700 3.11500 21.69400
H  9.18600 0.40200 22.42300
H  6.12300 1.90300 22.75900
H  7.10100 0.56700 22.14100
H  6.72200 1.85700 21.04500
H  11.49200 2.20600 22.54400
H  10.56900 2.36100 21.14700
H  11.19600 -0.49400 21.65200
H  12.58600 0.64200 21.91800
H  11.89000 0.59900 20.38700
H  11.67400 -2.04800 25.89700
H  12.75300 -2.05900 27.36000
H  13.10900 -0.94400 26.04200
H  11.72300 1.52000 31.20100
H  9.11900 0.43000 34.23900
H  10.67400 0.43900 35.04600
H  10.14800 -1.04700 34.15100
Mg 35.99700 48.92600 25.62200
C  36.41400 47.06000 28.44600
C  34.97000 51.61200 27.24100
C  35.67100 50.35100 22.66900
C  36.81000 45.93500 23.76200
N  35.72200 49.25700 27.63900
C  36.05400 48.45300 28.64900
C  35.90600 49.21100 29.99000
C  35.36200 50.63600 29.59600
C  35.27700 50.50400 28.08600
C  33.93900 50.84400 30.25100
C  37.33800 49.20400 30.68800
C  37.31400 49.09700 32.18100
H  36.00800 49.19700 32.96700
N  35.28800 50.70500 25.05500
C  35.00200 51.70100 25.90200
C  34.66000 52.86100 25.14800
C  34.74400 52.52200 23.79800
C  35.28700 51.13700 23.81100
C  34.16100 54.23200 25.71700
C  34.45800 53.33300 22.54700
O  34.38800 52.87000 21.39600
C  34.24300 54.81700 22.69100
N  36.18700 48.19600 23.44800
C  36.05700 49.06200 22.44800
C  36.38700 48.51400 21.06400
C  36.99300 47.12800 21.47400
C  36.64300 47.05500 22.97900
C  35.17500 48.53500 20.10700
C  38.51100 46.93100 21.28400
C  39.01100 45.59500 20.63200
N  36.49800 46.86700 26.00100
C  36.77500 45.74100 25.16200
C  37.00800 44.52400 25.96900
C  36.88100 45.03800 27.29100
C  36.61000 46.44100 27.20900
C  37.18200 43.13300 25.38300
C  37.01400 44.62500 28.66900
O  37.36600 43.58800 29.21100
C  36.66300 45.97400 29.49700
C  35.47600 45.68600 30.30200
O  34.34900 45.73600 29.96300
O  35.86100 45.23900 31.53700
C  34.66700 44.99600 32.40100
H  34.68700 52.51000 27.79400
H  35.66500 50.84200 21.69300
H  37.02600 45.09800 23.09600
H  35.18700 48.71900 30.64500
H  36.02300 51.46100 29.86100
H  33.13100 50.75600 29.52500
H  33.84000 51.89900 30.50700
H  33.64600 50.27300 31.13200
H  37.75300 50.15100 30.34400
H  38.01100 48.45400 30.27300
H  37.93800 49.87900 32.61500
H  37.76500 48.14900 32.47400
H  34.79600 55.02900 25.32800
H  34.24200 54.45400 26.78200
H  33.26200 54.57500 25.20600
H  33.30200 55.14100 23.13400
H  34.14700 55.11700 21.64800
H  35.07500 55.28900 23.21500
H  37.00700 49.28000 20.59800
H  36.36300 46.48500 20.86000
H  34.30700 48.87900 20.67000
H  34.96200 47.55600 19.67800
H  35.25800 49.38100 19.42400
H  38.96100 47.05300 22.26900
H  38.98400 47.73000 20.71400
H  39.62800 45.05800 21.35200
H  39.63800 45.84500 19.77600
H  38.14300 45.02300 20.30300
H  37.90700 43.15300 24.56900
H  36.24900 42.74100 24.97800
H  37.42100 42.47800 26.22000
H  37.50100 46.30800 30.11000
H  33.81500 45.66200 32.26300
H  35.13700 45.14400 33.37300
H  34.36500 43.96100 32.24000

