158

Mg 47.60800 15.97700 28.61800
C  45.34800 15.61300 31.30700
C  49.33400 18.16300 30.52000
C  49.50500 16.70800 25.87900
C  45.50000 13.99900 26.59400
N  47.36000 16.67000 30.65500
C  46.40600 16.43400 31.68400
C  46.80200 17.06800 32.97000
C  47.88900 18.07500 32.55300
C  48.19800 17.62800 31.13100
C  47.49500 19.61300 32.69000
C  47.26400 16.16800 34.17100
C  47.57300 16.98300 35.48500
H  48.60600 16.37000 36.47800
N  49.20000 17.24300 28.28300
C  49.81200 18.01500 29.22200
C  50.97000 18.79700 28.63800
C  51.04400 18.35700 27.24800
C  49.88900 17.36900 27.06100
C  51.78000 19.80300 29.42500
C  51.94700 18.81800 26.09900
O  51.96400 18.24000 25.00500
C  52.67000 20.06000 26.22800
N  47.50800 15.38100 26.57800
C  48.43600 15.78700 25.63600
C  48.30700 14.99200 24.29900
C  47.22000 13.91800 24.67800
C  46.74100 14.43600 26.06100
C  47.92000 15.96900 23.10600
C  47.74000 12.47000 24.64000
C  48.88900 12.04300 23.71700
N  45.82600 15.07400 28.85200
C  45.00600 14.38300 27.92700
C  43.77400 13.96800 28.56100
C  43.91900 14.36800 29.87500
C  45.11600 15.03600 30.02600
C  42.62600 13.24300 28.02600
C  43.24800 14.41100 31.15900
O  42.12700 14.00700 31.49500
C  44.19700 15.13700 32.21400
C  43.47000 16.19300 32.86800
O  42.73300 16.99700 32.30300
O  43.86000 16.28800 34.19400
C  43.12200 17.36000 34.92000
H  49.92100 18.89200 31.08300
H  50.13400 16.72100 24.98600
H  44.95100 13.31000 25.94900
H  46.00300 17.67900 33.38900
H  48.81100 17.98200 33.12700
H  46.44800 19.81400 32.91900
H  47.77600 20.24800 31.85100
H  48.05900 19.95400 33.55800
H  48.24600 15.80900 33.86500
H  46.63200 15.32500 34.45200
H  46.61300 17.02700 36.00000
H  47.95400 17.99100 35.32100
H  51.48300 19.97700 30.45900
H  51.82900 20.85300 29.13700
H  52.82400 19.49200 29.46400
H  52.00700 20.90500 26.41300
H  53.09200 20.28100 25.24700
H  53.56100 19.94300 26.84500
H  49.31200 14.62600 24.09000
H  46.36400 14.00000 24.00800
H  46.95900 15.68000 22.67900
H  48.69300 15.93700 22.33900
H  47.87200 17.04200 23.29200
H  46.90400 11.79600 24.45800
H  48.15300 12.25100 25.62400
H  48.58800 11.17200 23.13400
H  49.76000 11.72500 24.28800
H  49.33200 12.78300 23.05000
H  42.96600 12.82000 27.08100
H  41.81500 13.96000 27.89200
H  42.19200 12.52000 28.71700
H  44.58000 14.44500 32.96400
H  43.55600 17.29400 35.91800
H  42.03700 17.32000 35.01600
H  43.36400 18.33900 34.50500
Mg 26.00000 50.56600 26.27300
C  23.90300 51.62000 28.76100
C  28.06000 49.27400 28.52200
C  28.23500 50.05600 23.77800
C  24.04200 52.54200 24.04400
N  26.01700 50.65600 28.36500
C  25.01200 50.98500 29.18900
C  25.30400 50.50300 30.62000
C  26.82800 50.18000 30.58900
C  27.04300 50.06800 29.06200
C  27.90600 51.11900 31.23400
C  24.36200 49.31600 31.23300
C  23.99000 49.29800 32.72600
H  24.72300 50.25900 33.80400
N  27.85000 49.64600 26.17000
C  28.50100 49.08100 27.21300
C  29.71400 48.41200 26.76200
C  29.77400 48.64300 25.30300
C  28.60400 49.49600 25.00000
C  30.55600 47.55200 27.65300
C  30.88200 48.14600 24.33300
O  30.84400 48.32200 23.11000
C  31.95400 47.27100 24.77200
N  26.20000 51.33300 24.30700
C  27.13300 50.86700 23.44100
C  27.06300 51.56200 22.11700
C  25.68700 52.22400 22.15800
C  25.18000 52.00700 23.59100
C  28.27000 52.53300 21.94000
C  24.74800 51.69200 20.97400
C  23.80200 50.52000 21.35500
N  24.23300 51.76500 26.32300
C  23.49000 52.38000 25.33900
C  22.22700 52.85300 25.87300
C  22.28600 52.62900 27.23600
C  23.58600 51.93700 27.45200
C  21.10600 53.50800 25.12000
C  21.68800 52.73700 28.57700
O  20.65800 53.27200 28.85300
C  22.66300 51.97200 29.59100
C  23.00600 52.77800 30.79400
O  23.71900 53.77900 30.74800
O  22.52600 52.30000 31.97700
C  22.73900 53.02900 33.27600
H  28.78700 48.90900 29.25000
H  28.85800 49.68900 22.95900
H  23.39700 53.06900 23.33700
H  25.10900 51.37600 31.24200
H  26.88300 49.23600 31.13100
H  28.52800 51.59300 30.47400
H  28.52600 50.42800 31.80500
H  27.46600 51.90500 31.84700
H  24.67700 48.29900 30.99900
H  23.44400 49.38700 30.64900
H  24.16400 48.28100 33.07700
H  22.90900 49.38500 32.83300
H  30.16800 47.52000 28.67100
H  31.55300 47.94200 27.86000
H  30.73000 46.55200 27.25700
H  31.56900 46.25200 24.82500
H  32.36600 47.64100 25.71100
H  32.76300 47.46000 24.06700
H  27.05500 50.72000 21.42600
H  25.72800 53.29900 21.98600
H  28.91300 52.53200 22.81900
H  28.04100 53.54400 21.60100
H  28.92400 52.01600 21.23700
H  25.45700 51.19500 20.31200
H  24.32400 52.51300 20.39600
H  23.65300 50.54000 22.43500
H  24.08500 49.49600 21.11200
H  22.80000 50.62100 20.93800
H  20.67100 54.20500 25.83500
H  20.34400 52.80600 24.78100
H  21.50100 53.89500 24.18100
H  22.30100 51.04700 30.04000
H  21.91300 53.74000 33.28000
H  23.61400 53.67900 33.25400
H  22.82200 52.29800 34.08100

