158

Mg 53.63300 24.04700 44.62600
C  50.90700 25.95800 43.56900
C  52.06200 21.33400 43.27300
C  56.48300 22.56300 45.02500
C  55.08000 27.17300 45.88400
N  51.76100 23.70700 43.42400
C  50.83700 24.61600 43.07700
C  49.72900 23.97700 42.16800
C  49.80800 22.50200 42.57100
C  51.31000 22.47800 43.07200
C  48.80300 22.10000 43.68800
C  50.03500 24.36500 40.70700
C  48.89300 24.82300 39.76400
H  49.20700 25.23900 38.31900
N  54.20300 22.09500 44.28500
C  53.42200 21.10000 43.69800
C  54.08300 19.86200 43.86600
C  55.41400 20.20100 44.33400
C  55.44800 21.70200 44.58500
C  53.44500 18.56500 43.38700
C  56.52600 19.17900 44.48100
O  56.39300 17.96800 44.24600
C  57.83400 19.57100 45.01500
N  55.57300 24.84700 45.18100
C  56.58700 23.92600 45.26100
C  57.83500 24.52800 45.96200
C  57.36500 26.12100 45.99200
C  55.90700 26.03800 45.69400
C  58.32800 24.00200 47.37600
C  58.07100 27.00200 44.90400
C  58.92600 28.05300 45.55700
N  53.21500 26.18300 44.71700
C  53.79600 27.25900 45.34000
C  52.86400 28.39800 45.36900
C  51.75300 27.91200 44.70100
C  51.99600 26.51100 44.31800
C  53.06300 29.70900 45.95500
C  50.42800 28.23900 44.26600
O  49.80900 29.26600 44.39100
C  49.83600 26.97700 43.52800
C  49.29200 27.39200 42.26600
O  49.96800 27.71300 41.31200
O  47.92100 27.43500 42.27400
C  47.17400 27.84900 41.03200
H  51.43200 20.45900 43.09300
H  57.49000 22.14000 45.03700
H  55.57200 28.03500 46.34000
H  48.71800 24.28800 42.43200
H  49.71200 21.90600 41.66300
H  49.26400 21.21200 44.12100
H  47.88800 21.81000 43.17200
H  48.63700 22.92500 44.38100
H  50.49900 23.48500 40.26200
H  50.75800 25.17500 40.79200
H  48.23500 25.55500 40.23200
H  48.24300 23.95000 39.69800
H  52.44600 18.39000 43.78800
H  54.08300 17.69200 43.52300
H  53.40100 18.78200 42.32000
H  57.54500 20.11500 45.91400
H  58.43200 20.25600 44.41300
H  58.39600 18.68900 45.32200
H  58.70200 24.42500 45.30900
H  57.55100 26.41600 47.02500
H  58.03700 22.96100 47.52000
H  57.88000 24.56000 48.19800
H  59.39500 24.11000 47.57000
H  57.33400 27.38800 44.20100
H  58.87900 26.46200 44.41100
H  59.97900 27.81400 45.41000
H  58.83500 28.14200 46.63900
H  58.81200 29.04400 45.11800
H  52.59900 30.31400 45.17600
H  54.12700 29.92700 46.04600
H  52.58800 29.73200 46.93600
H  49.02100 26.57100 44.12800
H  46.58800 28.72700 41.30100
H  46.54700 27.04300 40.65000
H  47.85600 28.05400 40.20700
Mg 36.07100 49.45600 24.60200
C  36.05900 47.65100 27.57500
C  34.60400 52.08300 26.18000
C  35.86900 50.97400 21.61300
C  37.24300 46.52500 23.03300
N  35.32700 49.75100 26.62700
C  35.65400 48.97200 27.73900
C  35.54700 49.75400 29.04500
C  34.85700 51.11100 28.55800
C  34.97400 51.01600 27.05100
C  33.44700 51.30700 28.98300
C  36.82800 49.85500 29.93700
C  36.57500 49.68200 31.50100
H  35.17100 49.81900 32.07700
N  35.31500 51.18400 24.03200
C  34.78700 52.19500 24.79900
C  34.43200 53.32100 24.03000
C  34.85800 53.07000 22.70500
C  35.40700 51.68100 22.71300
C  33.78200 54.50400 24.65700
C  34.78100 53.97500 21.47500
O  35.16600 53.62400 20.33500
C  34.01400 55.36500 21.54700
N  36.29700 48.77600 22.51500
C  36.29000 49.66400 21.48100
C  36.72800 49.02800 20.13900
C  37.33300 47.67400 20.65300
C  36.90900 47.61800 22.15800
C  35.62200 48.93700 19.08300
C  38.89200 47.49400 20.37300
C  39.99000 47.96100 21.34000
N  36.47500 47.43300 25.07300
C  37.00200 46.36900 24.40900
C  37.17600 45.18600 25.25300
C  36.77200 45.69600 26.50500
C  36.38600 47.04700 26.31700
C  37.53400 43.86800 24.67600
C  36.64600 45.30000 27.86900
O  36.79100 44.22600 28.40900
C  36.18100 46.56700 28.65000
C  35.01600 46.35600 29.43500
O  33.86300 46.46500 28.94900
O  35.34900 45.95900 30.74800
C  34.25300 45.27300 31.39200
H  34.36100 53.00200 26.71700
H  35.86600 51.52400 20.67000
H  37.70200 45.67900 22.51700
H  34.82100 49.09000 29.51400
H  35.34000 51.94400 29.06800
H  33.06700 50.59200 29.71200
H  32.76600 51.29200 28.13100
H  33.28400 52.29300 29.41700
H  37.11100 50.90600 29.88500
H  37.62600 49.23900 29.52200
H  37.20300 50.37000 32.06700
H  37.01200 48.69000 31.61500
H  34.51700 55.19900 25.06200
H  33.28900 54.17300 25.57100
H  32.99600 55.00700 24.09500
H  32.93000 55.25000 21.52300
H  34.36900 55.99800 20.73400
H  34.32800 55.88600 22.45100
H  37.50800 49.60000 19.63700
H  36.80300 46.86800 20.14600
H  34.65900 49.02600 19.58500
H  35.79200 48.00400 18.54500
H  35.81700 49.75800 18.39400
H  39.22400 47.98600 19.45900
H  38.96400 46.41800 20.21500
H  39.59900 48.15700 22.33800
H  40.56900 48.79100 20.93600
H  40.74400 47.19100 21.50500
H  37.63400 43.14600 25.48700
H  38.53600 43.99200 24.26600
H  36.71100 43.77200 23.96800
H  37.06900 46.87900 29.19900
H  33.35200 45.85700 31.20000
H  34.23100 45.42100 32.47200
H  34.25900 44.23000 31.07700

