158

Mg 35.09500 1.74100 29.22500
C  32.93400 3.15600 31.65600
C  37.65800 1.95100 31.40500
C  37.14100 0.85600 26.73500
C  32.45100 2.04700 26.96000
N  35.29600 2.65600 31.25500
C  34.24000 2.83200 32.12500
C  34.73700 3.00200 33.55900
C  36.26900 2.81200 33.47000
C  36.43400 2.47700 31.95000
C  37.06900 3.97100 34.00200
C  33.91800 2.08500 34.51700
C  33.33200 2.72600 35.73500
H  34.34900 3.66700 36.44200
N  37.08900 1.38900 29.08400
C  37.98000 1.48500 30.12900
C  39.24800 1.08600 29.65600
C  39.15200 0.84300 28.24600
C  37.73500 1.02000 27.94900
C  40.57100 1.04500 30.47700
C  40.21900 0.45700 27.31800
O  40.05000 0.56000 26.11900
C  41.58900 0.07700 27.77100
N  34.84800 1.36800 27.15600
C  35.79900 0.95200 26.27100
C  35.32900 0.82300 24.80300
C  33.79200 1.14700 25.00400
C  33.68100 1.50000 26.51500
C  36.01300 1.78400 23.72500
C  32.92600 -0.09900 24.67700
C  32.00200 0.06800 23.45000
N  33.08100 2.37600 29.27200
C  32.14600 2.42600 28.25600
C  30.97200 3.09700 28.79100
C  31.21500 3.32800 30.16700
C  32.53100 2.94000 30.37400
C  29.82800 3.45000 28.03900
C  30.66100 3.96900 31.26000
O  29.59300 4.46300 31.47500
C  31.72400 3.77900 32.43600
C  32.02600 5.11500 32.97800
O  32.92600 5.89900 32.67300
O  31.17700 5.29800 34.00800
C  31.51600 6.12200 35.17500
H  38.42900 1.89200 32.17600
H  37.82000 0.81200 25.88100
H  31.59700 2.13600 26.28500
H  34.57600 4.03200 33.87500
H  36.59600 1.95600 34.06100
H  36.56100 4.69500 34.63900
H  37.31300 4.45900 33.05800
H  37.95600 3.56600 34.48800
H  34.58200 1.29700 34.86900
H  33.12100 1.63200 33.92700
H  32.81900 2.08500 36.45200
H  32.50400 3.24900 35.25700
H  41.25700 1.71000 29.95300
H  40.99400 0.04200 30.53100
H  40.44100 1.37000 31.51000
H  42.14100 -0.29000 26.90600
H  41.43200 -0.67200 28.54700
H  42.11500 0.93600 28.18900
H  35.52200 -0.24300 24.68500
H  33.52700 1.95300 24.31900
H  36.79900 2.33700 24.23800
H  35.29700 2.39900 23.17900
H  36.45700 1.21200 22.91100
H  32.41600 -0.32400 25.61300
H  33.45400 -1.01000 24.39300
H  31.79100 1.10300 23.18100
H  31.04600 -0.42200 23.63400
H  32.61700 -0.38400 22.67100
H  30.06500 3.72000 27.01000
H  29.47900 4.38600 28.47600
H  29.00200 2.74300 28.11700
H  31.46100 3.11200 33.25600
H  30.82900 6.96100 35.28700
H  32.52700 6.51600 35.06600
H  31.43200 5.47000 36.04500
Mg 46.56900 24.37400 28.95500
C  47.63000 26.71400 31.29700
C  45.72100 22.32200 31.55800
C  46.10600 21.92700 26.70300
C  47.85500 26.48500 26.41800
N  46.79800 24.44600 31.21200
C  47.03400 25.61200 31.96800
C  46.76100 25.44000 33.47200
C  46.29900 23.95800 33.49700
C  46.18100 23.53600 32.03400
C  47.15600 22.99100 34.35700
C  45.69100 26.39900 33.97500
C  45.52500 26.83400 35.52800
H  46.33900 26.15700 36.70300
N  45.85200 22.45500 29.11100
C  45.52100 21.82000 30.26600
C  45.09100 20.45500 29.90900
C  45.10900 20.27200 28.50600
C  45.73800 21.53800 28.05000
C  44.66500 19.40600 30.89800
C  44.67900 19.13200 27.60200
O  44.71700 19.19100 26.37600
C  44.05600 18.06900 28.25900
N  47.19900 24.14800 26.88000
C  46.70100 23.09900 26.16200
C  46.93400 23.28400 24.64700
C  47.49600 24.71000 24.59100
C  47.47800 25.21900 26.01600
C  47.89500 22.24500 24.03500
C  46.79700 25.66900 23.56700
C  47.79200 26.53700 22.71500
N  47.66500 26.15800 28.86200
C  47.98400 26.94000 27.72600
C  48.67900 28.20100 28.15900
C  48.48300 28.12300 29.55100
C  47.93000 26.87300 29.93600
C  49.46900 29.14500 27.36400
C  48.75400 28.89800 30.77300
O  49.29800 29.99000 30.92200
C  48.13600 27.93000 31.91600
C  49.17900 27.89400 32.99500
O  50.31900 27.33100 32.92200
O  48.70900 28.43400 34.12500
C  49.50500 28.51700 35.37200
H  45.43800 21.68400 32.39800
H  46.07900 21.12800 25.95900
H  48.29600 27.15200 25.67500
H  47.69600 25.57400 34.01500
H  45.25400 23.85000 33.78800
H  47.79700 23.63600 34.95700
H  47.72200 22.37600 33.65700
H  46.51400 22.27600 34.87100
H  44.68500 26.10100 33.68000
H  45.90000 27.32300 33.43600
H  44.46600 26.70100 35.75100
H  45.54300 27.92300 35.57200
H  44.76700 19.67800 31.94800
H  45.32800 18.57200 30.66700
H  43.62800 19.13500 30.70100
H  43.16700 18.38900 28.80300
H  44.86400 17.63900 28.85000
H  43.86000 17.34200 27.47100
H  46.03200 23.14600 24.05000
H  48.53900 24.58500 24.30300
H  48.31100 21.68700 24.87400
H  48.77000 22.64100 23.52000
H  47.46500 21.58300 23.28400
H  46.15200 26.28300 24.19600
H  46.12800 25.14400 22.88600
H  47.43700 27.56700 22.69200
H  47.76700 26.25200 21.66300
H  48.79300 26.64100 23.13500
H  50.31000 29.45800 27.98200
H  48.92200 30.08300 27.27300
H  49.84800 28.64500 26.47300
H  47.36100 28.59000 32.30800
H  49.46900 29.55800 35.69500
H  50.53900 28.17300 35.33800
H  49.00600 27.83200 36.05700

