158

Mg 17.80400 -2.04200 28.04700
C  16.93600 -0.08500 30.83200
C  19.97600 -3.77300 29.94100
C  19.25900 -3.09700 25.25000
C  15.81200 0.26000 26.26800
N  18.31600 -1.87600 30.13400
C  17.87800 -1.06400 31.15600
C  18.31500 -1.54800 32.50500
C  19.36700 -2.62300 32.13700
C  19.19500 -2.87600 30.66200
C  20.84600 -2.33900 32.60200
C  17.00600 -2.10100 33.33300
C  17.06900 -1.71600 34.87200
H  18.49200 -1.92200 35.44000
N  19.29400 -3.44000 27.64200
C  20.03400 -4.04600 28.54000
C  20.75700 -5.08800 27.89900
C  20.52200 -5.05200 26.50100
C  19.70100 -3.79700 26.41400
C  21.63000 -6.11600 28.60500
C  20.89000 -5.97900 25.38400
O  20.60100 -5.68200 24.24900
C  21.76100 -7.16900 25.64400
N  17.56600 -1.51500 26.08500
C  18.35100 -2.00200 25.08100
C  17.87800 -1.45900 23.69200
C  16.70200 -0.53500 24.05100
C  16.68100 -0.63100 25.55400
C  18.95300 -0.64900 22.90600
C  15.35900 -0.92400 23.34700
C  14.56400 0.22200 22.79000
N  16.43800 -0.33500 28.42900
C  15.67700 0.44200 27.61700
C  14.87700 1.42900 28.33900
C  15.40300 1.35700 29.62800
C  16.27800 0.24900 29.62800
C  13.92500 2.37300 27.71100
C  15.36200 1.92000 30.97400
O  14.81400 2.90100 31.45900
C  16.44400 0.98000 31.78300
C  17.58000 1.90900 32.30500
O  18.62200 2.15500 31.79400
O  17.03500 2.49200 33.42700
C  17.88900 3.38900 34.15900
H  20.66200 -4.47400 30.42100
H  19.78300 -3.46900 24.36700
H  15.24500 0.95000 25.63800
H  18.85400 -0.71900 32.96400
H  19.16800 -3.54400 32.68500
H  20.86700 -1.86600 33.58400
H  21.44900 -1.76600 31.89900
H  21.41900 -3.24700 32.79100
H  16.88500 -3.14800 33.05300
H  16.14800 -1.56900 32.92400
H  16.41500 -2.33500 35.48600
H  16.71300 -0.70400 35.06500
H  22.53200 -6.41200 28.07000
H  21.07000 -7.04100 28.74700
H  21.98500 -5.67900 29.53800
H  22.71800 -6.85100 26.05800
H  21.83200 -7.57700 24.63600
H  21.28900 -7.87000 26.33100
H  17.53700 -2.32800 23.12900
H  16.82600 0.49600 23.71700
H  19.90100 -0.82600 23.41600
H  18.76000 0.41800 22.79900
H  19.07100 -1.13900 21.94000
H  14.73900 -1.31100 24.15600
H  15.50400 -1.75100 22.65100
H  14.96500 1.18900 23.09300
H  13.56000 0.24700 23.21300
H  14.40200 0.08100 21.72100
H  14.49200 3.26900 27.45500
H  13.12300 2.54400 28.42800
H  13.59900 1.85700 26.80700
H  15.86900 0.57500 32.61600
H  18.92600 3.35800 33.82400
H  17.80500 3.08300 35.20200
H  17.30400 4.28100 33.93500
Mg 36.83900 49.72900 24.60600
C  36.87000 48.00200 27.62600
C  35.67600 52.52800 26.27200
C  36.26600 51.26300 21.61400
C  37.14100 46.73000 22.95600
N  36.18800 50.13300 26.78100
C  36.42800 49.36400 27.82300
C  36.20300 50.06300 29.20000
C  35.65800 51.47700 28.71800
C  35.82100 51.42100 27.16900
C  34.42100 51.92600 29.20400
C  37.47100 50.10300 30.05300
C  37.08700 50.28300 31.54900
H  35.74500 50.22800 32.25700
N  36.01700 51.57600 24.01500
C  35.71000 52.62600 24.85400
C  35.58100 53.83300 24.03200
C  35.68700 53.51500 22.70400
C  36.01100 52.08300 22.72800
C  35.33200 55.15400 24.76800
C  35.63800 54.44100 21.48800
O  35.75200 54.07900 20.35900
C  35.43000 55.89300 21.64300
N  36.73800 49.11500 22.60400
C  36.46700 49.91800 21.52300
C  36.60400 49.19000 20.18500
C  36.66900 47.74200 20.68100
C  36.91200 47.86300 22.17600
C  35.50100 49.32000 19.14300
C  37.74900 46.94800 19.86900
C  39.24300 47.36200 20.07000
N  37.20500 47.80800 25.19400
C  37.31900 46.64000 24.40700
C  37.71600 45.50600 25.23900
C  37.43700 45.96500 26.52200
C  37.15400 47.36700 26.45900
C  38.00000 44.14100 24.75600
C  37.43600 45.64300 27.95500
O  37.60300 44.58900 28.55700
C  37.11500 46.90800 28.70800
C  35.90400 46.50700 29.45900
O  34.82300 46.18900 29.02400
O  36.13300 46.78200 30.81000
C  35.14200 46.23900 31.73200
H  35.44100 53.47300 26.76700
H  36.24100 51.74900 20.63600
H  37.18700 45.79800 22.38800
H  35.38800 49.44600 29.57700
H  36.44500 52.15900 29.03800
H  34.10500 51.28700 30.02800
H  33.65700 51.61000 28.49400
H  34.44700 53.00000 29.38500
H  38.09200 50.97100 29.82800
H  38.07900 49.22800 29.82500
H  37.70900 51.11900 31.86800
H  37.48200 49.36700 31.98800
H  35.27600 56.09000 24.21300
H  36.20000 55.37300 25.39000
H  34.47800 55.19000 25.44400
H  34.44500 55.98000 22.10100
H  35.51600 56.43000 20.69900
H  36.22900 56.26300 22.28500
H  37.55800 49.46800 19.73700
H  35.67800 47.28800 20.65500
H  35.09500 50.32000 19.30000
H  34.68900 48.61700 19.32600
H  35.91800 49.30200 18.13600
H  37.51900 46.77800 18.81700
H  37.74500 45.93300 20.26500
H  39.82600 46.57000 20.54000
H  39.33300 48.12700 20.84200
H  39.77200 47.62600 19.15500
H  38.28800 43.59600 25.65500
H  38.82200 44.08300 24.04300
H  37.06300 43.75100 24.35800
H  38.06400 47.10100 29.20800
H  35.53100 45.24900 31.96800
H  34.12700 46.09200 31.36300
H  35.05300 46.95000 32.55300

