158

Mg 26.81000 50.46200 26.98100
C  24.62000 51.32100 29.69800
C  29.10100 49.48100 29.28000
C  28.83800 49.90900 24.39600
C  24.32100 51.66200 24.84700
N  26.83700 50.50300 29.23900
C  25.83600 50.78300 30.07800
C  26.37600 50.48800 31.54300
C  27.77300 49.91400 31.42800
C  27.91600 50.05100 29.89700
C  28.83900 50.52400 32.33200
C  25.36800 49.52300 32.29400
C  24.37900 50.10700 33.27900
H  24.17700 49.45500 34.70500
N  28.76800 49.74400 26.85900
C  29.48600 49.41600 27.91700
C  30.79600 48.99000 27.40400
C  30.72700 49.05300 25.97800
C  29.43500 49.59500 25.66300
C  31.91900 48.42700 28.32700
C  31.83700 48.79600 24.92900
O  31.65600 48.98600 23.72000
C  33.23500 48.20800 25.33900
N  26.70200 50.94800 24.94100
C  27.65500 50.56100 24.02700
C  27.23100 50.80200 22.49000
C  25.74400 51.20700 22.71700
C  25.55100 51.32900 24.22500
C  27.92500 51.98600 21.70600
C  24.67500 50.26500 22.03200
C  24.70700 48.75600 22.29700
N  24.94000 51.45100 27.14500
C  24.02900 51.80500 26.17900
C  22.83600 52.38000 26.75900
C  22.99300 52.21900 28.14900
C  24.26800 51.62200 28.31200
C  21.65000 53.09700 26.00800
C  22.44200 52.51000 29.41200
O  21.38800 53.10600 29.68000
C  23.41900 51.93300 30.50200
C  23.67400 53.10100 31.36800
O  24.43000 54.00100 31.22500
O  22.69200 53.13100 32.33800
C  22.78300 54.31600 33.27100
H  29.86400 49.13900 29.98200
H  29.43800 49.72700 23.50200
H  23.57800 51.96600 24.10600
H  26.63300 51.42800 32.03000
H  27.79200 48.84600 31.64500
H  28.91900 51.59000 32.11600
H  29.78600 50.01200 32.16600
H  28.55400 50.46400 33.38300
H  25.88400 48.87400 33.00200
H  24.87900 48.88700 31.55500
H  23.36200 49.89900 32.94300
H  24.49500 51.18700 33.37000
H  31.70500 48.65000 29.37300
H  32.89500 48.80200 28.01900
H  31.83700 47.37300 28.06000
H  33.84100 48.14300 24.43600
H  33.13900 47.27700 25.89800
H  33.79100 48.93500 25.93000
H  27.48500 49.81600 22.09900
H  25.48100 52.16200 22.26200
H  27.57900 52.94600 22.08800
H  27.64400 51.92200 20.65500
H  29.01400 52.01800 21.71500
H  24.90800 50.34500 20.97000
H  23.69200 50.73700 22.01500
H  23.71400 48.38500 22.54900
H  25.34300 48.53200 23.15300
H  24.94800 48.17100 21.40900
H  20.80300 52.93500 26.67500
H  21.49000 52.69000 25.01000
H  22.05600 54.10800 25.96600
H  22.85000 51.18900 31.05900
H  22.88300 55.22000 32.67100
H  23.62000 54.19000 33.95900
H  21.81700 54.34800 33.77500
Mg 8.89200 48.61000 25.48100
C  7.05100 48.56200 28.49200
C  11.60100 49.88000 27.35900
C  10.67400 48.86700 22.62300
C  6.02000 47.98200 23.76900
N  9.35900 49.04400 27.75600
C  8.41400 48.94300 28.76900
C  8.90100 49.45800 30.07300
C  10.29500 50.10400 29.62300
C  10.50100 49.68400 28.13400
C  10.51700 51.62700 29.90300
C  8.86200 48.61200 31.35800
C  9.87000 48.91400 32.54700
H  9.24800 48.75600 33.97600
N  10.94400 49.15100 25.06800
C  11.91900 49.53700 26.00300
C  13.20100 49.55300 25.25600
C  12.92700 49.26700 23.87000
C  11.44800 49.08600 23.77800
C  14.52800 49.91700 25.90400
C  13.88600 49.33400 22.69000
O  13.49900 49.15100 21.53100
C  15.44000 49.61700 22.75900
N  8.39100 48.50600 23.46700
C  9.31900 48.46000 22.52700
C  8.69700 48.25500 21.14900
C  7.25800 47.75400 21.51700
C  7.16800 48.09900 22.99200
C  8.74800 49.48200 20.18700
C  6.85900 46.20800 21.28600
C  6.60000 45.92100 19.79100
N  7.01400 48.28700 26.00600
C  5.90700 48.04100 25.17300
C  4.71300 47.84300 25.90900
C  5.13200 48.05800 27.24000
C  6.53700 48.30400 27.23600
C  3.26800 47.62600 25.34600
C  4.70700 48.14400 28.60300
O  3.59200 48.08500 29.03600
C  5.93600 48.46100 29.49000
C  6.00400 47.24000 30.31100
O  6.84300 46.32700 30.23300
O  5.02800 47.15600 31.21900
C  5.27200 46.26600 32.40200
H  12.49700 50.18600 27.90300
H  11.19100 48.90600 21.66300
H  5.05300 47.80700 23.29200
H  8.26100 50.29600 30.35000
H  11.13100 49.57300 30.07800
H  11.56200 51.87000 30.09800
H  9.86200 52.04600 30.66700
H  10.43400 52.17600 28.96500
H  9.19000 47.62900 31.02000
H  7.85300 48.44300 31.73300
H  10.05800 49.97800 32.39700
H  10.80500 48.36000 32.46600
H  14.63200 49.67200 26.96100
H  14.88400 50.91100 25.63000
H  15.27500 49.24400 25.48400
H  15.78000 49.99800 21.79600
H  15.97100 48.71700 23.06800
H  15.56500 50.40200 23.50500
H  9.20200 47.40000 20.70000
H  6.57800 48.39100 20.95200
H  9.31300 49.32300 19.26800
H  9.27400 50.29300 20.69100
H  7.74700 49.85200 19.96200
H  5.94600 46.01900 21.85000
H  7.67800 45.52300 21.50300
H  6.62500 46.84600 19.21400
H  5.65300 45.39800 19.66200
H  7.43500 45.30400 19.46000
H  2.59700 47.88000 26.16700
H  3.04500 46.68900 24.83600
H  2.96200 48.43000 24.67700
H  5.70100 49.32600 30.11100
H  4.35300 46.11100 32.96600
H  6.02500 46.69500 33.06300
H  5.65600 45.29100 32.10000

