158

Mg -0.06900 7.71800 26.23000
C  0.86700 9.62900 29.16500
C  -0.22500 4.98400 28.10700
C  -0.36300 6.04300 23.34300
C  0.28300 10.76700 24.36900
N  0.24400 7.38000 28.38000
C  0.45600 8.30700 29.40100
C  0.24700 7.55600 30.80400
C  0.31200 6.03300 30.35100
C  0.05700 6.11700 28.86400
C  1.70000 5.37000 30.71600
C  -1.08700 7.99200 31.43200
C  -1.06000 8.30800 32.88300
H  0.13900 7.99500 33.78900
N  -0.22900 5.75000 25.73900
C  -0.29900 4.76200 26.69100
C  -0.53700 3.49700 25.97800
C  -0.57000 3.78300 24.57900
C  -0.33100 5.27300 24.49200
C  -0.58900 2.19100 26.70100
C  -0.77500 2.80300 23.38600
O  -0.88900 3.17100 22.21300
C  -0.80700 1.28100 23.60900
N  0.04000 8.30300 24.17700
C  -0.08800 7.41000 23.21800
C  -0.05900 8.13300 21.84100
C  -0.35900 9.65900 22.24700
C  -0.05500 9.61000 23.70900
C  1.27200 7.77100 21.06300
C  -1.84400 10.05600 21.98300
C  -2.00500 11.45500 21.31500
N  0.44400 9.80200 26.61900
C  0.61500 10.86100 25.75900
C  1.12300 12.01100 26.50500
C  1.19600 11.56800 27.85500
C  0.86500 10.20700 27.87100
C  1.32900 13.39600 25.96400
C  1.49300 11.98400 29.22100
O  1.90100 13.05800 29.66200
C  1.16000 10.76300 30.18300
C  2.17200 10.49700 31.22900
O  3.14600 9.79800 31.05000
O  1.89200 11.33700 32.27900
C  3.10300 11.51300 33.14700
H  -0.48900 4.10900 28.70500
H  -0.53300 5.62300 22.35000
H  0.10900 11.66900 23.77900
H  1.14000 7.78400 31.38400
H  -0.46800 5.49800 30.89300
H  2.17700 5.19100 29.75200
H  1.55000 4.37500 31.13600
H  2.36500 5.93000 31.37300
H  -1.78000 7.15500 31.34500
H  -1.45700 8.89000 30.93800
H  -1.93700 7.92100 33.40200
H  -1.24400 9.38200 32.85700
H  0.21400 1.58100 26.28900
H  -1.52000 1.69700 26.42400
H  -0.53500 2.31500 27.78300
H  -0.79600 0.64900 22.72000
H  -1.73200 1.09400 24.15400
H  -0.04900 0.87300 24.27800
H  -0.87700 7.77700 21.21400
H  0.41100 10.22000 21.71800
H  1.10000 7.01000 20.30200
H  1.96900 7.31500 21.76700
H  1.78900 8.63600 20.64800
H  -2.40700 10.14500 22.91200
H  -2.30700 9.28100 21.37300
H  -2.40800 11.27300 20.31800
H  -1.06100 11.96900 21.13200
H  -2.59600 12.16000 21.90000
H  2.41400 13.48600 25.91500
H  0.97500 14.04000 26.76800
H  0.75300 13.55200 25.05200
H  0.20000 10.91000 30.67600
H  3.08100 12.57900 33.37400
H  4.06900 11.22500 32.73300
H  3.01000 10.89800 34.04200
Mg 42.29600 41.45200 26.08800
C  41.65600 43.52400 28.81600
C  44.03400 39.35000 28.37200
C  43.07500 39.45600 23.58400
C  41.33800 43.90800 23.99800
N  42.91500 41.51700 28.35100
C  42.34200 42.36900 29.27200
C  42.71800 41.96400 30.77300
C  43.47200 40.60400 30.59200
C  43.49800 40.48900 28.99700
C  44.95900 40.66700 31.12300
C  41.46600 41.90700 31.76500
C  41.77600 42.42800 33.21100
H  40.82500 42.02500 34.43000
N  43.41000 39.64300 25.98100
C  44.03100 38.90900 27.02000
C  44.41800 37.57600 26.43100
C  44.02400 37.58900 25.08000
C  43.44000 38.94000 24.82100
C  45.02300 36.50500 27.29000
C  44.08300 36.47700 23.96900
O  43.79100 36.57000 22.84400
C  44.56900 35.14900 24.52200
N  42.24100 41.67400 24.06700
C  42.62500 40.72500 23.15600
C  42.19400 41.08600 21.73800
C  41.70400 42.50800 21.89200
C  41.81900 42.76900 23.37300
C  43.38500 40.97100 20.64700
C  40.35800 42.89300 21.19100
C  40.52400 44.18200 20.32700
N  41.68900 43.33700 26.30900
C  41.23500 44.21400 25.33900
C  40.68800 45.36700 25.97300
C  40.93200 45.18400 27.37900
C  41.40500 43.89300 27.50200
C  40.22500 46.60000 25.16200
C  40.73900 45.72500 28.60500
O  40.19900 46.78300 28.94400
C  41.18800 44.66800 29.67500
C  42.24700 45.24300 30.49800
O  43.44500 45.18500 30.35400
O  41.67000 45.78000 31.67300
C  42.65100 46.43000 32.62100
H  44.37200 38.72200 29.19900
H  43.23400 38.82400 22.70700
H  40.98900 44.67500 23.30300
H  43.45600 42.67200 31.14900
H  42.94200 39.74900 31.01200
H  44.83200 40.87300 32.18600
H  45.52500 41.43100 30.58900
H  45.31300 39.64300 31.01100
H  41.19500 40.86300 31.91700
H  40.61700 42.43400 31.32900
H  41.78900 43.48800 32.95600
H  42.81700 42.16300 33.39300
H  45.01700 36.86000 28.32100
H  46.06800 36.37300 27.01000
H  44.50900 35.54700 27.22200
H  44.59900 34.40900 23.72200
H  43.78000 34.94600 25.24600
H  45.57900 35.34600 24.88300
H  41.45900 40.29300 21.60700
H  42.51600 43.13600 21.52500
H  44.32600 40.50600 20.94300
H  43.61300 41.93900 20.19900
H  42.90900 40.34500 19.89200
H  39.55400 42.97200 21.92300
H  40.04500 42.08900 20.52500
H  39.76600 44.94400 20.50400
H  40.79700 43.97500 19.29200
H  41.41500 44.74700 20.60200
H  40.81700 46.70600 24.25300
H  40.28300 47.46100 25.82800
H  39.16900 46.48600 24.91500
H  40.33800 44.47300 30.32800
H  43.10600 47.21600 32.01800
H  43.45400 45.80800 33.01600
H  42.23800 46.92300 33.50100

