158

Mg -1.61900 17.67900 25.59400
C  -2.19900 15.65000 28.20500
C  -2.73600 20.43500 27.52400
C  -1.27100 19.72000 22.93200
C  -1.13500 14.96300 23.59800
N  -2.24400 18.02100 27.61500
C  -2.48100 17.02500 28.49100
C  -2.90500 17.60300 29.89400
C  -3.61500 18.97500 29.45000
C  -2.81400 19.15500 28.10900
C  -5.17700 19.00300 29.15800
C  -1.77500 17.80300 30.88300
C  -2.08100 17.75100 32.38200
H  -1.10700 17.18500 33.35300
N  -1.84600 19.85300 25.27300
C  -2.35100 20.79900 26.22400
C  -2.48300 22.10500 25.58300
C  -1.98100 21.91800 24.23100
C  -1.67700 20.46700 24.10000
C  -3.07800 23.38200 26.27000
C  -1.68900 22.89700 23.13100
O  -1.17000 22.67000 22.04200
C  -2.10600 24.31200 23.30300
N  -1.32300 17.41100 23.53300
C  -1.23100 18.40800 22.65400
C  -1.00000 17.85100 21.17900
C  -0.88100 16.32100 21.46200
C  -1.02900 16.22700 22.94500
C  -2.10000 18.21500 20.14100
C  0.42500 15.75900 21.00900
C  1.66300 16.23100 21.75900
N  -1.63900 15.65800 25.77800
C  -1.38600 14.65600 24.91800
C  -1.62800 13.37300 25.56000
C  -1.88700 13.72300 26.89700
C  -1.82500 15.11000 26.96300
C  -1.84400 11.99400 24.96700
C  -2.32200 13.24800 28.17000
O  -2.57500 12.14600 28.56900
C  -2.52800 14.50000 29.02600
C  -1.70500 14.43400 30.22600
O  -0.46900 14.48900 30.26500
O  -2.55400 14.17300 31.28200
C  -2.00500 13.38600 32.39900
H  -3.30400 21.19200 28.06800
H  -1.14700 20.42200 22.10500
H  -0.91300 14.17400 22.87700
H  -3.66400 16.93300 30.29800
H  -3.35900 19.80100 30.11400
H  -5.69300 19.69900 29.82000
H  -5.49400 17.98800 29.39700
H  -5.53400 19.36100 28.19200
H  -1.42100 18.80900 30.65800
H  -1.00900 17.05500 30.67700
H  -3.07000 17.34000 32.58600
H  -2.07400 18.76100 32.79200
H  -2.24100 24.05300 26.45800
H  -3.59300 23.20600 27.21400
H  -3.82300 23.86400 25.63700
H  -3.18100 24.29800 23.11900
H  -1.63900 24.97700 22.57700
H  -1.95100 24.74800 24.29000
H  -0.06500 18.25700 20.79400
H  -1.65300 15.78800 20.90600
H  -3.01900 18.39700 20.69900
H  -2.45500 17.38100 19.53600
H  -1.86900 19.06300 19.49600
H  0.52000 16.10000 19.97800
H  0.39200 14.67100 21.06200
H  2.12900 15.31300 22.11700
H  1.36000 16.83600 22.61300
H  2.29200 16.64700 20.97200
H  -2.15600 12.15400 23.93500
H  -2.61200 11.48000 25.54500
H  -0.92400 11.41300 25.02400
H  -3.59600 14.55700 29.23600
H  -1.10900 12.80600 32.17900
H  -2.67800 12.54700 32.57700
H  -1.95100 13.97500 33.31400
Mg 3.54600 -0.05600 44.43100
C  6.91900 0.12800 43.96700
C  3.21400 2.72800 42.25300
C  0.16700 -0.62700 43.96200
C  3.81500 -2.97100 46.17000
N  4.95000 1.20000 43.18200
C  6.31900 1.09300 43.14200
C  6.98600 2.09200 42.25300
C  5.76300 3.07600 42.03400
C  4.54200 2.29900 42.54800
C  5.87600 4.47100 42.80000
C  7.64500 1.44400 40.96900
C  8.29700 2.45100 39.99500
H  7.62200 2.72700 38.73800
N  1.93300 1.03900 43.44600
C  2.01200 2.13200 42.62800
C  0.69300 2.48800 42.03800
C  -0.18800 1.53100 42.50200
C  0.63300 0.61800 43.38700
C  0.47800 3.71500 41.20400
C  -1.65700 1.45000 42.18600
O  -2.18900 2.23600 41.41000
C  -2.57800 0.33800 42.74000
N  2.17200 -1.59500 44.98900
C  0.81800 -1.52200 44.71700
C  0.16900 -2.86600 45.18300
C  1.25900 -3.55500 45.96200
C  2.51600 -2.68000 45.70900
C  -1.14200 -2.61000 46.10400
C  1.58500 -5.07000 45.66700
C  0.37400 -5.91500 45.22300
N  5.00400 -1.18100 45.05800
C  4.98900 -2.34800 45.81700
C  6.37200 -2.70200 46.06000
C  7.14700 -1.71300 45.41600
C  6.27000 -0.83600 44.76100
C  6.76700 -3.89700 46.83100
C  8.50300 -1.23900 45.07500
O  9.59400 -1.66600 45.43600
C  8.43400 -0.07400 44.11800
C  9.02300 1.13500 44.84200
O  8.73400 1.56300 45.91600
O  9.86200 1.66500 43.91600
C  10.31000 3.00000 44.29500
H  3.29200 3.67300 41.71100
H  -0.88400 -0.91100 43.87500
H  3.86300 -3.83600 46.83500
H  7.81000 2.55700 42.79500
H  5.64800 3.31800 40.97800
H  6.69600 4.51200 43.51700
H  4.96300 4.65600 43.36500
H  6.05000 5.24900 42.05600
H  6.84400 0.86200 40.51200
H  8.51000 0.83200 41.22300
H  9.34000 2.20400 39.79700
H  8.32700 3.44500 40.44100
H  1.03800 3.59400 40.27700
H  0.97400 4.62700 41.53600
H  -0.53500 3.94500 40.87500
H  -3.60500 0.36800 42.37600
H  -2.63200 0.38600 43.82800
H  -2.24300 -0.67100 42.50000
H  -0.07100 -3.36100 44.24200
H  1.08000 -3.51200 47.03600
H  -1.84500 -3.35000 45.72100
H  -1.49000 -1.58100 46.18600
H  -0.95800 -2.92800 47.13100
H  2.04200 -5.54100 46.53700
H  2.35300 -5.05700 44.89400
H  0.61000 -6.53800 44.36100
H  -0.57400 -5.39300 45.09600
H  0.22300 -6.66300 46.00200
H  7.69200 -3.78900 47.39700
H  6.99300 -4.78300 46.23700
H  5.99100 -4.25600 47.50700
H  8.94800 -0.44600 43.23100
H  10.57400 3.47600 43.35100
H  11.16100 3.11400 44.96700
H  9.58600 3.68500 44.73800

