158

Mg -2.77000 16.77800 26.69800
C  -3.18400 14.65200 29.46600
C  -3.08000 19.48400 28.81800
C  -2.35900 18.80000 24.01700
C  -2.67200 13.99700 24.53500
N  -2.97000 16.96900 28.91000
C  -3.13900 15.93100 29.82900
C  -3.23700 16.47300 31.22800
C  -3.26300 18.11800 30.95100
C  -3.06200 18.25400 29.46600
C  -4.60500 18.75200 31.37500
C  -2.21600 15.88100 32.22400
C  -1.71900 16.71200 33.32300
H  -1.36900 16.10000 34.64500
N  -2.84800 18.78900 26.46000
C  -2.94600 19.76500 27.44200
C  -2.81600 21.06900 26.88000
C  -2.59400 20.91000 25.48100
C  -2.64000 19.45400 25.22400
C  -2.78700 22.41200 27.64000
C  -2.18000 21.94400 24.39500
O  -1.97500 21.61900 23.23200
C  -1.80100 23.38400 24.85000
N  -2.40900 16.43900 24.63600
C  -2.30900 17.44900 23.79800
C  -2.15500 16.96400 22.31700
C  -2.16800 15.35200 22.48200
C  -2.38800 15.25200 23.98400
C  -3.38700 17.28900 21.44000
C  -0.84200 14.68700 22.01000
C  -0.98700 13.94100 20.66800
N  -2.95500 14.71800 26.93200
C  -2.94200 13.71500 25.92200
C  -3.19800 12.40000 26.59100
C  -3.24300 12.75100 28.01200
C  -3.05700 14.14200 28.18900
C  -3.44500 11.11700 25.99800
C  -3.48200 12.21800 29.33200
O  -3.63900 11.02900 29.68900
C  -3.40600 13.42700 30.34200
C  -2.26100 13.12400 31.25500
O  -1.09500 13.25400 30.88700
O  -2.58400 12.56900 32.51100
C  -1.44300 11.92300 33.19700
H  -3.02700 20.34200 29.49200
H  -2.21600 19.35600 23.08900
H  -2.54700 13.12400 23.89100
H  -4.23700 16.19300 31.56100
H  -2.36200 18.48200 31.44400
H  -4.39400 19.41200 32.21600
H  -5.30400 17.94300 31.58700
H  -5.06400 19.28500 30.54200
H  -1.34600 15.45300 31.72600
H  -2.71700 15.03700 32.69700
H  -2.38600 17.56000 33.48300
H  -0.77300 17.20200 33.08800
H  -3.03000 22.39400 28.70200
H  -3.46200 23.14000 27.18900
H  -1.77800 22.77100 27.44000
H  -2.68500 23.79000 25.34100
H  -1.58000 24.05100 24.01600
H  -0.88300 23.18800 25.40500
H  -1.29500 17.37900 21.79100
H  -2.94000 14.75300 21.99900
H  -4.22700 17.65100 22.03300
H  -3.83400 16.42100 20.95500
H  -3.03400 17.94900 20.64800
H  -0.36500 14.15300 22.83300
H  -0.13400 15.48600 21.78900
H  -1.97000 13.49100 20.52800
H  -0.27500 13.13500 20.84700
H  -0.58800 14.65900 19.95100
H  -3.63600 11.26800 24.93600
H  -4.29600 10.67700 26.51800
H  -2.55000 10.54700 26.24900
H  -4.31600 13.38300 30.94000
H  -1.66300 10.85900 33.28100
H  -1.43200 12.42100 34.16700
H  -0.48900 12.02400 32.68000
Mg 24.54600 1.61300 29.04200
C  26.84300 1.40000 31.67800
C  22.05300 1.81200 31.27600
C  22.54500 1.45400 26.44300
C  27.31700 1.00400 26.89800
N  24.57100 1.65700 31.16300
C  25.60800 1.65000 32.09100
C  25.08400 1.69700 33.51700
C  23.60400 1.69200 33.38400
C  23.35600 1.76300 31.86400
C  22.74800 0.50500 33.96600
C  25.66600 2.86000 34.33700
C  26.33700 2.62500 35.75900
H  26.28900 3.62300 36.87200
N  22.51600 1.63600 28.86200
C  21.65400 1.70900 29.90100
C  20.37200 1.81500 29.41000
C  20.44800 1.63100 27.97700
C  21.85600 1.51300 27.65700
C  19.21500 2.01600 30.33600
C  19.29900 1.55200 26.98900
O  19.49600 1.41700 25.80700
C  17.90300 1.74600 27.41600
N  24.95800 1.35500 26.97000
C  23.89200 1.43900 26.12500
C  24.37100 1.51900 24.62700
C  25.96500 1.35200 24.76800
C  26.11900 1.25500 26.24200
C  23.83200 0.31000 23.79000
C  26.75600 2.50400 24.16600
C  26.60800 3.86200 24.71100
N  26.67800 1.30600 29.18600
C  27.65200 1.00600 28.27800
C  28.89600 0.81200 28.90900
C  28.65300 0.97800 30.28800
C  27.27300 1.27000 30.38600
C  30.18500 0.59500 28.33900
C  29.31400 1.01100 31.56100
O  30.45800 0.87700 31.84000
C  28.10900 1.33300 32.57100
C  28.16600 0.31800 33.60400
O  27.44900 -0.68700 33.75600
O  29.18700 0.61000 34.50400
C  29.25800 -0.23300 35.68300
H  21.21300 1.96800 31.95600
H  21.85500 1.36800 25.60100
H  28.13700 0.93600 26.18000
H  25.31300 0.76700 34.03700
H  23.14200 2.59200 33.79000
H  22.09200 -0.05800 33.30100
H  22.14700 0.82400 34.81800
H  23.42800 -0.30800 34.22000
H  24.89800 3.57500 34.63200
H  26.24800 3.54600 33.72200
H  27.40600 2.43600 35.66300
H  25.87900 1.72300 36.16500
H  18.46200 2.63800 29.85100
H  19.38200 2.31900 31.36900
H  18.67000 1.07800 30.44600
H  17.54800 1.16900 28.27100
H  17.23500 1.33800 26.65800
H  17.95900 2.82500 27.56200
H  23.97900 2.45800 24.23500
H  26.34900 0.42300 24.34700
H  23.48300 -0.43500 24.50400
H  24.51600 -0.23900 23.14200
H  23.05900 0.66200 23.10700
H  26.49600 2.63200 23.11500
H  27.80700 2.23700 24.27000
H  26.06300 3.93700 25.65100
H  26.30300 4.56200 23.93300
H  27.59600 4.21400 25.01000
H  30.99200 1.06300 28.90400
H  30.23100 1.08900 27.36900
H  30.47200 -0.45700 28.34800
H  28.23800 2.25600 33.13600
H  29.25800 -1.29200 35.42400
H  28.32900 0.06400 36.17000
H  29.98000 0.07700 36.43800

