158

Mg 34.53200 2.92500 29.31000
C  32.44000 4.09400 31.98000
C  37.09300 2.67800 31.69100
C  36.51000 1.99800 26.91500
C  31.83500 3.56100 27.13100
N  34.64400 3.18700 31.50800
C  33.67200 3.58500 32.40400
C  34.20100 3.66600 33.84900
C  35.74400 3.58600 33.65500
C  35.83200 3.14600 32.15000
C  36.50300 4.92800 33.93600
C  33.46200 2.64900 34.80900
C  33.82500 2.72600 36.34500
H  34.73100 3.90300 36.96200
N  36.60500 2.39400 29.26300
C  37.46000 2.28700 30.38400
C  38.66600 1.68500 29.90200
C  38.59000 1.55200 28.47500
C  37.16100 1.91400 28.12500
C  39.81200 1.39900 30.86400
C  39.70600 1.14400 27.41600
O  39.53700 1.15500 26.21800
C  40.96200 0.65500 27.90100
N  34.29900 3.03500 27.27000
C  35.25300 2.50600 26.46400
C  34.83300 2.55900 25.01700
C  33.29500 2.95800 25.09600
C  33.15600 3.20000 26.61600
C  35.70500 3.41600 24.12000
C  32.25700 1.87000 24.53000
C  32.02300 0.65500 25.44100
N  32.51500 3.64900 29.52500
C  31.56300 3.84800 28.50500
C  30.35000 4.30700 29.01900
C  30.65300 4.35700 30.40000
C  31.99700 4.09400 30.63500
C  29.11400 4.46600 28.31700
C  30.05000 4.74900 31.60800
O  28.95200 5.22700 31.88200
C  31.18600 4.46500 32.70400
C  31.29300 5.74600 33.48900
O  31.76500 6.79100 33.05900
O  31.24400 5.46400 34.82100
C  31.58200 6.44300 35.89600
H  37.81700 2.51900 32.49300
H  37.06500 1.54900 26.08900
H  31.05900 3.78800 26.39800
H  33.91600 4.66100 34.19200
H  36.08500 2.82900 34.36100
H  37.40500 4.75200 34.52200
H  35.98200 5.64900 34.56500
H  36.76900 5.31000 32.95000
H  34.01100 1.77700 34.45400
H  32.39500 2.60100 34.59000
H  34.30100 1.78400 36.61900
H  33.00100 2.82100 37.05300
H  40.03600 0.34200 30.72200
H  39.43900 1.40300 31.88800
H  40.70600 1.99700 30.68800
H  41.46800 1.29900 28.62000
H  41.68300 0.61700 27.08400
H  40.80200 -0.32200 28.35500
H  35.00600 1.56400 24.60600
H  33.16800 3.87800 24.52600
H  36.54000 3.84800 24.67200
H  35.11900 4.25100 23.73500
H  36.08900 2.93200 23.22200
H  32.62300 1.42300 23.60600
H  31.33100 2.41200 24.33800
H  32.80700 -0.07700 25.24400
H  31.05200 0.30700 25.08700
H  32.06300 0.82800 26.51600
H  29.09500 3.72700 27.51500
H  28.98100 5.47100 27.91500
H  28.29300 4.26100 29.00400
H  30.86400 3.62200 33.31400
H  31.26600 7.42800 35.55200
H  32.66700 6.44600 36.00600
H  31.09100 6.22700 36.84400
Mg 43.19900 42.12800 26.25400
C  42.45900 44.71900 28.64700
C  44.69100 40.41500 28.85600
C  44.43600 40.16500 23.92800
C  42.05200 44.46100 23.79300
N  43.52500 42.58000 28.53300
C  42.98000 43.57900 29.25400
C  42.98500 43.22400 30.78900
C  43.85600 41.89500 30.81600
C  44.07400 41.61100 29.29500
C  45.05900 41.88100 31.71800
C  41.51900 43.12100 31.30500
C  41.05800 44.12800 32.46400
H  40.39500 43.57100 33.71900
N  44.32000 40.43200 26.36000
C  44.83500 39.88300 27.55600
C  45.47100 38.60100 27.14100
C  45.32600 38.47300 25.74100
C  44.64100 39.71200 25.24900
C  46.13800 37.69000 28.09200
C  45.82300 37.37000 24.80500
O  45.56700 37.38000 23.61100
C  46.74700 36.40700 25.37800
N  43.15500 42.32700 24.12600
C  43.69300 41.21700 23.42300
C  43.52200 41.46900 21.93000
C  42.57900 42.78300 21.81700
C  42.57300 43.19900 23.34000
C  44.92300 41.55900 21.21900
C  41.14500 42.45200 21.34800
C  40.45500 41.12400 21.95000
N  42.36900 44.11700 26.15700
C  41.98500 44.87700 25.08900
C  41.41600 46.12600 25.53600
C  41.52900 46.06200 26.94500
C  42.16100 44.89600 27.28700
C  40.87900 47.32500 24.77300
C  41.21800 46.82800 28.16700
O  40.61800 47.91400 28.34000
C  41.82000 45.87700 29.30100
C  42.84800 46.70600 30.13700
O  43.99100 46.84800 29.88700
O  42.27500 47.09300 31.31200
C  43.12700 47.56900 32.40700
H  44.99500 39.75300 29.67000
H  44.83300 39.53400 23.13000
H  41.61500 45.05900 22.99100
H  43.60100 43.94300 31.32900
H  43.19500 41.10600 31.17300
H  45.02100 42.51900 32.60000
H  45.98100 42.21900 31.24700
H  45.23300 40.87500 32.10100
H  41.40100 42.10100 31.67000
H  40.74200 43.19100 30.54400
H  40.35100 44.87500 32.10400
H  41.92400 44.68900 32.81500
H  45.78400 37.75800 29.12100
H  47.20300 37.90000 28.18400
H  45.93400 36.64400 27.86100
H  46.13900 35.70100 25.94400
H  47.46300 36.91300 26.02600
H  47.26200 35.85900 24.58900
H  42.92300 40.67300 21.48900
H  42.93400 43.49200 21.06900
H  45.61900 41.83500 22.01100
H  44.96900 42.29900 20.42000
H  45.23300 40.60900 20.78300
H  41.06100 42.48200 20.26200
H  40.60300 43.34400 21.66300
H  39.82800 40.63000 21.20800
H  39.62200 41.42200 22.58700
H  41.07400 40.42000 22.50700
H  39.87900 47.58200 25.12000
H  40.99100 47.10200 23.71100
H  41.39500 48.22700 25.10100
H  41.08400 45.32100 29.88200
H  42.78800 48.55900 32.71200
H  44.16200 47.83900 32.19700
H  43.20700 46.90000 33.26400

