158

Mg 1.75000 -0.24500 43.86600
C  5.29900 0.05100 43.38500
C  1.29100 2.60000 42.14400
C  -1.42400 -1.06300 43.84300
C  2.56600 -3.55000 44.99900
N  3.16000 1.05000 42.85900
C  4.53000 1.06100 42.70900
C  4.98100 2.11800 41.67800
C  3.80700 3.13900 41.69100
C  2.65200 2.17700 42.28500
C  3.95400 4.44900 42.60600
C  5.23200 1.56400 40.23800
C  6.40100 2.26600 39.58100
H  5.81900 2.88800 38.28900
N  0.12100 0.68000 43.17400
C  0.09100 1.88400 42.54000
C  -1.26700 2.22600 42.35900
C  -2.08600 1.13000 42.86100
C  -1.09600 0.21200 43.32100
C  -1.68800 3.42700 41.65000
C  -3.57700 1.01500 42.81300
O  -4.20200 2.09000 42.61200
C  -4.37300 -0.26500 43.04000
N  0.72000 -2.01200 44.43100
C  -0.62600 -2.06300 44.36300
C  -1.18600 -3.38500 44.86600
C  0.06600 -4.25400 45.22600
C  1.22500 -3.24000 44.89400
C  -2.10600 -3.29000 46.19400
C  0.20000 -5.53100 44.27500
C  0.58700 -6.82700 44.98700
N  3.51500 -1.47200 44.28800
C  3.68100 -2.75900 44.72400
C  5.10200 -2.98300 44.99600
C  5.76400 -1.89700 44.55900
C  4.77300 -0.99300 44.07700
C  5.65100 -4.38900 45.36400
C  7.10000 -1.38500 44.27400
O  8.20300 -1.95500 44.36300
C  6.79700 -0.06200 43.47500
C  7.39800 1.08400 44.18100
O  6.93700 1.81900 45.08400
O  8.63600 1.30500 43.57900
C  9.40800 2.55300 43.84500
H  1.13700 3.58500 41.69800
H  -2.45600 -1.38600 44.00000
H  2.73900 -4.59400 45.27000
H  5.82300 2.66400 42.10100
H  3.39400 3.51000 40.75300
H  3.12400 4.57300 43.30100
H  3.99900 5.27700 41.89700
H  4.84500 4.43700 43.23400
H  4.32500 1.75800 39.66600
H  5.47000 0.50100 40.28300
H  7.11800 1.48000 39.34500
H  6.78200 3.08300 40.19400
H  -2.47400 3.90700 42.23300
H  -2.07600 3.07100 40.69600
H  -1.00800 4.19700 41.28800
H  -5.38300 -0.10000 42.66400
H  -4.38900 -0.38600 44.12300
H  -3.93900 -0.98400 42.34600
H  -1.78200 -3.82900 44.06900
H  0.16500 -4.56900 46.26500
H  -3.07600 -3.74400 45.99000
H  -2.37800 -2.25500 46.40400
H  -1.69000 -3.82500 47.04800
H  0.95200 -5.29700 43.52100
H  -0.73500 -5.68000 43.73500
H  -0.35500 -7.33000 45.20700
H  1.06000 -6.67700 45.95700
H  1.20400 -7.40400 44.29800
H  5.49700 -5.05700 44.51600
H  5.16300 -4.73700 46.27400
H  6.73200 -4.41000 45.50600
H  7.31700 -0.00900 42.51800
H  10.07600 2.51400 44.70600
H  8.78100 3.44100 43.92900
H  10.13500 2.70400 43.04800
Mg 41.29600 7.16200 29.48600
C  42.54100 8.70000 32.47100
C  38.65100 6.05200 31.30600
C  40.08100 5.78100 26.65000
C  44.09100 8.37300 27.86400
N  40.77300 7.17600 31.73900
C  41.39000 7.92100 32.74300
C  40.49700 7.92600 34.03200
C  39.32200 7.01100 33.66200
C  39.52000 6.80400 32.10900
C  39.39500 5.57600 34.34000
C  39.99300 9.38400 34.42700
C  40.06300 9.63700 35.95400
H  40.70500 10.93600 36.57300
N  39.58700 6.11300 29.02800
C  38.60000 5.76300 29.95600
C  37.47700 5.16600 29.33200
C  37.79600 5.21800 27.87900
C  39.24600 5.67300 27.78900
C  36.21100 4.66000 30.04600
C  36.99500 4.81400 26.72200
O  37.53400 4.72200 25.60500
C  35.47500 4.47200 26.83900
N  41.96900 7.08400 27.57600
C  41.30800 6.44600 26.54100
C  42.11300 6.58300 25.28800
C  43.38200 7.33600 25.68700
C  43.18100 7.63700 27.16600
C  42.34600 5.35300 24.42400
C  43.80300 8.44700 24.75800
C  42.79500 9.56100 24.49300
N  43.06900 8.27400 30.04300
C  44.09600 8.60200 29.25400
C  45.04600 9.36100 30.08000
C  44.42700 9.49300 31.34700
C  43.23600 8.74500 31.23900
C  46.30400 9.93600 29.64300
C  44.57200 10.00600 32.66100
O  45.55900 10.64500 33.08500
C  43.47100 9.42100 33.47500
C  44.09700 8.61200 34.47900
O  44.43300 7.43500 34.32100
O  44.30600 9.35600 35.66500
C  44.90800 8.66600 36.78700
H  37.86000 5.62400 31.92500
H  39.80400 5.35200 25.68500
H  44.97200 8.76200 27.35000
H  41.12200 7.64800 34.88000
H  38.37300 7.49100 33.89900
H  39.40500 4.81200 33.56300
H  38.57400 5.42800 35.04200
H  40.29700 5.36900 34.91400
H  38.94600 9.54200 34.16700
H  40.65000 10.01100 33.82500
H  40.40300 8.73400 36.46100
H  39.00800 9.78800 36.18000
H  36.34000 4.59800 31.12700
H  36.12400 3.64300 29.66500
H  35.41200 5.33200 29.73300
H  34.95800 5.23200 27.42300
H  35.49300 3.53200 27.39000
H  35.15000 4.33400 25.80700
H  41.49200 7.31500 24.77200
H  44.19900 6.62800 25.54800
H  43.20100 5.54400 23.77600
H  41.53800 5.31200 23.69300
H  42.22900 4.48300 25.07000
H  44.06000 7.94800 23.82400
H  44.80600 8.83100 24.94700
H  41.95400 9.59300 25.18600
H  42.32700 9.52300 23.51000
H  43.10900 10.60300 24.55600
H  46.39100 11.00500 29.83300
H  46.38600 9.69500 28.58300
H  47.08800 9.43400 30.21100
H  43.11900 10.35900 33.90400
H  45.21800 9.52400 37.38200
H  45.64800 7.91300 36.51700
H  44.20600 8.12300 37.42100

