158

Mg 35.65800 1.20800 30.25700
C  33.44900 2.42700 32.71100
C  38.07200 1.31300 32.72800
C  37.78700 0.12200 27.98300
C  33.15600 1.59000 27.79000
N  35.68500 1.77500 32.43500
C  34.71200 2.20800 33.21500
C  35.11000 2.28000 34.68500
C  36.63300 1.98400 34.63200
C  36.84000 1.70900 33.15100
C  37.55700 3.16600 35.21300
C  34.39500 1.18000 35.51100
C  34.02700 1.48600 36.96900
H  34.80600 2.60300 37.62900
N  37.55200 0.68500 30.37400
C  38.39300 0.79000 31.47400
C  39.73200 0.41300 31.11900
C  39.68200 0.10000 29.68500
C  38.28200 0.24800 29.26400
C  40.89600 0.35200 32.09200
C  40.89500 -0.22000 28.76100
O  40.80800 -0.56500 27.60700
C  42.34600 -0.07700 29.27500
N  35.58100 1.05500 28.09100
C  36.55000 0.47700 27.42000
C  36.17900 0.34400 25.88900
C  34.71000 0.83400 25.86800
C  34.40100 1.24100 27.26700
C  37.09700 1.18000 24.96700
C  33.64200 -0.21500 25.23600
C  33.10800 0.24700 23.86800
N  33.69900 1.92800 30.13100
C  32.77600 1.98600 29.10600
C  31.46300 2.48500 29.61500
C  31.79100 2.71300 31.01100
C  33.09000 2.31500 31.29600
C  30.23000 2.71700 28.92600
C  31.18100 3.20300 32.21300
O  30.12300 3.74100 32.38300
C  32.14100 2.94700 33.39000
C  32.22900 4.24400 34.10500
O  32.52600 5.32000 33.66400
O  31.66800 4.01600 35.35300
C  31.26000 5.19000 36.11200
H  38.75000 1.24500 33.58100
H  38.51400 -0.08900 27.19500
H  32.30100 1.48900 27.11800
H  35.02700 3.24900 35.17600
H  36.89800 1.04000 35.10800
H  36.99500 3.79700 35.90300
H  37.87200 3.94000 34.51300
H  38.51700 2.88500 35.64500
H  34.92000 0.22600 35.47700
H  33.41700 0.96300 35.08200
H  34.26700 0.65200 37.62900
H  32.94800 1.62200 37.03500
H  41.37200 1.32300 31.95100
H  41.57500 -0.45400 31.81400
H  40.60700 0.26300 33.13900
H  43.04200 -0.01500 28.43800
H  42.60300 -0.89800 29.94500
H  42.45100 0.79400 29.92200
H  36.24800 -0.71900 25.65600
H  34.72600 1.74100 25.26400
H  37.77500 0.58100 24.36000
H  37.63100 1.89100 25.59900
H  36.60200 1.68100 24.13500
H  32.74100 -0.29700 25.84500
H  34.09400 -1.20600 25.18800
H  33.65600 1.09700 23.46100
H  32.06200 0.53900 23.96900
H  33.04800 -0.51900 23.09500
H  30.39000 3.13300 27.93100
H  29.65600 3.48200 29.44800
H  29.69800 1.79300 28.69800
H  31.70400 2.19500 34.04700
H  32.08100 5.48800 36.76400
H  30.44500 4.74800 36.68400
H  30.95300 6.05500 35.52400
Mg 41.97800 41.21000 26.92900
C  40.65400 43.43900 29.13500
C  42.11000 38.80100 29.44800
C  43.58600 39.07700 24.83600
C  42.00600 43.65600 24.47500
N  41.36900 41.11800 28.99100
C  40.85300 42.18900 29.71100
C  40.80400 41.94000 31.27300
C  41.22900 40.46400 31.31200
C  41.63800 40.06600 29.83000
C  42.32200 40.13300 32.32700
C  39.41000 42.15300 31.94100
C  39.30700 42.64200 33.43100
H  38.53300 41.80700 34.49000
N  42.71400 39.21400 27.10200
C  42.55100 38.38200 28.17200
C  43.01900 37.02300 27.78600
C  43.43400 37.11800 26.42100
C  43.22800 38.51300 26.08900
C  42.96600 35.76600 28.76400
C  43.94600 36.01800 25.45600
O  44.15500 36.11500 24.23800
C  43.98000 34.54100 25.95700
N  42.57600 41.33400 24.84100
C  43.20200 40.30800 24.17100
C  43.68100 40.70900 22.79000
C  42.94900 42.06500 22.58200
C  42.51800 42.44500 24.07200
C  45.22100 40.81900 22.68900
C  41.71300 42.04300 21.60300
C  40.40800 41.36100 22.05800
N  41.43100 43.20300 26.80600
C  41.55400 44.06300 25.74700
C  41.15600 45.34300 26.17500
C  40.65700 45.17500 27.52200
C  40.94100 43.84600 27.87000
C  41.31600 46.60800 25.33900
C  40.14800 45.78600 28.71400
O  39.81500 46.96700 28.88600
C  40.20800 44.74300 29.85500
C  41.23500 45.34600 30.76500
O  42.34200 45.66500 30.51800
O  40.68900 45.69500 32.01600
C  41.57800 46.28100 33.00800
H  42.05700 38.08800 30.27300
H  44.15300 38.46000 24.13600
H  42.12600 44.40100 23.68600
H  41.52400 42.59000 31.77000
H  40.36900 39.82000 31.50100
H  42.50200 40.89400 33.08700
H  43.30800 40.07200 31.86500
H  42.11100 39.17800 32.80800
H  38.90400 41.18900 32.00200
H  38.82500 42.78500 31.27300
H  38.68900 43.52900 33.29800
H  40.30800 42.92100 33.75900
H  42.61700 34.96700 28.11000
H  42.25200 35.97100 29.56200
H  43.88700 35.71000 29.34500
H  44.52800 33.92600 25.24300
H  42.92900 34.25400 25.99000
H  44.56400 34.50100 26.87700
H  43.34200 40.06600 21.97800
H  43.64900 42.85600 22.31000
H  45.64800 41.79000 22.43800
H  45.57800 40.17900 21.88200
H  45.68200 40.50200 23.62400
H  41.99000 41.44100 20.73800
H  41.62200 43.07500 21.26600
H  40.60300 40.46600 22.64900
H  39.81700 41.03800 21.20100
H  39.80600 42.11300 22.56700
H  40.44100 46.62300 24.69000
H  42.27400 46.77000 24.84500
H  41.21200 47.46300 26.00800
H  39.29800 44.67700 30.45100
H  42.07200 45.47100 33.54500
H  41.04800 46.80600 33.80200
H  42.26500 47.05000 32.65300

