158

Mg 36.15100 48.78200 25.06500
C  36.28200 46.65600 27.85100
C  34.76600 51.20700 27.14600
C  35.38200 50.56600 22.25200
C  37.10600 46.04400 22.99700
N  35.37000 48.84700 27.25900
C  35.72400 47.86700 28.19400
C  35.51300 48.51700 29.61200
C  34.75000 49.86300 29.38400
C  34.99400 50.04500 27.89800
C  33.25800 49.82700 29.92900
C  36.87600 48.53100 30.35400
C  36.81600 48.79700 31.86400
H  35.44000 48.82900 32.62900
N  35.24700 50.63100 24.73700
C  34.85600 51.54400 25.72700
C  34.64200 52.81300 25.07700
C  34.71100 52.57900 23.69800
C  35.03400 51.20200 23.50600
C  34.41100 54.01500 25.88900
C  34.31300 53.57500 22.65300
O  34.11600 53.22500 21.44500
C  33.91800 54.99800 22.91100
N  36.08000 48.26400 23.00000
C  35.85800 49.28800 22.01900
C  36.25800 48.76000 20.58500
C  37.10000 47.47400 20.92000
C  36.79900 47.29600 22.39100
C  35.11400 48.47600 19.61700
C  38.61200 47.75400 20.93000
C  39.36000 47.50400 19.62000
N  36.61500 46.75200 25.28200
C  37.00900 45.73200 24.42000
C  37.25800 44.55300 25.16600
C  37.05900 44.87500 26.50500
C  36.52400 46.18600 26.49600
C  37.68400 43.17000 24.61400
C  37.04600 44.32800 27.77500
O  37.32300 43.21100 28.21600
C  36.69900 45.52200 28.78300
C  35.65900 45.02100 29.78200
O  34.49900 44.70600 29.57900
O  36.22600 44.94900 30.95600
C  35.22500 44.77700 32.06800
H  34.41100 51.96900 27.84200
H  35.24600 51.22100 21.38900
H  37.59200 45.31000 22.35200
H  34.81600 47.88400 30.16000
H  35.38900 50.61600 29.84500
H  32.48300 49.95300 29.17300
H  33.18700 50.68300 30.60000
H  33.04600 48.93300 30.51500
H  37.43300 49.39900 30.00200
H  37.55400 47.68500 30.24100
H  37.34200 49.70500 32.15800
H  37.24500 47.86200 32.22500
H  33.64600 54.66700 25.46800
H  35.25400 54.69000 25.74200
H  34.24300 53.82700 26.94900
H  32.94200 55.21700 23.34300
H  34.04300 55.41400 21.91100
H  34.69300 55.54800 23.44500
H  36.84400 49.54700 20.11200
H  36.93000 46.56700 20.34100
H  35.10300 47.40100 19.44100
H  35.40900 48.86500 18.64200
H  34.10700 48.77900 19.90400
H  39.14200 47.28200 21.75700
H  38.72000 48.82200 21.11900
H  38.78500 47.05600 18.81000
H  40.24800 46.90700 19.82400
H  39.62700 48.47300 19.19600
H  37.21900 43.08000 23.63200
H  37.29200 42.33700 25.19800
H  38.76300 43.04200 24.52800
H  37.62700 45.83200 29.26400
H  35.63700 45.34500 32.90200
H  35.00800 43.73400 32.30000
H  34.22400 45.13900 31.83200
Mg -5.34900 24.95300 26.12400
C  -3.98900 26.29300 29.12400
C  -6.93000 22.69100 28.06800
C  -6.48100 23.63700 23.34900
C  -3.02900 26.76400 24.34400
N  -5.53200 24.61200 28.40000
C  -4.91200 25.24000 29.38200
C  -5.41700 24.84400 30.73600
C  -6.18700 23.52200 30.42800
C  -6.26700 23.56300 28.88600
C  -5.62900 22.19700 31.06200
C  -6.25500 25.92700 31.47900
C  -5.86400 26.31500 32.86600
H  -5.01600 25.30100 33.76700
N  -6.64000 23.47100 25.74100
C  -7.24300 22.73700 26.70100
C  -8.37100 21.99000 26.12100
C  -8.18400 22.11700 24.72200
C  -7.04500 23.09500 24.53600
C  -9.35900 21.29300 27.03500
C  -8.95100 21.36600 23.63400
O  -8.84100 21.69700 22.45400
C  -9.63400 20.10900 23.99700
N  -4.74900 25.06500 24.06300
C  -5.36900 24.40700 23.08200
C  -4.84000 24.70700 21.63800
C  -3.62100 25.69000 22.04600
C  -3.86200 25.92600 23.56500
C  -4.37900 23.44200 20.91300
C  -3.72400 27.00600 21.14600
C  -2.54500 27.39800 20.13900
N  -3.85500 26.28200 26.63800
C  -2.95100 27.01500 25.75700
C  -2.13300 27.91100 26.53900
C  -2.50600 27.64200 27.87100
C  -3.49700 26.63500 27.90000
C  -1.09100 28.82700 26.02300
C  -2.23500 28.05500 29.26900
O  -1.48600 28.95400 29.74500
C  -3.11200 27.09500 30.17800
C  -2.05200 26.24700 30.81800
O  -1.57900 25.20500 30.43600
O  -1.67800 26.82900 31.95300
C  -0.47200 26.23900 32.61700
H  -7.34900 21.86800 28.65100
H  -6.97200 23.25500 22.45200
H  -2.27500 27.32600 23.78800
H  -4.54800 24.66200 31.36800
H  -7.18900 23.68700 30.82500
H  -5.26700 21.60000 30.22500
H  -6.31800 21.56900 31.62700
H  -4.79700 22.36400 31.74500
H  -7.20800 25.42000 31.62400
H  -6.36700 26.73100 30.75100
H  -6.78000 26.51200 33.42300
H  -5.25300 27.21600 32.81400
H  -9.55400 21.74300 28.00800
H  -9.22800 20.21400 26.95100
H  -10.27000 21.50200 26.47300
H  -10.64500 20.09400 24.40300
H  -8.90200 19.68200 24.68200
H  -9.72700 19.48500 23.10800
H  -5.59800 25.32300 21.15500
H  -2.68200 25.15900 21.88900
H  -3.32700 23.20600 21.07400
H  -4.55000 23.50800 19.83900
H  -4.90300 22.54900 21.25500
H  -3.79400 27.75500 21.93400
H  -4.65600 26.95300 20.58300
H  -2.87800 27.10700 19.14300
H  -1.64800 26.80500 20.32000
H  -2.34900 28.45700 20.31000
H  -1.50100 29.51400 25.28300
H  -0.39000 28.19200 25.48000
H  -0.74800 29.42600 26.86600
H  -3.71800 27.55300 30.96000
H  0.40700 26.73900 32.21100
H  -0.47900 25.15700 32.48000
H  -0.47700 26.40500 33.69400

