158

Mg 44.44700 4.52900 48.09500
C  42.41000 7.23800 47.38000
C  41.94500 2.33800 47.18900
C  46.70800 1.82400 47.82500
C  47.16600 6.74000 47.60500
N  42.42600 4.83400 47.30400
C  41.72200 5.97200 47.19800
C  40.32900 5.74800 46.75500
C  40.11700 4.18200 47.06500
C  41.62100 3.74400 47.13700
C  39.34100 3.88300 48.31800
C  40.10200 6.09200 45.24900
C  39.06400 7.12100 44.91200
H  39.50600 8.18900 43.94200
N  44.30700 2.32900 47.87200
C  43.13200 1.65600 47.46500
C  43.41300 0.33000 47.31600
C  44.81900 0.10500 47.36300
C  45.34600 1.42600 47.78700
C  42.29100 -0.58300 46.74600
C  45.54300 -1.16600 47.03200
O  44.91800 -2.24600 46.79500
C  46.96400 -1.25300 46.87400
N  46.66700 4.30300 47.75700
C  47.33600 3.08800 47.78400
C  48.83300 3.31500 47.58600
C  49.06500 4.89200 47.61700
C  47.56500 5.39600 47.60700
C  49.72300 2.55100 48.60400
C  49.96800 5.39300 46.49300
C  51.41400 5.69200 46.85100
N  44.80600 6.57200 47.75800
C  45.95700 7.29400 47.73700
C  45.61400 8.72900 47.62800
C  44.23800 8.81600 47.54300
C  43.76800 7.44900 47.62500
C  46.67700 9.85400 47.57300
C  43.03900 9.62300 47.36600
O  42.84600 10.80400 47.19700
C  41.82900 8.61300 47.37200
C  40.81100 8.86500 48.43400
O  40.90700 8.40800 49.56400
O  39.74600 9.71600 47.97000
C  38.58500 9.86300 48.92800
H  41.07200 1.70300 47.02500
H  47.47800 1.05200 47.77000
H  47.96300 7.46000 47.41100
H  39.57100 6.28100 47.32800
H  39.66000 3.71300 46.19400
H  40.05200 3.43300 49.01100
H  38.49900 3.24300 48.05500
H  39.08800 4.75500 48.92300
H  39.96800 5.20800 44.62500
H  40.98800 6.63100 44.91500
H  38.58500 7.53900 45.79700
H  38.27200 6.65900 44.32100
H  42.40700 -0.34000 45.69000
H  41.41600 -0.16700 47.24500
H  42.43100 -1.61800 47.05900
H  47.26400 -2.23200 46.50000
H  47.44200 -1.17800 47.85100
H  47.35200 -0.48600 46.20400
H  49.06200 2.96600 46.58000
H  49.50700 5.20300 48.56400
H  49.26500 1.65100 49.01500
H  50.14600 3.19600 49.37400
H  50.47700 2.09600 47.96200
H  49.56100 6.31800 46.08400
H  50.06700 4.59300 45.75900
H  52.00200 5.21600 46.06600
H  51.67600 5.39900 47.86800
H  51.56300 6.77200 46.88400
H  46.86200 10.04900 46.51700
H  47.58900 9.69000 48.14700
H  46.29500 10.69200 48.15600
H  41.20000 8.83100 46.50900
H  38.01300 8.93600 48.89300
H  38.01100 10.71400 48.56100
H  38.91700 10.02000 49.95500
Mg -12.61300 15.99400 42.05700
C  -9.66600 14.07200 41.66100
C  -10.98500 18.40100 40.06300
C  -15.48100 17.64000 41.50600
C  -14.34900 13.19900 42.99900
N  -10.46600 16.24000 40.92700
C  -9.48000 15.24900 40.91900
C  -8.24800 15.73400 40.02900
C  -8.80300 17.13200 39.51400
C  -10.22400 17.28400 40.18800
C  -7.87200 18.33000 39.96500
C  -7.77500 14.76600 38.89100
C  -6.22100 14.54800 38.76300
H  -5.52500 15.26100 37.59800
N  -13.11500 17.86000 41.14700
C  -12.29700 18.75400 40.47800
C  -12.92800 20.04900 40.33000
C  -14.26600 19.85900 40.78300
C  -14.29800 18.42200 41.18300
C  -12.22400 21.28400 40.00600
C  -15.39800 20.84900 40.95800
O  -15.24200 22.00800 40.62900
C  -16.72700 20.51900 41.71400
N  -14.65200 15.46000 42.16600
C  -15.68100 16.33400 41.96000
C  -16.98600 15.74300 42.47600
C  -16.54300 14.36800 43.09500
C  -15.13800 14.33400 42.66900
C  -17.92800 16.64500 43.34100
C  -17.40300 13.11000 42.77700
C  -18.94000 13.22300 42.89300
N  -12.17500 14.06400 42.29300
C  -12.98100 13.03100 42.78200
C  -12.11400 11.89600 43.04900
C  -10.80500 12.31700 42.62200
C  -10.91100 13.55500 42.10500
C  -12.45200 10.51100 43.66400
C  -9.41300 11.82600 42.45900
O  -8.83900 10.78900 42.78500
C  -8.60200 12.95000 41.68100
C  -7.52400 13.40600 42.56300
O  -7.59200 13.55100 43.79000
O  -6.33600 13.55100 41.85200
C  -5.16500 14.15300 42.56000
H  -10.46500 19.24100 39.59800
H  -16.42200 18.18000 41.37400
H  -14.90100 12.31900 43.33600
H  -7.54500 15.80300 40.86000
H  -8.88400 17.14700 38.42800
H  -6.94400 17.98500 40.42100
H  -8.37200 19.09900 40.55500
H  -7.61000 18.95800 39.11400
H  -8.20900 15.05700 37.93500
H  -8.27000 13.79600 38.94300
H  -5.97100 13.49400 38.88700
H  -5.67500 14.91200 39.63300
H  -12.92000 21.73400 39.29800
H  -11.18700 21.18500 39.68500
H  -12.20300 21.90600 40.90100
H  -17.20700 19.92700 40.93400
H  -17.22300 21.47700 41.86800
H  -16.50900 19.96500 42.62700
H  -17.55800 15.38300 41.62100
H  -16.57100 14.56400 44.16700
H  -17.52700 17.65700 43.39800
H  -17.98200 16.25300 44.35700
H  -18.91800 16.72600 42.89200
H  -17.04100 12.43600 43.55300
H  -17.15100 12.59100 41.85200
H  -19.41000 12.28100 42.61300
H  -19.30100 13.93800 42.15300
H  -19.22700 13.47500 43.91300
H  -12.25300 9.72900 42.93100
H  -13.46100 10.43000 44.06800
H  -11.79400 10.44600 44.52900
H  -8.24400 12.39100 40.81700
H  -4.35100 13.48600 42.27700
H  -5.35800 14.19000 43.63300
H  -5.02600 15.14800 42.13800

