158

Mg 16.82800 -1.65200 27.48700
C  15.67600 0.51100 29.94000
C  18.67800 -3.19100 29.98400
C  18.48100 -3.27100 25.20800
C  15.33300 0.24700 25.10800
N  17.23200 -1.27200 29.70900
C  16.52200 -0.39800 30.49000
C  16.88300 -0.54400 31.97800
C  17.99400 -1.64600 31.93400
C  18.02700 -2.05700 30.45800
C  19.47400 -1.15100 32.37600
C  15.65300 -0.94200 32.88200
C  15.64500 -0.29400 34.31500
H  16.93600 0.34400 34.91300
N  18.13700 -3.26900 27.58600
C  18.69400 -3.82000 28.70900
C  19.24600 -5.09700 28.43600
C  19.48700 -4.95300 27.00700
C  18.74700 -3.77800 26.50700
C  19.59200 -6.10400 29.47600
C  20.32400 -5.95500 26.14900
O  20.58500 -5.83200 24.94300
C  20.96200 -7.09300 26.76600
N  16.83400 -1.53300 25.45500
C  17.59500 -2.36200 24.63500
C  17.53100 -1.99800 23.15300
C  16.40800 -0.95300 23.17100
C  16.15200 -0.75900 24.64700
C  18.93000 -1.53900 22.61800
C  15.17700 -1.14300 22.28200
C  14.80000 0.14200 21.48500
N  15.58700 0.01000 27.53100
C  15.04300 0.61900 26.45300
C  14.18300 1.69900 26.86400
C  14.33000 1.67600 28.26000
C  15.26000 0.67300 28.61000
C  13.40600 2.65300 26.01000
C  13.90400 2.34800 29.51300
O  13.18900 3.37400 29.64600
C  14.71800 1.56100 30.61500
C  15.43600 2.50900 31.49000
O  16.52400 2.98500 31.24300
O  14.62800 2.80000 32.59100
C  15.16200 3.88600 33.40800
H  19.04400 -3.85800 30.76800
H  19.18700 -3.78800 24.55500
H  14.79900 0.78900 24.32500
H  17.25900 0.44400 32.24400
H  17.75600 -2.50800 32.55700
H  19.52100 -0.33800 33.10000
H  20.02200 -0.74500 31.52600
H  19.94900 -2.00800 32.85300
H  15.63700 -2.02700 32.98200
H  14.85200 -0.57000 32.24300
H  15.26800 -1.06200 34.99000
H  14.96200 0.55200 34.24200
H  19.19200 -7.05200 29.11700
H  19.12600 -5.89600 30.43900
H  20.65600 -6.03600 29.70000
H  21.42900 -6.80300 27.70800
H  21.79400 -7.30400 26.09400
H  20.36700 -8.00400 26.82400
H  17.21400 -2.81300 22.50300
H  16.92800 -0.05400 22.83800
H  19.57700 -1.46100 23.49200
H  18.89200 -0.57100 22.11800
H  19.32900 -2.25500 21.90000
H  14.31800 -1.32000 22.92900
H  15.26500 -2.04200 21.67100
H  15.75100 0.54100 21.13300
H  14.32700 0.79300 22.22000
H  14.17200 0.04800 20.59900
H  13.96200 3.58400 25.90000
H  12.44200 2.85600 26.47600
H  13.34900 2.13100 25.05500
H  13.93300 0.98400 31.10500
H  16.24100 3.85800 33.56100
H  14.73300 3.88500 34.41000
H  15.05000 4.88500 32.98800
Mg -2.01300 34.50500 27.16200
C  -3.65900 32.36400 29.51600
C  -0.81700 36.26200 29.88500
C  -0.66200 36.55100 24.92600
C  -3.53900 32.59600 24.60900
N  -2.28900 34.39700 29.46200
C  -3.00000 33.44900 30.16800
C  -2.85600 33.65200 31.68100
C  -2.11600 35.05600 31.73500
C  -1.74300 35.22200 30.30800
C  -2.84500 36.31300 32.33800
C  -2.04300 32.46600 32.34800
C  -2.62300 31.82600 33.63000
H  -1.85900 31.85200 34.98200
N  -0.86000 36.02800 27.40900
C  -0.40800 36.59500 28.57400
C  0.64000 37.57100 28.27800
C  0.57800 37.72900 26.85400
C  -0.37800 36.76200 26.32000
C  1.62800 38.07600 29.32400
C  1.44300 38.72100 25.94600
O  1.32800 38.89000 24.72700
C  2.52400 39.59300 26.63400
N  -2.19400 34.65500 25.01100
C  -1.55700 35.62100 24.33400
C  -1.81100 35.49200 22.76200
C  -2.42100 34.03300 22.68700
C  -2.77000 33.71000 24.20100
C  -2.83300 36.52200 22.25900
C  -1.60500 32.93600 22.01700
C  -2.36700 31.67200 21.55600
N  -3.44200 32.92900 27.04600
C  -3.93200 32.20100 25.93100
C  -4.74500 31.07500 26.37300
C  -4.67900 31.08100 27.79600
C  -3.86600 32.21600 28.15600
C  -5.50400 30.05300 25.49900
C  -5.16900 30.43900 29.05600
O  -5.87000 29.51200 29.17400
C  -4.43200 31.24200 30.15200
C  -5.39300 31.66300 31.10200
O  -6.18700 32.56200 30.99700
O  -5.48600 30.78400 32.14600
C  -6.45500 31.04300 33.25300
H  -0.52200 36.92900 30.69700
H  -0.25600 37.32200 24.26700
H  -3.98200 31.85000 23.94600
H  -3.84600 33.70900 32.13400
H  -1.22800 34.87200 32.33900
H  -2.46100 36.66500 33.29500
H  -3.81900 35.88800 32.58100
H  -2.96700 37.08600 31.57900
H  -1.02100 32.72500 32.62500
H  -1.91400 31.66900 31.61500
H  -2.74700 30.79600 33.29500
H  -3.63600 32.15200 33.86400
H  2.58400 37.55200 29.33700
H  1.34900 37.93600 30.36800
H  1.86900 39.12700 29.16700
H  2.09500 40.39000 27.24100
H  3.20600 40.05600 25.92100
H  2.97500 38.80600 27.23800
H  -0.88500 35.48800 22.18700
H  -3.35900 34.06200 22.13400
H  -3.59600 36.52400 23.03700
H  -3.32000 36.30500 21.30800
H  -2.52500 37.56800 22.23000
H  -0.81600 32.63600 22.70700
H  -1.03500 33.44700 21.24000
H  -3.44800 31.73600 21.43800
H  -2.06300 30.95600 22.32000
H  -1.86000 31.29100 20.67000
H  -5.02800 29.73500 24.57100
H  -6.47700 30.53000 25.38000
H  -5.72100 29.18200 26.11700
H  -3.73000 30.57900 30.65700
H  -5.99600 31.76200 33.93300
H  -6.72400 30.09900 33.72600
H  -7.31000 31.48400 32.74000

