158

Mg 17.52800 -2.28100 27.26500
C  16.68700 -0.40500 30.07400
C  19.47900 -4.23900 29.32800
C  18.93600 -3.79600 24.41800
C  16.02200 0.08700 25.22100
N  18.17100 -2.09800 29.43100
C  17.53000 -1.46200 30.44300
C  17.97900 -1.90200 31.86000
C  18.98900 -3.06800 31.54000
C  18.86300 -3.18300 29.99100
C  20.39500 -2.65200 31.97200
C  16.79700 -2.32100 32.74200
C  16.91100 -1.73900 34.15300
H  18.23100 -1.41800 34.76900
N  18.82500 -3.86600 26.89700
C  19.54000 -4.54100 27.89300
C  20.35900 -5.64500 27.26700
C  20.07700 -5.62200 25.86700
C  19.25300 -4.39000 25.65400
C  21.14700 -6.63200 28.05300
C  20.53700 -6.53500 24.73000
O  20.10200 -6.35900 23.57000
C  21.37500 -7.78700 24.99100
N  17.38700 -1.99700 25.07800
C  18.15300 -2.64500 24.15600
C  17.98000 -1.95200 22.76300
C  17.02200 -0.77900 23.05900
C  16.79600 -0.92600 24.54800
C  19.38200 -1.61200 22.13600
C  15.72200 -0.67000 22.15600
C  14.56100 -1.51500 22.71700
N  16.39300 -0.65000 27.51100
C  15.78200 0.20600 26.61900
C  15.00000 1.21200 27.33800
C  15.39500 0.98300 28.66300
C  16.27500 -0.10400 28.73800
C  14.02900 2.15200 26.67100
C  15.09500 1.47900 30.03200
O  14.25500 2.30500 30.40700
C  15.97600 0.59800 30.98600
C  16.85000 1.42800 31.85500
O  17.88900 1.94900 31.52100
O  16.42100 1.51900 33.14400
C  17.12500 2.61700 33.91500
H  20.08600 -4.92100 29.92600
H  19.43000 -4.22800 23.54600
H  15.68700 0.86300 24.52900
H  18.38900 -0.99800 32.31100
H  18.85700 -4.00100 32.08800
H  21.00700 -2.80900 31.08400
H  20.66900 -3.26600 32.83000
H  20.50300 -1.60400 32.24900
H  16.65200 -3.39700 32.83500
H  15.94200 -1.83100 32.27500
H  16.31600 -2.39800 34.78500
H  16.28100 -0.85500 34.05400
H  20.50400 -7.46100 28.34700
H  21.52400 -6.14600 28.95300
H  21.97300 -7.11500 27.53100
H  20.87400 -8.48200 25.66500
H  22.32500 -7.44100 25.39600
H  21.66600 -8.21300 24.03100
H  17.45600 -2.71800 22.19000
H  17.45600 0.19900 22.85500
H  19.55200 -2.34900 21.35100
H  20.09100 -1.65500 22.96300
H  19.42000 -0.60900 21.71200
H  15.97700 -0.98200 21.14300
H  15.33300 0.34600 22.10700
H  13.86700 -0.79800 23.15700
H  14.84800 -2.29400 23.42300
H  14.00900 -1.92700 21.87300
H  13.56100 1.61500 25.84600
H  14.57900 3.00400 26.27100
H  13.26200 2.41200 27.40100
H  15.27800 0.10900 31.66500
H  16.64400 2.84000 34.86700
H  17.09000 3.52800 33.31700
H  18.17100 2.31700 33.97300
Mg 26.29400 51.15200 26.18600
C  24.18000 52.31600 28.73600
C  28.61000 50.50400 28.74900
C  28.78500 50.95300 23.88200
C  24.20200 52.66200 23.90200
N  26.33200 51.44700 28.45500
C  25.33100 51.80800 29.25900
C  25.57500 51.43200 30.75600
C  27.10500 51.20800 30.70100
C  27.39600 50.99000 29.17900
C  27.95800 52.31000 31.44800
C  24.76300 50.23700 31.23200
C  25.20600 49.54300 32.51000
H  24.41700 49.84800 33.82000
N  28.34100 50.56900 26.30200
C  29.12100 50.29300 27.41000
C  30.45500 49.98500 27.03000
C  30.46300 50.02400 25.59200
C  29.17500 50.54500 25.22600
C  31.52900 49.55800 27.95600
C  31.59000 49.62500 24.62600
O  31.51300 49.82600 23.37400
C  32.85300 48.98700 25.17900
N  26.46800 51.72100 24.19800
C  27.60000 51.42300 23.43500
C  27.19900 51.56100 21.94800
C  25.86100 52.40800 21.97100
C  25.47700 52.26100 23.44300
C  28.24800 52.28200 21.12500
C  24.83200 51.88400 20.97600
C  24.23900 52.99100 20.08200
N  24.45200 52.12100 26.19700
C  23.67400 52.56400 25.18900
C  22.39500 53.01700 25.72500
C  22.60500 52.98600 27.08800
C  23.87500 52.44700 27.35400
C  21.18100 53.51600 24.98900
C  21.97100 53.24400 28.36300
O  20.82900 53.65700 28.55500
C  22.92900 52.70800 29.44100
C  23.12300 53.68700 30.49200
O  23.85500 54.65800 30.49400
O  22.34300 53.27400 31.51900
C  22.43300 53.74900 32.90400
H  29.28100 50.36300 29.59900
H  29.38500 50.65000 23.02100
H  23.41000 52.98300 23.22200
H  25.26600 52.31300 31.31900
H  27.44400 50.26700 31.13300
H  28.34700 51.80400 32.33300
H  27.26600 53.12800 31.64800
H  28.71100 52.72500 30.77800
H  24.69200 49.57600 30.36800
H  23.71300 50.50600 31.35300
H  26.25500 49.75400 32.71500
H  25.14700 48.46900 32.33400
H  31.15100 49.52500 28.97700
H  32.51800 50.00200 27.84100
H  31.69300 48.49400 27.78600
H  33.54800 48.75800 24.37100
H  32.53300 47.99400 25.49400
H  33.27400 49.66200 25.92400
H  26.95700 50.58300 21.53100
H  26.01700 53.47700 21.82300
H  28.94200 52.87900 21.71700
H  27.66300 52.95300 20.49500
H  28.76600 51.45800 20.63500
H  23.95600 51.40700 21.41600
H  25.37200 51.19300 20.32800
H  23.17900 52.74000 20.03400
H  24.62700 52.93300 19.06500
H  24.45200 53.99700 20.44300
H  20.34100 53.09800 25.54400
H  21.18600 53.19300 23.94800
H  21.16500 54.60200 24.90100
H  22.49200 51.82800 29.91200
H  23.17100 53.22700 33.51200
H  21.48000 53.73900 33.43400
H  22.76700 54.78300 32.98000

