158

Mg 48.80700 34.03000 26.83400
C  47.07000 32.89100 29.60600
C  49.14300 37.14000 28.61000
C  50.02800 35.48800 24.07600
C  47.80700 31.29500 25.03300
N  48.23400 34.90900 28.93400
C  47.57400 34.14700 29.88800
C  47.61500 34.89100 31.18400
C  47.90400 36.40300 30.80300
C  48.53900 36.17100 29.40900
C  46.69400 37.41500 30.73400
C  48.88200 34.32400 31.89600
C  49.19400 34.59500 33.41500
H  48.12100 35.34000 34.17100
N  49.80000 35.87400 26.49800
C  49.76400 37.01500 27.31300
C  50.32200 38.14000 26.57000
C  50.68800 37.69000 25.31500
C  50.09600 36.33400 25.21100
C  50.37400 39.58400 27.05100
C  51.41800 38.39400 24.17000
O  51.82300 37.79900 23.17600
C  51.71200 39.82800 24.09400
N  48.92800 33.48100 24.89800
C  49.61300 34.19600 23.91500
C  49.75300 33.35400 22.56300
C  49.20800 31.94100 23.02700
C  48.54500 32.25400 24.35500
C  49.03800 33.99500 21.33400
C  50.13500 30.75600 22.91500
C  50.69900 30.16100 24.23100
N  47.70400 32.41000 27.16600
C  47.35400 31.29900 26.36900
C  46.55000 30.38100 27.03200
C  46.36200 30.99800 28.29500
C  47.16000 32.16900 28.33400
C  45.92600 29.02600 26.64900
C  45.71900 30.79600 29.53400
O  45.02200 29.87100 29.99000
C  46.02900 32.07400 30.36600
C  46.45800 31.62200 31.78700
O  47.52500 31.12000 32.15800
O  45.33900 31.74500 32.60400
C  45.49100 31.51800 34.01700
H  49.25700 38.13400 29.04700
H  50.37300 35.92300 23.13500
H  47.50000 30.35600 24.56700
H  46.72700 34.76900 31.80500
H  48.72400 36.86500 31.35300
H  46.64400 38.04000 31.62500
H  45.76500 36.89700 30.49500
H  46.73900 38.16600 29.94600
H  49.79400 34.69100 31.42700
H  48.84200 33.24200 31.76500
H  50.16300 35.09400 33.43500
H  49.23700 33.63000 33.91800
H  51.34800 39.98000 26.76400
H  50.35500 39.68900 28.13600
H  49.55900 40.17000 26.62600
H  50.92500 40.43500 24.54300
H  51.81100 40.21400 23.07900
H  52.67900 39.83000 24.59700
H  50.81100 33.27600 22.31200
H  48.38700 31.77500 22.33000
H  48.91900 35.07800 21.31800
H  48.03400 33.59900 21.18300
H  49.67600 33.73500 20.48900
H  50.98600 30.88300 22.24700
H  49.58700 29.90600 22.50800
H  50.04000 29.30700 24.39000
H  50.60600 30.82400 25.09100
H  51.75400 29.91900 24.10300
H  46.30500 28.71500 25.67500
H  44.84000 29.11800 26.64400
H  46.31500 28.36200 27.42100
H  45.23200 32.81500 30.43500
H  44.77400 32.19300 34.48500
H  46.49500 31.73800 34.37800
H  45.33400 30.47900 34.31000
Mg 26.54400 49.82100 26.85400
C  24.47300 51.04900 29.36100
C  28.84400 49.01600 29.20700
C  28.53100 48.86300 24.29800
C  24.04500 50.91600 24.57300
N  26.62500 50.08700 29.04400
C  25.68000 50.53500 29.94500
C  26.06700 50.17800 31.39100
C  27.59500 49.82200 31.27300
C  27.71700 49.66300 29.72700
C  28.57100 50.83900 31.93500
C  25.19800 49.09600 32.01200
C  24.56500 49.14600 33.46800
H  25.25600 49.95600 34.50900
N  28.42100 48.95500 26.78800
C  29.20900 48.71700 27.86500
C  30.47900 48.26600 27.41800
C  30.44300 48.21800 25.99600
C  29.10000 48.73500 25.60700
C  31.57800 47.98200 28.40500
C  31.48100 47.80000 24.97400
O  31.31100 47.85000 23.79500
C  32.80900 47.39000 25.48500
N  26.31200 49.92900 24.74900
C  27.23800 49.37700 23.94800
C  26.76700 49.43300 22.51600
C  25.32800 50.01000 22.53400
C  25.17300 50.26800 24.03200
C  27.75900 50.17000 21.65900
C  24.21600 49.12900 21.97400
C  24.17800 47.74000 22.62100
N  24.75300 50.94400 26.88000
C  23.79600 51.18600 25.88900
C  22.65900 51.94800 26.39700
C  22.83200 51.91400 27.77200
C  24.11800 51.24600 28.02100
C  21.53700 52.53100 25.56400
C  22.24400 52.12800 29.08300
O  21.13500 52.69600 29.38300
C  23.23600 51.53000 30.21700
C  23.40500 52.51600 31.30300
O  24.40800 53.07100 31.63600
O  22.23200 52.53200 32.04700
C  22.28800 53.41500 33.28800
H  29.57900 48.75500 29.97100
H  29.09400 48.43900 23.46400
H  23.29500 51.14900 23.81400
H  26.13000 51.07500 32.00800
H  27.69700 48.82900 31.71000
H  28.11100 51.80900 32.12000
H  29.54400 50.95600 31.45800
H  28.95500 50.34100 32.82500
H  25.73100 48.14600 32.05700
H  24.28900 49.13800 31.41100
H  24.49900 48.10700 33.79200
H  23.62900 49.68800 33.33400
H  31.67600 46.90500 28.53900
H  31.51900 48.54800 29.33400
H  32.42700 48.39600 27.86100
H  33.46800 46.93500 24.74500
H  32.59700 46.74500 26.33900
H  33.25300 48.32800 25.81600
H  26.87900 48.36600 22.32200
H  25.28800 50.89500 21.90000
H  28.36900 49.47900 21.07700
H  28.48800 50.70200 22.27000
H  27.26300 50.83600 20.95200
H  24.52300 49.20400 20.93100
H  23.28300 49.69200 21.95300
H  24.58600 47.77000 23.63100
H  24.81200 47.10400 22.00400
H  23.17700 47.31500 22.69500
H  20.64500 52.53600 26.18900
H  21.34100 51.75600 24.82200
H  21.70200 53.42300 24.95900
H  22.83700 50.61100 30.64600
H  21.35900 53.41800 33.85700
H  22.57200 54.45800 33.14400
H  22.89700 52.92900 34.05000

