158

Mg 48.44900 34.60200 26.65100
C  46.59500 32.94500 29.15500
C  49.09600 37.08700 28.75300
C  49.92000 36.16700 24.04300
C  47.68000 31.85300 24.56100
N  47.84200 34.95500 28.69200
C  47.13000 34.19200 29.52800
C  47.31500 34.62200 30.86600
C  47.79500 36.10100 30.70200
C  48.32200 36.03600 29.28400
C  46.82300 37.27000 30.83600
C  48.41200 33.76700 31.56700
C  48.32500 33.85600 33.15000
H  47.52300 34.92100 33.88600
N  49.48800 36.38100 26.43700
C  49.62200 37.28200 27.45600
C  50.39800 38.39900 26.98600
C  50.61600 38.19800 25.54600
C  50.00300 36.87200 25.25300
C  50.74200 39.59500 27.91500
C  51.11500 39.15400 24.42900
O  50.91200 38.96100 23.23500
C  51.63700 40.61900 24.84200
N  48.71100 34.14500 24.53900
C  49.47900 34.86400 23.74600
C  49.53800 34.22700 22.31000
C  48.87800 32.82500 22.44300
C  48.43200 32.90400 23.96400
C  48.93000 35.09200 21.11700
C  49.85400 31.61500 22.25000
C  49.14700 30.31700 21.79300
N  47.47100 32.78000 26.80500
C  47.24100 31.77800 25.84700
C  46.45400 30.70400 26.41900
C  46.16900 31.16200 27.69900
C  46.78800 32.39800 27.87600
C  45.97100 29.51900 25.70200
C  45.35200 30.81300 28.88500
O  44.58300 29.86100 29.12900
C  45.51000 32.03700 29.81400
C  45.74800 31.60100 31.20300
O  46.58100 30.82100 31.59800
O  44.73600 32.05900 31.92800
C  44.68000 31.64500 33.35900
H  49.26900 37.83800 29.52600
H  50.35100 36.63700 23.15700
H  47.58200 30.93600 23.97600
H  46.34200 34.57300 31.35400
H  48.70200 36.34700 31.25400
H  45.97000 37.00500 31.46000
H  46.48400 37.63000 29.86400
H  47.34000 38.01800 31.43700
H  49.39600 34.21800 31.44000
H  48.32700 32.69000 31.42000
H  49.38200 33.83700 33.41600
H  47.83300 32.93000 33.44600
H  51.80500 39.82300 27.84000
H  50.47500 39.37000 28.94800
H  50.24400 40.47200 27.50100
H  51.38600 41.36200 24.08500
H  52.70000 40.56300 25.07700
H  51.21200 40.96000 25.78500
H  50.60200 34.08900 22.11800
H  48.01800 32.63500 21.80000
H  49.65600 35.27400 20.32400
H  48.47400 35.98500 21.54200
H  48.10600 34.50100 20.71800
H  50.35500 31.41900 23.19800
H  50.54500 31.96200 21.48200
H  49.41100 30.03300 20.77400
H  48.06300 30.42000 21.76300
H  49.33700 29.54100 22.53500
H  46.30900 28.58900 26.15900
H  46.16400 29.56200 24.63000
H  44.88700 29.53500 25.82000
H  44.63700 32.68800 29.79000
H  45.22100 32.46200 33.83700
H  45.20200 30.73200 33.65000
H  43.62400 31.58700 33.62100
Mg 5.82700 54.44600 40.34400
C  4.65800 51.10700 40.24000
C  9.00300 53.40000 40.12700
C  6.60500 57.77100 40.17900
C  2.34300 55.38300 40.47600
N  6.77800 52.44600 40.04000
C  6.06700 51.19800 40.07000
C  7.10300 50.06400 39.97500
C  8.55700 50.79300 40.21700
C  8.12500 52.28500 40.26600
C  9.37900 50.36700 41.43000
C  7.09200 49.29700 38.58400
C  7.35700 50.09200 37.34300
H  6.38500 49.94800 36.14500
N  7.51300 55.45700 39.91900
C  8.78200 54.77600 39.96100
C  9.81700 55.82000 39.83400
C  9.22400 57.06700 39.91100
C  7.72200 56.80700 40.00100
C  11.31700 55.61000 39.80800
C  9.89200 58.40800 39.84200
O  11.06500 58.57000 39.85600
C  9.12300 59.63800 39.85200
N  4.56700 56.30900 39.98300
C  5.21100 57.52100 40.23700
C  4.14700 58.67000 40.32600
C  2.78200 57.90500 40.19400
C  3.23400 56.38300 40.19700
C  4.32500 59.64800 41.53200
C  1.89600 58.35000 39.01700
C  0.43200 58.90900 39.28900
N  3.91200 53.53800 40.47500
C  2.62200 54.03700 40.52900
C  1.63800 53.01600 40.76700
C  2.42800 51.82700 40.72200
C  3.76100 52.21300 40.45900
C  0.27700 53.33000 41.09200
C  2.37900 50.41000 40.80900
O  1.41500 49.61800 40.96000
C  3.80100 49.86100 40.48500
C  3.62100 49.09200 39.21800
O  3.37100 49.54700 38.12600
O  4.00800 47.78600 39.55300
C  3.91800 46.76000 38.55300
H  10.05900 53.18300 39.95300
H  6.78900 58.82800 40.38000
H  1.34700 55.72000 40.77100
H  6.99600 49.33600 40.77900
H  9.22400 50.64100 39.36900
H  9.39700 51.22300 42.10500
H  10.41400 50.18700 41.13900
H  9.06800 49.42800 41.88700
H  6.08800 48.88200 38.50000
H  7.72000 48.40600 38.59700
H  8.37400 49.82900 37.05200
H  7.29400 51.15200 37.58600
H  11.71100 55.71600 40.81900
H  11.92900 56.09400 39.04700
H  11.42900 54.54400 39.61000
H  9.72800 60.54300 39.81100
H  8.41500 59.78500 40.66700
H  8.45000 59.65000 38.99500
H  4.18900 59.30700 39.44300
H  2.13200 58.00800 41.06300
H  3.36900 59.89900 41.99200
H  4.67200 60.64200 41.25300
H  5.01600 59.16600 42.22500
H  1.81900 57.55300 38.27700
H  2.41400 59.14300 38.47900
H  0.37600 59.93700 38.93100
H  0.27600 58.80400 40.36200
H  -0.33300 58.31600 38.78600
H  -0.42900 52.50000 41.05900
H  -0.07300 54.03100 40.33400
H  0.12500 53.75100 42.08600
H  4.12600 49.24400 41.32300
H  3.85600 47.22700 37.57000
H  3.01600 46.15800 38.66600
H  4.77200 46.08200 38.54500

