158

Mg 48.25900 34.16800 26.13900
C  46.75800 32.94500 29.02900
C  48.90300 37.18400 27.89900
C  49.89100 35.31800 23.43400
C  47.37100 31.25500 24.43600
N  47.93500 34.90400 28.27900
C  47.34600 34.20700 29.27400
C  47.57200 34.97500 30.63300
C  47.98700 36.43800 30.12700
C  48.28400 36.17500 28.70900
C  46.86200 37.48800 30.30300
C  48.70600 34.48300 31.56000
C  48.68200 34.78200 33.03800
H  47.37200 35.32800 33.62000
N  49.13800 36.03900 25.69500
C  49.32100 37.14200 26.51200
C  49.98800 38.25500 25.84500
C  50.23700 37.75100 24.53700
C  49.74700 36.29200 24.45100
C  50.32400 39.53800 26.52000
C  50.76500 38.51200 23.36900
O  50.78500 38.06600 22.25700
C  51.31100 39.87200 23.51700
N  48.39200 33.43700 24.06100
C  49.33400 34.02600 23.22000
C  49.48900 33.21100 21.98700
C  48.59400 31.89800 22.26600
C  48.03200 32.22700 23.66700
C  49.20100 33.94100 20.63100
C  49.23100 30.49800 22.04100
C  48.91100 29.72000 20.75100
N  47.25000 32.44300 26.61700
C  46.95200 31.39300 25.81000
C  46.11900 30.42300 26.55200
C  46.00400 31.00700 27.79300
C  46.68900 32.22800 27.82900
C  45.62400 29.11400 26.00500
C  45.44000 30.83300 29.02900
O  44.67700 29.97300 29.49000
C  45.98800 31.97900 29.98000
C  46.83500 31.33700 30.99000
O  47.93800 30.91700 30.70400
O  46.23000 31.35200 32.25100
C  47.00200 30.63500 33.24100
H  49.09900 38.09800 28.46300
H  50.54700 35.60200 22.60800
H  46.96800 30.35200 23.97400
H  46.61300 34.97500 31.15100
H  48.87400 36.78700 30.65500
H  46.57500 37.99400 29.38100
H  47.19000 38.32400 30.92100
H  45.95100 37.06400 30.72600
H  49.65500 34.88800 31.21000
H  48.92100 33.42800 31.39500
H  49.51600 35.45700 33.23100
H  48.88300 33.78900 33.43900
H  50.46800 39.53800 27.60000
H  49.71100 40.37300 26.18000
H  51.33900 39.86300 26.28900
H  50.56700 40.60200 23.83600
H  51.91200 40.12500 22.64300
H  52.09900 39.86900 24.27100
H  50.55300 32.99900 21.88400
H  47.72400 31.95100 21.61100
H  48.61400 33.22400 20.05500
H  50.11500 34.11500 20.06200
H  48.70600 34.89100 20.83200
H  49.03100 29.77100 22.82800
H  50.32100 30.50900 22.04900
H  48.38300 30.49900 20.20200
H  48.30900 28.85400 21.02700
H  49.86100 29.44100 20.29300
H  46.35900 28.33600 26.21000
H  45.39900 29.10600 24.93800
H  44.64500 28.96600 26.45900
H  45.18200 32.48100 30.51500
H  46.68000 30.91700 34.24400
H  48.02800 30.95700 33.06700
H  46.83200 29.57900 33.03000
Mg -5.03000 25.41700 25.93800
C  -4.11300 26.85100 28.84900
C  -6.92700 23.09600 27.80700
C  -5.34100 23.46500 23.18100
C  -3.03700 27.63100 24.15600
N  -5.55600 25.03100 28.05600
C  -5.09700 25.84300 29.03400
C  -5.91200 25.63200 30.33400
C  -6.70300 24.31100 30.02900
C  -6.35800 24.08500 28.55000
C  -6.43600 23.11600 30.93800
C  -6.75700 26.86100 30.76600
C  -6.60100 27.27700 32.24400
H  -6.04100 26.28000 33.28600
N  -6.01900 23.48900 25.48900
C  -6.82400 22.80900 26.37600
C  -7.46100 21.71300 25.62200
C  -6.96100 21.78000 24.30600
C  -6.01700 22.87200 24.31700
C  -8.50600 20.77600 26.25800
C  -7.28400 20.93100 23.10100
O  -6.82400 21.15600 22.00400
C  -8.26500 19.75200 23.26800
N  -4.30100 25.46900 23.99500
C  -4.50900 24.54500 22.98900
C  -3.86400 24.98100 21.65900
C  -3.37500 26.44700 21.96700
C  -3.66500 26.56500 23.46300
C  -2.76600 23.95900 21.12300
C  -4.05500 27.55500 21.18100
C  -5.56400 27.70300 21.42200
N  -3.85100 26.95600 26.34200
C  -3.13400 27.79700 25.50600
C  -2.45600 28.71000 26.31200
C  -2.81600 28.45100 27.61800
C  -3.68200 27.35400 27.59200
C  -1.62200 29.78500 25.79500
C  -2.63900 28.88900 28.94300
O  -1.93500 29.76700 29.48000
C  -3.45600 27.76800 29.84300
C  -2.69800 27.16300 31.02200
O  -2.02200 26.15700 30.98300
O  -2.87400 28.00800 32.13400
C  -2.23500 27.69300 33.40600
H  -7.46800 22.33500 28.37400
H  -5.52800 22.97200 22.22400
H  -2.31700 28.25400 23.62000
H  -5.07800 25.48000 31.01900
H  -7.76200 24.56100 30.10000
H  -7.32800 22.72700 31.42700
H  -5.72100 23.46600 31.68400
H  -6.01000 22.27800 30.38600
H  -7.79400 26.69800 30.47100
H  -6.28000 27.66600 30.20900
H  -7.60200 27.56800 32.56000
H  -5.80200 28.01900 32.24500
H  -8.24600 19.72900 26.10900
H  -9.52500 20.88900 25.88800
H  -8.40900 20.90400 27.33600
H  -7.80900 18.91800 23.80200
H  -8.57600 19.35800 22.30000
H  -9.21100 20.11300 23.67000
H  -4.72900 25.05500 21.00000
H  -2.31100 26.67700 21.90400
H  -3.15700 23.23500 20.40800
H  -2.46300 23.34900 21.97500
H  -1.93600 24.42700 20.59500
H  -4.00000 27.44800 20.09800
H  -3.55600 28.47600 21.48400
H  -6.15800 27.67100 20.50900
H  -5.56400 28.72400 21.80400
H  -6.04300 27.01800 22.12200
H  -0.79200 29.39200 25.20900
H  -1.22800 30.19400 26.72500
H  -2.26000 30.48500 25.25400
H  -4.22900 28.42100 30.24900
H  -1.19700 28.02400 33.43700
H  -2.29000 26.64300 33.69100
H  -2.75500 28.21200 34.21200

