158

Mg 47.41100 15.81500 28.31200
C  45.46600 15.21200 31.11000
C  49.57700 17.67300 30.10200
C  49.03100 16.74500 25.39400
C  44.85900 14.44500 26.37300
N  47.46200 16.38200 30.34500
C  46.62200 16.00900 31.35300
C  47.08700 16.55900 32.76500
C  48.26700 17.51900 32.27400
C  48.42300 17.26000 30.76200
C  48.10900 19.05500 32.57600
C  47.72000 15.31800 33.68400
C  47.67600 15.53400 35.22900
H  47.26400 16.88800 35.74000
N  49.17100 17.02400 27.88600
C  49.94800 17.66700 28.77800
C  51.09400 18.30300 28.11400
C  50.88200 18.02700 26.73900
C  49.66700 17.23300 26.59100
C  52.26500 18.93500 28.84400
C  51.76100 18.43800 25.58200
O  51.53300 18.13500 24.40300
C  52.95200 19.34500 25.86100
N  47.02200 15.55800 26.25600
C  47.81700 16.04100 25.22500
C  47.24700 15.76000 23.87100
C  45.92400 15.00900 24.20500
C  45.90700 15.04100 25.76000
C  47.01100 16.97600 22.88000
C  45.97600 13.58000 23.59200
C  46.57300 12.44300 24.46600
N  45.63400 14.86100 28.64000
C  44.63900 14.31600 27.75100
C  43.50300 13.77000 28.47400
C  43.83000 14.10000 29.81200
C  45.08400 14.75100 29.84800
C  42.22400 13.01700 27.89300
C  43.36900 14.03000 31.13900
O  42.26300 13.60600 31.57400
C  44.44000 14.69600 32.09100
C  43.67400 15.82600 32.64600
O  43.20200 16.77200 32.02300
O  43.47500 15.55100 33.94700
C  42.71800 16.57700 34.74700
H  50.18000 18.33700 30.72500
H  49.48900 16.93300 24.42000
H  44.01400 14.05000 25.80600
H  46.25900 17.08400 33.24100
H  49.19800 17.29100 32.79300
H  47.21000 19.02500 33.19200
H  47.94300 19.61400 31.65500
H  48.93600 19.54800 33.08600
H  48.80200 15.22300 33.59100
H  47.28900 14.36500 33.37900
H  48.67500 15.48100 35.66100
H  47.04500 14.78300 35.70400
H  52.16700 18.77000 29.91700
H  52.15900 20.01300 28.72000
H  53.23500 18.50600 28.59400
H  53.74600 18.68100 26.20500
H  52.68800 20.19900 26.48400
H  53.23400 19.71200 24.87400
H  48.07700 15.20100 23.43900
H  45.02100 15.57100 23.96500
H  45.97100 17.06500 22.56800
H  47.72400 16.82700 22.06900
H  47.32300 17.87500 23.41200
H  46.55500 13.55700 22.66800
H  45.00300 13.16000 23.33600
H  45.81900 12.01000 25.12400
H  47.42400 12.88900 24.98000
H  46.88700 11.59600 23.85600
H  42.45300 12.72300 26.86800
H  41.46000 13.79000 27.81600
H  41.94600 12.18900 28.54500
H  44.83200 13.98900 32.82200
H  42.78900 17.61000 34.40600
H  43.04400 16.51100 35.78500
H  41.66600 16.29400 34.75800
Mg -6.25700 25.86200 26.17600
C  -4.92800 27.35300 29.00300
C  -7.69300 23.45000 28.17600
C  -7.04100 24.13900 23.49000
C  -4.55300 28.18000 24.21900
N  -6.36300 25.49200 28.35800
C  -5.79000 26.31900 29.34000
C  -6.10300 25.72600 30.74400
C  -6.74100 24.34100 30.35400
C  -6.90000 24.40800 28.83500
C  -5.88600 23.01100 30.71800
C  -6.91000 26.76600 31.56700
C  -7.81800 26.31100 32.74600
H  -7.32200 25.32200 33.80800
N  -7.45100 24.22300 25.83600
C  -7.98700 23.32700 26.80500
C  -8.91700 22.46300 26.16200
C  -8.78300 22.55000 24.72700
C  -7.70100 23.62000 24.66200
C  -9.75300 21.57200 26.99100
C  -9.28000 21.70900 23.56000
O  -9.15200 22.00100 22.40800
C  -10.12000 20.50800 23.93400
N  -5.69700 25.99900 24.16500
C  -6.22200 25.22200 23.20400
C  -5.86700 25.63700 21.76600
C  -5.28900 27.10800 22.05000
C  -5.26500 27.17100 23.56100
C  -4.86500 24.60000 21.23200
C  -6.23500 28.14600 21.48400
C  -5.72100 28.77000 20.13400
N  -5.03900 27.46400 26.48500
C  -4.45800 28.31300 25.61000
C  -3.76600 29.38200 26.34900
C  -3.81300 28.95300 27.69500
C  -4.65800 27.81500 27.68500
C  -3.04100 30.52400 25.76500
C  -3.22700 29.14300 28.98900
O  -2.32300 29.82100 29.39400
C  -4.00400 28.09000 29.92000
C  -3.09900 27.14900 30.67400
O  -2.47900 26.16000 30.27400
O  -3.32600 27.44600 31.99600
C  -2.65500 26.49700 32.91500
H  -8.16000 22.59500 28.66800
H  -7.48300 23.78900 22.55500
H  -4.11900 28.98600 23.62200
H  -5.16200 25.43900 31.21200
H  -7.75400 24.36100 30.75500
H  -5.36400 23.12100 31.66800
H  -5.21100 22.63700 29.94700
H  -6.71700 22.33300 30.91200
H  -7.74000 26.90500 30.87400
H  -6.50000 27.76500 31.71200
H  -8.66100 25.83400 32.24600
H  -7.99400 27.23200 33.30200
H  -10.77100 21.59300 26.60300
H  -9.95100 21.93500 28.00000
H  -9.34500 20.56200 26.96500
H  -10.42400 20.01400 23.01100
H  -11.03700 20.94300 24.33400
H  -9.53400 19.78700 24.50500
H  -6.73800 25.56800 21.11400
H  -4.28500 27.06900 21.62900
H  -4.10700 24.33900 21.97100
H  -4.34100 25.11200 20.42500
H  -5.38500 23.76800 20.75800
H  -6.42900 28.90000 22.24700
H  -7.23500 27.77200 21.26700
H  -5.62600 29.85500 20.08100
H  -6.33100 28.43600 19.29500
H  -4.69500 28.43600 19.97500
H  -3.27300 31.36400 26.42000
H  -3.39100 30.77800 24.76500
H  -1.95600 30.47100 25.86200
H  -4.57000 28.74700 30.58000
H  -1.61200 26.69500 33.16400
H  -2.71800 25.48800 32.50800
H  -3.33700 26.46700 33.76500

