158

Mg 2.20700 -1.74800 43.53900
C  5.59600 -1.14600 42.69600
C  1.56900 1.37000 42.15000
C  -0.97700 -2.67800 43.25200
C  3.12500 -5.07800 44.42300
N  3.40100 -0.04400 42.50500
C  4.70500 -0.18900 42.14100
C  5.12900 1.06200 41.26800
C  3.85900 1.96100 41.09500
C  2.92700 1.11100 41.97000
C  3.85700 3.50300 41.49500
C  5.78600 0.62500 39.89500
C  7.00100 1.51900 39.50900
H  6.83200 2.08200 38.06200
N  0.46800 -0.70500 43.09500
C  0.49300 0.54900 42.58800
C  -0.83000 0.92000 42.26200
C  -1.62000 -0.28700 42.33800
C  -0.76500 -1.32100 42.87600
C  -1.22700 2.26100 41.80900
C  -3.07000 -0.43300 41.92300
O  -3.78700 0.53300 41.57800
C  -3.77900 -1.67200 42.09900
N  1.23300 -3.60800 43.87800
C  -0.10000 -3.70100 43.75200
C  -0.62700 -5.09400 44.18300
C  0.63900 -5.86400 44.59100
C  1.77000 -4.78000 44.29800
C  -1.70400 -4.89100 45.35000
C  0.86700 -7.29800 44.02500
C  1.56200 -7.23900 42.63800
N  4.06600 -2.93200 43.78000
C  4.26200 -4.26700 44.19300
C  5.69000 -4.57600 44.17500
C  6.24100 -3.32500 43.65400
C  5.23100 -2.30600 43.39200
C  6.32600 -5.91500 44.48900
C  7.52600 -2.71100 43.25900
O  8.65900 -3.13500 43.30100
C  7.11900 -1.27700 42.62100
C  7.79400 -0.07300 43.28600
O  8.39100 0.76400 42.63200
O  7.68100 -0.01400 44.60400
C  8.33200 1.13000 45.29100
H  1.40000 2.37500 41.75800
H  -1.98900 -3.08700 43.29100
H  3.42000 -6.11300 44.60800
H  5.92200 1.58400 41.80500
H  3.47600 2.06100 40.07900
H  3.11300 3.74900 42.25300
H  3.64700 4.15200 40.64500
H  4.81500 3.82600 41.90100
H  5.07900 0.83300 39.09200
H  5.99300 -0.44300 39.95800
H  7.89200 0.90400 39.38600
H  7.21000 2.30300 40.23600
H  -0.56900 3.06400 42.14000
H  -2.27800 2.50100 41.96800
H  -1.04900 2.10900 40.74500
H  -4.62200 -1.74000 41.41100
H  -3.95200 -1.72000 43.17400
H  -3.15200 -2.52000 41.82300
H  -1.15700 -5.62300 43.39100
H  0.71700 -6.07400 45.65700
H  -2.05000 -3.86500 45.47600
H  -1.27100 -5.15300 46.31600
H  -2.51800 -5.58500 45.13600
H  -0.04000 -7.90200 43.99400
H  1.39100 -7.89300 44.77400
H  1.06000 -7.95600 41.98800
H  2.61500 -7.51600 42.68100
H  1.65000 -6.19200 42.34900
H  6.02000 -6.60500 43.70300
H  6.02600 -6.30400 45.46300
H  7.39800 -5.71500 44.47800
H  7.53800 -1.25400 41.61500
H  9.40200 0.92700 45.34000
H  7.84600 1.16300 46.26600
H  8.31800 2.08800 44.77100
Mg 48.65400 45.15800 43.70100
C  45.60700 46.18500 42.19300
C  48.54600 42.26500 41.96500
C  51.83300 44.95900 44.33300
C  48.80900 48.60200 44.86000
N  47.13800 44.37500 42.37000
C  46.04100 44.91700 41.85800
C  45.40600 44.00000 40.90000
C  46.27000 42.69800 41.00800
C  47.44200 43.11900 41.87000
C  45.51100 41.41500 41.59100
C  45.35100 44.46600 39.39600
C  44.00200 44.19600 38.65600
H  44.07600 43.06700 37.60200
N  49.93200 43.71900 43.30300
C  49.70300 42.55200 42.59900
C  50.91600 41.82200 42.48600
C  51.93000 42.55100 43.20800
C  51.25300 43.87200 43.62100
C  51.03800 40.64100 41.61500
C  53.33300 42.03700 43.49400
O  53.72300 40.95800 43.06300
C  54.42200 42.77500 44.14100
N  50.17300 46.60800 44.53400
C  51.44800 46.23200 44.65900
C  52.38600 47.39300 45.03300
C  51.39400 48.59100 45.36200
C  50.02600 47.92400 44.83400
C  53.47600 47.11300 46.19200
C  51.67200 49.99800 44.68200
C  51.41400 51.17500 45.68700
N  47.44300 46.93300 43.75800
C  47.65600 48.19100 44.26600
C  46.51700 49.04700 44.03200
C  45.68900 48.25100 43.25400
C  46.25400 46.99400 43.11600
C  46.27300 50.45400 44.48000
C  44.41300 48.24200 42.54800
O  43.60600 49.20000 42.51600
C  44.36400 46.95500 41.73100
C  43.01900 46.31200 42.04900
O  42.79700 45.53200 42.91800
O  42.12900 46.59800 41.02800
C  40.92300 45.75800 41.06500
H  48.51800 41.31000 41.43600
H  52.91700 44.90800 44.45400
H  48.76800 49.62500 45.23900
H  44.38000 43.90800 41.25600
H  46.62600 42.48400 40.00100
H  44.43200 41.41100 41.43400
H  45.72600 41.36200 42.65800
H  45.71300 40.47300 41.08200
H  46.16600 44.07100 38.78900
H  45.44500 45.55200 39.37900
H  43.69600 45.14500 38.21500
H  43.10700 43.92200 39.21500
H  51.11100 40.93900 40.56900
H  50.13500 40.03900 41.70500
H  51.77600 39.85200 41.76100
H  54.14400 43.08500 45.14800
H  54.49300 43.68600 43.54700
H  55.38200 42.26100 44.09600
H  52.96500 47.67900 44.15500
H  51.28200 48.62900 46.44600
H  54.52000 47.16600 45.88000
H  53.20000 46.12500 46.56100
H  53.37200 47.80800 47.02500
H  51.02000 50.27300 43.85300
H  52.69100 49.99400 44.29400
H  52.34100 51.74000 45.78500
H  51.25700 50.73600 46.67200
H  50.61900 51.83000 45.33100
H  46.47400 51.18600 43.69800
H  46.90900 50.60300 45.35400
H  45.21800 50.55200 44.73600
H  44.40300 47.31100 40.70200
H  40.38900 45.70200 42.01400
H  41.14600 44.70000 40.93000
H  40.20700 45.89800 40.25600

