158

Mg -9.99200 39.72500 41.59100
C  -9.20100 36.52000 40.39400
C  -7.00300 40.77200 39.92300
C  -10.93400 42.81700 42.09700
C  -13.39000 38.57000 42.15500
N  -8.35500 38.73400 40.26300
C  -8.22300 37.38600 39.98300
C  -6.94200 37.02900 39.13900
C  -6.20200 38.44700 39.10000
C  -7.24300 39.41200 39.77400
C  -4.67900 38.49000 39.61600
C  -7.33300 36.47500 37.70400
C  -6.65500 35.15500 37.31700
H  -5.79800 35.11500 36.01700
N  -9.02700 41.44500 41.27600
C  -7.82000 41.71800 40.51600
C  -7.59600 43.08000 40.52000
C  -8.65700 43.73400 41.24300
C  -9.58800 42.65400 41.62800
C  -6.25800 43.72500 39.96700
C  -8.66100 45.22800 41.56500
O  -7.72200 45.93400 41.21700
C  -9.76300 45.80700 42.46700
N  -11.94900 40.49900 42.02300
C  -12.02500 41.90600 42.26900
C  -13.42400 42.38600 42.72400
C  -14.20600 40.99700 42.71100
C  -13.12700 39.94100 42.30800
C  -13.43300 43.10700 44.11600
C  -15.55200 40.88400 41.81500
C  -16.73100 40.22700 42.59400
N  -11.06300 37.90000 41.55000
C  -12.38200 37.60200 41.75700
C  -12.49600 36.15200 41.75400
C  -11.30500 35.67300 41.19700
C  -10.46300 36.80700 40.98800
C  -13.63300 35.29900 42.21500
C  -10.50400 34.49900 40.82300
O  -10.81400 33.32600 40.85100
C  -9.14000 34.97100 40.29000
C  -8.12100 34.41900 41.25000
O  -7.89400 34.84500 42.39200
O  -7.67800 33.20000 40.81200
C  -6.67100 32.68600 41.67300
H  -6.05900 40.94600 39.40400
H  -11.16200 43.84300 42.39500
H  -14.39800 38.17200 42.29100
H  -6.39300 36.24700 39.66400
H  -6.22700 38.98800 38.15400
H  -4.55100 38.94300 40.60000
H  -4.13400 39.09300 38.89000
H  -4.23900 37.51500 39.40900
H  -7.10800 37.23400 36.95500
H  -8.42000 36.47600 37.62200
H  -7.39200 34.37600 37.12100
H  -5.99200 34.78200 38.09800
H  -6.48300 44.49400 39.22800
H  -5.64600 43.06600 39.35200
H  -5.71100 44.14900 40.80900
H  -9.67900 45.31800 43.43700
H  -10.77300 45.64200 42.09000
H  -9.72500 46.89400 42.54100
H  -13.80800 43.16200 42.06200
H  -14.52400 40.83900 43.74100
H  -12.46000 43.44600 44.47200
H  -13.97800 42.48800 44.82900
H  -14.00300 44.00500 43.88000
H  -15.22300 40.13000 41.10000
H  -15.91000 41.79000 41.32700
H  -16.49800 39.19000 42.83600
H  -17.71600 40.38300 42.15400
H  -16.68100 40.74400 43.55200
H  -14.03400 34.68700 41.40700
H  -14.30000 36.04700 42.64300
H  -13.26000 34.59000 42.95400
H  -9.10000 34.52500 39.29700
H  -6.07700 31.95000 41.13300
H  -7.08100 32.24500 42.58100
H  -5.89700 33.38200 41.99500
Mg -0.60100 44.62300 26.36900
C  1.67900 43.43500 28.86800
C  -3.14500 43.95500 28.51600
C  -2.70700 45.05700 23.80500
C  2.15800 44.47600 24.06600
N  -0.67500 43.74500 28.48200
C  0.36300 43.42300 29.32700
C  -0.11400 43.21000 30.76600
C  -1.69000 43.16300 30.54500
C  -1.87600 43.72200 29.08300
C  -2.42100 41.87000 30.80900
C  0.32600 44.48000 31.68600
C  0.67200 44.15500 33.19400
H  0.44700 42.76200 33.78100
N  -2.63600 44.60400 26.25100
C  -3.52600 44.38500 27.23600
C  -4.86800 44.61900 26.73700
C  -4.70900 45.10500 25.42600
C  -3.24300 44.94800 25.08700
C  -6.05600 44.46900 27.62300
C  -5.76700 45.61900 24.38200
O  -5.48300 45.99500 23.25800
C  -7.26000 45.55600 24.63300
N  -0.30800 44.72300 24.17300
C  -1.35800 45.00100 23.32300
C  -0.87300 45.08700 21.90000
C  0.66300 45.18100 22.06600
C  0.90200 44.83200 23.50000
C  -1.38900 43.97700 21.03700
C  1.27500 46.55200 21.64600
C  1.35300 47.66800 22.69500
N  1.51600 44.17300 26.40800
C  2.49800 44.14500 25.42000
C  3.78400 43.88400 26.05400
C  3.50600 43.56800 27.37600
C  2.13400 43.72600 27.53500
C  5.18100 43.71900 25.41100
C  4.15600 43.08900 28.60400
O  5.24700 42.61100 28.81300
C  2.91200 43.11400 29.62500
C  3.01000 41.89500 30.45600
O  2.54100 40.79600 30.13200
O  3.77000 42.22400 31.54900
C  4.05300 41.15700 32.50200
H  -3.98700 43.81100 29.19700
H  -3.35000 45.27200 22.94900
H  2.94300 44.64000 23.32400
H  0.10900 42.17200 31.01600
H  -2.13800 43.82500 31.28600
H  -1.76700 41.29600 31.46500
H  -2.70800 41.34200 29.89900
H  -3.32600 42.05200 31.38900
H  -0.35000 45.33500 31.68500
H  1.21400 44.87800 31.19500
H  0.06500 44.81900 33.81000
H  1.74400 44.23800 33.37000
H  -6.05100 43.44900 28.00800
H  -6.97500 44.63800 27.06100
H  -6.11000 45.22700 28.40400
H  -7.58600 45.89500 25.61700
H  -7.50300 44.49400 24.59200
H  -7.83400 46.22100 23.98700
H  -1.24500 46.06500 21.59700
H  1.15900 44.47100 21.40400
H  -1.84900 43.16200 21.59500
H  -0.61000 43.59500 20.37700
H  -2.24700 44.43000 20.54200
H  0.64900 46.92400 20.83500
H  2.25300 46.35300 21.20800
H  2.36800 47.92500 23.00000
H  0.61200 47.42600 23.45700
H  1.14700 48.62100 22.20700
H  5.50100 44.72700 25.14700
H  5.09900 43.29500 24.41000
H  5.68900 43.09800 26.14800
H  3.24100 44.00300 30.16200
H  4.12200 41.49700 33.53600
H  5.09200 40.85100 32.38600
H  3.31900 40.36100 32.38200

