158

Mg 9.22100 3.00200 27.70100
C  10.60600 1.44000 30.44100
C  7.45500 5.02500 29.82200
C  7.69800 4.24200 24.95500
C  10.56300 0.43100 25.68400
N  8.83100 3.07500 29.91900
C  9.75600 2.50100 30.85400
C  9.56600 3.02300 32.29400
C  8.46800 4.10800 32.03900
C  8.16400 4.06100 30.52300
C  7.21900 3.98800 32.94800
C  10.84200 3.69700 32.88200
C  10.73700 4.20100 34.29600
H  11.59600 3.64500 35.40800
N  7.86400 4.45600 27.46900
C  7.27000 5.22100 28.44200
C  6.49000 6.26700 27.82400
C  6.51000 6.02700 26.43000
C  7.37000 4.84200 26.24500
C  5.95500 7.48300 28.52900
C  5.74900 6.74600 25.32400
O  5.81300 6.41800 24.11800
C  4.89600 7.89600 25.63400
N  9.27800 2.52300 25.64200
C  8.56500 3.17700 24.72900
C  8.78500 2.66900 23.32200
C  9.71900 1.49600 23.55600
C  10.00800 1.51200 25.05400
C  7.44400 2.20500 22.60200
C  11.06400 1.58400 22.70200
C  11.04700 1.09000 21.23800
N  10.33900 1.35400 27.98100
C  10.75200 0.36800 27.06600
C  11.46400 -0.71900 27.73700
C  11.44700 -0.27800 29.06600
C  10.72400 0.97600 29.12000
C  11.94400 -2.03200 27.17200
C  11.84300 -0.56500 30.42200
O  12.43000 -1.53500 30.87700
C  11.46700 0.59900 31.29200
C  10.84300 0.03000 32.52100
O  9.81400 -0.62300 32.61900
O  11.58200 0.36600 33.58400
C  11.14600 -0.21200 34.84000
H  7.01700 5.86400 30.36600
H  7.24500 4.70200 24.07500
H  10.92000 -0.46200 25.16700
H  9.23000 2.17700 32.89300
H  9.02500 5.02600 32.23100
H  7.00300 4.89300 33.51500
H  7.43600 3.20100 33.67000
H  6.38400 3.57200 32.38400
H  11.21300 4.45300 32.19000
H  11.61600 2.92900 32.87800
H  9.68100 4.08200 34.54100
H  10.84000 5.28400 34.35400
H  6.22800 8.30800 27.87100
H  6.24200 7.53000 29.57900
H  4.87000 7.38400 28.57400
H  3.99300 7.68500 26.20700
H  4.54300 8.34300 24.70500
H  5.41600 8.75800 26.05200
H  9.22300 3.41900 22.66300
H  9.32900 0.50400 23.32800
H  7.45700 1.11900 22.51200
H  7.46600 2.49300 21.55100
H  6.57200 2.45000 23.20900
H  11.75100 0.92800 23.23700
H  11.52800 2.56900 22.73900
H  10.04800 0.86700 20.86400
H  11.69400 0.21800 21.13800
H  11.41400 1.77600 20.47500
H  12.73300 -2.46400 27.78800
H  12.30000 -2.07100 26.14300
H  11.25300 -2.87500 27.20900
H  12.28000 1.14400 31.77100
H  12.06200 -0.58400 35.29900
H  10.46000 -1.05200 34.73000
H  10.64100 0.54300 35.44300
Mg 35.49000 0.79400 29.91800
C  33.28100 2.15700 32.18700
C  37.92000 1.15500 32.39100
C  37.78800 -0.36900 27.77100
C  33.16600 0.91300 27.41700
N  35.57800 1.52000 32.03700
C  34.48500 1.92400 32.76500
C  34.82800 2.11800 34.23400
C  36.37000 2.14900 34.14700
C  36.66100 1.65800 32.72100
C  37.04600 3.40000 34.53500
C  34.15700 0.92800 34.89500
C  33.49700 1.30200 36.18500
H  34.24400 2.22100 37.15500
N  37.55400 0.47400 29.97600
C  38.37900 0.67500 31.10000
C  39.67100 0.14700 30.84700
C  39.70000 -0.19600 29.44000
C  38.31600 -0.04500 28.96300
C  40.73100 -0.22200 31.85800
C  40.83100 -0.73800 28.57100
O  40.63500 -1.13400 27.44200
C  42.27800 -0.85900 29.15900
N  35.45200 0.32800 27.89300
C  36.53500 -0.25800 27.22500
C  36.20100 -0.51500 25.76100
C  34.66900 -0.28600 25.71100
C  34.39500 0.30700 27.15200
C  37.06100 0.46800 24.89400
C  33.69500 -1.37300 25.27900
C  33.31300 -2.39900 26.30300
N  33.58200 1.41800 29.70600
C  32.69400 1.34500 28.67200
C  31.50100 1.99500 29.11500
C  31.61400 2.24500 30.53300
C  32.95800 1.93700 30.85200
C  30.31300 2.42800 28.20300
C  30.94800 2.88100 31.66100
O  29.83400 3.47300 31.73500
C  31.99900 2.67300 32.87700
C  32.22600 4.00900 33.54500
O  32.79800 5.00500 33.08200
O  31.50800 4.02600 34.69600
C  31.63800 5.25900 35.46100
H  38.67500 1.29700 33.16700
H  38.49800 -0.64200 26.98700
H  32.43600 0.90800 26.60500
H  34.41300 3.05500 34.60600
H  36.71700 1.32200 34.76700
H  37.75600 3.22200 35.34200
H  36.27400 4.02300 34.98600
H  37.34000 3.90600 33.61500
H  34.86900 0.17100 35.22500
H  33.54200 0.29300 34.25700
H  33.25600 0.33700 36.63200
H  32.50900 1.69700 35.94600
H  40.64700 -1.28800 32.06900
H  40.76800 0.38300 32.76400
H  41.73300 0.01300 31.50000
H  42.53400 0.11100 29.58500
H  42.87200 -1.11100 28.28000
H  42.34300 -1.76900 29.75600
H  36.44300 -1.56900 25.62300
H  34.48600 0.57900 25.07400
H  38.13900 0.45000 25.05500
H  36.67300 1.47900 25.01600
H  36.78000 0.21300 23.87200
H  34.02300 -1.88800 24.37600
H  32.75900 -0.88600 25.00300
H  33.79300 -2.26900 27.27300
H  33.48100 -3.39100 25.88400
H  32.24300 -2.29700 26.48500
H  29.69700 3.12300 28.77400
H  29.86400 1.52100 27.79900
H  30.81900 2.90200 27.36300
H  31.69000 1.93200 33.61500
H  32.68000 5.22700 35.77800
H  30.96200 5.22600 36.31600
H  31.40000 6.11600 34.83100

