158

Mg -1.86400 17.27100 27.33800
C  -2.32600 15.19800 30.16300
C  -2.38200 19.97100 29.48100
C  -1.56600 19.24300 24.74500
C  -2.02800 14.46700 25.28100
N  -2.25900 17.50500 29.61800
C  -2.32000 16.54400 30.55700
C  -2.28600 17.16400 31.98600
C  -2.51400 18.67800 31.70800
C  -2.42000 18.72800 30.17600
C  -3.84500 19.24200 32.21100
C  -0.98700 16.89400 32.84900
C  -0.97400 16.31800 34.23400
H  0.17900 16.65500 35.26500
N  -1.84400 19.34900 27.09900
C  -2.07500 20.32300 28.07300
C  -2.00500 21.57600 27.46300
C  -1.58600 21.36400 26.14500
C  -1.66500 19.96400 25.93100
C  -2.15000 22.83400 28.23500
C  -1.22400 22.36200 25.09300
O  -0.79600 22.07500 23.96000
C  -1.14000 23.81400 25.30900
N  -1.88400 16.86300 25.30400
C  -1.66200 17.90800 24.42100
C  -1.74600 17.39700 22.95100
C  -1.42200 15.84300 23.17800
C  -1.87600 15.70900 24.66600
C  -3.03100 17.63100 22.12600
C  0.07800 15.53900 22.87300
C  1.09600 15.95900 23.95300
N  -2.04600 15.28200 27.60900
C  -2.24800 14.25000 26.67000
C  -2.38700 12.94100 27.36300
C  -2.30700 13.31900 28.70700
C  -2.20700 14.71400 28.81900
C  -2.60900 11.55600 26.81900
C  -2.46600 12.70200 30.02500
O  -2.66500 11.53500 30.36000
C  -2.48900 13.95000 30.98100
C  -1.40100 13.66100 31.94000
O  -0.19300 13.71000 31.74800
O  -2.01200 13.19900 33.04000
C  -1.09400 12.28300 33.85100
H  -2.43500 20.80500 30.18400
H  -1.59500 19.96600 23.92700
H  -1.87600 13.56000 24.69300
H  -3.20300 16.83400 32.47500
H  -1.75900 19.32200 32.15800
H  -4.31500 19.90200 31.48300
H  -3.66900 19.85100 33.09800
H  -4.62700 18.51400 32.43000
H  -0.33200 17.76400 32.81300
H  -0.37800 16.17200 32.30400
H  -0.92800 15.24800 34.03300
H  -1.94800 16.54400 34.66700
H  -2.69500 22.69100 29.16800
H  -2.72800 23.57100 27.67800
H  -1.17400 23.24000 28.50100
H  -0.19100 23.90500 25.83700
H  -1.93900 24.28400 25.88300
H  -0.92400 24.36500 24.39400
H  -0.90600 17.83600 22.41200
H  -2.08700 15.18800 22.61500
H  -3.81900 18.29900 22.47300
H  -3.56200 16.69000 21.98600
H  -2.70200 18.12800 21.21400
H  0.34700 16.23100 22.07400
H  0.24300 14.54000 22.46900
H  0.62700 16.21100 24.90400
H  1.75500 16.76300 23.62500
H  1.77200 15.10500 23.92200
H  -1.75800 11.21400 26.23000
H  -3.52900 11.37800 26.26100
H  -2.49900 10.94500 27.71400
H  -3.46500 13.85000 31.45700
H  -0.38000 11.70300 33.26700
H  -1.69800 11.65400 34.50400
H  -0.49100 12.93400 34.48400
Mg 1.89900 -1.45100 44.47200
C  5.24200 -0.28200 44.24600
C  0.81100 1.32400 42.71000
C  -1.09700 -2.94400 44.24200
C  3.23800 -4.55900 45.69400
N  2.94100 0.29300 43.48400
C  4.23900 0.60100 43.67300
C  4.56800 1.95000 42.98700
C  3.15800 2.53900 42.53200
C  2.24700 1.29800 42.93600
C  2.76300 3.95600 43.17400
C  5.62000 1.76800 41.80500
C  5.41000 0.50000 40.89500
H  5.15500 0.75000 39.37500
N  0.12400 -0.93100 43.61400
C  -0.14500 0.28100 42.93600
C  -1.53500 0.34100 42.58200
C  -2.17300 -0.76700 43.23400
C  -1.04100 -1.64100 43.68300
C  -2.19500 1.53200 41.91500
C  -3.64200 -1.07100 43.20500
O  -4.40400 -0.26400 42.64500
C  -4.29600 -2.20200 43.98600
N  1.18300 -3.54900 44.80800
C  -0.13200 -3.79500 44.74000
C  -0.38900 -5.22000 45.32400
C  1.03800 -5.73500 45.81600
C  1.88000 -4.57400 45.34200
C  -1.69600 -5.54300 46.16500
C  1.41700 -7.03500 45.12300
C  2.01500 -8.03100 46.07600
N  3.81600 -2.32600 44.99600
C  4.16600 -3.52300 45.46200
C  5.64100 -3.56400 45.67400
C  6.05700 -2.33200 45.15300
C  4.93200 -1.62700 44.75300
C  6.50100 -4.74600 46.19100
C  7.26300 -1.52700 44.92100
O  8.41300 -1.85600 45.17100
C  6.79400 -0.11100 44.32000
C  7.31000 0.95100 45.25600
O  7.27100 0.84600 46.48100
O  7.85200 1.97300 44.58300
C  8.70700 3.00500 45.23000
H  0.50700 2.24400 42.20600
H  -2.07200 -3.40400 44.41900
H  3.67500 -5.42200 46.20200
H  5.08300 2.66000 43.63500
H  3.21100 2.46400 41.44600
H  2.90600 4.83900 42.55000
H  3.38300 4.05500 44.06500
H  1.69700 3.99000 43.39900
H  6.64800 1.81700 42.16300
H  5.46000 2.62500 41.15100
H  4.67900 -0.15400 41.37000
H  6.33100 -0.08300 40.93500
H  -1.47800 2.22800 41.48100
H  -2.70900 2.09600 42.69300
H  -2.82400 1.19000 41.09300
H  -5.34400 -1.95200 44.15100
H  -3.82800 -2.34900 44.96000
H  -4.42800 -3.14800 43.46100
H  -0.78800 -5.89100 44.56400
H  1.10700 -5.79000 46.90300
H  -1.88700 -4.59900 46.67600
H  -1.45200 -6.41900 46.76800
H  -2.59400 -5.76900 45.59000
H  1.97300 -6.80100 44.21500
H  0.47600 -7.51600 44.85500
H  1.25300 -8.70000 46.47400
H  2.50800 -7.51500 46.90000
H  2.78300 -8.54100 45.49500
H  6.30300 -4.89100 47.25300
H  7.57700 -4.57700 46.18500
H  6.42200 -5.64300 45.57700
H  7.25900 0.03700 43.34500
H  8.53700 3.82500 44.53300
H  9.73100 2.63100 45.25300
H  8.44600 3.27400 46.25400

