158

Mg 1.86800 -1.67200 45.52100
C  5.10700 -0.72900 44.62700
C  0.75100 0.99600 43.83500
C  -1.21200 -3.04200 45.67500
C  3.22300 -4.67300 46.95500
N  2.88400 0.05300 44.47300
C  4.15700 0.18500 44.15900
C  4.38400 1.53900 43.41400
C  2.96400 2.21500 43.48900
C  2.10800 1.05000 43.98300
C  2.78800 3.45500 44.46800
C  4.97900 1.36900 41.97100
C  6.25200 2.14800 41.74500
H  7.42700 1.48100 40.98700
N  0.01500 -1.10500 44.80800
C  -0.23000 -0.00900 44.07500
C  -1.62800 0.02600 43.64500
C  -2.23200 -1.13300 44.20100
C  -1.14900 -1.83800 44.91000
C  -2.16400 1.26200 42.82200
C  -3.69000 -1.52000 44.03500
O  -4.40900 -0.83600 43.33200
C  -4.35100 -2.76500 44.47000
N  1.10100 -3.51100 46.44400
C  -0.25900 -3.77800 46.44000
C  -0.59400 -5.13000 47.13600
C  0.88900 -5.60400 47.61200
C  1.83300 -4.55200 46.99200
C  -1.71800 -5.04700 48.25000
C  1.35600 -7.09100 47.25100
C  1.57800 -8.01000 48.49800
N  3.74200 -2.62100 45.71400
C  4.15000 -3.76400 46.41000
C  5.59900 -3.81200 46.25900
C  6.00500 -2.62800 45.69100
C  4.85800 -1.94900 45.34000
C  6.38100 -4.97900 46.67900
C  7.08900 -1.86800 45.24900
O  8.27100 -2.04100 45.43000
C  6.62400 -0.58000 44.58600
C  7.00500 0.55100 45.41600
O  6.26600 1.17000 46.16400
O  8.34600 0.86500 45.19800
C  8.80500 2.12700 45.70000
H  0.44600 1.92100 43.34100
H  -2.24300 -3.37900 45.80300
H  3.66900 -5.59200 47.34100
H  5.05100 2.16200 44.01100
H  2.61000 2.47100 42.49100
H  1.85800 3.48900 45.03400
H  2.79300 4.37000 43.87600
H  3.64300 3.55600 45.13600
H  4.30900 1.67800 41.16900
H  5.22900 0.32700 41.76900
H  6.81000 2.37700 42.65300
H  5.94400 3.06300 41.23900
H  -2.09400 1.18300 41.73700
H  -1.64700 2.16000 43.16100
H  -3.21500 1.44600 43.04500
H  -4.24100 -2.69500 45.55200
H  -3.75100 -3.50300 43.93800
H  -5.40500 -2.69500 44.19900
H  -0.96200 -5.78300 46.34400
H  1.02100 -5.46900 48.68500
H  -1.26700 -5.32000 49.20400
H  -2.60400 -5.63000 47.99900
H  -2.10000 -4.03400 48.37700
H  2.22000 -7.06900 46.58700
H  0.47900 -7.45100 46.71200
H  0.58500 -8.16900 48.91900
H  2.03600 -7.35100 49.23600
H  2.27000 -8.82800 48.29800
H  7.43300 -4.77000 46.87000
H  6.26300 -5.80700 45.98000
H  6.05200 -5.44700 47.60700
H  7.12100 -0.35700 43.64200
H  9.61400 1.93500 46.40400
H  8.09400 2.71300 46.28200
H  9.26900 2.63300 44.85400
Mg -11.87500 38.95200 41.82200
C  -9.92100 35.98000 41.28600
C  -9.58900 40.59900 39.68300
C  -13.92900 41.43600 41.63800
C  -14.40200 36.88900 43.22200
N  -10.03800 38.27900 40.59900
C  -9.43900 37.08100 40.55300
C  -8.18300 37.02500 39.66100
C  -8.03600 38.54400 39.18800
C  -9.27700 39.19100 39.86700
C  -6.71900 39.44800 39.34800
C  -8.40300 35.99100 38.49600
C  -7.42900 34.75600 38.42400
H  -6.29200 34.83600 37.32900
N  -11.61800 40.93200 41.05200
C  -10.62900 41.42900 40.23500
C  -10.84000 42.88600 40.21000
C  -12.07900 43.14800 40.85000
C  -12.59400 41.79400 41.17700
C  -9.86800 43.88500 39.55600
C  -12.74200 44.49400 41.05000
O  -12.18000 45.48900 40.55100
C  -14.01100 44.73900 41.67800
N  -13.93100 39.10900 42.18800
C  -14.58000 40.31000 42.07400
C  -15.97800 40.33100 42.68700
C  -16.09500 38.92200 43.26900
C  -14.72000 38.21000 42.84100
C  -16.46600 41.54400 43.59200
C  -17.41300 38.09900 42.88200
C  -18.21400 37.35100 43.98100
N  -12.12900 36.88200 42.27500
C  -13.15500 36.24300 42.91900
C  -12.73300 34.90500 43.21800
C  -11.44700 34.78900 42.61200
C  -11.14300 35.98500 42.02400
C  -13.49500 33.94600 44.13600
C  -10.40200 33.84900 42.35500
O  -10.21700 32.67200 42.65300
C  -9.28600 34.59700 41.43800
C  -7.94900 34.60100 42.09800
O  -7.04500 33.77700 42.04100
O  -7.77400 35.75200 42.85100
C  -6.48600 36.05500 43.47200
H  -8.85600 41.07500 39.02900
H  -14.59400 42.30200 41.65400
H  -15.09300 36.32100 43.84900
H  -7.36000 36.81100 40.34200
H  -8.33400 38.70100 38.15200
H  -5.83300 38.82300 39.23900
H  -6.70100 39.90200 40.33800
H  -6.64000 40.24400 38.60800
H  -8.32500 36.45000 37.51000
H  -9.37100 35.51200 38.64500
H  -8.01400 33.86400 38.19900
H  -7.06000 34.51800 39.42100
H  -9.36300 44.52700 40.27700
H  -10.51800 44.48800 38.92300
H  -9.18400 43.37000 38.88100
H  -14.71400 44.44500 40.89900
H  -14.27700 45.78900 41.79900
H  -13.97400 44.18600 42.61700
H  -16.63600 40.39600 41.82000
H  -16.13400 39.04400 44.35100
H  -17.20700 41.10400 44.26000
H  -16.88800 42.36600 43.01400
H  -15.60700 41.84400 44.19200
H  -17.33000 37.34300 42.10200
H  -18.07400 38.85700 42.46000
H  -19.10000 37.98100 44.07000
H  -17.72800 37.42900 44.95400
H  -18.31500 36.30200 43.70300
H  -13.31300 32.93300 43.77700
H  -14.56900 34.08700 44.01300
H  -13.25700 34.06900 45.19300
H  -9.25900 34.16400 40.43800
H  -6.42900 36.95600 44.08300
H  -5.85400 36.01100 42.58500
H  -6.35300 35.12500 44.02500

