158

Mg 35.03800 2.59000 29.55400
C  33.16000 3.68700 32.40100
C  37.72100 2.69200 31.64500
C  36.90900 1.36800 27.06900
C  32.37700 3.23600 27.51000
N  35.29100 2.89400 31.83600
C  34.47700 3.29500 32.78400
C  35.05600 3.41100 34.20900
C  36.54900 3.33300 33.83800
C  36.54700 3.04800 32.33700
C  37.42500 4.53900 34.17300
C  34.57300 2.16700 35.05700
C  34.40000 2.29800 36.58100
H  35.30900 3.30900 37.29000
N  36.99000 1.92000 29.43700
C  37.91200 2.07800 30.39500
C  39.16900 1.53600 29.96800
C  38.98400 1.16000 28.60500
C  37.62000 1.46200 28.31800
C  40.42100 1.41300 30.81700
C  39.98400 0.53600 27.57800
O  39.65600 0.31900 26.43700
C  41.45900 0.27800 27.87200
N  34.77200 2.50500 27.57500
C  35.63500 1.79200 26.75800
C  34.99400 1.67300 25.33400
C  33.52500 1.84200 25.64800
C  33.52600 2.57900 26.93300
C  35.56700 2.81100 24.34800
C  32.77600 0.53400 25.72900
C  31.56200 0.22500 24.79700
N  33.22600 3.39500 29.79800
C  32.21100 3.57100 28.86500
C  31.02800 4.05400 29.54000
C  31.40000 4.19100 30.88400
C  32.73700 3.67900 31.01500
C  29.64400 4.35300 29.05900
C  30.78100 4.56700 32.11700
O  29.68900 4.97800 32.44800
C  31.96000 4.30400 33.13500
C  32.31600 5.55000 33.76600
O  33.23500 6.38000 33.51000
O  31.28000 5.85100 34.61500
C  31.27500 7.18600 35.19500
H  38.64600 2.60300 32.21900
H  37.47400 1.01500 26.20400
H  31.50600 3.40000 26.87300
H  34.83000 4.37400 34.66700
H  36.96000 2.45300 34.33300
H  38.38900 4.28900 34.61400
H  36.94900 5.07500 34.99300
H  37.64900 5.28300 33.40800
H  35.06300 1.21700 34.84400
H  33.55100 2.07200 34.68800
H  34.62700 1.32100 37.00600
H  33.34200 2.42400 36.81500
H  40.98000 0.53700 30.48600
H  40.25400 1.12300 31.85400
H  41.05000 2.30200 30.77500
H  41.93600 1.17200 28.27400
H  41.92600 0.16900 26.89300
H  41.53000 -0.57000 28.55400
H  35.20600 0.69600 24.90000
H  32.98900 2.44300 24.91300
H  36.48600 3.25600 24.73000
H  34.89700 3.61100 24.03400
H  35.87200 2.24500 23.46800
H  32.33000 0.47300 26.72200
H  33.43000 -0.33100 25.61900
H  31.63300 -0.81800 24.48700
H  31.58600 0.97900 24.01000
H  30.58800 0.26000 25.28500
H  29.19400 3.44600 28.65600
H  29.67600 5.08800 28.25500
H  29.02200 4.71300 29.87900
H  31.76100 3.61700 33.95700
H  32.26800 7.63200 35.24900
H  30.79300 7.08500 36.16700
H  30.60500 7.83200 34.62600
Mg 30.80400 57.73700 40.45900
C  27.80200 56.16600 39.42300
C  32.50400 54.97200 39.68100
C  33.59000 59.55700 40.52500
C  28.88400 60.74800 40.86400
N  30.26000 55.90100 39.39500
C  28.96100 55.35100 39.25300
C  29.00600 53.95300 38.59600
C  30.36600 53.52000 39.18900
C  31.11500 54.86300 39.48000
C  30.40800 52.63700 40.52900
C  28.90600 54.00300 36.96900
C  27.61100 53.37700 36.27900
H  26.73800 54.23300 35.32000
N  32.83700 57.31000 40.12900
C  33.33600 56.13100 39.91300
C  34.80700 56.23100 39.79500
C  35.09200 57.61900 40.16600
C  33.78500 58.23800 40.22600
C  35.72300 55.08200 39.41200
C  36.49300 58.17600 40.35900
O  37.47300 57.42100 40.16200
C  36.79300 59.65700 40.69000
N  31.18800 60.03300 40.40500
C  32.44800 60.40100 40.73200
C  32.41400 61.86800 41.04000
C  30.90600 62.25000 41.32300
C  30.23900 60.93800 40.81800
C  33.33900 62.34100 42.20000
C  30.38700 63.62400 40.67400
C  29.70300 64.56300 41.70500
N  28.71000 58.37500 40.24000
C  28.13900 59.56900 40.48100
C  26.71800 59.54300 40.36300
C  26.51700 58.15600 39.96800
C  27.77400 57.50200 39.90000
C  25.67600 60.57700 40.68100
C  25.51900 57.16300 39.51300
O  24.29800 57.19300 39.28900
C  26.34100 55.78800 39.24300
C  25.82000 54.62400 40.09000
O  26.42700 54.15400 41.07900
O  24.55300 54.28400 39.58800
C  23.72900 53.36100 40.44700
H  33.17200 54.12500 39.50700
H  34.43100 60.23500 40.68200
H  28.26600 61.56400 41.24500
H  28.19000 53.33400 38.96900
H  30.90400 53.05100 38.36500
H  29.41600 52.68400 40.97800
H  31.08700 53.19700 41.17200
H  30.73700 51.60700 40.38900
H  29.73300 53.42500 36.55600
H  29.14300 55.04300 36.74300
H  26.98700 52.85700 37.00500
H  28.02500 52.59500 35.64200
H  36.23800 54.82600 40.33800
H  36.46200 55.31400 38.64500
H  35.12600 54.29100 38.95800
H  36.44100 60.43300 40.01000
H  37.85800 59.68100 40.92100
H  36.29100 59.82300 41.64300
H  32.68800 62.42800 40.14600
H  30.56100 62.12800 42.35000
H  34.22700 62.79200 41.75700
H  33.69700 61.42600 42.67200
H  32.85700 62.88400 43.01300
H  29.74000 63.26700 39.87200
H  31.28600 64.14000 40.33600
H  29.14600 64.00500 42.45700
H  28.97400 65.09200 41.09100
H  30.23400 65.41600 42.12900
H  25.26600 60.48700 41.68600
H  24.86800 60.40200 39.97000
H  26.11400 61.57500 40.66100
H  26.15900 55.45300 38.22200
H  23.21600 53.98300 41.18100
H  24.32500 52.62100 40.98000
H  23.05800 52.81700 39.78300

