158

Mg 27.35100 51.29300 26.15200
C  25.52200 52.43400 28.94600
C  29.79300 50.28200 28.37000
C  29.30700 50.68900 23.53200
C  25.02300 52.83900 24.04700
N  27.60900 51.33500 28.43600
C  26.75800 51.83900 29.34100
C  27.23400 51.51600 30.73800
C  28.71800 51.18200 30.51900
C  28.75800 50.91600 29.03900
C  29.76800 52.12000 31.09700
C  26.43000 50.31300 31.41900
C  25.66000 50.76400 32.70000
H  25.55900 49.67000 33.71200
N  29.23700 50.41300 25.99200
C  29.99900 50.06200 26.98000
C  31.20100 49.39600 26.44900
C  31.04600 49.47900 25.04400
C  29.82500 50.26800 24.79300
C  32.44100 48.87000 27.26100
C  31.78200 48.86300 23.86100
O  31.40600 48.79800 22.68200
C  33.17000 48.26600 24.11800
N  27.28500 51.84200 24.02700
C  28.19000 51.40000 23.14400
C  27.71800 51.67700 21.71800
C  26.21900 52.19100 21.96500
C  26.17700 52.33200 23.43000
C  28.59600 52.69600 20.91000
C  25.12900 51.17100 21.46300
C  23.95600 51.68300 20.74300
N  25.58800 52.33800 26.36900
C  24.75600 52.96500 25.39800
C  23.63100 53.48900 26.08400
C  23.95000 53.35700 27.42800
C  25.13400 52.58200 27.55500
C  22.46800 54.19400 25.47900
C  23.46200 53.71300 28.74400
O  22.44600 54.30000 29.11300
C  24.38800 52.99200 29.77500
C  24.87000 54.03900 30.74900
O  25.44100 55.09900 30.42000
O  24.52500 53.57600 31.99500
C  24.89100 54.47000 33.09300
H  30.72500 49.97700 28.85200
H  29.91800 50.41000 22.67100
H  24.16500 53.08300 23.41600
H  27.07400 52.45500 31.26800
H  28.96900 50.20900 30.94200
H  30.40700 51.55400 31.77500
H  29.49400 53.03200 31.62900
H  30.45400 52.35400 30.28300
H  27.04100 49.43600 31.63100
H  25.62400 50.05800 30.73100
H  24.65700 51.14900 32.51700
H  26.17800 51.63400 33.10500
H  33.36200 48.94200 26.68300
H  32.31700 47.84600 27.61500
H  32.59800 49.41400 28.19200
H  33.10000 47.44600 24.83300
H  33.75000 49.02000 24.65100
H  33.77400 47.90700 23.28600
H  27.76800 50.76200 21.12900
H  26.10300 53.20200 21.57500
H  29.63900 52.77200 21.21700
H  28.19400 53.70100 20.78500
H  28.60000 52.29800 19.89600
H  24.89400 50.58200 22.35000
H  25.60600 50.53300 20.71900
H  23.00700 51.29200 21.11100
H  24.06900 51.30400 19.72700
H  24.05200 52.76800 20.70400
H  22.75700 54.59900 24.50900
H  22.22300 55.11200 26.01400
H  21.55200 53.62500 25.32100
H  23.80400 52.24600 30.31400
H  25.70100 53.97100 33.62400
H  24.08400 54.58400 33.81700
H  25.00400 55.49500 32.74000
Mg 0.95700 42.20800 25.71600
C  1.82900 42.33400 29.15300
C  -2.13000 41.13500 26.56900
C  0.45500 41.65200 22.51100
C  4.32900 43.07900 24.96800
N  -0.02900 41.83200 27.64500
C  0.48300 41.95300 28.91500
C  -0.74600 41.88300 29.93500
C  -1.83000 41.07900 29.06100
C  -1.31100 41.39700 27.69900
C  -1.81800 39.52200 29.30700
C  -1.24200 43.25800 30.37100
C  -1.28000 43.35600 31.95100
H  -2.24000 42.35100 32.65900
N  -0.69800 41.62900 24.67300
C  -1.89400 41.18400 25.19200
C  -2.79200 40.82100 24.17300
C  -2.12600 40.83800 22.95500
C  -0.65900 41.38200 23.35800
C  -4.25000 40.36400 24.47500
C  -2.49500 40.43600 21.57600
O  -1.85500 40.68200 20.61500
C  -3.89700 39.87300 21.30100
N  2.22600 42.48100 23.94900
C  1.78800 42.07100 22.76100
C  2.93700 42.20100 21.71100
C  3.98400 43.03000 22.44800
C  3.48200 42.91700 23.86200
C  3.45600 40.85300 21.21200
C  4.15300 44.54800 22.02900
C  2.88900 45.38300 21.95700
N  2.72600 42.59700 26.77400
C  3.98400 42.90600 26.29100
C  4.90600 43.09000 27.45900
C  4.02200 42.80800 28.51900
C  2.77200 42.54100 28.11000
C  6.33700 43.52400 27.39900
C  4.03700 42.85400 29.99200
O  4.96500 43.25500 30.75600
C  2.55400 42.48300 30.43100
C  2.59200 41.25300 31.23900
O  3.34000 40.31500 31.08500
O  1.54900 41.25700 32.10000
C  1.36600 40.03900 32.86200
H  -3.10800 40.76200 26.88100
H  0.23800 41.25100 21.51900
H  5.33800 43.47400 24.82700
H  -0.58300 41.27500 30.82500
H  -2.83900 41.48300 29.14600
H  -1.02100 39.03600 28.74500
H  -2.76100 39.38200 28.78000
H  -1.92500 39.26200 30.36000
H  -2.27200 43.36300 30.02900
H  -0.63600 44.00800 29.86300
H  -1.63700 44.34500 32.23800
H  -0.37500 43.27400 32.55200
H  -4.32800 39.29900 24.25800
H  -4.91600 40.92700 23.82200
H  -4.61300 40.49400 25.49400
H  -4.17100 39.09800 22.01600
H  -3.83000 39.53400 20.26700
H  -4.57300 40.71300 21.46000
H  2.55000 42.84900 20.92400
H  4.93900 42.50600 22.44000
H  3.13900 40.06100 21.89000
H  4.54400 40.87300 21.15600
H  3.06400 40.56200 20.23700
H  4.71200 44.51000 21.09300
H  4.75800 45.08100 22.76200
H  2.94900 46.20800 22.66600
H  1.91100 44.93800 22.14200
H  2.88300 45.84000 20.96700
H  6.85900 42.81600 28.04300
H  6.31300 44.50600 27.87200
H  6.76500 43.51600 26.39600
H  2.10400 43.29900 30.99700
H  0.43100 40.00700 33.42100
H  2.15900 39.91400 33.60000
H  1.30500 39.12800 32.26700

