158

Mg 1.44100 8.17500 26.71200
C  1.88800 9.62800 29.83500
C  1.60100 5.15800 28.23800
C  1.23100 6.93700 23.61400
C  1.74500 11.36300 25.31800
N  1.81500 7.55300 28.80200
C  1.68900 8.26400 29.90500
C  1.61400 7.40600 31.17900
C  1.91000 6.00400 30.66000
C  1.75800 6.23700 29.10400
C  3.25200 5.30400 30.94500
C  0.26400 7.61100 31.91500
C  0.45400 8.08400 33.38600
H  1.59700 7.48800 34.22500
N  1.43700 6.31600 26.01900
C  1.41800 5.14400 26.80300
C  1.28500 4.02800 25.88700
C  1.21600 4.54400 24.56800
C  1.25600 5.97900 24.66100
C  1.22200 2.58700 26.46900
C  1.09600 3.75300 23.33000
O  0.87500 4.28700 22.21100
C  1.13300 2.28100 23.40600
N  1.35500 9.04800 24.73200
C  1.31500 8.30100 23.61800
C  1.53500 9.07600 22.36500
C  1.23900 10.47400 22.84100
C  1.48100 10.30300 24.38900
C  2.85500 8.96600 21.56400
C  -0.11600 11.03700 22.45000
C  -1.43500 10.57500 23.12200
N  1.79800 10.15000 27.34900
C  1.92000 11.33800 26.67700
C  2.08300 12.41700 27.59500
C  2.06400 11.77200 28.88700
C  1.94800 10.40300 28.67400
C  2.07700 13.90200 27.28500
C  2.23600 12.03900 30.29700
O  2.47800 13.04800 30.89600
C  2.01900 10.64300 31.01500
C  3.08600 10.41400 32.05600
O  4.17400 9.85100 31.88000
O  2.79300 11.22400 33.15500
C  3.81000 11.53300 34.19100
H  1.64500 4.15600 28.66900
H  1.43200 6.52900 22.62100
H  1.75100 12.35200 24.85500
H  2.48000 7.76100 31.73800
H  1.13400 5.29000 30.93700
H  4.15300 5.88600 31.13700
H  3.58300 4.77900 30.04900
H  3.12800 4.49000 31.65900
H  -0.31100 6.68800 31.84000
H  -0.24700 8.41000 31.37700
H  -0.50300 7.93500 33.88700
H  0.53900 9.17000 33.40800
H  0.42900 2.09500 25.90600
H  0.85500 2.56500 27.49500
H  2.14700 2.01500 26.38900
H  0.11800 1.89000 23.48200
H  1.76900 1.78800 24.14200
H  1.57600 2.10600 22.42600
H  0.61800 8.73400 21.88500
H  1.93500 11.23400 22.48600
H  3.37500 8.02700 21.75500
H  3.60200 9.73500 21.75900
H  2.55200 9.09600 20.52500
H  -0.26000 11.20600 21.38300
H  -0.02000 12.02200 22.90700
H  -1.88400 11.28300 23.81900
H  -1.19400 9.69600 23.72000
H  -2.17500 10.29400 22.37300
H  2.37400 14.05100 26.24700
H  2.87700 14.34300 27.88000
H  1.09400 14.20000 27.65000
H  1.07700 10.62500 31.56300
H  4.77000 11.07100 33.96100
H  3.47100 11.01200 35.08600
H  3.77600 12.62300 34.20700
Mg 54.69700 23.75900 44.49600
C  52.15800 25.87100 43.35800
C  52.78300 21.07600 43.57500
C  57.40000 21.90400 45.01100
C  56.33100 26.56900 45.81700
N  52.73100 23.56900 43.39900
C  51.90400 24.54300 43.07100
C  50.59200 23.93400 42.47300
C  50.60000 22.40900 43.11800
C  52.10800 22.32000 43.35700
C  49.76600 22.21900 44.40800
C  50.54800 23.97700 40.85100
C  49.12700 24.05700 40.35700
H  48.74600 23.71800 38.93300
N  55.06000 21.83000 44.07500
C  54.15800 20.83000 43.71200
C  54.72000 19.47800 43.79300
C  56.07000 19.68100 44.31000
C  56.26600 21.19300 44.45100
C  53.89000 18.22800 43.38700
C  57.00800 18.50000 44.71600
O  56.70400 17.30800 44.71200
C  58.49400 18.86400 45.06400
N  56.69700 24.26500 45.09900
C  57.61200 23.33100 45.28700
C  58.90700 23.95300 45.84300
C  58.44800 25.37400 46.29000
C  57.07600 25.43300 45.75900
C  59.54600 23.16100 46.97400
C  59.42400 26.52800 45.87700
C  59.84900 27.41200 47.02400
N  54.40700 25.83700 44.57900
C  55.11900 26.85800 45.15700
C  54.37100 28.07400 45.10500
C  53.22300 27.78600 44.29300
C  53.29700 26.39600 44.01900
C  54.75700 29.36400 45.59200
C  51.99400 28.31900 43.82100
O  51.49800 29.47900 43.94000
C  51.29900 27.13800 43.14100
C  51.02200 27.45500 41.70400
O  51.87500 27.54200 40.83800
O  49.69700 27.60300 41.41500
C  49.53500 27.96500 40.00100
H  52.06800 20.25500 43.49100
H  58.30100 21.34400 45.27200
H  56.94200 27.36600 46.24600
H  49.74500 24.57200 42.72500
H  50.38300 21.63300 42.38400
H  50.45700 22.10100 45.24400
H  49.13500 21.33100 44.43700
H  49.10400 23.08000 44.49700
H  50.97800 23.03200 40.52100
H  51.14500 24.81400 40.49100
H  48.91400 25.12600 40.35900
H  48.58600 23.48900 41.11400
H  53.42700 18.48700 42.43500
H  53.07400 17.90400 44.03300
H  54.48300 17.36600 43.08000
H  58.90000 19.54000 44.31100
H  59.15000 18.00000 44.96700
H  58.49900 19.13000 46.12100
H  59.56300 24.02100 44.97500
H  58.36900 25.38500 47.37700
H  60.28200 22.45800 46.58300
H  58.83200 22.51300 47.48300
H  59.95300 23.87500 47.69000
H  58.85900 27.03700 45.09600
H  60.39100 26.08900 45.63100
H  60.65200 27.00100 47.63600
H  58.94400 27.59900 47.60200
H  60.12400 28.37100 46.58600
H  55.81600 29.31600 45.84700
H  54.29700 29.78800 46.48500
H  54.68300 30.15000 44.84100
H  50.35800 26.92200 43.64700
H  49.66000 29.03700 39.84800
H  48.50800 27.70100 39.74900
H  50.17500 27.35700 39.36300

