158

Mg 46.79800 25.30200 28.45800
C  47.86100 27.69600 31.05500
C  46.27500 23.16200 31.15500
C  45.93200 23.16500 26.24000
C  48.23300 27.56000 26.18100
N  46.91200 25.49200 30.78800
C  47.23600 26.57300 31.58500
C  47.03000 26.34400 33.02500
C  46.63700 24.83200 33.09800
C  46.63300 24.43100 31.55900
C  47.61700 23.93600 33.94800
C  46.02000 27.31000 33.72500
C  46.49600 27.79000 35.04600
H  45.48600 27.91300 36.10000
N  46.08400 23.54900 28.65100
C  45.93900 22.75600 29.81200
C  45.14500 21.62600 29.45700
C  44.86800 21.72900 28.01200
C  45.62400 22.85900 27.58400
C  44.75200 20.56600 30.40600
C  44.03200 20.85300 27.14100
O  43.82900 21.10800 25.94800
C  43.19600 19.74200 27.76000
N  47.02600 25.41100 26.42900
C  46.56600 24.41200 25.72900
C  46.89300 24.61400 24.23000
C  47.40000 26.09600 24.20100
C  47.65200 26.37500 25.68100
C  47.93800 23.50400 23.71900
C  46.37800 27.15500 23.58200
C  46.95600 28.07000 22.48500
N  47.77400 27.19800 28.48600
C  48.35500 27.97100 27.44400
C  48.83500 29.23000 27.99400
C  48.64700 29.11600 29.41100
C  48.05500 27.90200 29.66300
C  49.46700 30.35100 27.19100
C  48.89400 29.81900 30.68300
O  49.28800 30.99200 30.85800
C  48.43600 28.81700 31.77100
C  49.42200 28.49800 32.77600
O  50.18500 27.55100 32.67100
O  49.33900 29.31900 33.90400
C  50.08000 28.94000 35.11600
H  46.07000 22.50300 32.00200
H  45.55700 22.44800 25.50700
H  48.70000 28.17800 25.41200
H  48.01300 26.39000 33.49400
H  45.61600 24.57400 33.37900
H  48.03800 23.21000 33.25300
H  47.11800 23.35100 34.72200
H  48.39300 24.49000 34.47600
H  45.10800 26.73500 33.88500
H  45.76700 28.13000 33.05400
H  47.02200 28.74300 34.99200
H  47.27700 27.09800 35.36100
H  43.66900 20.60500 30.52500
H  44.99400 20.69500 31.46100
H  45.11600 19.62600 29.99100
H  43.90000 18.97100 28.07500
H  42.65200 19.22400 26.97000
H  42.58800 20.02200 28.62000
H  45.92100 24.53600 23.74300
H  48.30700 26.18900 23.60400
H  47.91100 22.73100 24.48800
H  48.93800 23.90400 23.55300
H  47.51600 22.98400 22.85900
H  45.99000 27.82800 24.34700
H  45.55000 26.62000 23.11700
H  47.89100 27.63800 22.12900
H  47.10100 29.05300 22.93300
H  46.25000 28.09600 21.65500
H  49.31400 31.23300 27.81300
H  49.04900 30.47400 26.19100
H  50.55000 30.24600 27.13800
H  47.71400 29.44700 32.29000
H  51.12000 29.26200 35.06200
H  49.96300 27.87700 35.32600
H  49.63000 29.45300 35.96600
Mg 47.81300 35.49600 27.83500
C  46.06100 33.82800 30.22800
C  48.04500 38.16700 29.91700
C  48.92500 37.19700 25.17800
C  46.98200 32.83600 25.50900
N  47.10700 35.93600 29.85300
C  46.59500 35.01100 30.66900
C  46.66700 35.61800 32.14300
C  46.87000 37.11200 31.93200
C  47.36800 37.12600 30.51500
C  45.53800 37.77400 32.24200
C  47.74400 34.86500 33.07100
C  48.63200 35.56800 34.02300
H  47.92700 36.40300 35.12300
N  48.48500 37.32800 27.61100
C  48.53700 38.31300 28.60300
C  49.18500 39.43800 28.08600
C  49.50300 39.28700 26.71000
C  48.96600 37.86800 26.43200
C  49.41300 40.60800 28.96800
C  50.11300 40.20600 25.62400
O  50.47200 39.84800 24.53400
C  50.39800 41.56700 26.11500
N  47.96000 35.07500 25.62700
C  48.43500 35.95000 24.73800
C  48.21900 35.50600 23.28700
C  47.76400 34.08900 23.45700
C  47.68200 33.90700 24.97600
C  47.26600 36.57200 22.58200
C  48.67400 33.00000 22.75200
C  48.02400 31.97800 21.84600
N  46.83900 33.62400 27.86600
C  46.61800 32.62500 26.89500
C  45.87100 31.52300 27.47400
C  45.56200 31.99200 28.76400
C  46.25800 33.23700 28.98400
C  45.50700 30.21000 26.89500
C  44.87500 31.60600 29.94400
O  44.24600 30.61000 30.21700
C  45.10500 32.87500 30.87100
C  45.46500 32.41900 32.22700
O  46.37100 31.63300 32.50000
O  44.58400 32.88400 33.15500
C  44.75300 32.42800 34.53900
H  48.21900 38.96800 30.63800
H  49.28300 37.65100 24.25200
H  46.59200 31.97600 24.96000
H  45.69400 35.35500 32.55800
H  47.61200 37.58900 32.57200
H  45.65500 38.85600 32.19400
H  45.29400 37.67300 33.30000
H  44.77400 37.45100 31.53500
H  48.45000 34.25900 32.50200
H  47.15700 34.16000 33.66100
H  49.25100 36.21300 33.40000
H  49.30500 34.83900 34.47500
H  50.36700 41.11900 28.83700
H  49.45100 40.27000 30.00300
H  48.62600 41.35600 28.86900
H  51.30200 41.55900 26.72500
H  49.57200 41.89900 26.74400
H  50.50500 42.32100 25.33400
H  49.20700 35.35000 22.85200
H  46.69900 33.92500 23.29000
H  47.26300 37.44800 23.23100
H  46.27600 36.12800 22.47500
H  47.61300 36.66800 21.55300
H  49.19800 32.33100 23.43500
H  49.48000 33.44100 22.16600
H  48.01500 32.41600 20.84700
H  46.96400 31.87700 22.07600
H  48.49800 31.00000 21.92300
H  45.91200 30.13500 25.88600
H  44.44400 29.98400 26.80500
H  46.09100 29.49000 27.46900
H  44.16600 33.38900 31.07300
H  43.73400 32.36100 34.91900
H  45.34800 33.17000 35.07300
H  45.24500 31.45800 34.60400

