158

Mg 52.88300 24.18100 45.45700
C  50.08800 26.33500 44.76600
C  51.14000 21.78200 43.88700
C  55.65600 22.53600 45.53400
C  54.52000 27.11200 46.58200
N  50.89300 24.22100 44.19700
C  49.97800 25.12900 44.04300
C  48.74400 24.51200 43.26800
C  48.89900 23.01100 43.52300
C  50.40700 22.98500 43.94800
C  48.12000 22.35000 44.60500
C  48.75400 24.93700 41.76200
C  47.30100 25.04200 41.16500
H  46.89700 23.87300 40.23400
N  53.34800 22.41000 44.76500
C  52.51500 21.50500 44.21200
C  53.22700 20.25900 44.09400
C  54.55900 20.51300 44.55400
C  54.58200 21.93700 44.98900
C  52.65900 19.04700 43.37100
C  55.72600 19.48200 44.52500
O  55.51600 18.33300 44.06500
C  57.15500 19.80900 44.87400
N  54.85200 24.79800 45.86400
C  55.78500 23.87600 45.98000
C  56.95300 24.39200 46.85400
C  56.73000 25.94900 46.73600
C  55.27400 25.94300 46.38500
C  57.04300 23.81700 48.31400
C  57.54300 26.63800 45.62300
C  58.49800 27.79300 45.98200
N  52.39200 26.28200 45.87400
C  53.16100 27.32700 46.37100
C  52.29400 28.50300 46.56500
C  51.09200 28.13300 45.94900
C  51.21700 26.76600 45.51600
C  52.74400 29.89900 47.13300
C  49.73500 28.57300 45.68200
O  49.20600 29.57900 46.08100
C  49.13700 27.58300 44.72300
C  49.04800 28.25800 43.44400
O  49.93600 28.49100 42.67800
O  47.66300 28.35100 43.25400
C  47.27100 28.84400 41.91900
H  50.55100 20.99100 43.41700
H  56.50300 21.90800 45.81800
H  55.14400 27.96000 46.87400
H  47.73400 24.77900 43.57800
H  48.70600 22.48100 42.59000
H  47.42500 23.05900 45.05600
H  48.81100 21.92100 45.33000
H  47.59700 21.47900 44.21000
H  49.28800 24.24800 41.10700
H  49.24600 25.90800 41.81100
H  47.38200 25.89200 40.48800
H  46.52000 25.17200 41.91400
H  52.96000 18.90200 42.33300
H  51.58900 19.25700 43.34500
H  52.77600 18.07000 43.84000
H  57.84200 19.07100 44.46100
H  57.06500 19.82500 45.96000
H  57.43000 20.75600 44.40900
H  57.88000 24.12000 46.34900
H  56.95400 26.31000 47.73900
H  56.43000 22.92100 48.42000
H  56.76800 24.61500 49.00400
H  58.10200 23.60900 48.46400
H  56.90300 27.06900 44.85300
H  58.00900 25.82600 45.06400
H  58.41900 27.92800 47.06000
H  58.31000 28.77100 45.53900
H  59.53700 27.50200 45.82800
H  52.06700 30.26000 47.90800
H  52.75400 30.59100 46.29000
H  53.75000 29.83100 47.54700
H  48.10600 27.28200 44.91100
H  47.07400 29.91400 41.99000
H  46.33600 28.35200 41.65000
H  48.00800 28.50200 41.19200
Mg 36.21800 49.85300 25.77600
C  36.26800 47.81200 28.59200
C  35.66200 52.53500 27.75500
C  35.92900 51.66100 22.96000
C  36.61600 46.98300 23.86600
N  36.08400 50.11300 27.98200
C  35.99800 49.18100 28.96100
C  35.84700 49.78400 30.37800
C  35.24900 51.25400 29.99600
C  35.71400 51.30000 28.48800
C  33.73100 51.51700 30.17000
C  37.33300 49.82200 31.02000
C  37.40300 49.52700 32.48400
H  36.11400 49.72300 33.31800
N  36.02700 51.83900 25.42400
C  35.81400 52.76400 26.35900
C  35.69200 54.07800 25.67800
C  35.62200 53.85800 24.28400
C  35.83900 52.40100 24.21400
C  35.86100 55.37200 26.44400
C  35.54900 54.73500 23.14100
O  35.53700 54.41600 21.97500
C  35.47600 56.25300 23.45800
N  36.11700 49.35500 23.64900
C  36.15300 50.29500 22.73500
C  36.13600 49.75200 21.32400
C  36.45100 48.21000 21.54300
C  36.46200 48.16200 23.10500
C  34.75700 50.06900 20.58100
C  37.78400 47.70000 20.80000
C  37.50800 46.66600 19.77400
N  36.33400 47.84400 26.06600
C  36.63900 46.77800 25.22400
C  36.91300 45.51100 25.96600
C  36.82800 45.91600 27.33100
C  36.43100 47.27700 27.30600
C  37.09200 44.13500 25.36200
C  36.82400 45.43900 28.68900
O  37.08800 44.33600 29.04400
C  36.43600 46.65800 29.64100
C  35.11600 46.52000 30.33400
O  34.05000 46.57800 29.79100
O  35.34600 46.34800 31.71600
C  34.14600 46.44200 32.49700
H  35.37400 53.39700 28.36100
H  35.84600 52.25100 22.04500
H  36.82100 46.06100 23.31900
H  35.08100 49.26400 30.95300
H  35.82700 51.99100 30.55400
H  33.28500 51.70500 29.19400
H  33.55900 52.36200 30.83700
H  33.16600 50.63300 30.46700
H  37.85600 50.76200 30.84500
H  37.84500 49.00500 30.51200
H  38.02400 50.28500 32.96200
H  37.85300 48.56600 32.73500
H  34.86100 55.80500 26.43100
H  36.51500 56.16300 26.07600
H  36.08400 55.27800 27.50600
H  35.14700 56.80900 22.58100
H  36.45000 56.61500 23.78800
H  34.74600 56.40100 24.25400
H  36.88600 50.24500 20.70600
H  35.61200 47.67800 21.09500
H  33.98600 50.32700 21.30700
H  34.28700 49.17300 20.17500
H  34.84700 50.77100 19.75200
H  38.38200 47.15500 21.53200
H  38.41700 48.43600 20.30600
H  37.56700 47.03800 18.75100
H  36.53600 46.17900 19.84700
H  38.16100 45.83600 20.04400
H  36.26900 43.73200 24.77300
H  37.46300 43.35800 26.03000
H  37.78600 44.24200 24.52700
H  37.24400 46.79600 30.36000
H  33.31500 45.79500 32.21500
H  33.70400 47.43500 32.42200
H  34.52000 46.19400 33.49000

