158

Mg 41.19000 9.53600 30.00800
C  43.05000 11.04500 32.56500
C  39.07300 8.13300 32.36900
C  39.36700 8.32100 27.55500
C  43.55400 10.78000 27.74100
N  41.02400 9.67500 32.24200
C  41.85100 10.38300 33.02800
C  41.44200 10.16900 34.50200
C  40.43000 8.96500 34.40500
C  40.13400 8.93800 32.91400
C  40.90500 7.60900 34.92900
C  41.03300 11.60700 35.04800
C  41.81400 12.20200 36.17100
H  41.05500 12.76500 37.38700
N  39.42700 8.42100 29.95700
C  38.73200 7.92200 31.01200
C  37.69900 7.12200 30.52400
C  37.55300 7.38600 29.12500
C  38.82800 8.03400 28.81100
C  36.89800 6.30600 31.48000
C  36.46200 6.91000 28.19900
O  36.60800 7.09900 26.97900
C  35.18500 6.26000 28.70700
N  41.49700 9.49900 27.99500
C  40.59300 8.86000 27.20600
C  41.14300 8.77100 25.80500
C  42.40900 9.69900 25.75000
C  42.45200 10.07200 27.18800
C  41.40800 7.31600 25.29000
C  42.23800 10.95400 24.93000
C  41.45800 12.15800 25.49000
N  42.98300 10.62000 30.06400
C  43.91200 11.02400 29.11200
C  44.96200 11.74300 29.72600
C  44.66800 11.78000 31.10800
C  43.45500 11.06400 31.24800
C  46.08900 12.42900 28.97500
C  45.11900 12.22700 32.43000
O  46.19400 12.75300 32.76000
C  44.05500 11.75200 33.44300
C  44.93700 10.99600 34.36600
O  45.41200 9.87700 34.21400
O  45.20200 11.81700 35.47700
C  45.79500 11.10900 36.66800
H  38.58500 7.53500 33.14200
H  38.86800 7.89600 26.68100
H  44.27100 11.27500 27.08300
H  42.32900 9.81000 35.02500
H  39.52800 9.23300 34.95600
H  40.12500 7.16600 35.54900
H  41.82000 7.63200 35.52100
H  40.98900 6.89000 34.11500
H  39.97700 11.58600 35.31700
H  41.08300 12.40500 34.30700
H  42.32000 13.08400 35.77700
H  42.62300 11.54600 36.49100
H  36.07700 6.86600 31.92800
H  37.46400 5.89900 32.31800
H  36.43900 5.43200 31.01800
H  34.24200 6.54000 28.23600
H  34.86100 6.55600 29.70500
H  35.30700 5.17700 28.70400
H  40.41500 9.18200 25.10700
H  43.33600 9.15700 25.56300
H  40.86700 6.97000 24.40900
H  41.34900 6.58600 26.09700
H  42.43200 7.25500 24.92100
H  41.85500 10.79000 23.92300
H  43.28700 11.22100 24.80100
H  41.03600 12.67300 24.62700
H  42.10100 12.89100 25.97800
H  40.76400 11.73200 26.21400
H  45.67500 12.78400 28.03100
H  46.92300 11.73100 28.90700
H  46.35300 13.30300 29.57000
H  43.53700 12.64500 33.79100
H  45.01200 10.49900 37.11900
H  46.12800 11.86900 37.37500
H  46.62900 10.50100 36.31900
Mg -6.30400 25.22700 25.71300
C  -4.77000 26.46600 28.62000
C  -7.87000 22.78600 27.74100
C  -7.16800 23.50800 22.96400
C  -4.11300 27.19200 23.80600
N  -6.41800 24.81000 27.93600
C  -5.68700 25.48600 28.92000
C  -5.96600 24.91100 30.33300
C  -6.71300 23.50400 29.97200
C  -7.09900 23.74100 28.45200
C  -5.76800 22.31900 30.30300
C  -6.72200 25.94400 31.19200
C  -6.47200 26.12900 32.67900
H  -5.71700 24.99000 33.37500
N  -7.68800 23.55600 25.37900
C  -8.20600 22.69000 26.35500
C  -9.02900 21.72500 25.72000
C  -8.78600 21.91800 24.28600
C  -7.85700 23.02600 24.13900
C  -9.85600 20.69700 26.41400
C  -9.36100 21.05400 23.11400
O  -8.93300 21.28000 21.98300
C  -10.39600 19.96300 23.34000
N  -5.79800 25.47400 23.65100
C  -6.20200 24.48800 22.75100
C  -5.63200 24.70700 21.38200
C  -4.70600 25.96600 21.65200
C  -4.98600 26.34600 23.10700
C  -4.97000 23.46200 20.79900
C  -4.90800 27.17000 20.68500
C  -3.57900 27.88300 20.15800
N  -4.66200 26.57900 26.10500
C  -3.89700 27.29300 25.19100
C  -2.98600 28.17000 25.99800
C  -3.31900 27.88000 27.35400
C  -4.32600 26.92800 27.36300
C  -1.92000 28.99200 25.41400
C  -3.00000 28.11500 28.77900
O  -2.12800 28.76500 29.28000
C  -3.89700 27.23800 29.60200
C  -2.95600 26.41000 30.44200
O  -2.38400 25.41300 29.98100
O  -2.78400 26.95800 31.61300
C  -2.05000 26.15700 32.63300
H  -8.24800 21.93400 28.31000
H  -7.44300 22.97100 22.05400
H  -3.54600 27.89200 23.18800
H  -5.06400 24.64200 30.88200
H  -7.58200 23.34900 30.61100
H  -5.54400 21.79600 29.37400
H  -6.34600 21.56400 30.83600
H  -4.86000 22.63400 30.81600
H  -7.76400 25.66500 31.04000
H  -6.71900 26.91200 30.69100
H  -7.45200 26.21400 33.14900
H  -5.80600 26.97500 32.84600
H  -9.27600 19.79700 26.61700
H  -10.74800 20.45800 25.83600
H  -10.26000 21.22100 27.28000
H  -10.74400 19.58900 22.37700
H  -11.17400 20.45200 23.92600
H  -9.86300 19.16800 23.86100
H  -6.37400 25.02800 20.65200
H  -3.66700 25.69800 21.46200
H  -3.90400 23.66100 20.69200
H  -5.41900 23.10800 19.87100
H  -5.12500 22.68200 21.54500
H  -5.53400 27.93200 21.15000
H  -5.42500 26.84200 19.78300
H  -3.62100 28.90300 20.54000
H  -3.58200 27.75400 19.07600
H  -2.71600 27.33200 20.53100
H  -2.25700 30.02700 25.34700
H  -1.72500 28.70600 24.38000
H  -0.98500 28.98300 25.97400
H  -4.50900 27.86900 30.24700
H  -0.98900 26.39500 32.70200
H  -2.17200 25.07800 32.54600
H  -2.42500 26.43400 33.61900

