158

Mg -1.24200 17.84000 26.21700
C  -1.53800 15.46500 28.92500
C  -1.76600 20.26200 28.70200
C  -1.63900 20.09800 23.80700
C  -1.56000 15.18800 23.99100
N  -1.66900 17.85600 28.58100
C  -1.51400 16.76600 29.44500
C  -1.84400 17.23600 30.88800
C  -2.23800 18.77400 30.73800
C  -1.77900 19.03600 29.26000
C  -3.74400 19.12600 30.96900
C  -0.69600 16.83700 31.95200
C  -0.71700 17.58700 33.28200
H  -0.55400 16.96900 34.61600
N  -1.45700 19.88300 26.23600
C  -1.69700 20.71700 27.36700
C  -1.97700 22.07900 26.98300
C  -1.84000 22.09200 25.53100
C  -1.59900 20.63600 25.09000
C  -2.36400 23.12400 28.00500
C  -1.97400 23.11000 24.51900
O  -1.81000 22.99800 23.28000
C  -2.20400 24.52400 25.06600
N  -1.79900 17.70200 24.19500
C  -1.68000 18.75900 23.37700
C  -1.66200 18.30700 21.88200
C  -1.45000 16.75600 21.93400
C  -1.65100 16.48900 23.43800
C  -2.84400 18.81900 21.03800
C  -0.12300 16.14200 21.38200
C  -0.14800 15.34800 20.06700
N  -1.43500 15.81400 26.35500
C  -1.47700 14.85500 25.32900
C  -1.45200 13.50100 25.92300
C  -1.57300 13.75200 27.29200
C  -1.44200 15.13400 27.53500
C  -1.50500 12.17000 25.22800
C  -1.68400 13.03700 28.55600
O  -1.75400 11.84800 28.83600
C  -1.67400 14.13300 29.65200
C  -0.64600 13.72600 30.58300
O  0.57000 13.85300 30.52400
O  -1.33300 13.41900 31.74100
C  -0.41200 12.86300 32.76700
H  -1.94000 20.90800 29.56500
H  -1.62400 20.80200 22.97300
H  -1.34800 14.35800 23.31300
H  -2.66200 16.60500 31.23700
H  -1.69300 19.30900 31.51500
H  -4.04900 19.68500 30.08400
H  -3.87500 19.72500 31.87100
H  -4.34400 18.22600 31.10200
H  0.26600 16.84800 31.43800
H  -0.95500 15.79000 32.11300
H  -1.67100 18.10700 33.37300
H  0.05900 18.33200 33.10500
H  -3.11900 23.74400 27.52200
H  -1.50200 23.76500 28.19000
H  -2.70300 22.71700 28.95700
H  -2.01100 25.29700 24.32100
H  -1.43200 24.59800 25.83200
H  -3.24300 24.45900 25.39000
H  -0.79800 18.82800 21.46800
H  -2.29600 16.21100 21.51400
H  -2.61000 19.48900 20.21000
H  -3.55700 19.33000 21.68500
H  -3.32200 17.92400 20.63800
H  0.31900 15.48000 22.12600
H  0.64900 16.90100 21.26400
H  0.62000 15.71000 19.38400
H  -1.00700 15.62100 19.45500
H  0.00800 14.28100 20.23000
H  -0.98000 12.14100 24.27300
H  -2.58500 12.06600 25.12600
H  -0.93800 11.40300 25.75500
H  -2.65900 14.16100 30.11800
H  0.30500 12.16100 32.34000
H  -1.06200 12.33200 33.46200
H  0.26200 13.56700 33.25500
Mg 41.38000 7.44500 29.89600
C  42.94000 9.05400 32.46700
C  38.88900 6.55400 32.08900
C  39.89100 5.74000 27.36400
C  44.18100 8.10700 27.74200
N  41.03100 7.80000 32.04700
C  41.74800 8.56100 32.87800
C  41.10000 8.64300 34.22100
C  39.93000 7.59100 34.15300
C  39.87800 7.30700 32.67500
C  40.01900 6.26700 35.11000
C  40.57300 10.08000 34.74200
C  39.98100 9.99700 36.18500
H  40.50700 10.93300 37.28600
N  39.54800 6.51800 29.72000
C  38.66500 6.19300 30.77000
C  37.50900 5.55900 30.20100
C  37.72600 5.39200 28.77100
C  39.09600 5.88500 28.54200
C  36.36600 5.24000 31.11100
C  36.76700 4.85700 27.71100
O  37.01500 4.72100 26.53500
C  35.32600 4.49500 28.20600
N  41.94900 7.03400 27.77800
C  41.18100 6.26100 27.00400
C  41.71800 6.10800 25.59600
C  43.13200 6.83700 25.67900
C  43.09200 7.38100 27.13200
C  41.76100 4.65500 25.10000
C  43.35200 8.00300 24.64800
C  42.79800 9.38600 25.13700
N  43.11200 8.39900 30.02000
C  44.12100 8.64000 29.02400
C  45.18100 9.43300 29.61100
C  44.74400 9.64500 30.98700
C  43.52400 8.97200 31.16200
C  46.46600 9.84200 29.02000
C  45.10000 10.25100 32.24300
O  46.04800 10.96900 32.50400
C  43.96600 9.87400 33.27200
C  44.58500 9.19200 34.40500
O  45.22100 8.11600 34.34000
O  44.28900 9.77800 35.58500
C  44.81000 9.16400 36.81100
H  38.22700 6.17900 32.87300
H  39.37600 5.11400 26.63100
H  45.02200 8.41600 27.11800
H  41.75800 8.27900 35.01000
H  38.94700 8.05700 34.20900
H  40.65100 6.49100 35.97000
H  40.36500 5.40900 34.53400
H  39.04200 6.10600 35.56500
H  39.67500 10.39700 34.21200
H  41.32900 10.86300 34.69100
H  40.20700 9.01500 36.60100
H  38.89200 10.04000 36.14400
H  35.81700 6.18000 31.18000
H  36.70300 4.87300 32.08100
H  35.69300 4.50000 30.67800
H  34.82000 5.27600 28.77300
H  35.60400 3.63200 28.81000
H  34.72700 4.10000 27.38500
H  41.12300 6.76500 24.96000
H  43.84900 6.02000 25.61000
H  42.73000 4.20000 24.89500
H  41.10400 4.51900 24.24100
H  41.49000 3.93200 25.86900
H  42.90100 7.78100 23.68100
H  44.42200 8.16500 24.51500
H  42.43000 9.82900 24.21200
H  43.64000 10.04300 25.35300
H  41.99300 9.49300 25.86400
H  46.34200 10.67600 28.33000
H  47.03500 8.98500 28.65900
H  46.99500 10.34700 29.82900
H  43.53300 10.81100 33.62200
H  43.90100 9.01900 37.39500
H  45.52800 9.85500 37.25400
H  45.24100 8.17300 36.67200

