158

Mg 25.68100 -0.75900 29.16400
C  27.61900 -1.12900 32.05100
C  23.02400 -0.02900 31.21000
C  23.74100 -0.83500 26.40800
C  28.44500 -1.60400 27.29300
N  25.44100 -0.45700 31.33300
C  26.37600 -0.61600 32.33100
C  25.80300 -0.27400 33.73900
C  24.32100 0.06400 33.43900
C  24.18600 -0.21200 31.90100
C  23.42800 -0.79200 34.40900
C  26.58400 0.88300 34.48100
C  27.08800 0.53500 35.91000
H  26.45200 1.29400 37.06100
N  23.73800 -0.39800 28.86900
C  22.78100 -0.04100 29.80300
C  21.52500 0.21900 29.13400
C  21.67900 0.05500 27.70900
C  23.10600 -0.47600 27.60800
C  20.26100 0.50100 29.88600
C  20.65500 0.19300 26.55900
O  20.96400 -0.01500 25.42300
C  19.29100 0.80900 26.76900
N  26.00900 -1.30300 27.16200
C  25.09500 -1.08600 26.22900
C  25.62200 -1.68300 24.93500
C  27.13700 -1.63300 25.10000
C  27.20600 -1.48000 26.62000
C  25.08900 -3.13100 24.51500
C  27.90700 -0.59000 24.32000
C  29.03800 -1.03900 23.43200
N  27.65000 -1.31700 29.53200
C  28.65900 -1.62700 28.68400
C  29.85300 -1.96700 29.45000
C  29.46300 -1.74200 30.77800
C  28.13200 -1.33100 30.77700
C  31.16600 -2.34800 29.00100
C  29.94900 -1.70900 32.16600
O  31.06000 -1.82000 32.70600
C  28.78300 -1.29300 33.03800
C  28.51800 -2.35100 34.03900
O  27.93300 -3.37100 33.76700
O  29.00400 -2.02000 35.30400
C  28.69700 -2.98200 36.39800
H  22.27400 0.31800 31.92500
H  23.12400 -1.07300 25.53900
H  29.29500 -1.79100 26.63300
H  25.94800 -1.23400 34.23600
H  24.10700 1.12200 33.59300
H  23.95900 -0.88500 35.35600
H  23.16900 -1.71800 33.89600
H  22.53500 -0.20700 34.62400
H  25.90600 1.73600 34.51300
H  27.37800 1.31900 33.87300
H  28.09400 0.94000 35.80200
H  26.96500 -0.54000 36.03900
H  20.34500 0.61300 30.96700
H  19.52700 -0.27300 29.66400
H  19.78700 1.38700 29.46300
H  19.40400 1.86100 27.03100
H  18.69000 0.26000 27.49400
H  18.76100 0.62000 25.83600
H  25.33500 -1.01700 24.12200
H  27.53000 -2.61100 24.82000
H  25.79700 -3.78900 25.02000
H  25.04900 -3.32100 23.44200
H  24.12800 -3.32200 24.99100
H  28.28000 0.08600 25.09000
H  27.20200 -0.00900 23.72600
H  29.17200 -0.49500 22.49600
H  28.81000 -2.07600 23.18500
H  29.99500 -1.14000 23.94300
H  31.62900 -3.04300 29.70200
H  31.69000 -1.39300 29.03400
H  31.21500 -2.76400 27.99500
H  29.07200 -0.38100 33.56000
H  27.88100 -2.69900 37.06400
H  29.54400 -2.93700 37.08200
H  28.60700 -4.02900 36.10600
Mg 8.51100 47.81200 29.20100
C  6.68900 47.12800 32.15000
C  11.36100 47.63000 31.09600
C  10.34000 48.65400 26.54800
C  5.55100 48.45000 27.49600
N  8.95300 47.50700 31.39900
C  8.09200 47.19000 32.42300
C  8.78900 47.16000 33.82400
C  10.23400 47.44900 33.42700
C  10.22500 47.41700 31.86100
C  10.84800 48.73600 34.12100
C  8.53400 45.82200 34.47600
C  9.55200 45.42500 35.64200
H  8.95400 44.77900 36.88500
N  10.57600 47.83000 28.79700
C  11.55500 47.73400 29.72500
C  12.88000 47.76900 29.08400
C  12.56200 47.92600 27.65100
C  11.11800 48.13200 27.58500
C  14.17900 47.52800 29.79400
C  13.53400 48.03100 26.46900
O  13.13000 48.21300 25.34900
C  15.12500 47.88900 26.69400
N  7.96700 48.63200 27.33600
C  8.93100 48.92100 26.42800
C  8.31600 49.54700 25.17900
C  6.77100 49.32900 25.33600
C  6.70400 48.76000 26.78400
C  8.86000 51.00100 24.93300
C  6.13500 48.35200 24.26300
C  5.71500 48.99700 22.90400
N  6.46800 47.76400 29.60700
C  5.37700 47.98200 28.83800
C  4.18900 47.76400 29.61700
C  4.63300 47.42200 30.91300
C  6.04900 47.47000 30.87800
C  2.79700 47.80400 29.02300
C  4.21800 47.12300 32.26900
O  3.09900 47.06900 32.82300
C  5.51400 46.84400 33.05600
C  5.46700 45.38500 33.44400
O  5.84600 44.40400 32.77600
O  5.01700 45.29600 34.76700
C  5.14600 43.96500 35.36400
H  12.27200 47.67100 31.69700
H  10.88600 48.81100 25.61600
H  4.65400 48.60200 26.89200
H  8.46900 47.94600 34.50900
H  10.79200 46.55400 33.70200
H  11.93300 48.63000 34.09500
H  10.53400 48.65000 35.16100
H  10.44100 49.66600 33.72500
H  8.66100 45.05600 33.71100
H  7.53600 45.63600 34.87100
H  10.18000 46.20900 36.06700
H  10.20400 44.62100 35.30000
H  14.81000 46.70600 29.45800
H  14.05400 47.30000 30.85200
H  14.68100 48.48500 29.93900
H  15.38500 48.38500 27.62900
H  15.74600 48.14600 25.83500
H  15.36500 46.84300 26.88300
H  8.55800 49.07000 24.23000
H  6.30000 50.29900 25.17800
H  8.17300 51.70000 24.45500
H  9.67100 51.04100 24.20600
H  9.40900 51.31500 25.82100
H  5.20700 47.97000 24.68900
H  6.83000 47.61200 23.86800
H  6.34200 48.67800 22.07100
H  5.76500 50.08000 23.01000
H  4.72300 48.63100 22.64100
H  2.84600 47.55100 27.96400
H  2.29500 48.74500 29.25100
H  2.26700 47.01700 29.55900
H  5.67000 47.45000 33.94900
H  6.15700 43.55700 35.35100
H  4.59000 43.36000 34.64800
H  4.68000 43.93800 36.34900

