158

Mg 16.64500 53.54600 25.56500
C  17.92300 51.81800 28.39700
C  14.31300 54.85300 27.56500
C  15.11500 54.57700 22.83800
C  19.01200 51.71600 23.62500
N  16.23600 53.41500 27.74000
C  16.92600 52.73000 28.72500
C  16.48300 53.26800 30.10000
C  15.17200 53.97200 29.75900
C  15.20900 54.12100 28.26700
C  13.91300 53.26100 30.39700
C  17.55500 54.12900 30.82400
C  17.96700 53.76400 32.31400
H  17.01600 52.86900 33.08100
N  15.00700 54.71800 25.22900
C  14.15800 55.12600 26.18000
C  13.01800 55.81300 25.58800
C  13.27600 55.82800 24.19200
C  14.49800 55.03700 24.03400
C  11.89800 56.24400 26.53300
C  12.43100 56.39300 23.06300
O  12.80500 56.23400 21.91200
C  11.18100 57.29600 23.35100
N  17.19000 53.41100 23.53800
C  16.35400 53.89500 22.55400
C  16.67200 53.37400 21.12700
C  18.05200 52.65300 21.39100
C  18.17900 52.63800 22.93700
C  15.55800 52.45100 20.53100
C  19.25900 53.42400 20.80800
C  19.65200 53.08000 19.40600
N  18.10900 51.95300 25.87200
C  19.00900 51.41300 25.00800
C  19.97300 50.54700 25.78200
C  19.49600 50.64100 27.09500
C  18.41700 51.53300 27.12900
C  21.16700 49.92600 25.21200
C  19.84000 50.32800 28.48600
O  20.74300 49.63800 28.96900
C  18.82400 51.15900 29.40900
C  18.10300 50.21100 30.28800
O  16.99300 49.76000 30.07900
O  19.00400 49.74200 31.25900
C  18.54500 48.73900 32.18000
H  13.58100 55.23300 28.28100
H  14.63800 54.88800 21.90600
H  19.81000 51.30600 23.00200
H  16.31000 52.39500 30.73000
H  15.12200 54.97900 30.17200
H  14.17700 52.26700 30.75700
H  13.20600 53.01200 29.60500
H  13.34900 53.94600 31.02900
H  17.21100 55.16100 30.89800
H  18.46100 54.15600 30.21900
H  18.06600 54.71800 32.83100
H  19.00000 53.42600 32.40200
H  11.62700 55.55900 27.33700
H  10.96800 56.53100 26.04200
H  12.27000 57.20000 26.90200
H  11.30200 57.92400 24.23400
H  10.37700 56.62100 23.64300
H  10.92900 58.00000 22.55800
H  16.71900 54.29200 20.54100
H  17.94600 51.62700 21.04100
H  15.30200 52.84000 19.54600
H  14.56800 52.50300 20.98300
H  15.85500 51.40900 20.40400
H  20.14200 53.39800 21.44600
H  19.00700 54.48300 20.86500
H  20.73900 53.16700 19.38600
H  19.19400 53.81200 18.74100
H  19.46300 52.07000 19.04300
H  21.91400 50.00600 26.00200
H  21.60100 50.39700 24.33000
H  20.89500 48.91000 24.92900
H  19.44400 51.92000 29.88300
H  18.06900 49.15000 33.07100
H  19.42000 48.18300 32.51600
H  17.82200 48.08300 31.69500
Mg -10.74900 40.59500 41.25300
C  -9.62500 37.42400 40.06800
C  -7.99900 41.96800 39.48800
C  -12.31100 43.54400 41.01900
C  -13.69700 39.00800 42.19500
N  -9.01400 39.77000 39.90800
C  -8.75800 38.44800 39.64100
C  -7.41700 38.35200 38.97400
C  -6.81600 39.76600 38.94500
C  -8.00700 40.60000 39.43700
C  -5.45000 40.03400 39.72800
C  -7.51100 37.61100 37.65200
C  -6.54900 36.38600 37.40400
H  -5.59600 36.51200 36.14100
N  -10.21000 42.51200 40.50700
C  -9.01600 42.82400 39.93500
C  -8.97000 44.27500 39.77000
C  -10.23600 44.80400 40.12500
C  -10.96900 43.59600 40.57300
C  -7.72500 44.98300 39.22900
C  -10.58400 46.26500 40.11000
O  -9.83900 47.15300 39.67900
C  -11.97700 46.80200 40.49800
N  -12.74100 41.16200 41.38700
C  -13.14900 42.46500 41.36800
C  -14.63700 42.61900 41.82200
C  -15.08800 41.14700 42.06400
C  -13.76700 40.36400 41.87800
C  -14.84300 43.48200 43.04700
C  -16.21800 40.57600 41.13700
C  -15.88900 39.63400 40.00500
N  -11.51000 38.65700 41.25100
C  -12.66500 38.14200 41.77500
C  -12.64300 36.68900 41.84700
C  -11.48100 36.37000 41.17200
C  -10.80600 37.61800 40.79700
C  -13.70200 35.68100 42.29500
C  -10.72100 35.31900 40.67500
O  -10.86900 34.06100 40.85700
C  -9.56600 35.89900 39.83200
C  -8.37200 35.18800 40.35100
O  -7.95200 35.29100 41.48700
O  -7.97200 34.28600 39.41700
C  -7.00500 33.29300 39.85400
H  -7.01800 42.30000 39.14100
H  -12.83000 44.49000 40.85200
H  -14.60100 38.59600 42.64900
H  -6.84000 37.69200 39.62100
H  -6.61200 40.07700 37.92000
H  -5.13300 39.20100 40.35600
H  -5.54200 40.92600 40.34700
H  -4.54700 40.20600 39.14300
H  -7.40100 38.40900 36.91800
H  -8.54400 37.28900 37.51700
H  -7.06300 35.46600 37.12600
H  -5.98400 36.15700 38.30800
H  -7.79500 45.16600 38.15700
H  -6.89900 44.29400 39.40600
H  -7.48500 45.92400 39.72400
H  -12.12800 46.63300 41.56400
H  -12.56700 46.14800 39.85600
H  -12.14400 47.84300 40.22200
H  -15.15600 43.00600 40.94500
H  -15.30800 40.95100 43.11300
H  -15.51100 44.28600 42.73900
H  -13.87500 43.84500 43.39400
H  -15.47400 42.91000 43.72700
H  -16.71400 41.48400 40.79700
H  -16.95500 40.06500 41.75700
H  -16.39800 38.69400 40.21300
H  -14.84700 39.34300 39.87300
H  -16.24000 40.06900 39.06900
H  -13.93800 36.02800 43.30100
H  -13.35600 34.65000 42.22000
H  -14.54300 35.89600 41.63500
H  -9.74500 35.84400 38.75800
H  -6.06500 33.84000 39.92600
H  -6.80800 32.46400 39.17400
H  -7.36300 32.83100 40.77500

