158

Mg 16.96300 52.62200 26.84200
C  19.04100 51.17500 29.10600
C  14.62900 53.26900 29.44800
C  14.69300 53.97800 24.57500
C  19.03900 51.73000 24.33900
N  16.82100 52.15000 28.91400
C  17.91500 51.82000 29.65300
C  17.69900 52.10200 31.16300
C  16.18700 52.40200 31.32000
C  15.78400 52.56000 29.78700
C  15.33900 51.32800 32.14900
C  18.60600 53.14500 31.71700
C  18.90400 53.10300 33.21200
H  17.99700 52.39100 34.27500
N  15.02100 53.60200 27.02600
C  14.23300 53.74200 28.14800
C  13.02500 54.47800 27.84100
C  13.16000 54.87900 26.46300
C  14.34200 54.12500 25.98200
C  11.95000 54.82700 28.85400
C  12.32600 55.84700 25.66400
O  12.43600 55.96500 24.47800
C  11.16000 56.45100 26.36800
N  16.80000 52.73500 24.77100
C  15.81700 53.38900 24.03800
C  16.04100 53.16800 22.55400
C  17.55800 52.91200 22.45300
C  17.86900 52.48100 23.95500
C  15.04800 52.09200 22.00200
C  18.43400 54.11100 22.06400
C  18.60200 54.31100 20.59100
N  18.56600 51.52900 26.65400
C  19.37600 51.24300 25.59900
C  20.53900 50.42500 25.98300
C  20.46700 50.41400 27.34400
C  19.25900 51.12300 27.70700
C  21.56200 49.69500 24.99800
C  21.06200 49.94100 28.60900
O  22.06800 49.22900 28.67700
C  20.22900 50.51100 29.88700
C  19.83200 49.52500 30.91000
O  19.10000 48.57700 30.77900
O  20.32900 49.97100 32.15400
C  19.99300 49.04200 33.27200
H  14.12800 53.61100 30.35600
H  14.01400 54.41600 23.84000
H  19.80200 51.60100 23.56800
H  17.93400 51.19000 31.71200
H  16.06400 53.40500 31.73000
H  14.67700 50.85400 31.42400
H  14.71000 51.87700 32.85000
H  15.99500 50.63300 32.67200
H  18.24700 54.13700 31.44400
H  19.62200 53.21800 31.33100
H  18.69500 54.13400 33.49500
H  19.93800 52.77300 33.31600
H  11.88100 54.11900 29.67900
H  10.92400 54.80300 28.48600
H  12.14000 55.81400 29.27700
H  10.74900 57.22300 25.71800
H  11.37600 56.87100 27.35100
H  10.48000 55.61200 26.51300
H  15.79400 54.13300 22.11100
H  17.65500 52.04400 21.80100
H  15.65000 51.31700 21.52700
H  14.47300 52.67500 21.28200
H  14.35700 51.62900 22.70500
H  19.40900 53.98100 22.53500
H  18.02600 55.05800 22.41700
H  18.73300 55.34300 20.26500
H  17.72200 53.78100 20.22800
H  19.50500 53.78400 20.28200
H  21.11100 49.57700 24.01300
H  21.73600 48.72200 25.45700
H  22.52200 50.21200 24.96600
H  20.61800 51.36200 30.44400
H  20.58800 48.13500 33.15600
H  18.93700 48.77600 33.24600
H  20.24300 49.51700 34.22000
Mg -1.76500 35.24500 26.47600
C  -3.76100 33.84900 29.13300
C  -1.01200 37.80700 28.72400
C  -0.12500 36.69900 24.03300
C  -3.00200 32.86100 24.34200
N  -2.49900 35.79600 28.63800
C  -3.11100 35.01400 29.55500
C  -2.98100 35.49600 31.00500
C  -2.24200 36.90700 30.79200
C  -1.87400 36.84400 29.30500
C  -2.98300 38.22100 31.23600
C  -2.19700 34.51900 31.85500
C  -1.61700 35.06300 33.18700
H  -1.83100 34.26600 34.47000
N  -0.68400 36.92000 26.45100
C  -0.51300 37.89000 27.38400
C  0.47800 38.86200 26.93400
C  0.87300 38.45900 25.62100
C  -0.07600 37.35800 25.30300
C  1.08900 39.94900 27.77800
C  1.92100 38.95200 24.68500
O  2.20000 38.63300 23.53400
C  2.67500 40.11800 25.19300
N  -1.70800 34.89500 24.43500
C  -0.86400 35.60300 23.61200
C  -0.76700 35.03200 22.26100
C  -1.53500 33.65400 22.39500
C  -2.13000 33.83500 23.78000
C  -1.32800 35.98500 21.16200
C  -0.54500 32.44900 22.34900
C  0.23300 31.98900 23.64200
N  -3.03500 33.57500 26.68100
C  -3.54500 32.80700 25.64600
C  -4.60500 31.93400 26.09500
C  -4.60500 32.22900 27.50000
C  -3.72200 33.33500 27.79000
C  -5.50900 31.02300 25.37200
C  -5.12300 31.90200 28.78300
O  -5.97500 31.01900 28.99700
C  -4.60700 32.86700 29.93700
C  -5.76200 33.44900 30.72100
O  -6.62200 34.24100 30.40400
O  -5.66600 32.90800 31.95800
C  -6.86100 33.06700 32.84800
H  -0.65300 38.55700 29.43200
H  0.40100 37.13700 23.18200
H  -3.42700 32.18100 23.60000
H  -4.01800 35.60300 31.32600
H  -1.27000 36.92500 31.28500
H  -3.92300 38.12900 31.77900
H  -3.00800 38.87100 30.36100
H  -2.33500 38.68500 31.98000
H  -1.42900 34.18500 31.15700
H  -2.91600 33.70900 31.98000
H  -2.01100 36.07400 33.28200
H  -0.52800 35.03400 33.14700
H  0.73500 39.90500 28.80800
H  0.84400 40.89800 27.30200
H  2.16300 39.76300 27.80100
H  2.06200 40.96700 25.49500
H  3.48800 40.42800 24.53600
H  3.26800 39.78000 26.04400
H  0.28800 34.81900 22.08700
H  -2.29200 33.52600 21.62200
H  -2.27200 35.70400 20.69500
H  -0.57700 36.05100 20.37500
H  -1.43200 36.97800 21.60000
H  0.19400 32.66700 21.57900
H  -1.14000 31.58300 22.05800
H  1.31000 32.14100 23.57700
H  0.11500 30.92700 23.86000
H  -0.09600 32.54200 24.52200
H  -5.13800 30.94400 24.35000
H  -6.55100 31.32300 25.26900
H  -5.52800 29.99300 25.72900
H  -3.99000 32.19100 30.53000
H  -6.52500 33.66900 33.69200
H  -7.16100 32.14400 33.34500
H  -7.73500 33.58000 32.44800

