158

Mg 35.92800 1.24000 29.73000
C  33.79300 2.23700 32.37400
C  38.50400 0.96400 32.13200
C  38.11100 0.94400 27.26400
C  33.25800 1.72700 27.50700
N  36.11300 1.52500 32.02900
C  35.11400 1.96400 32.83700
C  35.61300 1.75800 34.32600
C  37.19800 1.75700 34.17400
C  37.27900 1.41000 32.67200
C  37.88400 3.14100 34.56800
C  34.93600 0.50100 35.05300
C  34.13200 0.76500 36.26600
H  34.47200 2.03700 37.01400
N  38.06100 0.82300 29.75700
C  38.86000 0.72200 30.80300
C  40.21400 0.45500 30.29500
C  40.08700 0.38700 28.86600
C  38.67000 0.71100 28.56700
C  41.36400 0.05100 31.29200
C  41.14400 0.27600 27.70200
O  40.87000 0.14700 26.49700
C  42.54600 0.11900 27.98800
N  35.73200 1.32300 27.68400
C  36.78200 1.25100 26.87300
C  36.36700 1.33200 25.40900
C  34.78100 1.44800 25.46100
C  34.53200 1.44800 26.96800
C  36.97600 2.56800 24.70800
C  34.12100 0.30200 24.71400
C  33.80400 -1.00000 25.47500
N  33.94000 1.76700 29.89800
C  33.00200 2.00200 28.91600
C  31.75100 2.53400 29.50600
C  31.99800 2.54400 30.88100
C  33.39400 2.11000 31.05600
C  30.47100 3.00200 28.75400
C  31.41300 2.89800 32.15800
O  30.29000 3.27600 32.48300
C  32.57000 2.65800 33.20700
C  32.74300 3.90500 33.99300
O  33.57700 4.75100 33.67100
O  31.85900 3.99300 35.04000
C  31.88800 5.22600 35.80500
H  39.34400 0.76900 32.80200
H  38.73800 0.74100 26.39300
H  32.47900 1.91700 26.76600
H  35.36500 2.71400 34.78800
H  37.55400 0.85900 34.67900
H  37.16000 3.89400 34.88000
H  38.38900 3.54000 33.68800
H  38.65100 3.12900 35.34200
H  35.73400 -0.21100 35.26200
H  34.40800 -0.02100 34.25500
H  34.12800 -0.05200 36.98800
H  33.06600 0.79700 36.04100
H  42.20200 -0.48100 30.84200
H  40.93800 -0.61000 32.04600
H  41.78000 0.94500 31.75700
H  42.59300 -0.82100 28.53800
H  42.76700 1.05300 28.50500
H  43.17200 0.06700 27.09800
H  36.71500 0.47300 24.83500
H  34.30900 2.35200 25.07600
H  36.16600 3.28200 24.56000
H  37.49300 2.36700 23.77000
H  37.63600 3.17300 25.32900
H  34.85000 -0.07200 23.99600
H  33.26700 0.66400 24.14100
H  34.39600 -1.86200 25.16400
H  32.82300 -1.43000 25.27100
H  33.80500 -0.91100 26.56100
H  30.67100 2.78100 27.70500
H  30.34900 4.05600 29.00400
H  29.73900 2.27300 29.10200
H  32.17700 1.90500 33.89000
H  31.59300 6.06000 35.16800
H  32.90000 5.44400 36.14500
H  31.24400 5.13800 36.67900
Mg -9.14400 18.72700 43.00900
C  -5.58300 18.04400 43.22000
C  -8.35600 21.85400 42.10700
C  -12.39100 19.11000 42.15900
C  -9.69800 15.22400 43.29100
N  -7.16400 19.77500 42.89100
C  -5.83200 19.39500 42.96500
C  -4.79900 20.45000 42.60300
C  -5.72000 21.71100 42.44000
C  -7.20500 21.09500 42.57700
C  -5.55900 22.89200 43.49500
C  -3.85100 20.07800 41.36900
C  -4.47700 19.35700 40.10900
H  -3.96700 19.89800 38.70500
N  -10.28400 20.36600 42.28600
C  -9.74500 21.57500 41.95100
C  -10.85300 22.43300 41.45200
C  -12.06700 21.72900 41.68200
C  -11.64100 20.31900 42.04100
C  -10.63700 23.81500 40.97500
C  -13.42700 22.25200 41.39000
O  -13.56700 23.41100 41.07800
C  -14.60400 21.39500 41.46500
N  -10.78200 17.34100 42.79300
C  -12.04800 17.78300 42.39700
C  -13.06500 16.64600 42.39800
C  -12.17100 15.41500 42.74000
C  -10.84400 16.03700 43.05800
C  -14.35900 16.86800 43.16100
C  -11.97800 14.42300 41.53400
C  -12.60700 13.05200 41.77200
N  -7.92200 16.92400 43.10000
C  -8.31600 15.63800 43.23600
C  -7.15400 14.80100 43.39400
C  -6.09800 15.69800 43.42000
C  -6.58200 16.98700 43.25300
C  -7.16700 13.26200 43.53000
C  -4.73200 15.74300 43.64600
O  -3.89000 14.85600 43.96400
C  -4.19100 17.23800 43.49400
C  -3.35500 17.75100 44.63700
O  -2.15300 17.84400 44.52100
O  -4.07200 17.90400 45.78900
C  -3.29100 18.30300 46.83100
H  -8.13400 22.90900 41.93600
H  -13.46100 19.17700 41.95400
H  -9.85800 14.14400 43.25600
H  -4.07500 20.53800 43.41300
H  -5.53400 22.20600 41.48700
H  -6.44400 22.91600 44.12900
H  -5.52000 23.83400 42.94900
H  -4.60100 22.87700 44.01600
H  -2.97000 19.50400 41.65600
H  -3.55700 21.07300 41.03700
H  -5.56300 19.27100 40.09000
H  -4.24000 18.29700 40.02100
H  -11.00500 24.05300 39.97700
H  -9.57100 23.99100 41.11800
H  -11.12700 24.57400 41.58500
H  -14.54800 20.75800 42.34800
H  -14.65300 20.66600 40.65600
H  -15.57700 21.88500 41.48800
H  -13.44100 16.60400 41.37500
H  -12.40300 14.82300 43.62500
H  -14.49700 15.99600 43.80000
H  -15.16100 16.92500 42.42500
H  -14.57500 17.77900 43.71900
H  -10.92100 14.26400 41.32100
H  -12.39500 14.83400 40.61500
H  -13.50300 12.90100 41.17000
H  -12.93800 13.02200 42.81000
H  -11.98300 12.17500 41.59900
H  -6.42600 13.07800 44.30800
H  -6.87000 12.70800 42.64000
H  -8.15000 12.86900 43.79000
H  -3.43000 17.29100 42.71600
H  -2.46800 18.96800 46.56900
H  -2.80600 17.44200 47.29300
H  -3.78500 18.67100 47.73000

