158

Mg 16.83500 52.27900 25.49800
C  18.53700 50.72200 28.32100
C  14.18000 52.85500 27.71800
C  14.94200 52.99300 22.79800
C  19.39700 51.05100 23.50500
N  16.51700 51.95800 27.81000
C  17.34400 51.35900 28.71600
C  16.79500 51.57500 30.16400
C  15.33400 51.88100 29.77900
C  15.36100 52.29100 28.38000
C  14.25700 50.76600 30.08600
C  17.51000 52.76200 30.82700
C  17.37600 52.88500 32.35000
H  16.61900 51.85900 33.10100
N  14.91400 52.92800 25.36800
C  13.94000 53.09800 26.31700
C  12.68300 53.68500 25.66900
C  12.95700 53.66500 24.26700
C  14.30600 53.19000 24.05000
C  11.37700 54.00700 26.37600
C  12.00200 54.17400 23.09600
O  12.41500 54.23100 21.98700
C  10.62500 54.70400 23.41500
N  17.19600 52.24700 23.49200
C  16.28300 52.60000 22.50700
C  16.78700 52.29700 21.07200
C  18.29600 51.91900 21.29400
C  18.37500 51.80300 22.88100
C  15.99500 51.28800 20.23700
C  19.36000 52.80100 20.66400
C  20.31900 53.62400 21.50700
N  18.68200 51.27700 25.78400
C  19.57100 50.83000 24.83000
C  20.62900 49.94500 25.48000
C  20.29500 50.01300 26.79900
C  19.07700 50.75800 26.95300
C  21.87500 49.30600 24.80100
C  20.68200 49.54900 28.12800
O  21.65500 48.84800 28.42700
C  19.64200 50.07700 29.12000
C  19.40900 48.98100 30.07500
O  18.85600 47.89900 29.81300
O  20.10400 49.24100 31.31600
C  19.88700 48.35000 32.49900
H  13.35200 53.16200 28.36100
H  14.32400 53.05400 21.90100
H  20.12100 50.69100 22.77100
H  16.76500 50.64700 30.73500
H  14.97100 52.79400 30.25100
H  14.17000 50.10900 29.22100
H  13.28100 51.16700 30.35700
H  14.59800 50.10000 30.87800
H  17.13500 53.60700 30.25000
H  18.58700 52.74200 30.65800
H  16.96600 53.81700 32.73900
H  18.40500 52.90400 32.70800
H  10.72300 53.16800 26.13900
H  11.04400 54.95000 25.94400
H  11.42800 54.12100 27.45900
H  10.68200 55.56600 24.08000
H  10.06000 53.84700 23.78200
H  10.20900 54.96900 22.44300
H  16.76600 53.26800 20.57700
H  18.45700 50.89100 20.97000
H  16.60400 50.57100 19.68600
H  15.53300 51.88600 19.45100
H  15.25200 50.79000 20.86000
H  18.87100 53.41800 19.91000
H  20.04000 52.14700 20.11800
H  19.92600 53.77200 22.51300
H  20.50300 54.62400 21.11600
H  21.28800 53.12600 21.46600
H  22.75000 49.76000 25.26700
H  21.92000 49.52000 23.73300
H  21.88900 48.21900 24.88500
H  20.30300 50.82700 29.55400
H  19.20500 48.84100 33.19300
H  20.87800 48.29000 32.94700
H  19.57600 47.33200 32.26200
Mg 0.53100 43.52000 25.97200
C  2.50300 43.32400 28.66600
C  -2.26000 42.92900 27.84800
C  -1.45400 43.16100 23.11600
C  3.35400 43.72500 23.89500
N  0.23800 42.96400 27.95400
C  1.15400 43.22500 28.95900
C  0.52800 43.25700 30.37700
C  -0.92500 42.76500 30.13400
C  -1.00100 42.92500 28.53800
C  -1.30600 41.30900 30.53600
C  0.52700 44.65600 31.03200
C  0.76100 44.72400 32.58900
H  0.44100 43.42200 33.38600
N  -1.65400 43.24000 25.53900
C  -2.59300 43.03200 26.50300
C  -3.90900 42.92600 25.93200
C  -3.65500 43.00900 24.53800
C  -2.21900 43.17300 24.31400
C  -5.23200 42.71300 26.64500
C  -4.72800 42.99300 23.34400
O  -4.51100 42.85000 22.15300
C  -6.14100 43.04000 23.65600
N  0.89500 43.30000 23.72700
C  -0.04000 43.18200 22.79200
C  0.54200 42.87200 21.42500
C  2.02500 43.33500 21.67400
C  2.12000 43.53700 23.22900
C  0.29700 41.41400 20.95500
C  2.34000 44.60000 20.81400
C  1.65400 45.93400 21.19000
N  2.68300 43.52800 26.15800
C  3.67800 43.68100 25.24300
C  4.89800 43.67700 25.93700
C  4.49200 43.58600 27.33100
C  3.13600 43.44000 27.37900
C  6.34300 43.80900 25.49700
C  4.94900 43.57100 28.71600
O  6.03100 43.48700 29.16000
C  3.65700 43.54900 29.56000
C  3.91800 42.48200 30.51500
O  3.64200 41.28500 30.34000
O  4.50800 42.96300 31.67000
C  4.72600 42.06400 32.81200
H  -3.06500 42.84600 28.58100
H  -2.16100 43.01600 22.29700
H  4.18800 44.04900 23.27000
H  1.03900 42.55400 31.03500
H  -1.67300 43.47900 30.47700
H  -2.11200 41.47200 31.25200
H  -0.45400 40.80400 30.99100
H  -1.74200 40.76100 29.70100
H  -0.35300 45.21500 30.71500
H  1.42200 45.13900 30.64100
H  0.08000 45.44800 33.03600
H  1.76400 45.07100 32.83800
H  -4.99400 42.74900 27.70800
H  -5.52400 41.75800 26.20800
H  -5.87400 43.55300 26.37600
H  -6.45400 42.17700 24.24300
H  -6.61300 42.93200 22.68000
H  -6.49100 43.95000 24.14300
H  -0.06500 43.51400 20.78600
H  2.74700 42.58400 21.35100
H  -0.23200 41.28000 20.01100
H  -0.44100 40.96600 21.62000
H  1.22300 40.84500 20.87400
H  1.97500 44.39400 19.80800
H  3.40400 44.77900 20.65900
H  2.31500 46.71200 20.80800
H  1.65800 45.97200 22.27900
H  0.61700 45.95500 20.85400
H  6.53900 43.22700 24.59600
H  6.89600 43.38400 26.33400
H  6.51500 44.85800 25.25600
H  3.51000 44.44900 30.15600
H  5.77500 42.06900 33.10800
H  4.32000 41.06400 32.66000
H  4.11400 42.46900 33.61900

