158

Mg 47.45000 35.28400 26.93500
C  45.43300 33.83500 29.39100
C  48.34700 37.78500 29.07900
C  49.14700 36.62500 24.44400
C  46.49900 32.71700 24.73600
N  46.75000 35.76600 28.85800
C  46.11000 34.98100 29.76000
C  46.44900 35.38700 31.19000
C  46.91600 36.86000 30.99300
C  47.36500 36.81200 29.52800
C  45.80900 37.97200 31.27000
C  47.48900 34.36000 31.72400
C  47.54900 34.23000 33.24500
H  46.60200 35.06300 34.09600
N  48.57700 36.97600 26.83800
C  48.87600 37.89100 27.79500
C  49.73200 38.93000 27.24700
C  49.95200 38.60900 25.91000
C  49.19600 37.35100 25.59800
C  50.11300 40.12000 28.13400
C  50.83600 39.38000 24.97100
O  50.96600 39.06100 23.80700
C  51.64300 40.54400 25.56900
N  47.69100 34.74200 24.78500
C  48.45600 35.49000 24.00000
C  48.65700 34.86100 22.60200
C  47.97200 33.48500 22.73000
C  47.38200 33.60100 24.11800
C  48.10300 35.65800 21.36700
C  48.77000 32.12500 22.47200
C  50.05900 32.20100 21.65100
N  46.24200 33.61400 27.03900
C  45.92100 32.69900 26.04500
C  45.01000 31.76800 26.58600
C  44.70600 32.17900 27.88700
C  45.48900 33.32100 28.08900
C  44.55500 30.55700 25.72900
C  43.95000 31.83700 29.02700
O  43.18900 30.89000 29.28000
C  44.33100 32.96300 30.05200
C  44.58000 32.37700 31.44200
O  45.55900 31.68500 31.76000
O  43.52000 32.75100 32.29900
C  43.44700 32.25700 33.69200
H  48.61200 38.45800 29.89700
H  49.94100 36.92500 23.75700
H  46.24300 31.86900 24.09700
H  45.57600 35.36300 31.84200
H  47.73400 37.06000 31.68500
H  45.98900 38.55600 32.17300
H  44.81100 37.57000 31.44200
H  45.78800 38.72500 30.48200
H  48.48500 34.69800 31.44100
H  47.46200 33.40200 31.20400
H  48.57900 34.41400 33.55200
H  47.37400 33.17000 33.42800
H  49.58200 40.93000 27.63400
H  51.19600 40.23100 28.19900
H  49.77400 40.19100 29.16700
H  52.16600 40.02200 26.37100
H  50.94400 41.33400 25.84500
H  52.36100 40.90400 24.83200
H  49.70300 34.61300 22.42500
H  47.04700 33.45700 22.15300
H  47.75600 34.97700 20.59000
H  48.84100 36.29000 20.87300
H  47.22400 36.25400 21.61300
H  48.10700 31.38900 22.01600
H  49.00100 31.72300 23.45800
H  49.99100 33.04000 20.95700
H  50.14900 31.29300 21.05500
H  50.96300 32.12900 22.25600
H  43.84300 29.98700 26.32600
H  45.38800 29.87900 25.54000
H  44.10500 30.98500 24.83400
H  43.33800 33.40800 30.10300
H  43.30500 33.15000 34.30000
H  44.31400 31.67700 34.00900
H  42.61600 31.55300 33.65600
Mg 9.17100 49.03200 26.31500
C  7.39300 49.14500 29.25500
C  11.93900 50.23800 27.94000
C  10.74200 49.08100 23.25700
C  6.11200 48.30700 24.65300
N  9.59800 49.40000 28.35700
C  8.72300 49.49700 29.41800
C  9.47000 50.02900 30.63900
C  10.59700 50.88400 30.00600
C  10.79100 50.08900 28.67200
C  10.26400 52.42900 29.76400
C  9.95900 48.87600 31.49600
C  9.90800 49.11600 33.03900
H  9.67700 47.94000 33.97900
N  11.14200 49.48600 25.68900
C  12.15800 49.91600 26.56600
C  13.32600 50.03200 25.79400
C  13.02100 49.62500 24.40600
C  11.57400 49.34200 24.35800
C  14.67700 50.53900 26.49000
C  13.98100 49.34700 23.29300
O  13.68000 48.91500 22.17300
C  15.39600 49.59200 23.54300
N  8.52800 48.90900 24.27400
C  9.35600 48.79500 23.25000
C  8.66300 48.41900 21.95900
C  7.23400 47.99100 22.41900
C  7.24400 48.41600 23.88200
C  8.63400 49.54900 20.90200
C  6.85700 46.49800 22.18200
C  7.68700 45.39300 22.80300
N  7.08200 48.82300 26.83400
C  5.99200 48.61700 26.04800
C  4.82500 48.53400 26.89000
C  5.36300 48.70900 28.13100
C  6.74000 48.86800 28.06000
C  3.36800 48.20900 26.45400
C  5.03500 48.78700 29.57500
O  3.90900 48.70200 30.06700
C  6.32300 49.11300 30.33300
C  6.46300 47.99700 31.28500
O  6.76200 46.91300 30.92300
O  6.15200 48.35500 32.60700
C  5.96600 47.24700 33.55000
H  12.77300 50.71000 28.46300
H  11.21300 48.79900 22.31300
H  5.18700 48.06400 24.12500
H  8.84900 50.62200 31.31100
H  11.48000 50.90500 30.64600
H  10.17600 52.43500 28.67700
H  10.92700 53.16300 30.22200
H  9.24700 52.65200 30.08600
H  10.99400 48.67700 31.21600
H  9.40000 47.96200 31.29300
H  9.07000 49.77300 33.27500
H  10.89200 49.46500 33.35100
H  14.50600 51.17700 27.35700
H  15.37800 51.02900 25.81400
H  15.18800 49.64000 26.83500
H  16.04400 49.44600 22.67900
H  15.73300 48.92000 24.33200
H  15.49200 50.63000 23.86300
H  9.23600 47.56500 21.59700
H  6.43500 48.67500 22.13400
H  7.70100 49.49300 20.34100
H  9.51000 49.33500 20.28900
H  8.78100 50.55100 21.30400
H  6.91300 46.45200 21.09400
H  5.81100 46.31700 22.43200
H  8.24400 45.79800 23.64800
H  8.43800 45.01800 22.10700
H  6.97600 44.62200 23.09900
H  3.27800 48.11800 25.37200
H  2.60400 48.79800 26.96200
H  3.11900 47.20600 26.80200
H  6.14400 50.07400 30.81400
H  4.95900 46.86400 33.38700
H  5.97500 47.65700 34.56000
H  6.85200 46.64100 33.36000

