158

Mg 27.05100 50.61200 25.94100
C  25.54200 51.91900 28.85100
C  29.73300 49.82300 28.10000
C  28.51500 49.14800 23.38400
C  24.70200 52.09400 23.96500
N  27.46600 50.68200 28.26500
C  26.64100 51.18700 29.24600
C  27.13100 50.93000 30.66900
C  28.58600 50.53800 30.34100
C  28.61200 50.30500 28.82600
C  29.58800 51.49400 30.95400
C  26.30900 49.80100 31.48700
C  25.60700 50.13600 32.84300
H  26.43200 50.89700 33.96700
N  28.83800 49.65300 25.72000
C  29.81500 49.50900 26.72200
C  30.93000 48.83500 26.10800
C  30.58600 48.36200 24.81400
C  29.25500 49.03800 24.58000
C  32.25500 48.52700 26.95200
C  31.28900 47.42400 23.86900
O  30.80300 47.03100 22.78700
C  32.66400 46.93900 24.24100
N  26.80700 50.80800 23.87000
C  27.40600 49.91200 23.06200
C  26.70900 49.98500 21.64000
C  25.41900 50.80300 21.96500
C  25.68000 51.27300 23.34200
C  27.61900 50.76900 20.72200
C  24.17200 49.91000 21.96300
C  22.87700 50.58600 21.41000
N  25.54200 51.81700 26.21700
C  24.55000 52.24800 25.35100
C  23.47200 52.93600 26.06900
C  23.81700 52.83700 27.38200
C  25.06900 52.10200 27.48600
C  22.28900 53.53900 25.52600
C  23.41500 53.15100 28.72300
O  22.40700 53.72700 29.12900
C  24.53100 52.59500 29.72000
C  25.15800 53.66400 30.53500
O  26.14700 54.31000 30.23700
O  24.40000 53.79100 31.69800
C  24.82700 54.84400 32.67300
H  30.52700 49.67900 28.83600
H  28.82200 48.44000 22.61100
H  23.80900 52.31600 23.37800
H  27.05300 51.82700 31.28400
H  28.84400 49.53900 30.69100
H  30.33600 50.98300 31.56000
H  29.05900 52.23300 31.55500
H  29.88200 51.90700 29.98900
H  26.96300 48.95300 31.69000
H  25.52000 49.42500 30.83500
H  25.24600 49.15000 33.13600
H  24.79300 50.80500 32.56200
H  32.26000 49.22600 27.78800
H  33.11900 48.76600 26.33300
H  32.22500 47.50000 27.31600
H  32.69700 46.35000 25.15800
H  33.36500 47.75300 24.42900
H  32.95400 46.25900 23.44000
H  26.50600 48.99000 21.24400
H  25.35000 51.66800 21.30500
H  27.67700 50.38200 19.70500
H  28.65000 50.54100 20.99500
H  27.64100 51.85900 20.74900
H  24.08700 49.49100 22.96600
H  24.41300 48.99400 21.42300
H  22.65800 49.97000 20.53700
H  23.01900 51.62600 21.11600
H  22.00900 50.49700 22.06200
H  21.43600 52.86100 25.55000
H  22.32100 53.68800 24.44600
H  22.00900 54.41900 26.10400
H  24.03500 51.96100 30.45500
H  25.03100 55.72700 32.06800
H  25.78600 54.58400 33.12100
H  23.94600 55.04700 33.28300
Mg -5.06100 25.14300 26.33100
C  -4.07700 26.62500 29.29100
C  -7.24000 23.08100 28.06300
C  -6.24500 24.08400 23.39700
C  -2.90600 27.34600 24.51400
N  -5.55400 24.86200 28.46300
C  -5.03600 25.63000 29.46200
C  -5.65400 25.15000 30.81600
C  -6.39700 23.83500 30.43900
C  -6.36900 23.86600 28.89100
C  -5.75600 22.52700 31.05700
C  -6.43000 26.26400 31.51800
C  -6.08700 26.60800 32.96900
H  -5.76400 25.38400 33.94200
N  -6.45300 23.72700 25.83500
C  -7.31500 23.07500 26.65500
C  -8.27200 22.36300 25.88200
C  -8.02100 22.56500 24.53800
C  -6.94400 23.52900 24.52000
C  -9.35700 21.43400 26.45900
C  -8.57900 21.89500 23.28200
O  -8.18800 22.21900 22.14400
C  -9.69000 20.87000 23.35400
N  -4.37600 25.42200 24.20200
C  -5.19100 24.99700 23.26000
C  -4.62400 25.40400 21.92700
C  -3.64500 26.58500 22.21300
C  -3.61500 26.41600 23.70000
C  -3.84500 24.17700 21.28800
C  -4.23000 28.09700 21.84600
C  -3.31700 28.84700 20.87800
N  -3.70700 26.59200 26.77100
C  -2.91300 27.39900 25.94600
C  -2.16500 28.36400 26.78200
C  -2.58200 27.96800 28.10600
C  -3.51500 26.95000 28.01400
C  -1.16800 29.35900 26.33000
C  -2.44800 28.32500 29.56300
O  -1.74400 29.19800 30.08100
C  -3.37800 27.42100 30.31700
C  -2.53600 26.56200 31.14400
O  -1.85900 25.60900 30.77000
O  -2.56200 27.01100 32.46800
C  -1.79900 26.32800 33.42600
H  -8.03300 22.57100 28.61500
H  -6.59200 23.83800 22.39100
H  -2.31600 28.06400 23.94200
H  -4.80300 24.90900 31.45300
H  -7.44700 23.85100 30.73100
H  -5.04500 22.72100 31.86100
H  -5.18200 22.03200 30.27300
H  -6.57500 21.87900 31.36700
H  -7.48700 25.99800 31.53100
H  -6.28100 27.17700 30.94200
H  -6.95700 27.08400 33.42000
H  -5.26800 27.30900 33.12900
H  -10.27100 21.33400 25.87300
H  -9.75700 21.65100 27.45000
H  -9.01900 20.39900 26.50400
H  -10.61700 21.28900 23.74600
H  -9.36900 20.10300 24.05900
H  -9.80300 20.56700 22.31300
H  -5.46600 25.73600 21.31900
H  -2.74300 26.39000 21.63400
H  -4.47200 23.30600 21.47900
H  -2.90900 23.97500 21.81100
H  -3.72500 24.41100 20.23100
H  -4.37200 28.69500 22.74600
H  -5.18000 27.95700 21.32900
H  -3.08300 29.76300 21.42000
H  -3.85400 29.07700 19.95800
H  -2.39300 28.29200 20.71800
H  -0.25100 28.94200 25.91500
H  -0.87500 29.94200 27.20300
H  -1.64500 30.06500 25.64900
H  -4.04600 27.92800 31.01300
H  -0.80500 26.69400 33.16600
H  -1.85200 25.24900 33.28700
H  -1.86600 26.48200 34.50300

