158

Mg 17.28500 -1.18000 28.61100
C  15.78400 0.87200 31.06300
C  19.06900 -2.78300 31.07500
C  18.78300 -2.88100 26.22700
C  15.83300 0.90800 26.17300
N  17.28700 -1.05400 30.88000
C  16.61800 -0.10300 31.67800
C  16.92100 -0.29800 33.15700
C  18.29300 -1.18100 33.01900
C  18.27100 -1.75900 31.54800
C  19.55800 -0.27600 33.36900
C  15.80000 -0.98300 33.97500
C  15.81500 -0.70500 35.49500
H  16.99700 -0.09600 36.24300
N  18.66400 -2.70500 28.63900
C  19.23600 -3.26000 29.73900
C  20.08700 -4.28500 29.32900
C  19.98100 -4.38300 27.92500
C  19.10700 -3.24300 27.50300
C  20.89200 -5.07300 30.40000
C  20.75100 -5.28600 26.96000
O  20.70500 -5.17300 25.76100
C  21.54500 -6.51600 27.45700
N  17.46800 -0.83400 26.52100
C  17.98100 -1.85100 25.78500
C  17.83900 -1.54200 24.29800
C  16.95000 -0.30400 24.22600
C  16.68400 -0.03400 25.71000
C  19.21500 -1.57100 23.49400
C  15.68000 -0.38200 23.25800
C  14.27000 -0.91900 23.64600
N  16.01300 0.48000 28.60800
C  15.52300 1.22200 27.49700
C  14.67400 2.27700 27.98200
C  14.81700 2.21000 29.37100
C  15.56300 1.09100 29.70300
C  13.97700 3.34500 27.14700
C  14.51000 2.89300 30.59000
O  13.96500 3.98400 30.81300
C  15.10800 2.05800 31.80200
C  16.01400 2.75600 32.67500
O  17.12500 3.07800 32.38100
O  15.33100 3.15400 33.88000
C  16.12900 3.87200 34.85600
H  19.63200 -3.31600 31.84400
H  19.18000 -3.57500 25.48400
H  15.30000 1.52400 25.44600
H  17.19500 0.62600 33.66400
H  18.38800 -2.02600 33.70100
H  20.36000 -0.82900 32.87900
H  19.69700 -0.24200 34.44900
H  19.47200 0.77500 33.09100
H  15.88600 -2.06000 33.82600
H  14.89000 -0.76500 33.41700
H  15.64300 -1.72500 35.83900
H  14.96000 -0.15400 35.88500
H  20.29000 -5.82600 30.90900
H  21.27400 -4.38900 31.15800
H  21.77300 -5.50100 29.92100
H  21.91200 -7.14000 26.64200
H  20.94700 -7.14200 28.11900
H  22.34000 -6.09000 28.07000
H  17.23400 -2.35000 23.88700
H  17.59300 0.51700 23.91100
H  20.08900 -1.50100 24.14200
H  19.37100 -0.66700 22.90500
H  19.19500 -2.47400 22.88300
H  15.97800 -0.91800 22.35700
H  15.48800 0.61400 22.85700
H  13.59000 -0.10100 23.88500
H  14.47700 -1.64500 24.43100
H  14.00300 -1.45600 22.73600
H  14.64400 3.42600 26.28900
H  13.79000 4.35800 27.50300
H  13.00800 2.92400 26.87900
H  14.24600 1.64800 32.32700
H  17.14100 4.08200 34.50900
H  16.12000 3.25500 35.75400
H  15.64500 4.80400 35.14800
Mg 51.18700 45.53300 41.49100
C  48.36500 47.09000 39.91900
C  50.21600 42.60400 40.09000
C  54.32800 44.33600 41.93200
C  52.27900 48.71100 42.33300
N  49.43700 44.95300 40.13300
C  48.40600 45.71500 39.78100
C  47.23700 44.77000 39.27700
C  47.71500 43.35500 39.71100
C  49.25000 43.63800 39.95900
C  47.03800 42.89100 41.02900
C  46.84000 44.87500 37.79300
C  45.37800 44.79900 37.42800
H  44.86100 43.54500 36.70000
N  52.19400 43.67300 41.05800
C  51.62000 42.55800 40.43100
C  52.50400 41.40600 40.42300
C  53.72800 41.94300 40.91900
C  53.45100 43.34000 41.37200
C  52.09900 40.03600 39.96700
C  55.11600 41.25600 41.01500
O  55.25000 40.17700 40.38800
C  56.28000 41.77800 41.71000
N  53.12100 46.44300 41.99700
C  54.21100 45.73700 42.22300
C  55.45700 46.58300 42.52600
C  54.78900 47.92000 42.93900
C  53.31800 47.72300 42.38600
C  56.41000 45.97700 43.60900
C  55.45800 49.09600 42.34600
C  55.65300 50.16500 43.39100
N  50.36600 47.57500 41.39400
C  50.96800 48.68900 41.75600
C  50.01800 49.85200 41.59200
C  48.97000 49.27400 40.77400
C  49.30700 47.88000 40.68600
C  50.23700 51.23800 42.11200
C  47.71000 49.54900 40.01800
O  47.04400 50.57700 39.74100
C  47.32300 48.06800 39.44900
C  45.99100 47.67600 39.84300
O  44.97500 47.68000 39.13100
O  46.08000 47.55900 41.24800
C  44.70000 47.59500 41.81600
H  49.83400 41.60400 39.87400
H  55.34900 43.95000 41.89100
H  52.35800 49.70400 42.78200
H  46.35500 45.09900 39.82700
H  47.60000 42.57700 38.95700
H  46.61400 43.69300 41.63200
H  47.76500 42.57100 41.77600
H  46.40200 42.00900 40.95100
H  47.31100 44.06600 37.23500
H  47.23900 45.81400 37.40900
H  45.09500 45.71600 36.91100
H  44.87600 44.91300 38.38900
H  52.79300 39.22100 40.17400
H  51.75100 39.83000 38.95500
H  51.11900 39.83900 40.40200
H  56.08200 41.85400 42.77900
H  56.72200 42.65500 41.23600
H  57.12600 41.09200 41.68400
H  55.93900 46.72200 41.55900
H  54.70800 47.97100 44.02500
H  56.58100 46.60000 44.48800
H  57.39300 45.68600 43.23800
H  56.06900 44.98300 43.89700
H  54.80000 49.53600 41.59700
H  56.44400 48.86700 41.94100
H  55.94100 49.82200 44.38500
H  54.81600 50.86400 43.40100
H  56.50500 50.79600 43.13600
H  50.84500 51.77900 41.38700
H  50.65400 51.29000 43.11800
H  49.23600 51.66200 42.19400
H  47.31300 48.12900 38.36100
H  44.75400 48.17800 42.73500
H  44.33800 46.63300 42.17700
H  43.93200 48.09000 41.22200

