158

Mg 24.39600 -3.99700 45.01600
C  26.31900 -1.26000 43.48300
C  21.65700 -3.12800 43.21300
C  23.25500 -7.15700 45.37700
C  27.67300 -5.11800 46.03600
N  24.05700 -2.43600 43.46500
C  24.95300 -1.42600 43.01300
C  24.19200 -0.56000 41.96700
C  22.73900 -1.15300 42.05000
C  22.79700 -2.29300 42.97400
C  21.66300 -0.07200 42.43700
C  24.70800 -0.49800 40.50000
C  25.66900 -1.70400 40.15600
H  25.65600 -2.07100 38.65600
N  22.59400 -4.93300 44.55200
C  21.49500 -4.34700 43.87400
C  20.43100 -5.25300 43.87500
C  20.92000 -6.43800 44.57200
C  22.31600 -6.23100 44.87700
C  19.07700 -5.02200 43.14800
C  20.00400 -7.63600 44.72400
O  18.89200 -7.66200 44.32300
C  20.40000 -8.81800 45.66000
N  25.36400 -5.84900 45.59300
C  24.60400 -6.95100 45.78100
C  25.42400 -8.03300 46.43800
C  26.94800 -7.43500 46.60300
C  26.64700 -6.07000 46.02200
C  24.92600 -8.71300 47.76500
C  28.06100 -8.24800 45.76400
C  28.25800 -9.56500 46.28700
N  26.47600 -3.21900 45.10500
C  27.65700 -3.85400 45.50600
C  28.78200 -3.00200 45.25900
C  28.23300 -1.90400 44.55800
C  26.90100 -2.14300 44.34800
C  30.27000 -3.09200 45.65100
C  28.59500 -0.57500 44.00700
O  29.58900 0.15300 44.13900
C  27.34500 -0.12400 43.17500
C  27.00000 1.31100 43.63100
O  26.17900 1.65100 44.51300
O  27.87500 2.10000 42.90600
C  27.99000 3.50800 43.23400
H  20.77000 -2.81400 42.65800
H  22.86500 -8.16600 45.52700
H  28.63400 -5.62700 46.13100
H  24.21400 0.42700 42.42900
H  22.61100 -1.47300 41.01600
H  20.65500 -0.33000 42.11400
H  21.89500 0.90400 42.01000
H  21.63600 0.03800 43.52100
H  25.37300 0.35900 40.39100
H  23.91500 -0.46700 39.75400
H  25.32200 -2.56800 40.72300
H  26.66600 -1.38300 40.45500
H  18.86200 -5.52300 42.20400
H  18.86700 -3.97800 42.91100
H  18.29900 -5.29600 43.86000
H  19.45700 -9.29600 45.92600
H  20.98800 -8.53900 46.53400
H  20.96100 -9.50600 45.02800
H  25.51900 -8.83300 45.70400
H  27.24500 -7.35200 47.64900
H  25.70000 -8.83600 48.52300
H  24.51400 -9.67500 47.46000
H  24.11200 -8.04600 48.04900
H  28.98000 -7.67700 45.90100
H  27.92000 -8.21700 44.68400
H  29.27500 -9.67900 46.66200
H  28.08200 -10.28700 45.49000
H  27.52100 -9.78900 47.05800
H  30.39000 -2.24200 46.32200
H  30.94500 -2.86100 44.82700
H  30.40900 -4.00600 46.22900
H  27.67700 -0.19900 42.14000
H  28.18200 4.16700 42.38700
H  28.89800 3.53600 43.83600
H  27.19500 3.93800 43.84400
Mg 49.80200 45.24300 43.28700
C  46.48400 45.57800 42.32400
C  49.64900 42.00000 42.26000
C  53.04900 45.12500 44.01200
C  49.79600 48.77800 43.81700
N  48.16800 43.93000 42.50000
C  46.89200 44.24700 42.19200
C  46.09400 43.02700 41.62700
C  47.11600 41.91300 41.89400
C  48.40400 42.62600 42.20500
C  46.64000 40.92900 42.95100
C  45.73500 43.28900 40.09100
C  47.06300 43.52000 39.23800
H  47.17900 42.87100 37.87300
N  51.21700 43.78800 43.13800
C  50.95700 42.51700 42.68400
C  52.20700 41.77600 42.61500
C  53.21600 42.67900 43.11400
C  52.53700 43.96700 43.49900
C  52.24300 40.21500 42.32400
C  54.67000 42.30800 43.23200
O  55.06500 41.24100 42.79900
C  55.65500 43.23100 43.82200
N  51.23300 46.76200 43.76000
C  52.51500 46.37800 44.17200
C  53.35400 47.63300 44.36000
C  52.32000 48.85300 44.31400
C  51.00600 48.08300 43.95000
C  54.33900 47.71400 45.54700
C  52.69400 49.86300 43.18500
C  52.69900 51.32000 43.55700
N  48.42000 46.85100 43.35500
C  48.56200 48.25200 43.50500
C  47.35000 48.95400 43.25900
C  46.50200 47.91400 42.83500
C  47.24100 46.68500 42.83000
C  47.12700 50.45000 43.36700
C  45.19200 47.73700 42.23300
O  44.32900 48.51000 41.95200
C  45.13300 46.24100 41.88200
C  43.91500 45.67700 42.46700
O  42.75600 45.74400 42.06600
O  44.28500 45.00100 43.61800
C  43.22000 44.29900 44.36400
H  49.79400 40.96700 41.93500
H  54.11500 45.20000 44.23800
H  49.84200 49.86000 43.95500
H  45.15600 42.92900 42.17300
H  47.20000 41.31600 40.98600
H  47.30700 40.94300 43.81300
H  46.59600 39.93800 42.50000
H  45.67400 41.22800 43.35900
H  45.05900 44.14400 40.12400
H  45.39700 42.34300 39.66700
H  47.98200 43.32500 39.79100
H  46.95500 44.58600 39.03900
H  51.70200 39.96900 41.41000
H  51.82200 39.72300 43.20100
H  53.20300 39.70900 42.22100
H  55.76900 44.10600 43.18000
H  56.59800 42.68600 43.77100
H  55.32700 43.41400 44.84500
H  53.88800 47.60000 43.41000
H  52.22700 49.39100 45.25700
H  54.34300 46.93000 46.30400
H  54.31200 48.57200 46.21800
H  55.31700 47.58200 45.08300
H  52.13700 49.75100 42.25500
H  53.73400 49.69000 42.91000
H  53.62500 51.78900 43.22600
H  52.41800 51.49600 44.59600
H  51.87300 51.77200 43.00900
H  46.16000 50.70500 42.93500
H  47.92500 51.08200 42.97800
H  46.98200 50.69000 44.42000
H  44.91100 46.31300 40.81800
H  42.46300 43.83700 43.72900
H  42.72900 45.11900 44.88800
H  43.61700 43.60600 45.10500

