158

Mg 1.86300 -1.75400 44.83900
C  5.15800 -0.80600 43.96900
C  0.78300 1.07400 43.07300
C  -1.38000 -2.91900 44.80800
C  3.06700 -4.77500 45.89300
N  2.85300 -0.23100 43.52300
C  4.24400 0.04600 43.47400
C  4.54000 1.40300 42.82200
C  3.09400 2.06900 42.86800
C  2.12700 0.90700 43.23400
C  2.86200 3.28200 43.76500
C  5.22600 1.31600 41.39900
C  6.32300 2.30900 41.05700
H  7.58200 1.81300 40.33500
N  -0.13400 -0.91700 44.30700
C  -0.27200 0.20400 43.45800
C  -1.67000 0.35900 43.24300
C  -2.39800 -0.70300 43.91900
C  -1.30400 -1.58900 44.37100
C  -2.23900 1.57400 42.41500
C  -3.90200 -0.92200 43.96700
O  -4.64600 -0.15900 43.35800
C  -4.45200 -2.07600 44.66300
N  0.93300 -3.55600 45.21800
C  -0.41900 -3.81800 45.23300
C  -0.64900 -5.23100 45.81200
C  0.80900 -5.75800 46.14900
C  1.66200 -4.58300 45.75000
C  -1.57100 -5.39500 46.99500
C  1.24200 -7.03200 45.32300
C  1.73900 -8.23000 46.05000
N  3.77400 -2.63800 45.06200
C  4.09100 -3.83200 45.54000
C  5.52400 -4.01500 45.50800
C  5.97600 -2.82200 44.89900
C  4.83400 -2.01600 44.59300
C  6.29200 -5.08800 46.21300
C  7.23700 -2.08500 44.59400
O  8.42200 -2.36800 44.72200
C  6.73300 -0.78100 43.89400
C  7.35600 0.38400 44.51200
O  7.00800 0.93800 45.58100
O  8.33600 0.88900 43.69900
C  8.94200 2.16500 44.14800
H  0.33700 1.95900 42.61400
H  -2.40600 -3.29100 44.86500
H  3.43300 -5.72900 46.27900
H  5.26500 1.88900 43.47600
H  2.80400 2.46500 41.89500
H  2.66400 4.24600 43.29700
H  3.79500 3.39000 44.31700
H  2.10800 3.19800 44.54800
H  4.49100 1.54800 40.62800
H  5.44700 0.26700 41.20600
H  6.59900 2.88400 41.94200
H  5.95100 3.11700 40.42700
H  -2.25400 1.48700 41.32800
H  -1.67100 2.46400 42.68100
H  -3.28200 1.80600 42.63200
H  -4.26700 -3.02200 44.15400
H  -5.49800 -1.94400 44.93600
H  -4.03600 -1.96200 45.66400
H  -1.02700 -5.88300 45.02400
H  0.96100 -5.82400 47.22600
H  -2.28500 -6.18500 46.76300
H  -2.15800 -4.48500 47.12200
H  -1.09600 -5.66600 47.93700
H  1.96800 -6.79600 44.54500
H  0.46000 -7.48500 44.71400
H  1.47100 -8.26300 47.10600
H  2.82500 -8.30500 46.00500
H  1.26400 -9.14800 45.70300
H  6.18500 -4.86800 47.27600
H  7.35200 -5.04400 45.96500
H  5.85100 -6.07300 46.06300
H  7.12100 -0.81100 42.87500
H  8.11900 2.80100 44.47400
H  9.50600 2.56000 43.30200
H  9.64100 1.97300 44.96100
Mg 35.19400 2.68500 29.70400
C  33.17400 3.85300 32.17500
C  37.83000 2.51900 31.96900
C  37.22200 1.84400 27.25800
C  32.55100 2.86500 27.50600
N  35.44200 3.14600 31.83200
C  34.42600 3.61300 32.58600
C  34.89200 3.71200 34.10900
C  36.47600 3.40900 33.97200
C  36.58200 2.89200 32.54900
C  37.38800 4.68100 34.07500
C  34.18400 2.80000 35.21300
C  34.11300 3.36700 36.64700
H  34.85900 4.72700 36.99100
N  37.32700 2.24800 29.54000
C  38.18600 2.20500 30.60100
C  39.49800 1.72500 30.12300
C  39.38500 1.59600 28.68000
C  37.93700 1.91600 28.45600
C  40.74200 1.48400 30.97700
C  40.43000 1.11000 27.62000
O  40.15100 1.06600 26.41700
C  41.80800 0.79500 28.12100
N  35.00400 2.61900 27.59700
C  35.90000 2.08900 26.88600
C  35.47100 1.95400 25.36800
C  33.93100 1.88300 25.55200
C  33.82900 2.50400 26.97700
C  36.06900 3.09600 24.51000
C  33.37500 0.37700 25.58500
C  32.10800 0.13500 24.81600
N  33.28500 3.33600 29.68900
C  32.32300 3.42700 28.77300
C  31.08400 3.92400 29.31300
C  31.35200 4.16000 30.65300
C  32.74800 3.79000 30.84400
C  29.84000 4.06600 28.53700
C  30.76900 4.72400 31.91200
O  29.68700 5.26100 32.25200
C  31.96200 4.38300 32.91700
C  32.21300 5.68500 33.55500
O  32.89800 6.57700 33.07200
O  31.55900 5.86200 34.79200
C  31.37600 7.19500 35.23900
H  38.66600 2.57100 32.67100
H  37.77800 1.53100 26.37200
H  31.70400 2.73300 26.83000
H  34.62600 4.75300 34.28800
H  36.83300 2.58500 34.58900
H  36.76300 5.51600 33.75600
H  38.18500 4.72000 33.33300
H  37.84900 4.77100 35.05900
H  34.65100 1.81800 35.28500
H  33.16100 2.57200 34.91300
H  34.43600 2.55200 37.29500
H  33.03500 3.44000 36.78900
H  40.46700 1.54900 32.03000
H  41.61200 2.05400 30.65400
H  40.95300 0.42000 30.86800
H  41.88400 0.15800 29.00200
H  42.33500 1.72100 28.34900
H  42.44900 0.32400 27.37600
H  35.84300 0.98900 25.02300
H  33.30300 2.50300 24.91200
H  35.22800 3.73100 24.23300
H  36.71700 2.76700 23.69700
H  36.68700 3.66200 25.20600
H  33.22100 0.20100 26.64900
H  34.05100 -0.40100 25.23300
H  31.28600 0.32200 25.50700
H  32.11900 -0.88200 24.42600
H  32.08000 0.89500 24.03500
H  29.51000 3.08800 28.18700
H  30.10300 4.72400 27.70900
H  29.03900 4.50400 29.13100
H  31.56400 3.69200 33.66000
H  32.02400 7.39200 36.09300
H  30.32100 7.09200 35.49600
H  31.55700 7.96100 34.48600

