158

Mg 48.98800 45.98200 44.28100
C  45.85800 46.32800 42.60200
C  49.36000 42.98800 42.40700
C  52.40900 46.30300 44.56700
C  48.68500 49.31100 45.36700
N  47.75600 44.93000 42.65800
C  46.53100 45.13600 42.26100
C  45.89300 44.00500 41.39700
C  46.98600 42.91000 41.55600
C  48.14200 43.58700 42.20000
C  46.48500 41.63900 42.52100
C  45.49900 44.56900 40.01800
C  44.02000 44.41900 39.40700
H  43.88300 43.44800 38.16500
N  50.55900 44.76000 43.62200
C  50.54600 43.57100 42.95900
C  51.79500 42.92200 43.03800
C  52.69100 43.80800 43.75600
C  51.89800 45.05300 43.99900
C  52.04700 41.48900 42.47200
C  54.09500 43.37300 44.19900
O  54.60200 42.30900 43.78400
C  54.85600 44.15200 45.18800
N  50.36400 47.54600 44.84800
C  51.73000 47.48800 44.84700
C  52.41200 48.82300 45.38100
C  51.19900 49.74500 45.73400
C  50.00200 48.87100 45.28600
C  53.28800 48.58600 46.57800
C  51.20600 51.11600 45.03700
C  52.27100 52.08000 45.45800
N  47.43300 47.43300 44.29800
C  47.53900 48.76400 44.73000
C  46.16000 49.36000 44.61400
C  45.48000 48.38800 43.80800
C  46.36700 47.29000 43.57300
C  45.66100 50.73100 44.90700
C  44.23800 48.13900 43.13900
O  43.28000 48.78200 42.95200
C  44.37700 46.74400 42.30200
C  43.47300 45.77400 42.97200
O  43.70100 45.06000 43.96400
O  42.26400 45.85500 42.26700
C  41.22900 44.91200 42.73300
H  49.45300 41.98100 41.99400
H  53.48800 46.36600 44.72400
H  48.49600 50.31700 45.74700
H  44.96300 43.56000 41.75100
H  47.19200 42.48000 40.57600
H  45.47500 41.79700 42.90000
H  46.96500 41.61400 43.49900
H  46.52000 40.67200 42.02000
H  46.06600 44.08200 39.22400
H  45.94400 45.55300 39.86900
H  43.67200 45.43400 39.21700
H  43.46200 43.96500 40.22600
H  53.08400 41.43100 42.14300
H  51.40600 41.36400 41.59900
H  51.78400 40.76000 43.23900
H  54.25800 44.55200 46.00700
H  55.29200 44.97400 44.62100
H  55.58100 43.44700 45.59500
H  53.02900 49.16000 44.54900
H  51.13700 49.78200 46.82200
H  53.11800 47.60500 47.02200
H  53.17400 49.30900 47.38600
H  54.33600 48.65800 46.28600
H  50.27100 51.67000 45.12200
H  51.25900 50.89400 43.97100
H  51.75900 53.02600 45.63600
H  52.99100 52.32500 44.67700
H  52.75900 51.72600 46.36500
H  45.85100 51.10200 45.91400
H  44.62300 50.78400 44.57700
H  46.12700 51.40200 44.18500
H  44.31600 46.90600 41.22500
H  40.32600 45.52000 42.79700
H  41.49700 44.33200 43.61600
H  41.01300 44.12500 42.01100
Mg 0.22100 43.34700 24.89800
C  2.13900 43.28000 28.00500
C  -2.60700 42.74900 26.92100
C  -1.46600 42.80200 22.14400
C  3.20000 43.61200 23.23700
N  -0.08600 43.03000 27.28100
C  0.77600 43.15400 28.34400
C  0.07400 43.10400 29.70200
C  -1.47800 42.82500 29.22500
C  -1.44500 42.87100 27.75400
C  -1.99500 41.37100 29.56000
C  0.13200 44.33800 30.53300
C  0.57200 44.14700 32.02900
H  0.45500 42.77200 32.78800
N  -1.76900 42.98900 24.50100
C  -2.76500 42.76000 25.47000
C  -4.00500 42.44500 24.80500
C  -3.80100 42.65100 23.37500
C  -2.30000 42.81400 23.25600
C  -5.23300 42.04000 25.56100
C  -4.74900 42.72300 22.26000
O  -4.40200 42.88700 21.08800
C  -6.29200 42.65000 22.52100
N  0.81300 43.05200 22.99700
C  -0.08300 42.97600 21.99900
C  0.56800 43.14100 20.64900
C  1.93700 43.78700 21.08200
C  2.03600 43.35000 22.51200
C  0.71800 41.64000 20.02900
C  1.82900 45.34200 20.88500
C  3.13500 46.14000 20.76100
N  2.33900 43.43600 25.46000
C  3.43000 43.62900 24.63600
C  4.65300 43.75300 25.41400
C  4.18100 43.60700 26.73500
C  2.77100 43.41500 26.73400
C  6.06100 44.01900 24.90400
C  4.58900 43.53600 28.12800
O  5.76200 43.60300 28.54600
C  3.25100 43.42700 29.05200
C  3.41200 42.30700 29.89700
O  3.23800 41.14900 29.58700
O  4.02100 42.79800 31.03700
C  4.41700 41.75900 32.01700
H  -3.53700 42.74700 27.49300
H  -1.86300 42.68900 21.13300
H  4.09300 43.91400 22.68600
H  0.49700 42.25000 30.23100
H  -2.20300 43.57700 29.53500
H  -1.34900 40.90400 30.30400
H  -1.94400 40.78000 28.64500
H  -3.02400 41.49700 29.89400
H  -0.81500 44.87500 30.58600
H  0.75300 45.09400 30.05300
H  -0.19900 44.74700 32.51400
H  1.52200 44.67500 32.11600
H  -5.69600 41.33600 24.87000
H  -6.04200 42.76900 25.58100
H  -5.09500 41.64500 26.56800
H  -6.76600 42.91500 21.57600
H  -6.52200 43.54800 23.09300
H  -6.67300 41.77000 23.03800
H  -0.01000 43.80100 20.00400
H  2.76300 43.39200 20.49000
H  0.62700 41.80800 18.95600
H  -0.07200 40.93500 20.28900
H  1.64600 41.11300 20.24900
H  1.16500 45.82100 21.60500
H  1.43400 45.52800 19.88600
H  3.18400 46.54800 19.75100
H  3.94100 45.43100 20.95300
H  3.25200 46.95500 21.47500
H  6.27700 45.05700 25.15900
H  6.03600 43.86700 23.82500
H  6.69900 43.27500 25.38000
H  3.14000 44.37000 29.58700
H  3.95000 40.79900 31.79600
H  4.00700 42.09200 32.97100
H  5.48900 41.60200 32.13700

