158

Mg 2.64100 -1.03900 43.89500
C  6.04800 -0.17500 43.53100
C  1.81200 1.95700 42.38800
C  -0.47700 -2.08300 43.85700
C  3.64800 -4.30000 44.88700
N  3.83900 0.66500 43.10400
C  5.19800 0.78700 42.96200
C  5.57600 2.07700 42.26800
C  4.20100 2.93000 42.37700
C  3.17000 1.83400 42.70600
C  4.19500 4.21000 43.26000
C  6.23800 1.91600 40.81700
C  6.04900 0.58900 40.14200
H  6.49900 0.58200 38.70600
N  0.88000 -0.15100 43.20000
C  0.69900 1.09000 42.61700
C  -0.70200 1.25600 42.28500
C  -1.35500 0.05400 42.65800
C  -0.33500 -0.78400 43.28600
C  -1.18700 2.51600 41.70500
C  -2.82400 -0.28100 42.23800
O  -3.50300 0.55400 41.79200
C  -3.45000 -1.70200 42.35600
N  1.71500 -2.91400 44.25800
C  0.40900 -3.08000 44.23300
C  -0.06100 -4.46500 44.71800
C  1.29400 -5.21300 44.70500
C  2.34400 -4.07200 44.58600
C  -0.75500 -4.44200 46.14300
C  1.51600 -6.17600 43.49400
C  1.89900 -7.65800 43.79100
N  4.46500 -1.99400 44.43300
C  4.69300 -3.31900 44.74100
C  6.11800 -3.56500 44.75400
C  6.72700 -2.28400 44.48900
C  5.64000 -1.44800 44.09500
C  6.87000 -4.78500 45.16300
C  7.94500 -1.59300 44.36400
O  9.07900 -1.89900 44.81500
C  7.60000 -0.26000 43.58800
C  8.36800 0.81200 44.34300
O  9.44600 1.30200 43.93900
O  7.72700 1.23000 45.46700
C  8.41000 2.33800 46.29000
H  1.56400 2.97600 42.08400
H  -1.49200 -2.48500 43.82900
H  4.11900 -5.27800 45.00900
H  6.32600 2.52200 42.92100
H  3.77600 3.23100 41.41900
H  3.84300 3.92600 44.25100
H  3.59500 5.01900 42.84300
H  5.22800 4.54000 43.36300
H  7.30900 2.11900 40.84400
H  5.74300 2.67300 40.20800
H  4.99000 0.33200 40.16900
H  6.70100 -0.15700 40.59500
H  -2.24600 2.75500 41.60800
H  -0.77200 2.69900 40.71400
H  -0.87000 3.36400 42.31300
H  -3.48900 -2.05100 43.38800
H  -2.95100 -2.49200 41.79400
H  -4.51100 -1.71600 42.10900
H  -0.73200 -4.76800 43.91500
H  1.51800 -5.75700 45.62200
H  -0.17900 -5.02200 46.86400
H  -1.78300 -4.79600 46.21600
H  -0.52200 -3.40800 46.39600
H  2.40200 -5.73600 43.03700
H  0.62400 -6.00500 42.89100
H  1.07300 -8.24200 43.38600
H  2.02100 -7.78900 44.86600
H  2.75300 -7.88000 43.15200
H  7.79800 -4.90400 44.60300
H  6.18100 -5.62700 45.10700
H  7.19200 -4.65800 46.19700
H  7.94600 -0.38200 42.56200
H  8.49000 2.14300 47.35900
H  7.78800 3.22300 46.15300
H  9.40400 2.62500 45.94800
Mg 0.17100 42.34900 25.76300
C  2.58100 42.40000 28.32300
C  -2.02800 41.25300 28.13300
C  -2.10200 42.29800 23.48400
C  2.71500 43.15800 23.44800
N  0.31700 41.77600 27.97900
C  1.35200 41.99500 28.88100
C  0.87300 42.06300 30.31200
C  -0.51400 41.42200 30.24300
C  -0.77400 41.49000 28.70100
C  -0.71000 39.96200 30.68500
C  0.92900 43.50800 30.96100
C  1.88400 43.57700 32.19600
H  1.82600 42.48500 33.27600
N  -1.78000 41.83500 25.80100
C  -2.48700 41.35400 26.81400
C  -3.82300 41.00300 26.42100
C  -3.91500 41.52400 25.10300
C  -2.58000 41.99300 24.74600
C  -4.76900 40.43500 27.39800
C  -5.18400 41.58400 24.23200
O  -5.07400 42.04500 23.06500
C  -6.57400 41.13200 24.67400
N  0.26400 42.82700 23.73700
C  -0.84100 42.68400 22.97300
C  -0.50300 43.04700 21.50500
C  1.03500 43.44700 21.58600
C  1.42400 43.13400 22.97700
C  -0.91300 41.98200 20.52800
C  1.37000 44.92300 21.18600
C  1.01900 46.12900 22.14000
N  2.15600 42.59400 25.75900
C  3.06600 42.89900 24.78500
C  4.37700 43.04900 25.38800
C  4.22700 42.78200 26.74000
C  2.87200 42.57500 26.94400
C  5.59700 43.40000 24.56700
C  4.96300 42.66600 27.96300
O  6.19100 42.81800 28.20200
C  3.93900 42.51800 29.08000
C  4.33500 41.30000 29.87300
O  4.28400 40.13100 29.46600
O  4.83600 41.69300 31.10800
C  5.33200 40.61300 31.96600
H  -2.77800 40.89800 28.84200
H  -2.83300 42.10600 22.69500
H  3.46400 43.42200 22.69900
H  1.55100 41.36800 30.80800
H  -1.34000 41.98100 30.68400
H  0.12300 39.75100 31.35500
H  -0.94200 39.20700 29.93200
H  -1.57500 39.91400 31.34700
H  -0.06700 43.94100 31.05800
H  1.34200 44.17600 30.20600
H  1.72500 44.55700 32.64800
H  2.85400 43.59200 31.70000
H  -4.41700 39.61100 28.01800
H  -5.70500 40.08300 26.96500
H  -4.92900 41.26000 28.09200
H  -6.65200 40.07100 24.91100
H  -7.33100 41.49200 23.97700
H  -6.72400 41.59900 25.64700
H  -1.17000 43.90100 21.39300
H  1.63100 42.89100 20.86100
H  -1.35700 41.07800 20.94500
H  0.01200 41.64300 20.06300
H  -1.66400 42.36800 19.83900
H  0.94200 45.04600 20.19100
H  2.45200 45.02500 21.09400
H  1.71100 46.39900 22.93800
H  0.02400 46.02000 22.57200
H  0.84000 46.99000 21.49700
H  6.55300 43.34100 25.08700
H  5.45700 44.43900 24.26900
H  5.56600 42.85400 23.62400
H  3.88800 43.42200 29.68600
H  6.20100 40.15600 31.49400
H  4.63800 39.79300 32.15500
H  5.51700 41.13400 32.90600

