158

Mg 46.80000 15.92800 27.67500
C  44.84100 15.78400 30.59600
C  49.12400 17.67000 29.58500
C  48.58200 16.82400 24.88300
C  44.24700 14.77600 25.83600
N  46.89600 16.75300 29.81300
C  46.01100 16.45000 30.82800
C  46.49100 17.02700 32.16300
C  47.85800 17.75600 31.77000
C  47.95400 17.40400 30.27600
C  47.84300 19.32800 32.12600
C  46.77100 15.90000 33.18300
C  46.52500 16.16500 34.63200
H  46.09000 17.51900 35.14200
N  48.60400 16.97800 27.31400
C  49.41300 17.59100 28.20700
C  50.62300 18.07900 27.55400
C  50.58000 17.68100 26.25600
C  49.17200 17.16900 26.07300
C  51.61900 18.99500 28.21000
C  51.67100 17.87900 25.10600
O  51.50100 17.47900 23.99300
C  53.05200 18.62700 25.31000
N  46.37100 15.96900 25.68200
C  47.30900 16.26800 24.72400
C  46.71100 16.06500 23.32700
C  45.47800 15.17900 23.59600
C  45.34700 15.26800 25.10900
C  46.41800 17.46700 22.59700
C  45.64900 13.75100 23.09100
C  46.63500 12.92300 23.91400
N  44.94700 15.24600 28.11700
C  43.99400 14.79000 27.21500
C  42.85800 14.21800 27.91300
C  43.11900 14.61900 29.28800
C  44.38000 15.28800 29.31500
C  41.61200 13.61300 27.33800
C  42.57600 14.64700 30.60500
O  41.50600 14.23300 30.96600
C  43.64800 15.42200 31.48800
C  43.01400 16.58200 32.23200
O  42.35800 17.41300 31.59100
O  42.83900 16.28400 33.59600
C  41.79300 17.13200 34.24800
H  49.80200 18.28900 30.17500
H  49.21500 17.02500 24.01600
H  43.51900 14.31800 25.16300
H  45.81700 17.77400 32.58400
H  48.72300 17.22900 32.17300
H  47.82300 19.88200 31.18800
H  48.77700 19.53300 32.64900
H  47.11100 19.60200 32.88500
H  47.78600 15.51400 33.08900
H  46.08500 15.06900 33.02100
H  47.56300 16.04200 34.94000
H  45.91900 15.41000 35.13400
H  52.66700 18.69500 28.19800
H  51.21800 19.20000 29.20300
H  51.55800 19.95500 27.69800
H  53.06400 19.46700 26.00300
H  53.33200 18.86700 24.28400
H  53.82700 17.93800 25.64600
H  47.51600 15.60400 22.75400
H  44.56700 15.67300 23.25900
H  45.45600 17.83200 22.95400
H  46.26300 17.29300 21.53200
H  47.09400 18.30800 22.75200
H  46.13400 13.71400 22.11600
H  44.63600 13.34800 23.09400
H  47.05500 12.14900 23.27200
H  46.05500 12.29400 24.58900
H  47.32000 13.42300 24.59900
H  41.39300 14.27500 26.50000
H  40.85300 13.78200 28.10200
H  41.85200 12.58400 27.07100
H  43.97800 14.69000 32.22500
H  41.60300 16.73000 35.24300
H  40.88800 17.35400 33.68200
H  42.24600 18.12200 34.19100
Mg 47.11600 24.72200 28.82600
C  47.86300 27.32600 31.00000
C  45.81900 22.98500 31.60100
C  46.60000 22.14700 26.77800
C  48.93600 26.37000 26.26800
N  46.82100 25.09000 31.01200
C  47.15900 26.29600 31.62600
C  46.66500 26.27500 33.07700
C  46.58900 24.73300 33.30700
C  46.44600 24.18300 31.91900
C  47.76700 24.02000 33.91400
C  45.30300 26.94900 33.34400
C  45.37400 27.97400 34.56900
H  45.82800 27.61900 36.03800
N  46.29200 22.82300 29.12100
C  45.73700 22.31100 30.26600
C  45.09100 21.02800 29.92700
C  45.25000 20.83900 28.52800
C  46.11200 21.95500 28.07200
C  44.43600 20.20000 30.94400
C  44.71700 19.72000 27.58000
O  45.05500 19.61200 26.42300
C  43.93100 18.69100 28.21100
N  47.85900 24.26700 26.81600
C  47.37100 23.12800 26.19500
C  47.93800 23.05100 24.73200
C  48.56900 24.44200 24.50100
C  48.48000 25.13800 25.92100
C  48.91500 21.90700 24.34200
C  47.84900 25.37500 23.40000
C  48.77900 26.04400 22.37500
N  48.16800 26.49100 28.64000
C  48.76300 27.02800 27.51100
C  49.31800 28.38800 27.89000
C  48.97500 28.49100 29.26500
C  48.25300 27.35100 29.65100
C  49.92300 29.40000 26.94400
C  49.16400 29.35500 30.43300
O  49.77700 30.38000 30.60700
C  48.43600 28.55700 31.60700
C  49.43000 28.29500 32.69900
O  50.39800 27.55300 32.80800
O  48.97600 29.04200 33.75700
C  49.64800 28.91000 35.09100
H  45.27200 22.52600 32.42700
H  46.55800 21.33200 26.05200
H  49.45300 26.95800 25.50600
H  47.45600 26.66300 33.71900
H  45.80200 24.38600 33.97700
H  47.80700 22.96100 33.65700
H  47.75400 24.08400 35.00200
H  48.72400 24.39600 33.55400
H  44.60800 26.16500 33.64600
H  44.98200 27.54700 32.49100
H  44.35300 28.33800 34.68900
H  46.03100 28.75400 34.18500
H  44.06900 20.77500 31.79400
H  45.18800 19.57700 31.42900
H  43.62800 19.62400 30.49200
H  43.00300 19.14200 28.56400
H  44.51300 18.29100 29.04100
H  43.75200 17.95800 27.42500
H  47.12200 22.88400 24.02900
H  49.60700 24.48300 24.17100
H  49.58100 22.27300 23.56100
H  48.31500 21.05200 24.03100
H  49.49500 21.62300 25.22000
H  47.37000 26.19500 23.93500
H  47.00100 24.85100 22.95900
H  48.98500 27.07700 22.65600
H  48.37700 25.97200 21.36400
H  49.76500 25.58200 22.33100
H  49.46900 30.35900 27.19300
H  49.67200 29.19100 25.90400
H  51.00500 29.46700 27.05400
H  47.65600 29.27200 31.86800
H  48.83000 28.60000 35.74100
H  49.99600 29.87400 35.46100
H  50.47000 28.19600 35.15100

