158

Mg 2.01700 -1.24900 44.07800
C  5.27600 -0.69800 43.32400
C  1.08500 1.46600 42.01000
C  -1.12300 -2.37900 44.02600
C  3.06800 -4.31900 45.57500
N  3.01700 0.13700 42.68700
C  4.40000 0.23800 42.73400
C  4.84500 1.53000 42.07400
C  3.51700 2.25200 41.75900
C  2.45200 1.25200 42.16400
C  3.30400 3.74200 42.14200
C  5.69200 1.15200 40.79900
C  6.95900 2.06800 40.67800
H  6.89500 3.10500 39.48000
N  0.13000 -0.47300 43.23100
C  -0.01300 0.63200 42.41400
C  -1.40100 0.82700 42.17700
C  -2.09100 -0.32600 42.77000
C  -1.01700 -1.09100 43.47800
C  -1.99300 2.05500 41.43900
C  -3.56300 -0.46600 42.66200
O  -4.31400 0.11800 41.85100
C  -4.22000 -1.61800 43.45800
N  1.09100 -3.16300 44.56600
C  -0.21500 -3.29300 44.59200
C  -0.52800 -4.66900 45.27600
C  0.75700 -5.01100 46.07200
C  1.72100 -4.16800 45.37500
C  -1.80100 -4.62000 46.12400
C  1.05200 -6.52400 46.15400
C  1.04500 -7.05000 47.58900
N  3.83500 -2.29200 44.39900
C  4.04800 -3.42500 45.18000
C  5.39600 -3.60200 45.33600
C  6.02800 -2.49400 44.69300
C  4.99900 -1.78700 44.11500
C  6.00800 -4.87900 45.77900
C  7.25700 -1.89100 44.35100
O  8.37100 -2.25000 44.70200
C  6.81500 -0.64100 43.48400
C  7.23400 0.54300 44.13900
O  6.76700 0.89300 45.22100
O  8.24000 1.29000 43.50100
C  8.55500 2.54300 44.21500
H  0.88400 2.38100 41.44900
H  -2.15300 -2.73700 44.09400
H  3.45600 -5.06600 46.27100
H  5.38800 2.03500 42.87300
H  3.43900 2.31600 40.67300
H  2.40700 3.96700 42.71900
H  3.22600 4.43500 41.30500
H  4.15200 4.16400 42.68200
H  5.07100 1.18500 39.90300
H  6.10800 0.14500 40.76100
H  7.86200 1.47200 40.54400
H  7.15600 2.71300 41.53400
H  -2.10100 1.76700 40.39300
H  -1.28200 2.87800 41.50700
H  -2.96200 2.31700 41.86400
H  -4.01400 -1.52600 44.52400
H  -3.87800 -2.55300 43.01300
H  -5.29600 -1.56100 43.29400
H  -0.68800 -5.34500 44.43600
H  0.79700 -4.53300 47.05100
H  -2.33900 -5.53200 45.86700
H  -2.39200 -3.70700 46.19600
H  -1.54100 -4.82900 47.16200
H  2.03100 -6.77000 45.74200
H  0.32600 -7.03800 45.52500
H  0.61500 -6.24100 48.17900
H  2.05100 -7.30600 47.92200
H  0.50500 -7.98200 47.75300
H  5.60100 -5.06200 46.77300
H  7.09100 -4.90100 45.89800
H  5.58900 -5.63900 45.12000
H  7.29400 -0.67900 42.50600
H  8.96000 3.15900 43.41200
H  9.27200 2.44000 45.03000
H  7.68100 3.03700 44.63900
Mg -2.18700 35.14500 26.19600
C  -3.62700 33.41900 28.90400
C  -1.03600 37.58300 28.53900
C  -1.30100 37.24000 23.77300
C  -4.25600 33.39800 23.96500
N  -2.22600 35.45100 28.45100
C  -2.85300 34.56900 29.34000
C  -2.67100 35.05700 30.74900
C  -1.91100 36.43400 30.59100
C  -1.72700 36.56900 29.13700
C  -2.62500 37.64000 31.28700
C  -1.95800 33.91800 31.67100
C  -2.70700 33.43900 32.95400
H  -1.97200 33.39500 34.31500
N  -1.14500 36.96100 26.18000
C  -0.68100 37.73900 27.17400
C  0.27600 38.76000 26.69900
C  0.24500 38.68200 25.27300
C  -0.77600 37.62700 25.02200
C  0.94700 39.78900 27.65900
C  1.11100 39.37600 24.33600
O  0.93600 39.35000 23.13600
C  2.36600 40.15900 24.77100
N  -2.95900 35.37000 24.26300
C  -2.14100 36.16300 23.43300
C  -2.48900 35.92200 21.92300
C  -3.26600 34.56200 21.96300
C  -3.54800 34.41600 23.45900
C  -3.20800 37.16000 21.24900
C  -2.64000 33.36200 21.23400
C  -1.51000 32.56500 21.99800
N  -3.61600 33.61600 26.35400
C  -4.36700 32.95600 25.34500
C  -5.12200 31.89400 25.96500
C  -4.90000 32.03400 27.36000
C  -3.94900 33.09500 27.53500
C  -6.04300 30.91400 25.25300
C  -5.26600 31.59200 28.62500
O  -6.00400 30.69200 28.96200
C  -4.49900 32.45500 29.62400
C  -5.55400 33.21700 30.34300
O  -6.09100 34.28900 30.04200
O  -5.88800 32.52800 31.50800
C  -7.09700 32.95700 32.20100
H  -0.76700 38.31800 29.30000
H  -1.07700 37.69200 22.80400
H  -4.61300 32.68100 23.22400
H  -3.64100 35.23100 31.21400
H  -0.94400 36.47600 31.09200
H  -3.16100 38.16600 30.49700
H  -2.02600 38.41300 31.76800
H  -3.33600 37.26000 32.02100
H  -1.01100 34.40000 31.91500
H  -1.69200 33.04600 31.07300
H  -3.04600 32.41200 32.81800
H  -3.66100 33.96000 33.04500
H  0.28200 39.83100 28.52200
H  0.92500 40.74800 27.14200
H  1.93500 39.39800 27.90300
H  2.81100 39.43300 25.45200
H  2.08100 41.01100 25.38900
H  3.05000 40.47900 23.98600
H  -1.47900 35.79000 21.53600
H  -4.24500 34.75500 21.52500
H  -2.47800 37.95300 21.08600
H  -3.93300 37.60000 21.93300
H  -3.57400 37.00600 20.23300
H  -2.06400 33.73500 20.38700
H  -3.41600 32.72300 20.81500
H  -1.58300 32.72100 23.07400
H  -0.53200 32.86400 21.61900
H  -1.67200 31.51600 21.75000
H  -6.15100 31.25000 24.22100
H  -7.05100 30.88800 25.66400
H  -5.72100 29.90200 25.49800
H  -3.86100 31.85600 30.27500
H  -7.92000 33.00100 31.48800
H  -6.99300 33.86300 32.79900
H  -7.39800 32.12600 32.83900

