158

Mg 17.09000 -3.26100 28.66000
C  16.12100 -1.09900 31.27700
C  19.49100 -4.66600 30.71400
C  18.46800 -4.75500 26.00300
C  14.96400 -1.34800 26.61500
N  17.73400 -2.83000 30.71400
C  17.22800 -1.95400 31.61100
C  17.92000 -2.07800 33.03000
C  19.02300 -3.10900 32.73300
C  18.74800 -3.58200 31.27500
C  20.47200 -2.55800 32.90300
C  16.89700 -2.66700 34.15300
C  17.12100 -2.17300 35.58100
H  18.48100 -1.57300 35.83800
N  18.69500 -4.64900 28.38400
C  19.45100 -5.18400 29.42400
C  20.35000 -6.23700 28.88200
C  20.04500 -6.33200 27.46500
C  18.98000 -5.24400 27.21200
C  21.33100 -7.00300 29.78400
C  20.54500 -7.24700 26.41600
O  20.04800 -7.33700 25.29300
C  21.57800 -8.21600 26.85300
N  16.66700 -3.13600 26.60900
C  17.52400 -3.77400 25.74300
C  17.16500 -3.36600 24.26200
C  15.99800 -2.31800 24.40800
C  15.79400 -2.27700 25.98600
C  18.37500 -2.88300 23.40600
C  14.65500 -2.65900 23.72600
C  14.36700 -1.88700 22.45000
N  15.69900 -1.68600 28.88600
C  14.87200 -1.07900 27.94200
C  14.08700 -0.08100 28.54500
C  14.45200 -0.16700 29.87900
C  15.52200 -1.08100 30.04000
C  13.09600 0.78500 27.84500
C  14.23600 0.41800 31.18800
O  13.54900 1.32400 31.56400
C  15.16900 -0.26800 32.19300
C  15.70300 0.85300 33.00000
O  16.71700 1.44800 32.71700
O  14.83800 1.14800 34.05200
C  15.40000 2.25200 34.88400
H  20.22600 -5.10600 31.39100
H  18.83000 -5.26400 25.10700
H  14.43500 -0.59100 26.03300
H  18.26600 -1.10300 33.37200
H  18.85300 -3.90800 33.45400
H  20.59100 -1.52400 33.22700
H  21.07400 -2.65200 31.99900
H  21.04800 -3.09300 33.65800
H  16.93700 -3.75100 34.04300
H  15.88200 -2.32800 33.94800
H  17.01100 -3.00000 36.28200
H  16.37500 -1.46000 35.93000
H  21.05200 -8.05000 29.90000
H  21.47400 -6.63000 30.79800
H  22.28900 -6.95200 29.26600
H  21.73100 -8.77700 25.93100
H  21.35700 -8.96200 27.61600
H  22.52700 -7.71300 27.04100
H  16.81300 -4.26600 23.75900
H  16.35000 -1.36500 24.01400
H  19.19000 -2.68600 24.10300
H  18.03200 -1.99300 22.87700
H  18.66300 -3.64800 22.68500
H  13.78500 -2.72000 24.38000
H  14.90100 -3.67400 23.41400
H  14.24400 -2.55900 21.60000
H  15.05200 -1.05600 22.28200
H  13.38900 -1.48900 22.71900
H  12.51100 1.37600 28.55100
H  12.42400 0.30800 27.13100
H  13.74100 1.50700 27.34500
H  14.48200 -0.88100 32.77600
H  14.57200 2.59600 35.50400
H  15.95100 3.00700 34.32300
H  16.14900 1.86500 35.57500
Mg 24.84800 0.79200 30.09200
C  27.02700 1.19900 32.72900
C  22.29000 1.08900 32.11100
C  22.91400 0.61600 27.34500
C  27.59400 0.16300 27.89200
N  24.71000 1.35900 32.18000
C  25.70200 1.49600 33.11500
C  25.15000 1.82800 34.51900
C  23.60700 1.64600 34.24200
C  23.48800 1.27600 32.75700
C  22.93400 0.68400 35.29000
C  25.63500 3.22400 35.02200
C  26.10100 3.18200 36.47300
H  25.55000 4.21100 37.42800
N  22.85900 0.80900 29.79700
C  21.95200 0.95300 30.76000
C  20.63000 0.85100 30.22800
C  20.82000 0.64400 28.86200
C  22.26000 0.70900 28.58100
C  19.34300 0.95100 30.99800
C  19.77500 0.24100 27.87000
O  19.98100 0.11800 26.66300
C  18.37000 -0.06900 28.28300
N  25.24500 0.30900 27.83800
C  24.22400 0.43500 26.95200
C  24.73600 0.27600 25.52700
C  26.27200 0.21000 25.67300
C  26.40900 0.28200 27.22800
C  24.10200 -0.83900 24.63400
C  26.99900 1.39500 24.91600
C  27.62500 0.98400 23.66500
N  26.89400 0.55600 30.23300
C  27.87300 0.27100 29.33600
C  29.14500 0.22700 30.05400
C  28.81900 0.65200 31.32400
C  27.48100 0.78200 31.43400
C  30.49900 0.03400 29.31100
C  29.42800 0.95700 32.58300
O  30.62000 0.84400 32.93100
C  28.31700 1.32300 33.55700
C  28.37900 0.41400 34.76700
O  27.92100 -0.69400 34.87800
O  29.07200 1.12200 35.79000
C  29.09000 0.52300 37.14100
H  21.50100 1.27200 32.84200
H  22.26400 0.71500 26.47300
H  28.44400 0.33600 27.23000
H  25.48300 1.01600 35.16600
H  23.12900 2.61700 34.37700
H  22.88200 -0.29900 34.82100
H  21.94100 1.10900 35.43500
H  23.45300 0.62700 36.24700
H  24.86700 3.99800 35.00600
H  26.51400 3.48100 34.43000
H  27.18900 3.20000 36.53400
H  25.94500 2.19800 36.91600
H  18.76700 0.04200 31.17300
H  18.77600 1.74600 30.51300
H  19.56200 1.38200 31.97500
H  17.78600 -0.32300 27.39800
H  17.75900 0.76200 28.63400
H  18.41900 -0.94500 28.93000
H  24.36200 1.19500 25.07600
H  26.72700 -0.76700 25.51400
H  23.27400 -1.31300 25.16000
H  24.67400 -1.62700 24.14300
H  23.61900 -0.32600 23.80300
H  27.71000 1.79100 25.64100
H  26.25900 2.18000 24.76400
H  27.24800 0.02200 23.31700
H  28.71100 0.98400 23.76300
H  27.47900 1.73100 22.88500
H  30.40100 0.24800 28.24700
H  30.76700 -1.02000 29.38000
H  31.24500 0.68300 29.77100
H  28.40000 2.33300 33.95800
H  28.10400 0.54100 37.60700
H  29.80500 1.04200 37.77900
H  29.56000 -0.44300 36.95600

