158

Mg 7.35900 1.77700 27.75300
C  9.28200 0.60900 30.58200
C  5.81300 4.06000 29.75600
C  5.82800 2.90300 25.04700
C  8.84000 -0.77700 25.95800
N  7.40200 2.04500 30.05800
C  8.32400 1.57900 30.96600
C  8.21200 2.46400 32.25700
C  6.92200 3.35200 32.00800
C  6.65600 3.10000 30.51600
C  5.76800 2.98700 33.01100
C  9.54200 3.25600 32.48000
C  9.53800 4.17000 33.73800
H  10.42000 3.75800 34.90400
N  6.04700 3.27000 27.40400
C  5.50800 4.13200 28.33000
C  4.61300 5.10000 27.65700
C  4.73700 4.87700 26.31400
C  5.57400 3.62700 26.19100
C  3.72300 6.11700 28.40300
C  4.16900 5.71000 25.16500
O  4.46800 5.45300 23.98100
C  3.23300 6.77800 25.34400
N  7.48900 1.25700 25.67200
C  6.60100 1.74900 24.83300
C  6.66900 1.05000 23.49700
C  7.67300 -0.05200 23.77200
C  8.08300 0.14300 25.20100
C  5.35300 0.56200 23.00900
C  8.76200 -0.25500 22.76900
C  8.62100 -1.59000 22.11100
N  8.84200 0.24900 28.05500
C  9.37400 -0.71300 27.24300
C  10.42500 -1.48700 27.93300
C  10.47000 -0.90400 29.20800
C  9.42300 0.05000 29.29400
C  11.27200 -2.58300 27.29700
C  11.05100 -1.06200 30.50800
O  11.94700 -1.79500 30.92000
C  10.36600 -0.07200 31.38600
C  9.83600 -0.62600 32.63800
O  8.97400 -1.46700 32.78300
O  10.50800 -0.00900 33.67600
C  10.14800 -0.54000 35.05400
H  5.31600 4.84500 30.33000
H  5.36800 3.33600 24.15600
H  9.34500 -1.55300 25.38000
H  8.12600 1.78600 33.10600
H  7.18800 4.39500 32.17900
H  6.05400 2.11000 33.59100
H  4.97400 2.78700 32.29100
H  5.59100 3.85400 33.64800
H  9.95800 3.64100 31.54800
H  10.28300 2.50500 32.75500
H  8.52200 4.04300 34.11200
H  9.71700 5.22100 33.50800
H  3.82300 7.16800 28.13200
H  3.84600 5.96900 29.47600
H  2.81100 5.65800 28.02000
H  2.43300 6.24200 25.85500
H  2.78200 6.93300 24.36400
H  3.61500 7.70300 25.77600
H  7.00100 1.73400 22.71700
H  7.14800 -1.00500 23.83500
H  4.42000 0.72400 23.54900
H  5.40800 -0.52600 23.04400
H  5.32500 0.81000 21.94800
H  9.79700 -0.13000 23.08600
H  8.64300 0.57400 22.07100
H  7.76400 -1.77400 21.46300
H  8.74000 -2.32800 22.90400
H  9.47800 -1.74100 21.45500
H  11.84100 -2.09000 26.50900
H  10.75000 -3.36400 26.74400
H  11.94100 -3.05900 28.01300
H  11.12900 0.69400 31.52400
H  10.45500 -1.57900 35.17400
H  9.11800 -0.50400 35.40900
H  10.79700 0.04300 35.70800
Mg -12.16900 15.14500 42.76600
C  -8.82400 13.95800 42.37500
C  -11.18400 17.75600 40.72300
C  -15.32300 15.92500 42.51000
C  -12.98400 12.11100 44.27800
N  -10.22100 15.73800 41.62200
C  -8.96600 15.20600 41.70200
C  -7.98600 15.95300 40.89700
C  -8.71800 17.33700 40.72300
C  -10.17900 16.92200 41.03600
C  -8.10600 18.54100 41.46100
C  -7.56500 15.25400 39.56300
C  -6.09100 14.91700 39.37900
H  -5.38400 15.52400 38.18700
N  -13.10700 16.72400 41.77100
C  -12.55200 17.68300 41.04800
C  -13.55300 18.65300 40.70600
C  -14.86500 18.05800 41.08200
C  -14.46200 16.88000 41.85500
C  -13.30600 20.01500 39.97300
C  -16.26200 18.64700 40.80100
O  -16.35300 19.76000 40.17800
C  -17.57100 18.04700 41.35600
N  -13.85800 14.23500 43.42500
C  -15.08100 14.72700 43.19000
C  -16.24900 13.88700 43.87000
C  -15.48800 12.62700 44.44600
C  -14.03000 12.96300 44.00700
C  -16.96600 14.80800 44.99000
C  -15.86600 11.25700 43.73300
C  -17.03900 10.61700 44.47000
N  -11.11900 13.44600 43.30800
C  -11.57200 12.24600 43.89600
C  -10.47900 11.31200 44.09700
C  -9.40600 11.95100 43.45400
C  -9.85100 13.25800 43.04100
C  -10.54500 9.99400 44.76200
C  -7.99300 11.71300 43.09300
O  -7.21500 10.78100 43.31100
C  -7.61200 13.00100 42.34200
C  -6.36300 13.54000 42.84900
O  -6.28000 14.31200 43.84100
O  -5.27300 13.19800 42.12000
C  -4.00600 13.81100 42.61500
H  -10.85900 18.60900 40.12300
H  -16.36800 16.20000 42.35000
H  -13.20600 11.18900 44.81900
H  -7.17900 16.05800 41.62200
H  -8.74200 17.66100 39.68300
H  -8.06900 19.46500 40.88400
H  -7.13300 18.30000 41.89100
H  -8.72100 18.62400 42.35700
H  -7.89700 15.89900 38.74900
H  -8.22200 14.39100 39.45500
H  -5.95700 13.83900 39.29100
H  -5.58000 15.23900 40.28700
H  -13.78800 20.84900 40.48200
H  -13.47900 19.93800 38.90000
H  -12.23000 20.11500 40.12000
H  -17.47800 18.03600 42.44200
H  -17.62400 17.11900 40.78600
H  -18.45800 18.65700 41.19100
H  -16.90200 13.61800 43.04000
H  -15.61700 12.61000 45.52800
H  -16.93300 14.33900 45.97400
H  -18.03900 14.88700 44.81800
H  -16.60300 15.83300 45.05300
H  -15.07400 10.52000 43.60100
H  -16.17600 11.43400 42.70300
H  -17.76500 10.37300 43.69400
H  -17.49700 11.22900 45.24800
H  -16.70900 9.61900 44.75700
H  -11.52900 9.69000 45.12000
H  -9.75700 9.94000 45.51300
H  -10.29700 9.20600 44.05100
H  -7.52600 12.76000 41.28200
H  -3.58400 13.09900 43.32500
H  -4.14300 14.81400 43.01700
H  -3.24200 13.96300 41.85200

