158

Mg 23.95400 -5.55400 45.19000
C  25.92000 -3.04000 43.61700
C  21.27300 -4.24900 43.38500
C  22.42600 -8.50300 45.72100
C  27.00000 -6.68200 46.58600
N  23.70500 -3.96600 43.53600
C  24.60600 -2.97200 43.18200
C  24.01700 -2.03800 42.18900
C  22.48400 -2.14000 42.49700
C  22.49000 -3.55900 43.16800
C  21.84200 -1.08700 43.44200
C  24.46500 -2.45400 40.72300
C  25.21300 -1.43900 39.75500
H  24.86500 -1.44100 38.25800
N  22.12700 -6.25300 44.73200
C  21.09100 -5.51900 44.01200
C  19.89800 -6.38100 43.91900
C  20.15300 -7.61900 44.60900
C  21.65100 -7.52300 45.02600
C  18.68900 -5.96600 43.21100
C  19.25200 -8.76200 44.89100
O  18.07300 -8.68900 44.52200
C  19.72000 -10.05700 45.45600
N  24.63400 -7.28700 46.15800
C  23.81400 -8.40900 46.17500
C  24.49700 -9.48600 47.05800
C  25.86200 -8.79100 47.50200
C  25.90700 -7.57900 46.64300
C  23.65100 -9.96700 48.23500
C  27.10700 -9.79600 47.47400
C  27.73300 -10.07600 48.87100
N  25.96900 -4.92700 45.29300
C  27.04200 -5.46400 45.84500
C  28.21700 -4.57400 45.76400
C  27.82500 -3.64900 44.85000
C  26.42900 -3.92300 44.59300
C  29.45700 -4.61400 46.53100
C  28.33200 -2.50500 44.07500
O  29.44800 -2.02100 44.01900
C  27.08900 -2.09100 43.13100
C  26.76500 -0.59500 43.33900
O  26.06200 -0.15000 44.22600
O  27.30900 0.07000 42.23400
C  27.11700 1.54500 42.08200
H  20.36900 -3.72800 43.06000
H  22.05400 -9.50800 45.93200
H  27.83300 -6.99000 47.22100
H  24.32000 -1.01100 42.39000
H  21.87600 -2.21500 41.59500
H  22.63100 -0.37300 43.67900
H  21.44600 -1.53400 44.35300
H  21.03000 -0.64800 42.86100
H  23.64100 -2.88200 40.15100
H  25.01600 -3.37800 40.90000
H  26.27600 -1.63400 39.89500
H  25.13600 -0.43900 40.18100
H  17.97000 -5.52700 43.90300
H  18.15100 -6.83600 42.83400
H  18.83200 -5.35800 42.31900
H  18.89200 -10.74500 45.62200
H  20.00800 -9.91500 46.49700
H  20.33000 -10.64000 44.76400
H  24.74700 -10.21000 46.28300
H  25.71200 -8.46800 48.53300
H  22.87000 -9.20900 48.29600
H  24.01100 -10.05200 49.26000
H  23.06300 -10.85000 47.98800
H  27.83100 -9.37600 46.77600
H  26.80900 -10.75100 47.03900
H  28.75900 -9.73100 48.73800
H  27.56200 -11.13600 49.06200
H  27.30800 -9.46400 49.66600
H  29.79700 -5.64800 46.59400
H  29.34800 -4.33900 47.58000
H  30.12700 -3.93200 46.00700
H  27.30900 -2.32200 42.08900
H  26.10300 1.78200 42.40200
H  27.05200 1.76500 41.01600
H  27.72300 2.16500 42.74300
Mg 36.69400 49.86400 24.79500
C  36.90700 47.80300 27.63600
C  35.60600 52.35800 26.86900
C  36.13800 51.73900 22.09100
C  37.82100 47.33800 22.81900
N  36.06000 49.98600 27.02000
C  36.34600 49.07300 27.98500
C  35.99300 49.66300 29.42200
C  35.72300 51.13800 29.07300
C  35.75600 51.16200 27.59300
C  34.33600 51.60700 29.61600
C  37.04800 49.45800 30.51700
C  37.04400 50.42200 31.71200
H  35.67500 50.46500 32.49400
N  36.05100 51.82700 24.51600
C  35.65200 52.65600 25.52000
C  35.24200 53.91000 24.86500
C  35.46600 53.81000 23.47700
C  35.92900 52.43200 23.33000
C  34.73300 55.03400 25.77800
C  35.18800 54.85600 22.35900
O  35.20100 54.51700 21.16800
C  34.94300 56.28300 22.75300
N  37.01000 49.61100 22.71200
C  36.63100 50.50500 21.77300
C  36.96000 50.03700 20.35600
C  37.57000 48.62500 20.62900
C  37.53400 48.52000 22.15800
C  35.68100 50.07700 19.51400
C  38.92500 48.28100 19.90400
C  40.20700 48.12900 20.80900
N  37.28500 47.93000 25.11800
C  37.71500 46.97300 24.19100
C  38.07500 45.72100 24.93400
C  37.76900 46.03700 26.26100
C  37.26600 47.38400 26.31500
C  38.36500 44.50400 24.31600
C  37.65100 45.38400 27.54400
O  37.89200 44.30900 27.99000
C  37.07500 46.53600 28.47100
C  35.77600 46.17000 29.05200
O  34.69900 46.20500 28.48300
O  36.04100 45.88900 30.36800
C  34.86100 45.80200 31.29300
H  35.21400 53.16600 27.49100
H  35.87700 52.33100 21.21200
H  38.30100 46.64600 22.12300
H  35.04500 49.16600 29.62800
H  36.45100 51.85800 29.44900
H  34.53000 52.35200 30.38800
H  33.87400 50.82600 30.22100
H  33.68200 51.94700 28.81400
H  37.96400 49.52400 29.92900
H  37.03000 48.45800 30.95100
H  37.12800 51.45800 31.38500
H  37.83800 50.19500 32.42300
H  33.97800 54.66700 26.47300
H  34.26000 55.86400 25.25200
H  35.49900 55.59300 26.31400
H  33.90800 56.38400 23.07900
H  35.17100 57.02700 21.99100
H  35.61000 56.51300 23.58400
H  37.72700 50.68700 19.93600
H  36.89100 47.83400 20.31300
H  36.02400 49.99300 18.48300
H  34.94500 50.82300 19.81300
H  35.15800 49.12400 19.59800
H  39.20400 49.03200 19.16500
H  38.75800 47.29300 19.47300
H  40.76700 47.25800 20.46700
H  39.97400 48.10900 21.87400
H  40.83700 48.99500 20.60700
H  37.71100 43.73200 24.72200
H  39.41900 44.22400 24.30700
H  38.21400 44.55600 23.23800
H  37.77500 46.75500 29.27800
H  33.86100 45.63300 30.89300
H  34.69200 46.71800 31.85900
H  35.14400 45.04500 32.02400

