158

Mg 0.84200 8.44800 26.15900
C  1.81500 9.99900 29.20600
C  0.84000 5.47500 27.91900
C  0.19800 6.78000 23.24800
C  1.26900 11.31900 24.49100
N  1.35100 7.81900 28.32500
C  1.60300 8.63200 29.41200
C  1.58800 7.83900 30.71500
C  1.37000 6.36500 30.34700
C  1.14500 6.53400 28.80400
C  2.45800 5.37500 30.66600
C  0.60900 8.34500 31.79500
C  1.14400 8.36900 33.26000
H  2.37900 7.57700 33.61400
N  0.42600 6.40300 25.70000
C  0.48500 5.33800 26.61400
C  0.12900 4.13300 25.91600
C  -0.04000 4.42100 24.51000
C  0.24200 5.94100 24.42200
C  0.10500 2.76700 26.57800
C  -0.13300 3.52500 23.32300
O  -0.01600 3.98300 22.18300
C  -0.34800 2.06400 23.48000
N  0.88200 8.92400 24.13100
C  0.45600 8.12600 23.15600
C  0.32900 8.89800 21.81300
C  0.69100 10.36900 22.22900
C  0.96800 10.23500 23.73500
C  1.24800 8.24300 20.72500
C  -0.27300 11.58800 21.88700
C  -1.08100 11.44200 20.56700
N  1.37200 10.28900 26.71900
C  1.53900 11.44000 25.88700
C  1.91100 12.59900 26.72300
C  2.05200 12.02000 28.00900
C  1.75300 10.65700 27.93800
C  2.05800 14.02300 26.26900
C  2.41100 12.36500 29.39200
O  2.67800 13.38100 30.00900
C  2.01300 11.09400 30.19600
C  3.11400 10.77300 31.15700
O  4.07100 10.06700 30.94400
O  2.91500 11.43400 32.34100
C  3.98100 11.61800 33.30600
H  0.92000 4.52900 28.45900
H  -0.08200 6.39400 22.26500
H  1.48300 12.22700 23.92300
H  2.63100 7.96900 31.00500
H  0.39300 6.01300 30.67900
H  2.75300 4.78800 29.79600
H  2.00400 4.64400 31.33500
H  3.36300 5.81000 31.08900
H  -0.29300 7.73500 31.84900
H  0.33600 9.38000 31.58700
H  0.37400 7.95300 33.91000
H  1.22000 9.39100 33.63100
H  1.09600 2.31600 26.53100
H  -0.61400 2.10100 26.10200
H  -0.30500 2.79100 27.58800
H  -0.33600 1.63300 22.48000
H  -1.31300 1.77300 23.89600
H  0.51700 1.75300 24.06500
H  -0.70400 8.78000 21.48600
H  1.70600 10.61200 21.91500
H  1.54200 9.08800 20.10100
H  0.69100 7.54700 20.09700
H  2.20000 7.84600 21.07800
H  0.34500 12.47100 21.72400
H  -0.95800 11.66700 22.73000
H  -0.69100 12.16600 19.85200
H  -2.14800 11.61000 20.71100
H  -0.98200 10.43500 20.16100
H  2.70500 14.70700 26.81800
H  1.06000 14.45800 26.20900
H  2.45400 13.92000 25.25900
H  1.14600 11.37500 30.79400
H  4.29800 12.66100 33.29900
H  4.85700 11.01400 33.07100
H  3.58700 11.37600 34.29400
Mg 16.82900 51.87200 26.55000
C  18.71800 50.73600 28.99900
C  14.47100 52.82700 28.97600
C  15.08300 53.35400 24.21700
C  19.30300 51.04900 24.15800
N  16.60400 51.74500 28.68700
C  17.57400 51.32000 29.51100
C  17.28000 51.45800 31.08600
C  15.76200 51.88100 30.97000
C  15.61200 52.24200 29.50500
C  14.79400 50.82300 31.53300
C  18.34500 52.43700 31.87700
C  18.30200 52.17900 33.43800
H  17.18200 51.47900 34.16800
N  14.91600 52.81500 26.58000
C  14.11800 53.11400 27.64300
C  12.87800 53.86800 27.16100
C  13.05300 54.07500 25.76000
C  14.36000 53.36200 25.43300
C  11.67200 54.26100 27.97500
C  12.16300 54.70000 24.69700
O  12.48200 54.64400 23.50400
C  10.90000 55.54800 25.03000
N  17.16500 52.06700 24.48000
C  16.25200 52.71900 23.76400
C  16.69300 53.16400 22.35400
C  17.96300 52.26400 22.25600
C  18.23100 51.85400 23.72000
C  15.67700 52.98400 21.20400
C  19.24100 52.87400 21.50400
C  19.73700 52.02000 20.29400
N  18.49600 50.82800 26.46400
C  19.43000 50.62700 25.45800
C  20.50400 49.83200 26.02200
C  20.27500 49.92500 27.40700
C  19.08100 50.54600 27.61700
C  21.64600 49.22400 25.30400
C  20.81600 49.48400 28.67400
O  21.74900 48.71900 28.89300
C  19.88500 50.12200 29.76300
C  19.50500 49.05300 30.66100
O  18.66600 48.13900 30.46600
O  20.14700 49.11200 31.83000
C  19.49500 48.34800 32.93800
H  13.71300 53.10900 29.71000
H  14.86700 54.13300 23.48300
H  20.08400 50.80200 23.43600
H  17.35300 50.50800 31.61600
H  15.55800 52.82000 31.48600
H  15.19600 50.10700 32.25000
H  14.32000 50.30300 30.70000
H  13.94300 51.28100 32.03700
H  17.98400 53.41700 31.56500
H  19.38000 52.31400 31.55600
H  18.52900 53.11800 33.94200
H  19.16600 51.51400 33.45600
H  10.80400 53.62200 27.81500
H  11.31900 55.28800 27.87800
H  11.90100 54.13000 29.03300
H  10.26000 55.50100 24.14800
H  11.11500 56.60600 25.18000
H  10.37200 55.06400 25.85200
H  17.01300 54.20000 22.46700
H  17.75600 51.36100 21.68100
H  14.92700 52.26300 21.52900
H  16.19900 52.74600 20.27700
H  15.14400 53.91900 21.03100
H  20.02600 52.83800 22.26000
H  19.07700 53.91800 21.23600
H  19.43400 52.56000 19.39700
H  19.38400 50.99000 20.25500
H  20.82600 52.04700 20.33600
H  21.46100 48.19400 24.99700
H  22.54900 49.28600 25.91200
H  21.70800 49.67400 24.31300
H  20.45400 50.84000 30.35400
H  18.45700 48.65600 33.06000
H  20.02000 48.57500 33.86600
H  19.52100 47.27900 32.72600

