158

Mg 8.71800 47.70700 25.35000
C  6.55200 47.81000 27.95000
C  11.32700 48.84800 27.44300
C  10.72600 48.51600 22.68000
C  6.00200 47.34300 23.15200
N  8.87200 48.26100 27.52100
C  7.87900 48.07400 28.43100
C  8.40700 48.24600 29.86200
C  9.79900 48.94800 29.62000
C  10.05300 48.69400 28.08300
C  9.86000 50.44200 30.00500
C  8.54400 46.91700 30.70200
C  9.27600 47.15400 32.08400
H  8.90100 46.27300 33.26100
N  10.81200 48.22900 25.10400
C  11.70500 48.64300 26.07200
C  13.06400 48.78200 25.58900
C  12.89500 48.62900 24.15800
C  11.39000 48.46400 23.90300
C  14.21600 49.17100 26.46500
C  13.98900 48.45700 23.11000
O  13.73000 48.15300 21.98900
C  15.39600 48.62100 23.52000
N  8.37700 47.99600 23.22600
C  9.37200 48.26000 22.30700
C  8.80300 48.41600 20.84600
C  7.31100 48.09800 21.07600
C  7.20000 47.78600 22.56800
C  8.95200 49.77500 20.16900
C  6.70100 46.79900 20.30200
C  5.39400 46.94600 19.51700
N  6.69900 47.49500 25.44900
C  5.73200 47.34300 24.53700
C  4.40000 47.11900 25.15200
C  4.70700 47.40300 26.50800
C  6.08800 47.54100 26.64000
C  3.11600 46.80300 24.52600
C  4.16000 47.52300 27.81800
O  3.01000 47.51500 28.27700
C  5.34000 47.71100 28.84300
C  5.43400 46.44900 29.67600
O  5.62300 45.31000 29.24600
O  5.08600 46.66400 31.01300
C  4.82400 45.45600 31.79300
H  12.05000 49.21400 28.17500
H  11.44900 48.90400 21.96000
H  5.10900 47.11700 22.56500
H  7.69800 48.89600 30.37500
H  10.62700 48.44400 30.11700
H  10.39700 50.60200 30.94000
H  8.84800 50.83000 30.11900
H  10.39500 50.97400 29.21900
H  8.92600 46.07200 30.12900
H  7.53900 46.62800 31.00900
H  9.09100 48.21600 32.24300
H  10.32700 46.97900 31.85400
H  13.97500 49.43900 27.49300
H  14.80000 49.98100 26.02800
H  14.91200 48.33500 26.52900
H  15.45500 49.54400 24.09700
H  15.97800 48.77200 22.61100
H  15.68800 47.63900 23.89300
H  9.25400 47.67600 20.18400
H  6.67300 48.95700 20.86800
H  9.81600 49.96100 19.53100
H  8.99500 50.48000 20.99900
H  8.03200 50.00400 19.63100
H  6.61200 45.94800 20.97700
H  7.51600 46.62000 19.60000
H  5.58800 47.66100 18.71700
H  4.72700 47.52900 20.15200
H  4.95100 46.07900 19.02600
H  3.34000 46.26000 23.60800
H  2.40600 47.62600 24.45300
H  2.65100 46.09200 25.20900
H  5.07400 48.57200 29.45600
H  3.97400 45.72900 32.41800
H  5.64400 45.31600 32.49800
H  4.71400 44.45400 31.37800
Mg -5.23300 24.32000 26.52200
C  -2.99300 25.99700 28.79700
C  -6.14500 22.26200 29.14600
C  -6.92000 22.54900 24.31500
C  -3.85200 26.30200 23.89000
N  -4.70900 24.21400 28.72600
C  -3.78800 25.00600 29.42600
C  -3.97000 24.71600 30.95000
C  -4.63100 23.31200 30.98300
C  -5.20200 23.24300 29.53500
C  -3.79700 22.13400 31.30000
C  -4.63800 25.97800 31.59800
C  -5.95000 25.72600 32.32700
H  -5.91600 25.09900 33.74100
N  -6.44700 22.72900 26.70800
C  -6.73400 21.98800 27.86000
C  -7.64400 20.91500 27.46600
C  -7.88500 20.97700 26.05900
C  -7.09500 22.14900 25.65500
C  -8.16100 19.91800 28.48500
C  -8.84800 20.13200 25.26000
O  -9.06400 20.34300 24.06500
C  -9.58400 18.93100 25.82500
N  -5.23500 24.39200 24.42400
C  -6.16500 23.58000 23.78200
C  -6.26800 24.00000 22.31300
C  -5.29000 25.13300 22.10600
C  -4.75700 25.32900 23.53600
C  -6.27200 22.87500 21.12800
C  -5.84000 26.39400 21.43800
C  -5.74100 26.55800 19.94100
N  -3.80000 25.85700 26.33000
C  -3.40600 26.57400 25.21200
C  -2.42100 27.63000 25.59600
C  -2.22200 27.43000 27.00100
C  -3.07000 26.31000 27.37300
C  -1.73900 28.60800 24.67000
C  -1.46200 27.80500 28.14000
O  -0.57300 28.66800 28.28600
C  -1.97300 26.99700 29.34100
C  -0.85700 26.31700 30.07900
O  0.03200 25.65700 29.55400
O  -0.88000 26.63300 31.40600
C  0.21600 26.19600 32.24600
H  -6.41000 21.58800 29.96400
H  -7.34900 21.86700 23.57800
H  -3.43600 26.84600 23.04000
H  -2.96400 24.71700 31.37100
H  -5.43600 23.35400 31.71700
H  -4.31900 21.53800 32.04900
H  -2.80800 22.39600 31.67900
H  -3.68000 21.46200 30.45000
H  -4.82200 26.83700 30.95300
H  -3.93500 26.47400 32.26800
H  -6.58000 25.21700 31.59700
H  -6.39000 26.71400 32.46200
H  -9.19600 20.12600 28.75500
H  -7.51400 19.98000 29.36100
H  -8.02500 18.90500 28.10400
H  -8.84700 18.13200 25.91300
H  -10.27000 18.62200 25.03600
H  -10.11900 19.09000 26.76100
H  -7.27600 24.41500 22.34400
H  -4.47700 24.73300 21.50000
H  -7.26000 22.71800 20.69400
H  -6.05600 21.90700 21.57900
H  -5.61300 23.11500 20.29400
H  -5.19200 27.17500 21.83600
H  -6.89000 26.50300 21.71000
H  -4.83900 27.11200 19.68100
H  -6.70500 26.89700 19.56200
H  -5.61400 25.58100 19.47500
H  -1.68700 28.26200 23.63800
H  -0.69200 28.66100 24.97000
H  -2.16600 29.59200 24.86300
H  -2.45400 27.64600 30.07300
H  1.11900 25.82800 31.75800
H  -0.22200 25.42400 32.87900
H  0.51400 27.01400 32.90200

