158

Mg 35.12100 2.23400 29.72900
C  32.97000 3.34000 32.07800
C  37.66900 2.32800 31.97200
C  37.60100 1.86900 27.15900
C  32.65000 2.54700 27.39200
N  35.28200 2.79500 31.72700
C  34.28600 3.12500 32.58000
C  34.82700 3.51800 33.93300
C  36.30400 3.40000 33.79000
C  36.42600 2.74200 32.43500
C  37.17000 4.61600 33.90900
C  34.21200 2.58600 35.10900
C  34.03000 3.20400 36.43400
H  35.14200 4.23300 36.97100
N  37.28200 1.95300 29.65200
C  38.07100 1.91600 30.69300
C  39.40200 1.49500 30.28500
C  39.39500 1.37900 28.85400
C  38.04500 1.70900 28.47600
C  40.53100 1.38100 31.31500
C  40.45100 1.05600 27.91800
O  40.31000 0.85400 26.68900
C  41.89200 0.92800 28.50400
N  35.18100 2.60500 27.59900
C  36.24600 2.24000 26.79500
C  35.81000 1.98500 25.35600
C  34.24900 1.84500 25.42800
C  34.00600 2.51000 26.82300
C  36.30700 3.13300 24.37300
C  33.67500 0.44300 25.30800
C  32.19000 0.22200 24.84700
N  33.15500 2.75100 29.67100
C  32.31700 2.80600 28.64100
C  30.99900 3.19100 29.10100
C  31.16600 3.37100 30.48600
C  32.48900 3.17500 30.79900
C  29.76600 3.25700 28.27500
C  30.54500 3.74000 31.75200
O  29.35900 3.92500 32.00600
C  31.69100 3.75700 32.86500
C  31.74200 5.07800 33.39500
O  31.86000 6.11100 32.76000
O  31.54300 5.02600 34.74500
C  31.13700 6.23200 35.48300
H  38.46700 2.22000 32.71000
H  38.13300 1.65600 26.22900
H  31.92500 2.42700 26.58500
H  34.57700 4.55400 34.15900
H  36.75400 2.76200 34.55000
H  36.63800 5.39800 34.45100
H  37.32000 5.12000 32.95400
H  38.06900 4.21600 34.37600
H  34.76500 1.64900 35.17500
H  33.20400 2.32800 34.78700
H  34.13800 2.31600 37.05700
H  33.06600 3.69100 36.29000
H  40.75300 0.31400 31.33300
H  40.14000 1.74200 32.26600
H  41.47000 1.79700 30.94900
H  42.00900 0.01000 29.07900
H  42.23100 1.88600 28.89900
H  42.51400 0.84600 27.61200
H  36.23900 1.02000 25.08500
H  33.73600 2.53500 24.75700
H  36.57600 4.03200 24.92700
H  35.46200 3.37700 23.72900
H  37.16200 2.72900 23.83100
H  33.80900 -0.09400 26.24700
H  34.30400 -0.09500 24.59800
H  32.24900 -0.26200 23.87200
H  31.62200 1.15200 24.81200
H  31.63000 -0.37500 25.56800
H  29.40500 4.27000 28.10000
H  28.97500 2.75500 28.83200
H  29.88800 2.78600 27.29900
H  31.59500 2.91300 33.54900
H  30.87200 7.06400 34.83100
H  32.04500 6.53700 36.00300
H  30.33400 5.97500 36.17400
Mg 29.92900 57.74100 41.07500
C  27.09500 55.77300 40.14300
C  31.89000 55.26600 39.55200
C  32.46100 59.84700 41.38000
C  27.66300 60.34500 41.93100
N  29.57000 55.69400 40.05500
C  28.31200 55.09100 39.81400
C  28.45500 53.71400 39.21300
C  29.96800 53.63100 38.93300
C  30.52700 54.87200 39.60300
C  30.60400 52.21900 39.23200
C  27.53200 53.52900 37.90100
C  27.40900 54.79200 36.95200
H  27.73700 54.68300 35.47600
N  31.88300 57.52500 40.70200
C  32.50500 56.47600 40.07100
C  33.97300 56.75600 40.03300
C  34.14700 58.01000 40.59800
C  32.76500 58.55200 40.87900
C  34.91700 55.68800 39.60300
C  35.48700 58.68700 40.83100
O  36.51900 58.06800 40.57600
C  35.68800 60.13700 41.23800
N  30.03900 59.81800 41.56800
C  31.20600 60.40100 41.70700
C  31.04000 61.89700 41.82900
C  29.57300 62.05500 42.26100
C  29.02100 60.64300 41.87400
C  32.02100 62.70200 42.69800
C  28.88000 63.36700 41.63600
C  27.97600 64.22100 42.58800
N  27.82700 58.01600 41.07700
C  27.06100 59.12200 41.49900
C  25.66600 58.80900 41.25400
C  25.66500 57.45900 40.89000
C  26.98800 57.06000 40.72700
C  24.47900 59.71200 41.36700
C  24.76200 56.46600 40.46100
O  23.52100 56.45000 40.44400
C  25.64900 55.25900 39.94400
C  25.38200 54.15700 40.84600
O  25.73000 54.15500 42.03900
O  24.82000 53.08800 40.23300
C  24.57900 51.88100 41.07800
H  32.59800 54.57700 39.08600
H  33.30800 60.53600 41.34900
H  27.00700 61.20200 42.09700
H  28.19200 53.02000 40.01100
H  30.07000 53.71200 37.85100
H  30.19800 51.56600 38.45900
H  30.22800 51.80400 40.16800
H  31.68900 52.30100 39.18000
H  26.52000 53.29200 38.22700
H  27.87000 52.72400 37.24900
H  28.22300 55.42500 37.30400
H  26.49200 55.38200 36.93700
H  35.96900 55.97500 39.58500
H  34.66800 55.25800 38.63200
H  34.81800 54.87600 40.32300
H  35.36700 60.73600 40.38600
H  36.75200 60.37000 41.27800
H  35.17200 60.35600 42.17200
H  31.21600 62.31000 40.83600
H  29.67600 62.07800 43.34600
H  32.29100 63.65800 42.24900
H  32.97100 62.18100 42.81400
H  31.72600 62.86000 43.73500
H  28.21500 63.12200 40.80800
H  29.69200 63.97300 41.23400
H  27.02100 64.42800 42.10400
H  28.51200 65.14300 42.81000
H  27.70900 63.69500 43.50400
H  24.23500 60.13300 40.39200
H  24.66100 60.48300 42.11600
H  23.65700 59.05100 41.64200
H  25.46400 55.07700 38.88500
H  25.29200 51.07100 40.92300
H  23.58800 51.47000 40.88500
H  24.61900 52.01600 42.15900

