158

Mg 52.58400 23.84600 45.05700
C  49.90900 25.95700 44.48000
C  50.75000 21.23500 43.74000
C  55.42900 21.98500 44.95000
C  54.38000 26.71300 46.15600
N  50.66500 23.70500 44.01500
C  49.70000 24.69300 43.99500
C  48.35100 23.98900 43.60300
C  48.61700 22.48300 43.74400
C  50.14100 22.43700 43.78800
C  47.90900 21.73600 44.97200
C  47.88100 24.48400 42.24600
C  48.87400 24.42700 41.01900
H  48.37400 23.63400 39.73400
N  53.00900 21.82600 44.49700
C  52.05300 20.94300 44.09500
C  52.73400 19.72200 43.90900
C  54.08800 19.81600 44.30000
C  54.22300 21.24100 44.60900
C  52.06700 18.49800 43.35700
C  55.11700 18.70100 44.22100
O  54.90600 17.52800 43.82600
C  56.56900 18.99600 44.61000
N  54.60200 24.29600 45.41200
C  55.60500 23.39300 45.24700
C  56.98900 24.03700 45.57900
C  56.61100 25.40800 46.14000
C  55.09400 25.53300 45.87800
C  57.90700 23.12400 46.53400
C  57.50200 26.54800 45.57300
C  58.78000 26.84400 46.32800
N  52.24700 25.91900 45.32800
C  53.00500 26.95500 45.88800
C  52.21200 28.10100 46.10700
C  50.96400 27.77100 45.51900
C  51.05800 26.48800 45.02000
C  52.71600 29.40400 46.64900
C  49.69500 28.32000 45.19400
O  49.17500 29.44100 45.32200
C  48.88100 27.17300 44.50500
C  48.54800 27.73000 43.10900
O  49.39800 27.83900 42.24000
O  47.20400 28.09000 43.06300
C  46.83700 28.65200 41.68400
H  50.05300 20.43100 43.49400
H  56.40600 21.49700 44.96300
H  54.94500 27.60100 46.45000
H  47.58200 24.33300 44.29500
H  48.30800 22.02800 42.80300
H  47.20300 22.43400 45.42200
H  48.69400 21.56400 45.70800
H  47.42700 20.83700 44.58800
H  47.40200 25.43000 42.49800
H  47.00500 23.88000 42.01000
H  49.72000 23.79200 41.28200
H  49.26000 25.42400 40.80800
H  50.98500 18.48000 43.48200
H  52.33600 17.68200 44.02800
H  52.32600 18.36900 42.30600
H  57.06400 18.02500 44.61300
H  56.45900 19.46200 45.58900
H  56.99400 19.71500 43.91000
H  57.61400 24.17300 44.69600
H  56.71100 25.29500 47.22000
H  57.22400 22.54600 47.15700
H  58.43500 23.80300 47.20400
H  58.63600 22.60600 45.91000
H  56.83700 27.41100 45.53600
H  57.74300 26.36900 44.52600
H  59.66900 26.92300 45.70300
H  59.01600 26.09900 47.08800
H  58.70400 27.78500 46.87300
H  52.42500 30.20400 45.96900
H  53.80400 29.35600 46.60900
H  52.51200 29.65900 47.68900
H  47.94200 26.93800 45.00600
H  47.66200 29.19700 41.22600
H  45.98200 29.26100 41.98000
H  46.52700 27.81400 41.06000
Mg 15.78700 51.55900 25.43200
C  17.50500 50.66600 28.34100
C  13.19100 52.74800 27.31600
C  14.32700 52.33500 22.68300
C  18.56000 50.21600 23.61800
N  15.48000 51.68000 27.65700
C  16.35000 51.43100 28.67600
C  15.81600 51.76400 30.09300
C  14.27000 52.25300 29.62600
C  14.30600 52.28800 28.08800
C  13.15000 51.28800 30.21300
C  16.69000 52.91700 30.74200
C  16.30100 53.23100 32.14900
H  15.48600 52.27700 32.92300
N  13.92600 52.33200 25.06100
C  13.00300 52.84600 25.92000
C  11.87300 53.37100 25.24600
C  12.21800 53.32400 23.83200
C  13.51900 52.61600 23.79100
C  10.58100 53.97900 25.88300
C  11.40200 53.70100 22.57600
O  11.81400 53.42100 21.43500
C  10.16700 54.43100 22.84700
N  16.38600 51.36000 23.48700
C  15.53000 51.71700 22.46200
C  16.15300 51.55500 21.04800
C  17.58600 50.90900 21.40000
C  17.54900 50.83800 22.92900
C  15.33600 50.67200 20.01000
C  18.85500 51.72400 20.84000
C  20.14600 50.90500 20.53900
N  17.59500 50.50400 25.79400
C  18.55800 49.97300 24.99300
C  19.62700 49.38600 25.77100
C  19.18800 49.56200 27.06200
C  18.01700 50.31700 27.05400
C  20.81800 48.57300 25.20900
C  19.52000 49.28000 28.39400
O  20.41700 48.52400 28.83500
C  18.50800 50.07000 29.27200
C  17.89700 49.14200 30.25900
O  17.11800 48.20200 30.06600
O  18.20100 49.50900 31.58300
C  17.67600 48.63900 32.64400
H  12.39000 53.15800 27.93600
H  14.05100 52.69900 21.69200
H  19.38000 49.72000 23.09500
H  15.74000 50.90900 30.76500
H  13.87900 53.16300 30.08100
H  13.65400 50.56900 30.86000
H  12.62800 50.87000 29.35200
H  12.48900 51.86700 30.85800
H  16.74100 53.89300 30.25900
H  17.73700 52.61600 30.71600
H  15.68500 54.12300 32.03300
H  17.26300 53.36400 32.64300
H  10.45600 55.03100 25.62600
H  10.68200 53.89500 26.96500
H  9.59800 53.52600 25.75600
H  10.36000 55.32800 23.43500
H  9.37900 53.80000 23.25900
H  9.72800 54.76500 21.90700
H  16.34500 52.52500 20.58800
H  17.56400 49.91500 20.95200
H  14.66300 51.35300 19.49100
H  14.81100 49.93500 20.61800
H  16.03500 50.38000 19.22600
H  19.06800 52.62400 21.41700
H  18.51300 52.21100 19.92700
H  20.56200 51.06900 19.54500
H  19.90300 49.84700 20.63300
H  20.94500 51.08200 21.25900
H  20.58900 48.24300 24.19600
H  21.01700 47.63200 25.72100
H  21.66500 49.25800 25.17700
H  19.10100 50.82500 29.78800
H  16.72100 48.15700 32.43600
H  17.43900 49.16900 33.56600
H  18.35800 47.82900 32.90000

