158

Mg 26.61700 50.49100 26.68000
C  24.94400 52.03000 29.42400
C  29.12300 49.60100 28.98300
C  28.57400 49.20400 24.10100
C  24.57000 52.00700 24.48400
N  26.89400 50.71100 29.00500
C  26.05300 51.27800 29.91500
C  26.50300 51.12900 31.39900
C  27.90900 50.32700 31.19500
C  27.98400 50.17100 29.64600
C  29.02500 50.97900 31.88800
C  25.50400 50.27300 32.30500
C  24.82900 51.16700 33.40300
H  25.73200 51.58900 34.58800
N  28.53700 49.54400 26.48900
C  29.34200 49.22300 27.60200
C  30.59600 48.49800 27.11500
C  30.45000 48.51700 25.65100
C  29.10200 49.06900 25.34600
C  31.67500 48.14300 28.02900
C  31.44700 48.08700 24.57400
O  31.31500 48.24100 23.35200
C  32.65800 47.31500 24.97100
N  26.58100 50.66000 24.58200
C  27.47100 49.98800 23.73200
C  27.03300 50.12100 22.29500
C  25.73800 51.06700 22.33400
C  25.54200 51.18700 23.89600
C  28.29700 50.69500 21.48100
C  24.35500 50.65600 21.62000
C  23.94100 51.60800 20.45100
N  24.99200 51.67400 26.87700
C  24.30800 52.30700 25.84500
C  23.25200 53.10800 26.48800
C  23.47700 53.07000 27.90300
C  24.55700 52.18000 28.04700
C  22.22600 53.88400 25.81300
C  23.06900 53.64000 29.16800
O  22.38200 54.60600 29.40700
C  24.00600 52.94500 30.22400
C  24.67900 54.13700 30.70700
O  25.67400 54.63100 30.21000
O  24.07000 54.59400 31.86000
C  24.62500 55.55200 32.79500
H  29.82400 49.32300 29.77200
H  29.00400 48.72200 23.22000
H  23.88400 52.32400 23.69600
H  26.68600 52.11800 31.81900
H  27.76400 49.33700 31.62800
H  29.23100 50.33000 32.74000
H  28.86800 51.99000 32.26200
H  29.94900 51.05800 31.31600
H  25.99200 49.43900 32.81000
H  24.88500 49.82000 31.53100
H  24.00700 50.54100 33.75100
H  24.38000 52.10300 33.06900
H  31.33000 48.08600 29.06200
H  32.47100 48.87200 27.87800
H  31.95800 47.18600 27.59100
H  33.27600 47.91500 25.63900
H  33.22800 47.10900 24.06500
H  32.39500 46.33500 25.36800
H  26.70300 49.12300 22.00800
H  25.97400 52.04600 21.91700
H  28.84800 49.93000 20.93400
H  28.98900 51.09700 22.22100
H  28.08500 51.50100 20.77900
H  23.53800 50.57000 22.33600
H  24.36300 49.72700 21.05100
H  24.74600 52.30100 20.20700
H  23.16800 52.26800 20.84500
H  23.68900 51.02900 19.56300
H  22.63000 54.53500 25.03800
H  21.71900 54.56000 26.50100
H  21.46300 53.16000 25.52800
H  23.46800 52.47700 31.04900
H  24.92100 56.54600 32.45700
H  25.55900 55.10600 33.13800
H  23.83600 55.54700 33.54700
Mg -1.60100 34.44700 26.92800
C  -3.57800 32.95900 29.27400
C  -0.51500 36.69300 29.15300
C  0.15300 35.85400 24.42500
C  -3.21700 32.42400 24.42200
N  -2.21200 34.87200 28.98700
C  -2.90400 34.04700 29.80900
C  -2.68500 34.36600 31.30400
C  -1.84400 35.75100 31.12600
C  -1.50000 35.77700 29.66700
C  -2.53200 37.03800 31.56700
C  -2.01300 33.14500 32.04600
C  -1.29600 33.54800 33.33100
H  -1.52000 32.73300 34.62700
N  -0.33300 36.10100 26.83000
C  -0.09400 36.91900 27.87800
C  0.88300 37.92200 27.41400
C  1.11800 37.70600 26.03700
C  0.31700 36.48600 25.68400
C  1.40800 39.04900 28.27500
C  1.96800 38.49200 25.00300
O  2.02600 38.29800 23.81800
C  2.72400 39.64400 25.57400
N  -1.42500 34.11600 24.79400
C  -0.62500 34.81600 23.99300
C  -0.72400 34.40300 22.49900
C  -1.64100 33.22500 22.53100
C  -2.15900 33.25000 23.98200
C  -1.05200 35.60500 21.60000
C  -0.98200 31.92700 22.12600
C  0.07000 31.34700 23.06000
N  -3.08700 33.01700 26.77600
C  -3.60100 32.24300 25.75100
C  -4.53800 31.34700 26.26300
C  -4.60400 31.54800 27.66700
C  -3.67400 32.62200 27.92600
C  -5.37400 30.43500 25.40100
C  -5.20400 31.10600 28.89600
O  -6.08100 30.28700 29.11100
C  -4.42600 31.96900 30.02200
C  -5.47200 32.66900 30.85900
O  -6.10300 33.65800 30.49300
O  -5.54700 31.99100 32.02500
C  -6.45700 32.56300 32.99000
H  -0.04700 37.41400 29.82700
H  0.79200 36.35300 23.69400
H  -3.57000 31.84700 23.56500
H  -3.65100 34.55100 31.77400
H  -0.96000 35.70600 31.76200
H  -2.19700 37.29100 32.57300
H  -3.60400 36.85500 31.64300
H  -2.34000 37.88000 30.90200
H  -1.32300 32.59700 31.40400
H  -2.83900 32.48000 32.29800
H  -1.26700 34.59900 33.61800
H  -0.25000 33.31000 33.13900
H  1.35300 38.74800 29.32100
H  0.88900 39.98500 28.06500
H  2.47900 39.24500 28.23900
H  2.06000 40.29500 26.14300
H  3.21900 40.13700 24.73800
H  3.43400 39.13800 26.22800
H  0.29200 34.06500 22.29100
H  -2.56300 33.38400 21.97100
H  -0.19700 36.10700 21.14700
H  -1.67900 36.34100 22.10300
H  -1.76300 35.34200 20.81600
H  -0.65200 32.05500 21.09500
H  -1.65000 31.07900 21.97300
H  0.00100 31.83400 24.03300
H  1.05400 31.47500 22.60800
H  -0.08000 30.29200 23.28800
H  -6.43700 30.44300 25.64300
H  -4.93500 29.44200 25.49300
H  -5.32900 30.69100 24.34300
H  -3.84500 31.28200 30.63700
H  -7.36300 32.91600 32.49900
H  -6.02600 33.33000 33.63400
H  -6.88700 31.69200 33.48400

