158

Mg 2.22800 -1.68800 43.87900
C  5.52300 -0.93600 43.20600
C  1.26200 1.41200 42.79300
C  -1.00700 -2.76600 43.71200
C  3.30600 -4.91500 44.84700
N  3.26800 0.00200 43.01200
C  4.59800 0.10200 42.87400
C  4.91800 1.50700 42.31500
C  3.55100 2.36300 42.70200
C  2.59700 1.19000 42.82800
C  3.66000 3.36500 43.90200
C  5.36400 1.38200 40.87300
C  6.44000 2.34700 40.44300
H  6.30500 3.01800 39.03400
N  0.37200 -0.83900 43.31900
C  0.25500 0.48400 42.91500
C  -1.13700 0.74300 42.68600
C  -1.87200 -0.45100 42.93700
C  -0.85400 -1.42900 43.34900
C  -1.59100 2.17600 42.31400
C  -3.37300 -0.62400 42.82200
O  -4.19300 0.21600 42.45400
C  -4.04700 -2.05200 43.00400
N  1.29400 -3.67700 43.95000
C  -0.09100 -3.82900 43.99900
C  -0.41300 -5.28400 44.08700
C  0.89700 -5.85700 44.64400
C  1.89500 -4.76000 44.56400
C  -1.64100 -5.70300 44.92500
C  1.53200 -7.18000 44.00600
C  1.77800 -8.35500 44.97800
N  4.08700 -2.75400 44.22900
C  4.36600 -3.99800 44.57800
C  5.78700 -4.29600 44.68400
C  6.36200 -3.09300 44.16100
C  5.23800 -2.20100 43.79900
C  6.41400 -5.62400 45.24000
C  7.57100 -2.31300 43.82200
O  8.75300 -2.52300 44.01000
C  7.09500 -0.91300 43.29600
C  7.50200 0.13600 44.25500
O  7.53700 0.04000 45.47600
O  8.03300 1.31100 43.65200
C  8.31000 2.44500 44.62700
H  1.03100 2.44100 42.51100
H  -1.99200 -3.23600 43.73600
H  3.60000 -5.90900 45.18800
H  5.68600 1.95000 42.94900
H  3.23100 2.90900 41.81500
H  4.68100 3.72600 44.02600
H  3.33200 2.82200 44.78800
H  3.01700 4.23100 43.74400
H  4.49200 1.45300 40.22300
H  5.79300 0.38700 40.75800
H  7.37000 1.78900 40.54800
H  6.45000 3.21300 41.10500
H  -2.63600 2.17100 42.00600
H  -0.95700 2.46200 41.47500
H  -1.34400 2.86600 43.12100
H  -5.12400 -2.01500 42.83800
H  -3.96100 -2.24000 44.07400
H  -3.59000 -2.83800 42.40300
H  -0.45000 -5.66500 43.06600
H  0.79900 -6.00100 45.72000
H  -2.22800 -6.48900 44.44900
H  -2.24200 -4.80100 45.03500
H  -1.37400 -5.99100 45.94100
H  2.45800 -6.88800 43.51000
H  0.81900 -7.58700 43.28900
H  1.48900 -9.27800 44.47700
H  1.27100 -8.14800 45.92100
H  2.84300 -8.37100 45.21200
H  6.08600 -5.89400 46.24300
H  7.47300 -5.53400 45.48000
H  6.14000 -6.46500 44.60300
H  7.45300 -0.84400 42.26900
H  7.58400 2.57800 45.42900
H  8.27500 3.43500 44.17300
H  9.31500 2.27900 45.01600
Mg -9.87900 16.83500 41.66900
C  -6.22900 16.57800 41.77700
C  -9.46700 20.33700 41.51700
C  -12.90700 16.77700 40.70700
C  -9.75700 13.26500 41.63700
N  -8.16400 18.23200 41.52500
C  -6.77200 17.90300 41.65200
C  -5.99400 19.15700 41.53800
C  -6.97300 20.24800 42.03000
C  -8.28200 19.59200 41.58900
C  -7.03100 20.55800 43.56200
C  -5.57000 19.34700 40.07900
C  -4.09100 18.83400 39.69500
H  -3.90900 18.03100 38.42300
N  -11.01900 18.36000 41.15800
C  -10.70000 19.71800 41.16900
C  -11.90000 20.37800 40.83200
C  -12.96000 19.41500 40.70800
C  -12.37100 18.07000 40.81500
C  -11.92700 21.93300 40.57700
C  -14.41100 19.71800 40.49400
O  -14.77700 20.82400 40.14100
C  -15.46100 18.66600 40.32300
N  -11.11500 15.17000 41.04100
C  -12.36400 15.51300 40.80100
C  -13.19000 14.24800 40.55700
C  -12.20100 13.07800 41.01300
C  -10.98400 13.83300 41.27900
C  -14.50800 14.26200 41.25400
C  -12.07500 11.97600 40.02100
C  -12.89400 10.67500 40.26700
N  -8.31400 15.15000 41.80900
C  -8.43600 13.78300 41.91500
C  -7.15600 13.11400 42.13300
C  -6.26500 14.18700 42.13400
C  -6.99000 15.38400 41.83300
C  -6.81500 11.72400 42.23300
C  -4.87500 14.58000 42.28000
O  -3.86600 13.97200 42.55900
C  -4.78300 16.10100 42.02000
C  -4.07500 16.80200 43.10200
O  -3.05900 17.46200 42.99400
O  -4.66200 16.63800 44.36100
C  -4.01800 17.22900 45.53500
H  -9.33800 21.42200 41.52900
H  -13.89400 16.71500 40.24200
H  -9.81500 12.19200 41.83300
H  -5.14900 19.12200 42.22600
H  -6.85000 21.15800 41.44200
H  -6.15300 20.32900 44.16600
H  -7.85200 20.05100 44.06700
H  -7.09300 21.62800 43.76400
H  -5.68800 20.41800 39.91200
H  -6.22000 18.72500 39.46300
H  -3.70000 18.32800 40.57700
H  -3.58100 19.78800 39.56200
H  -12.00700 22.47300 41.52000
H  -12.87600 22.30200 40.19000
H  -11.12200 22.35900 39.97900
H  -15.50900 18.06400 39.41600
H  -16.47100 19.07800 40.31100
H  -15.37300 17.99900 41.18000
H  -13.36700 14.25100 39.48100
H  -12.48500 12.63900 41.96900
H  -15.35500 14.39300 40.58100
H  -14.46600 15.05500 42.00000
H  -14.73200 13.33200 41.77600
H  -11.02000 11.73700 39.88600
H  -12.42800 12.34400 39.05700
H  -13.31100 10.71400 41.27400
H  -12.29800 9.77900 40.09500
H  -13.69000 10.57400 39.52900
H  -5.90400 11.62200 42.82400
H  -6.47100 11.39900 41.25100
H  -7.60700 11.03000 42.51300
H  -4.21300 16.22100 41.09800
H  -3.09300 16.66600 45.66000
H  -4.61900 17.12300 46.43800
H  -3.82800 18.29500 45.41100

