158

Mg 46.59900 24.54100 28.30700
C  47.45800 26.82600 30.78500
C  45.64800 22.38000 30.79200
C  45.74700 22.38200 25.96300
C  47.32500 26.85900 25.88800
N  46.46600 24.66700 30.54300
C  46.83400 25.70200 31.33700
C  46.61600 25.45200 32.89000
C  46.17000 23.90300 32.81800
C  46.06900 23.60400 31.26700
C  47.22300 22.97700 33.47500
C  45.47700 26.43600 33.50200
C  45.90900 27.13600 34.77300
H  44.87200 27.40200 35.85100
N  45.78300 22.60400 28.34400
C  45.43400 21.91600 29.43000
C  44.92900 20.69900 29.04400
C  45.17400 20.56100 27.68100
C  45.53900 21.89800 27.22300
C  44.51400 19.61700 30.04100
C  45.05600 19.32300 26.82000
O  45.02100 19.40100 25.57300
C  44.81100 17.98900 27.42900
N  46.70500 24.49800 26.21100
C  46.24700 23.54300 25.42200
C  46.30900 23.81500 23.95700
C  46.55700 25.35800 23.98400
C  46.93700 25.60800 25.45900
C  47.49700 23.15900 23.28100
C  45.35000 26.24500 23.51300
C  44.09300 26.01600 24.24900
N  47.46500 26.43900 28.30100
C  47.61800 27.30400 27.23900
C  48.26800 28.52100 27.74300
C  48.22300 28.40400 29.15700
C  47.65300 27.13500 29.46100
C  48.75500 29.63100 26.85100
C  48.57000 29.05600 30.45600
O  49.05800 30.17400 30.70000
C  47.92000 28.12000 31.53300
C  48.94100 27.87000 32.57600
O  49.91000 27.20500 32.41200
O  48.55900 28.47200 33.70900
C  49.51500 28.54800 34.81500
H  45.47600 21.71000 31.63700
H  45.43000 21.77400 25.11300
H  47.40400 27.63300 25.12100
H  47.52900 25.44800 33.48600
H  45.20700 23.72500 33.29600
H  47.04600 21.93900 33.19300
H  47.11800 23.06400 34.55600
H  48.20500 23.23100 33.07600
H  44.55100 25.89000 33.68000
H  45.18900 27.24900 32.83500
H  46.24500 28.14000 34.51700
H  46.69200 26.56700 35.27600
H  45.32100 18.88400 30.05400
H  43.53500 19.24300 29.74300
H  44.51400 20.04900 31.04100
H  43.93000 17.72000 28.01200
H  45.64400 17.93900 28.13100
H  44.97500 17.21700 26.67800
H  45.38500 23.60800 23.41700
H  47.44900 25.72500 23.47600
H  48.34200 23.84300 23.19500
H  47.08500 22.86200 22.31700
H  47.83500 22.28500 23.83800
H  45.20000 26.12200 22.44000
H  45.60500 27.30200 23.57800
H  43.28100 25.92000 23.52900
H  43.82000 26.82800 24.92300
H  44.16300 25.12500 24.87400
H  48.81800 30.58300 27.37900
H  48.04000 29.74300 26.03600
H  49.68100 29.32600 26.36400
H  47.09900 28.62500 32.04100
H  50.21900 27.72000 34.73200
H  48.93800 28.33500 35.71500
H  49.93800 29.55300 34.82500
Mg 0.53700 43.94500 25.84400
C  2.88200 43.46900 28.59400
C  -1.86300 42.59800 27.88700
C  -1.45000 43.77200 23.19000
C  3.33500 44.88700 23.93300
N  0.66300 43.08700 27.92600
C  1.62100 43.06400 28.90200
C  1.00400 42.88500 30.27600
C  -0.43600 42.44000 29.93600
C  -0.57600 42.72200 28.47900
C  -0.75700 40.96200 30.21000
C  1.02400 44.16900 31.21300
C  1.35400 43.81700 32.71300
H  0.80500 42.59500 33.41000
N  -1.40700 43.33100 25.62100
C  -2.24800 42.76300 26.50600
C  -3.56600 42.57700 25.89800
C  -3.43800 42.88100 24.50200
C  -2.08000 43.32100 24.38500
C  -4.72300 42.08600 26.72800
C  -4.49100 42.85000 23.49300
O  -4.27600 42.99600 22.31000
C  -5.86100 42.56200 23.93100
N  0.83800 44.23500 23.89100
C  -0.17100 44.27200 22.99000
C  0.26900 45.05900 21.70100
C  1.67200 45.58200 22.19700
C  2.02900 44.80600 23.42900
C  0.37100 44.24300 20.40400
C  1.60000 47.04500 22.52700
C  1.26900 47.90300 21.20000
N  2.68500 44.22800 26.13200
C  3.64700 44.65500 25.22800
C  4.97800 44.60500 25.91700
C  4.66600 44.29900 27.24200
C  3.31700 44.01000 27.32700
C  6.35500 44.81900 25.23000
C  5.30000 44.06800 28.55200
O  6.46000 44.03700 28.88600
C  4.07900 43.72500 29.54400
C  4.48100 42.52600 30.31000
O  4.99400 41.49900 29.83300
O  4.53300 42.80300 31.66400
C  5.22100 41.84100 32.57100
H  -2.64200 42.19800 28.54000
H  -2.02500 43.93500 22.27600
H  4.14500 45.26000 23.30300
H  1.46300 42.03700 30.78300
H  -1.10900 43.01800 30.56900
H  -1.53600 40.96900 30.97300
H  0.10400 40.38000 30.53800
H  -1.19500 40.48000 29.33600
H  0.07100 44.69500 31.26900
H  1.74400 44.90200 30.85000
H  0.99400 44.65300 33.31200
H  2.44000 43.91200 32.69600
H  -5.54400 42.80300 26.76100
H  -4.38000 42.03200 27.76100
H  -4.90900 41.08500 26.33900
H  -6.06800 41.64400 24.48000
H  -6.51500 42.64700 23.06300
H  -6.22700 43.40200 24.52100
H  -0.53500 45.77600 21.53200
H  2.46500 45.39600 21.47200
H  0.85500 44.91600 19.69500
H  -0.56700 43.92900 19.94500
H  0.91400 43.35300 20.72000
H  2.58600 47.35400 22.87600
H  0.88800 47.27400 23.32000
H  0.24800 48.24900 21.36100
H  1.18000 47.27000 20.31700
H  1.94200 48.75000 21.07200
H  6.20400 45.16900 24.20900
H  7.07500 44.03200 25.45000
H  6.80700 45.70200 25.68200
H  3.91100 44.64200 30.10900
H  5.51400 42.35700 33.48500
H  6.06700 41.42800 32.02200
H  4.59100 40.98100 32.79700

