158

Mg 30.71000 58.17200 38.69200
C  27.80200 56.18700 38.21200
C  32.57500 55.39500 38.12900
C  33.41000 60.09700 38.58200
C  28.55400 60.88700 38.48400
N  30.18700 56.01500 38.41800
C  29.00200 55.40200 38.21600
C  29.13600 53.96000 37.93800
C  30.64400 53.64500 38.22400
C  31.23600 55.08700 38.40200
C  30.98900 52.60800 39.33300
C  28.61100 53.52900 36.43500
C  29.13000 54.35400 35.26700
H  27.99800 54.95600 34.34200
N  32.75400 57.78900 38.48900
C  33.30600 56.59400 38.14800
C  34.69700 56.71100 37.95000
C  34.98300 58.03800 38.26400
C  33.70900 58.70400 38.48900
C  35.54800 55.57400 37.58600
C  36.34400 58.63100 38.25400
O  37.36600 57.97000 38.11400
C  36.70200 60.13000 38.61900
N  30.93100 60.07000 38.61900
C  32.17200 60.68900 38.65500
C  32.00400 62.23600 38.62200
C  30.49000 62.44200 38.42800
C  29.93500 61.04100 38.49200
C  32.61500 63.00600 39.79000
C  30.16200 63.11700 37.03900
C  29.87100 64.66500 37.04300
N  28.57000 58.51600 38.49100
C  27.88300 59.67200 38.48500
C  26.50200 59.41700 38.50000
C  26.45200 58.04400 38.25400
C  27.68200 57.57300 38.30700
C  25.39300 60.43600 38.62900
C  25.54400 56.87100 38.16800
O  24.29300 56.93200 38.23000
C  26.39600 55.64600 37.98400
C  26.03300 54.70800 39.05200
O  26.07300 54.92600 40.28200
O  25.59100 53.53400 38.53600
C  24.71000 52.67700 39.32900
H  33.16100 54.48000 38.02200
H  34.23400 60.81300 38.61000
H  27.80500 61.68200 38.49100
H  28.56700 53.46600 38.72600
H  31.05800 53.25300 37.29500
H  29.99600 52.33500 39.69200
H  31.46000 53.03000 40.22100
H  31.59400 51.82200 38.88200
H  27.52300 53.55300 36.38000
H  29.08000 52.55800 36.27700
H  29.85200 53.82700 34.64300
H  29.72200 55.16500 35.69200
H  35.00000 54.89600 36.93200
H  36.03500 55.07900 38.42600
H  36.36300 55.99600 36.99800
H  36.30600 60.38400 39.60300
H  36.37200 60.77100 37.80100
H  37.78800 60.20800 38.67400
H  32.61100 62.62000 37.80300
H  30.01700 63.03100 39.21300
H  32.30500 64.05100 39.83000
H  33.66000 62.94100 39.48900
H  32.33000 62.41500 40.66000
H  29.36500 62.68300 36.43500
H  31.07900 63.06900 36.45000
H  29.77800 65.13000 38.02500
H  28.98500 64.86000 36.43900
H  30.71600 65.07900 36.49300
H  24.39700 59.99700 38.57000
H  25.51300 61.28900 37.96100
H  25.50500 60.80500 39.64800
H  26.18300 55.21500 37.00600
H  24.19400 53.11200 40.18500
H  25.26300 51.83400 39.74500
H  24.00100 52.21400 38.64200
Mg -11.39300 37.99200 42.38400
C  -9.04500 35.44000 41.16900
C  -9.42800 40.30800 40.80200
C  -13.91700 39.95100 42.65700
C  -13.22000 35.26500 43.67300
N  -9.52700 37.81700 40.96900
C  -8.78100 36.70800 40.63100
C  -7.58800 37.09900 39.79000
C  -7.67500 38.68300 39.75000
C  -8.93500 38.98500 40.64300
C  -6.37500 39.40600 40.04500
C  -7.61500 36.42000 38.36800
C  -6.26800 35.81100 37.87600
H  -5.55300 36.53000 36.72000
N  -11.58000 39.97100 41.95100
C  -10.69400 40.76600 41.37200
C  -11.20800 42.14100 41.46100
C  -12.52500 42.06900 42.00300
C  -12.75800 40.62000 42.18500
C  -10.56900 43.41600 40.94400
C  -13.45600 43.22800 42.41400
O  -13.19800 44.40400 42.15500
C  -14.75400 42.90200 43.15400
N  -13.27200 37.71000 43.13400
C  -14.14400 38.65100 43.12500
C  -15.52800 38.19200 43.61100
C  -15.35500 36.61100 43.88200
C  -13.87700 36.50500 43.57100
C  -15.96300 39.00000 44.80300
C  -16.18600 35.70800 42.81800
C  -17.27200 34.89800 43.60400
N  -11.21100 35.77700 42.64300
C  -11.94300 34.91200 43.32500
C  -11.19600 33.60900 43.31100
C  -10.15200 33.79100 42.53600
C  -10.14700 35.11400 42.07200
C  -11.69200 32.33200 43.87200
C  -9.02100 33.14800 41.80200
O  -8.61700 32.01700 41.80000
C  -8.17100 34.24200 41.06000
C  -6.87600 34.27100 41.84200
O  -6.01900 33.40000 41.70600
O  -6.77100 35.35300 42.63500
C  -5.56900 35.39500 43.41900
H  -8.81300 41.11600 40.39900
H  -14.83900 40.50800 42.48000
H  -13.88300 34.54300 44.15300
H  -6.66000 36.79400 40.27200
H  -8.02100 39.19900 38.85400
H  -5.65000 38.89900 40.68100
H  -6.59500 40.39700 40.44300
H  -5.85600 39.61700 39.11000
H  -7.92900 37.16900 37.64200
H  -8.45200 35.72200 38.35400
H  -6.56700 34.77800 37.70000
H  -5.47900 35.71800 38.62200
H  -11.23100 43.89800 40.22500
H  -9.65700 43.18200 40.39500
H  -10.30300 44.08300 41.76400
H  -15.19600 43.79600 43.59400
H  -14.50400 42.21300 43.96000
H  -15.48100 42.42500 42.49700
H  -16.29200 38.36000 42.85200
H  -15.55800 36.34100 44.91900
H  -15.13200 38.83000 45.48800
H  -16.87500 38.67300 45.30200
H  -16.12000 40.06900 44.65500
H  -15.42800 35.05000 42.39300
H  -16.72400 36.16500 41.98800
H  -18.18000 34.75800 43.01900
H  -17.59600 35.43700 44.49400
H  -16.84100 33.91500 43.79600
H  -12.61800 32.49100 44.42400
H  -10.96000 31.96100 44.59000
H  -11.79900 31.62300 43.05100
H  -7.94200 33.91400 40.04600
H  -5.63600 36.24300 44.10100
H  -4.71900 35.51100 42.74600
H  -5.39400 34.51400 44.03500

