158

Mg 5.04300 54.56000 39.90800
C  5.46700 51.02800 39.26000
C  8.21900 54.98300 38.63400
C  4.45300 57.86800 39.84500
C  1.75000 53.99100 40.74700
N  6.64000 53.08200 38.86400
C  6.61700 51.74200 38.83600
C  7.98200 51.17400 38.42400
C  8.93000 52.48700 38.54400
C  7.83300 53.63700 38.57800
C  10.01600 52.40600 39.70100
C  7.99100 50.31000 37.07200
C  8.69300 50.86700 35.79800
H  7.85100 50.75700 34.50600
N  6.16700 56.13900 39.35300
C  7.49800 56.13000 38.93800
C  8.03900 57.47600 38.80400
C  6.91900 58.34400 38.97100
C  5.75300 57.45400 39.39300
C  9.49700 57.75400 38.41100
C  6.96200 59.75400 38.72000
O  7.97200 60.30600 38.29000
C  5.69400 60.74100 38.66900
N  3.36500 55.68800 40.23800
C  3.36900 57.05000 40.21600
C  2.04400 57.58300 40.61500
C  1.06800 56.45300 40.62700
C  2.09900 55.27100 40.57200
C  2.07500 58.36300 41.92200
C  0.06700 56.35700 39.50400
C  -0.75600 57.60100 39.38400
N  3.81500 52.94900 40.06500
C  2.58600 52.85700 40.51700
C  2.28700 51.45200 40.72900
C  3.41200 50.70100 40.24600
C  4.31800 51.65900 39.84700
C  0.96300 50.97300 41.21500
C  3.97800 49.38400 40.05800
O  3.44500 48.30500 40.29100
C  5.35200 49.52900 39.41600
C  5.22700 48.84300 38.07800
O  4.47300 49.24000 37.20500
O  5.90000 47.61600 37.96800
C  5.52800 46.76400 36.89100
H  9.26300 55.15900 38.36200
H  4.32400 58.95200 39.86100
H  0.70500 53.85400 41.03400
H  8.31900 50.47000 39.18500
H  9.48500 52.62200 37.61600
H  10.01000 51.44600 40.21800
H  9.89100 53.09700 40.53500
H  11.05200 52.55300 39.39800
H  6.95300 50.10100 36.81300
H  8.36000 49.29300 37.19700
H  9.58300 50.24600 35.69800
H  8.90500 51.93500 35.73700
H  10.21600 56.98900 38.70200
H  9.75800 58.61700 39.02300
H  9.71300 57.93700 37.35800
H  6.14400 61.66700 38.31000
H  5.35500 60.74200 39.70500
H  5.02000 60.30800 37.93000
H  1.74700 58.25500 39.81000
H  0.62000 56.24100 41.59800
H  1.62800 59.31900 41.65000
H  3.13000 58.57000 42.10200
H  1.64200 57.82600 42.76600
H  -0.52700 55.50300 39.83200
H  0.68900 56.20400 38.62200
H  -0.38000 58.51700 39.83900
H  -1.79400 57.42500 39.66600
H  -0.78200 57.74100 38.30300
H  0.14700 51.64800 40.95800
H  1.04000 50.66100 42.25600
H  0.88600 50.07200 40.60700
H  6.15500 49.03200 39.96100
H  4.78000 46.14100 37.38100
H  6.45100 46.23200 36.66300
H  5.29900 47.28200 35.96000
Mg -1.02700 35.21100 27.48700
C  -2.53900 33.40300 29.81000
C  0.19300 37.39600 29.70000
C  -0.02000 37.23200 24.79700
C  -2.60600 33.17100 24.99600
N  -1.23300 35.35000 29.45500
C  -1.82000 34.48800 30.31000
C  -1.56200 34.85600 31.76200
C  -0.89000 36.25200 31.70400
C  -0.54400 36.30300 30.15800
C  -1.68000 37.48300 32.16400
C  -0.68300 33.84300 32.56500
C  -1.24100 33.36900 33.95100
H  -0.29700 33.30700 35.17700
N  0.08000 36.93600 27.24500
C  0.46500 37.69500 28.33800
C  1.24300 38.86900 27.88400
C  1.18900 38.80800 26.43900
C  0.33000 37.66100 26.11000
C  2.04400 39.73200 28.78900
C  1.81400 39.66000 25.43500
O  1.81700 39.35100 24.24600
C  2.67500 40.77400 25.81500
N  -1.25200 35.08200 25.29300
C  -0.62800 36.03900 24.44100
C  -0.93700 35.70800 22.91400
C  -1.47700 34.21400 23.06400
C  -1.83700 34.17500 24.52000
C  -2.00500 36.65100 22.29700
C  -0.42000 33.16100 22.68500
C  -0.87700 31.96200 21.88600
N  -2.25700 33.57500 27.35700
C  -2.87200 32.85800 26.33100
C  -3.76600 31.84600 26.84600
C  -3.57800 31.99800 28.20800
C  -2.78600 33.10800 28.45900
C  -4.61900 30.84600 26.19200
C  -3.97500 31.43200 29.46400
O  -4.67300 30.50700 29.72600
C  -3.29000 32.38500 30.60100
C  -4.48900 32.98400 31.31600
O  -5.07600 34.03000 31.00100
O  -4.81600 32.39900 32.48000
C  -6.05100 32.96300 33.02200
H  0.75000 37.99100 30.42700
H  0.36900 37.70800 23.89500
H  -3.14400 32.55000 24.27700
H  -2.53400 34.80200 32.25200
H  0.09300 36.17400 32.16800
H  -1.23200 38.47600 32.12200
H  -2.12000 37.37500 33.15500
H  -2.54300 37.54200 31.50000
H  0.27600 34.23300 32.90600
H  -0.41300 32.97800 31.95900
H  -1.65600 32.38300 33.74100
H  -2.09200 33.96400 34.28100
H  2.03300 39.32500 29.80000
H  1.51200 40.68000 28.71500
H  3.07200 39.94000 28.49500
H  3.50700 40.38300 26.40100
H  2.09600 41.48500 26.40400
H  2.97700 41.31000 24.91600
H  -0.09200 35.90600 22.25500
H  -2.37500 34.07100 22.46300
H  -2.68500 36.11700 21.63300
H  -1.54200 37.39600 21.65100
H  -2.53000 37.11300 23.13300
H  -0.05800 32.74800 23.62700
H  0.37100 33.76700 22.24400
H  -0.09000 31.63300 21.20700
H  -1.83700 32.09500 21.38700
H  -1.06100 31.05500 22.46200
H  -4.32600 29.82000 26.41800
H  -4.57800 31.05400 25.12300
H  -5.63500 31.02100 26.54600
H  -2.70000 31.81300 31.31700
H  -6.73800 33.16300 32.20000
H  -5.90700 33.90800 33.54800
H  -6.44700 32.18000 33.66900

