158

Mg 48.79900 35.65900 28.00500
C  46.81500 33.93900 30.41600
C  48.49100 38.49900 30.04200
C  50.36700 37.35800 25.65900
C  48.12400 33.06000 25.83200
N  47.85000 36.16900 30.00900
C  47.22900 35.22300 30.86000
C  47.12400 35.78700 32.26700
C  47.27800 37.28300 32.06400
C  47.95800 37.35400 30.62100
C  46.07200 38.18300 32.17100
C  48.10700 35.09500 33.25300
C  47.60600 34.82400 34.68400
H  48.00800 35.90200 35.65900
N  49.55300 37.69000 27.97500
C  49.17400 38.64700 28.80400
C  49.92600 39.80600 28.41300
C  50.44900 39.59000 27.06200
C  50.18700 38.15000 26.86100
C  49.96200 41.06700 29.20700
C  51.17100 40.53400 26.01700
O  51.57000 40.05400 24.96400
C  51.34500 41.94400 26.34000
N  49.13100 35.35900 26.06100
C  49.91200 36.11900 25.32400
C  50.24500 35.59000 23.89600
C  49.54600 34.16900 24.09000
C  48.96000 34.11800 25.45100
C  49.70800 36.40500 22.72200
C  50.35400 32.89800 23.78800
C  49.71500 31.96100 22.76900
N  47.72600 33.82100 28.05800
C  47.53700 32.86300 27.07200
C  46.72200 31.74600 27.55300
C  46.43500 32.15700 28.87200
C  47.01800 33.39100 29.13600
C  46.33500 30.46900 26.80000
C  45.68200 31.69000 30.06800
O  45.02100 30.72400 30.37000
C  45.94300 32.82500 31.12400
C  46.59800 32.21700 32.31500
O  47.74800 31.87800 32.25400
O  45.71600 32.07800 33.32600
C  46.30300 31.64000 34.61900
H  48.52400 39.42000 30.62700
H  50.93100 37.78900 24.82900
H  48.00100 32.35200 25.01000
H  46.10300 35.61500 32.60800
H  47.97600 37.64600 32.81900
H  46.15800 38.78100 33.07700
H  45.18500 37.58100 32.36700
H  45.85800 38.79800 31.29700
H  49.01000 35.70600 33.25100
H  48.41300 34.12200 32.86800
H  48.07700 33.86900 34.91500
H  46.52600 34.67500 34.68200
H  50.92400 41.25400 29.68500
H  49.25100 41.28100 30.00500
H  49.75000 41.83600 28.46400
H  50.35200 42.37700 26.21800
H  51.90700 42.24800 25.45700
H  51.84200 42.01000 27.30800
H  51.29200 35.47700 23.61200
H  48.69200 34.07700 23.41900
H  50.49800 36.39800 21.97100
H  49.51800 37.43500 23.02400
H  48.79300 36.01900 22.27400
H  50.43500 32.28300 24.68500
H  51.37900 33.20200 23.57600
H  49.71700 32.43600 21.78800
H  48.75900 31.56300 23.11100
H  50.26900 31.07200 22.46900
H  46.23900 29.61400 27.46900
H  47.04000 30.16100 26.02700
H  45.47000 30.68100 26.17200
H  44.98200 33.16600 31.51000
H  45.53200 30.89600 34.82000
H  46.18800 32.42700 35.36500
H  47.31800 31.24700 34.55600
Mg 10.70900 47.95800 25.64800
C  7.97100 48.10900 27.89400
C  12.72500 49.23700 28.04400
C  13.02800 47.92200 23.30400
C  8.19200 47.44100 22.97500
N  10.37000 48.62300 27.70000
C  9.28700 48.36900 28.47800
C  9.53800 48.46400 30.04700
C  10.99300 49.22700 29.97600
C  11.38500 49.08100 28.44200
C  11.00100 50.72800 30.29500
C  9.45300 47.15800 30.90600
C  10.10400 47.07100 32.33400
H  9.39200 46.53800 33.51900
N  12.59000 48.44700 25.67100
C  13.26900 48.93400 26.79500
C  14.67000 49.10900 26.38100
C  14.84500 48.65900 25.04900
C  13.45900 48.25200 24.64300
C  15.67100 49.71000 27.30800
C  16.10600 48.58900 24.22500
O  16.15900 48.12200 23.11200
C  17.38500 48.98100 24.84100
N  10.54800 47.67400 23.40800
C  11.72500 47.78600 22.77600
C  11.51700 47.29200 21.32600
C  9.97900 47.28700 21.15500
C  9.51500 47.39700 22.58700
C  12.17800 48.15100 20.21900
C  9.45500 45.98500 20.48800
C  8.49400 46.12100 19.27000
N  8.56200 47.78800 25.41500
C  7.75100 47.61600 24.29100
C  6.37800 47.54200 24.73000
C  6.40600 47.64000 26.14600
C  7.79200 47.73300 26.50000
C  5.14700 47.33900 23.78500
C  5.59300 47.61900 27.38700
O  4.34100 47.56100 27.41000
C  6.58100 47.92800 28.56800
C  6.48000 46.69200 29.28800
O  7.14900 45.68300 29.06100
O  5.63400 46.87100 30.28300
C  5.54500 45.78600 31.22700
H  13.42300 49.50000 28.84100
H  13.77000 47.95100 22.50300
H  7.46100 47.27200 22.18100
H  8.61800 48.95900 30.35800
H  11.67600 48.73300 30.66600
H  10.79800 50.91500 31.35000
H  10.24500 51.16000 29.63900
H  11.87800 51.34600 30.10500
H  9.66600 46.31500 30.24800
H  8.37800 47.05900 31.05900
H  10.32700 48.11400 32.55700
H  11.06500 46.56200 32.26600
H  15.25800 49.93800 28.29000
H  16.07900 50.61600 26.85900
H  16.46900 48.99400 27.50600
H  17.56400 48.31000 25.68100
H  17.15000 49.91200 25.35600
H  18.20500 49.03600 24.12500
H  11.87700 46.26300 21.31100
H  9.65100 48.18600 20.63200
H  11.46700 48.73900 19.63900
H  12.48900 47.34000 19.56100
H  13.05100 48.74700 20.48600
H  8.79700 45.43900 21.16300
H  10.34200 45.46600 20.12400
H  7.59900 45.51600 19.41400
H  9.04500 45.68800 18.43500
H  8.20100 47.12500 18.96600
H  4.65900 48.30500 23.91900
H  4.49700 46.53200 24.12400
H  5.41600 47.25600 22.73200
H  6.28800 48.77700 29.18600
H  5.22700 44.89200 30.69100
H  4.83100 46.10600 31.98700
H  6.50500 45.56300 31.69200

