158

Mg 24.36200 -4.67100 46.25400
C  26.41800 -2.23100 44.98500
C  21.81000 -3.66300 44.16600
C  22.70300 -7.63900 46.85600
C  26.97300 -5.73200 48.47100
N  24.22200 -3.24200 44.54700
C  25.18500 -2.27800 44.25000
C  24.66600 -1.29600 43.16800
C  23.07700 -1.53600 43.36200
C  23.03300 -2.90900 44.08500
C  22.37100 -0.37400 44.14000
C  25.34900 -1.73100 41.80700
C  25.53100 -0.59600 40.79100
H  25.76100 -0.92300 39.32400
N  22.54900 -5.44800 45.65000
C  21.59900 -4.88400 44.84200
C  20.43300 -5.68900 44.67500
C  20.67000 -6.82900 45.54600
C  22.03300 -6.65600 46.11000
C  19.25700 -5.31200 43.80400
C  19.61700 -7.88700 45.82300
O  18.55600 -7.83400 45.24100
C  19.84300 -8.97300 46.84400
N  24.69100 -6.42900 47.48300
C  23.88800 -7.52500 47.62600
C  24.55300 -8.62700 48.44300
C  25.78700 -7.86600 49.10500
C  25.87400 -6.57600 48.27900
C  23.67400 -9.37200 49.48000
C  27.08600 -8.62400 49.33500
C  27.57900 -8.79500 50.77000
N  26.24700 -4.05600 46.73100
C  27.16800 -4.47600 47.70600
C  28.33400 -3.59800 47.68900
C  28.09600 -2.74700 46.57800
C  26.80400 -3.05500 46.07100
C  29.56600 -3.54700 48.71400
C  28.70600 -1.62900 45.82000
O  29.77200 -1.01400 45.83000
C  27.58700 -1.28400 44.76300
C  27.23000 0.16500 45.05900
O  26.23000 0.53600 45.69300
O  28.13800 1.07000 44.35000
C  27.68800 2.47300 44.20100
H  20.88400 -3.20600 43.81200
H  22.34000 -8.66700 46.78900
H  27.79600 -5.98500 49.14200
H  24.87900 -0.25000 43.38700
H  22.70900 -1.48400 42.33800
H  22.07500 -0.62100 45.16000
H  21.50300 -0.06900 43.55500
H  23.01700 0.48200 44.33300
H  24.82100 -2.55300 41.32300
H  26.30100 -2.14000 42.14500
H  26.32300 0.05300 41.16500
H  24.64900 0.04500 40.79300
H  19.19100 -6.03000 42.98700
H  19.23100 -4.29100 43.42200
H  18.35600 -5.32100 44.41700
H  18.86700 -9.41900 47.03700
H  20.20100 -8.53100 47.77400
H  20.60400 -9.54300 46.31000
H  24.91000 -9.36300 47.72400
H  25.40600 -7.58400 50.08600
H  23.46800 -10.41100 49.22600
H  22.72500 -8.83800 49.52500
H  24.05600 -9.28800 50.49800
H  27.83700 -8.13500 48.71500
H  27.06900 -9.62100 48.89400
H  28.43500 -8.15200 50.97900
H  27.77100 -9.84400 50.99300
H  26.84100 -8.38200 51.45800
H  30.44500 -3.85900 48.15000
H  29.36900 -4.38300 49.38500
H  29.83700 -2.60500 49.18900
H  27.96600 -1.27300 43.74100
H  27.22000 2.83700 45.11600
H  27.11100 2.79100 43.33200
H  28.70700 2.84200 44.08900
Mg -1.51200 34.37900 26.26900
C  -3.14600 32.68500 28.94500
C  0.23600 36.17600 28.48900
C  -0.18900 36.20300 23.60400
C  -3.52700 32.70000 23.96500
N  -1.49500 34.39300 28.49900
C  -2.29600 33.65200 29.38300
C  -1.96600 34.09800 30.82100
C  -0.89800 35.23500 30.60900
C  -0.68300 35.28600 29.08500
C  -1.43600 36.62100 31.15700
C  -1.52700 32.95900 31.76900
C  -2.46500 32.61800 32.99600
H  -1.79000 32.34100 34.31200
N  -0.05900 35.83300 26.13600
C  0.55900 36.46600 27.16800
C  1.58100 37.38800 26.64300
C  1.35400 37.44800 25.23800
C  0.31900 36.45700 24.91800
C  2.54000 38.11900 27.48600
C  2.16800 38.23600 24.27900
O  2.05200 37.97700 23.03700
C  3.14800 39.11700 24.73000
N  -1.80600 34.40000 24.12000
C  -1.16300 35.21800 23.25700
C  -1.44800 34.75800 21.81300
C  -2.58500 33.62400 21.96000
C  -2.67300 33.54000 23.43600
C  -1.92900 35.80500 20.76900
C  -2.15700 32.36400 21.14800
C  -3.30200 31.47700 20.56100
N  -3.04800 33.01700 26.38700
C  -3.68300 32.35500 25.31500
C  -4.62700 31.40900 25.89400
C  -4.36300 31.43500 27.33200
C  -3.43800 32.46500 27.56600
C  -5.67100 30.64200 25.26700
C  -4.85000 30.82900 28.54800
O  -5.66300 29.94900 28.77400
C  -4.04700 31.68000 29.70500
C  -5.04900 32.47600 30.49300
O  -5.57200 33.48400 30.00000
O  -5.23800 31.95400 31.73600
C  -6.20200 32.69300 32.60400
H  0.87100 36.69900 29.20700
H  0.38800 36.51500 22.73000
H  -4.23600 32.16400 23.33100
H  -2.86000 34.55700 31.24300
H  -0.00100 35.12700 31.21900
H  -2.39200 36.91100 30.72100
H  -0.75500 37.41100 30.83800
H  -1.38500 36.74200 32.23900
H  -0.53400 33.16000 32.17100
H  -1.53000 32.04500 31.17600
H  -2.96300 31.67300 32.78000
H  -3.20200 33.41400 33.09200
H  3.59400 37.98600 27.24300
H  2.37800 37.80200 28.51600
H  2.17600 39.14500 27.42500
H  2.69900 39.87600 25.37100
H  3.59200 39.66500 23.90000
H  3.93000 38.56800 25.25500
H  -0.47800 34.35400 21.52100
H  -3.57800 33.81300 21.55200
H  -1.94200 36.77800 21.26100
H  -2.92000 35.70500 20.32700
H  -1.17300 35.82100 19.98300
H  -1.51200 31.74500 21.77200
H  -1.58300 32.67500 20.27500
H  -4.34200 31.69500 20.80200
H  -3.07200 30.45500 20.86500
H  -3.24600 31.50500 19.47300
H  -5.95000 29.72700 25.78900
H  -5.33900 30.42100 24.25300
H  -6.50100 31.34400 25.17600
H  -3.47300 31.00300 30.33800
H  -7.20400 32.31600 32.40000
H  -6.36900 33.75200 32.40400
H  -5.92800 32.51100 33.64300

