158

Mg 49.72700 36.48400 27.52400
C  47.26300 34.84800 29.43100
C  50.05100 38.67400 29.97800
C  51.30000 38.35000 25.30500
C  48.72600 34.33900 24.72200
N  48.61400 36.77500 29.45800
C  47.99000 35.77100 30.13800
C  48.08000 36.03500 31.61200
C  48.60100 37.51100 31.73900
C  49.17700 37.72300 30.34500
C  47.52300 38.61100 32.02100
C  48.95200 35.02400 32.39700
C  48.65100 34.85700 33.87200
H  47.79400 35.94000 34.54700
N  50.55000 38.28400 27.62200
C  50.68000 39.03100 28.76400
C  51.57400 40.15200 28.50500
C  51.93000 40.04400 27.13500
C  51.25100 38.86300 26.59700
C  51.98400 41.12500 29.56400
C  52.76500 41.05600 26.32300
O  52.91400 40.96300 25.08800
C  53.62500 42.23700 27.02800
N  49.90400 36.41600 25.23500
C  50.61700 37.31700 24.63800
C  50.90700 37.01600 23.16500
C  50.35600 35.54200 23.05600
C  49.58000 35.37300 24.41500
C  50.16300 37.99000 22.15900
C  51.39700 34.34700 23.01700
C  51.02100 33.01100 22.31100
N  48.35900 34.85500 27.06000
C  48.06200 34.09100 25.92700
C  47.18000 33.02100 26.31200
C  46.70200 33.33600 27.63700
C  47.49700 34.49900 28.04100
C  46.76700 31.92100 25.40800
C  45.78200 32.96100 28.66600
O  45.02800 32.00600 28.76100
C  46.14000 34.00000 29.86100
C  46.21600 33.33400 31.18500
O  46.74500 32.25600 31.38600
O  45.41900 34.01300 32.07800
C  45.30800 33.36200 33.44600
H  50.36200 39.36600 30.76300
H  51.87900 38.85100 24.52700
H  48.50400 33.66200 23.89400
H  47.07100 35.93300 32.01100
H  49.32800 37.58300 32.54700
H  46.52700 38.24500 32.27200
H  47.51500 39.37300 31.24100
H  47.82200 39.07700 32.96000
H  50.02200 35.19200 32.27400
H  48.77900 34.02700 31.99300
H  49.62600 34.93400 34.35500
H  48.33400 33.84300 34.11400
H  51.53400 40.94200 30.54000
H  51.70900 42.13300 29.25400
H  53.06900 41.08800 29.65900
H  53.00600 42.95100 27.57100
H  54.12300 42.89300 26.31400
H  54.33900 41.77600 27.71000
H  51.98400 37.13400 23.04600
H  49.56300 35.34600 22.33400
H  50.75900 38.05600 21.24800
H  50.05400 38.93300 22.69400
H  49.17000 37.62000 21.90300
H  51.66400 34.00600 24.01700
H  52.28600 34.75300 22.53400
H  51.59200 32.81300 21.40400
H  49.97700 32.91500 22.01200
H  51.25000 32.07300 22.81600
H  46.24300 31.06500 25.83200
H  47.65100 31.46200 24.96700
H  46.24400 32.28100 24.52300
H  45.33600 34.72400 29.99100
H  44.47400 32.66300 33.51700
H  45.02300 34.20200 34.08000
H  46.22900 32.98300 33.88800
Mg 17.03200 51.77600 26.02400
C  19.13300 50.33700 28.53000
C  14.70400 52.42200 28.51000
C  15.16100 53.14300 23.68100
C  19.47300 50.98600 23.68000
N  17.01300 51.59100 28.20200
C  17.94800 50.90300 29.01900
C  17.53700 50.89000 30.46300
C  16.07100 51.32600 30.35700
C  15.89900 51.88000 28.99700
C  15.04000 50.23900 30.73700
C  18.36100 51.82600 31.40200
C  18.52000 51.44800 32.89300
H  17.18100 51.09900 33.73500
N  15.20400 52.75200 26.08300
C  14.35400 52.83300 27.22000
C  13.13500 53.45300 26.78500
C  13.20900 53.67100 25.38800
C  14.56200 53.23600 24.98600
C  12.10800 53.84600 27.76300
C  12.23500 54.37100 24.44600
O  12.49500 54.49100 23.25700
C  10.99500 55.14400 24.93600
N  17.34200 52.08100 23.95100
C  16.38800 52.68600 23.19700
C  16.84600 52.89600 21.69900
C  18.19900 52.10800 21.69700
C  18.36600 51.70800 23.17600
C  15.85100 52.50400 20.59700
C  19.48800 52.86200 21.16500
C  20.25500 53.79200 22.11400
N  18.92500 50.82700 25.99400
C  19.77400 50.53500 24.97800
C  20.87000 49.75700 25.42700
C  20.66900 49.56300 26.82400
C  19.45000 50.31700 27.12600
C  22.03300 49.19500 24.61300
C  21.22800 49.01000 28.05700
O  22.25400 48.37300 28.24400
C  20.25200 49.55400 29.22200
C  19.78400 48.45200 30.08000
O  19.11500 47.45600 29.79600
O  20.26300 48.72800 31.35500
C  19.75200 47.84200 32.35700
H  13.98800 52.61300 29.31100
H  14.50500 53.42500 22.85500
H  20.30300 50.80000 22.99400
H  17.76700 49.89400 30.83900
H  15.84800 52.13200 31.05600
H  14.46100 49.89200 29.88000
H  14.34300 50.74600 31.40500
H  15.52800 49.42800 31.27600
H  17.91000 52.81900 31.42700
H  19.39900 51.89600 31.07600
H  19.06100 52.28800 33.32900
H  19.28100 50.67100 32.95900
H  12.26500 53.54300 28.79800
H  11.17300 53.48700 27.33000
H  12.08400 54.93000 27.87000
H  11.36200 56.01300 25.48300
H  10.49400 54.45900 25.62100
H  10.44900 55.34600 24.01500
H  17.15000 53.93900 21.60500
H  18.01800 51.14800 21.21300
H  16.31300 52.02100 19.73600
H  15.23300 53.38100 20.40300
H  15.17200 51.77000 21.03000
H  19.22600 53.63100 20.43800
H  20.08200 52.13800 20.60700
H  19.94500 53.65300 23.14900
H  20.13800 54.83000 21.80400
H  21.33000 53.61600 22.16500
H  22.87500 49.83200 24.88300
H  21.92100 49.36500 23.54200
H  22.26100 48.15800 24.85900
H  20.86200 50.26900 29.77200
H  18.67000 47.75200 32.44800
H  19.99500 48.30100 33.31500
H  20.31900 46.91200 32.37100

