158

Mg 36.33400 0.94900 29.07300
C  34.20400 1.89400 31.71200
C  39.00300 1.06700 31.22800
C  38.42400 0.83600 26.36800
C  33.66200 1.31400 26.83800
N  36.55700 1.41000 31.25600
C  35.48400 1.57300 32.18900
C  36.07200 1.57200 33.58300
C  37.59300 1.45600 33.35900
C  37.75300 1.28100 31.86700
C  38.47900 2.52400 33.97300
C  35.45700 0.46000 34.51500
C  34.97000 0.96300 35.89800
H  35.72600 2.06400 36.57000
N  38.40000 0.95700 28.85100
C  39.32000 0.93100 29.86700
C  40.64000 0.68300 29.33100
C  40.45800 0.64500 27.93000
C  39.04400 0.87600 27.67900
C  41.90500 0.44200 30.17600
C  41.60100 0.37100 26.89000
O  41.41200 0.30500 25.67200
C  43.04300 0.18100 27.18800
N  36.05700 1.04400 26.87900
C  37.07600 0.89100 25.98800
C  36.53400 0.59400 24.58300
C  34.93400 0.63500 24.72000
C  34.83900 1.01900 26.20900
C  37.11600 1.62500 23.56800
C  34.24000 -0.69600 24.37800
C  34.13000 -1.79100 25.51900
N  34.39700 1.39600 29.15300
C  33.43000 1.55400 28.21300
C  32.15800 2.01900 28.79700
C  32.45000 2.12000 30.13300
C  33.80500 1.77200 30.31900
C  30.91600 2.36200 27.98200
C  31.80500 2.47900 31.41800
O  30.70400 2.91700 31.66100
C  32.96800 2.29100 32.46300
C  33.04100 3.48500 33.27200
O  33.66100 4.51500 32.95300
O  32.22000 3.39100 34.37400
C  32.25700 4.41400 35.43100
H  39.81700 0.81200 31.90900
H  39.04900 0.53500 25.52500
H  32.77800 1.19200 26.20900
H  35.85900 2.55000 34.01500
H  37.98900 0.57100 33.85600
H  37.96300 3.00900 34.80200
H  38.62400 3.36200 33.29100
H  39.38600 2.17100 34.46200
H  36.22800 -0.30300 34.61400
H  34.61600 0.00600 33.99000
H  34.95900 0.16100 36.63500
H  33.92400 1.20600 35.70800
H  42.23400 -0.58400 30.01100
H  41.75000 0.47600 31.25400
H  42.57100 1.25900 29.89700
H  43.63600 0.21900 26.27400
H  43.13100 -0.87200 27.45900
H  43.31500 0.92100 27.94000
H  36.85400 -0.39000 24.23900
H  34.53700 1.51900 24.22000
H  37.65900 0.99000 22.86800
H  37.78300 2.42500 23.89000
H  36.24000 2.02500 23.05800
H  34.58000 -1.31600 23.54800
H  33.18800 -0.50300 24.16600
H  33.11100 -2.00400 25.84200
H  34.63500 -1.46000 26.42600
H  34.77600 -2.60500 25.18900
H  30.96400 3.30500 27.43800
H  30.05500 2.13200 28.61000
H  30.94800 1.47100 27.35500
H  32.70800 1.41100 33.05200
H  31.62900 5.23200 35.07900
H  33.31000 4.68400 35.50700
H  32.01000 3.90900 36.36400
Mg 53.55700 24.22700 43.85900
C  50.58500 26.22000 43.51500
C  51.68300 21.56400 42.72300
C  56.34400 22.53800 43.35700
C  55.25700 27.08400 44.46300
N  51.38100 23.91200 43.18200
C  50.35200 24.86800 43.06300
C  49.18700 24.29700 42.20500
C  49.48700 22.78700 42.44800
C  50.95000 22.70500 42.72500
C  48.66300 22.05500 43.56600
C  49.11600 24.74000 40.66800
C  50.52100 24.96600 39.87100
H  50.39500 25.69600 38.59400
N  53.89000 22.27600 43.33100
C  53.01700 21.31400 43.01700
C  53.59500 20.05700 42.91100
C  55.02000 20.30400 42.97100
C  55.15400 21.73600 43.26900
C  52.82000 18.77500 42.76300
C  56.05500 19.24600 42.81900
O  55.83700 18.04900 42.67100
C  57.48800 19.61300 42.69900
N  55.63800 24.77800 43.58500
C  56.57100 23.91600 43.62800
C  57.93300 24.61700 43.79600
C  57.51400 26.11400 44.11300
C  56.03700 26.01200 44.06300
C  58.91000 24.02400 44.84300
C  58.02300 27.16500 43.11600
C  58.72400 28.42200 43.70000
N  53.02300 26.13900 44.24700
C  53.85900 27.20600 44.59200
C  53.11600 28.38100 44.86200
C  51.83800 28.03200 44.38900
C  51.84600 26.65500 44.05900
C  53.67400 29.50900 45.49700
C  50.53500 28.53000 44.14100
O  50.08000 29.66000 44.25900
C  49.62200 27.34000 43.68400
C  48.74900 27.76400 42.63000
O  49.09600 28.40600 41.64300
O  47.41800 27.32700 42.85100
C  46.32900 27.67600 41.88400
H  51.05900 20.69800 42.49200
H  57.26000 21.94400 43.34400
H  55.82400 27.92900 44.85900
H  48.15500 24.46400 42.51500
H  49.29800 22.32800 41.47700
H  48.05400 22.70500 44.19500
H  49.29800 21.59000 44.32000
H  48.03400 21.30200 43.09000
H  48.50100 25.63800 40.61300
H  48.42500 24.05500 40.17600
H  50.78500 23.94200 39.60500
H  51.40400 25.19500 40.46700
H  52.70200 18.67100 41.68500
H  51.81400 18.71700 43.17800
H  53.26300 17.89300 43.22600
H  58.04000 19.84700 43.60900
H  57.51200 20.46900 42.02400
H  57.98400 18.83300 42.12200
H  58.28900 24.53800 42.76900
H  57.85900 26.42400 45.09900
H  59.90100 24.11300 44.39900
H  58.66200 23.02000 45.18800
H  58.85000 24.67700 45.71400
H  57.23400 27.46700 42.42700
H  58.82500 26.63000 42.60600
H  58.26700 29.34900 43.35400
H  59.74200 28.30200 43.33000
H  58.76600 28.41400 44.79000
H  54.43800 30.01400 44.90600
H  54.02800 29.08800 46.43900
H  52.85400 30.21900 45.60000
H  49.05000 27.39600 44.61000
H  46.62100 27.29600 40.90500
H  46.24900 28.74400 41.68000
H  45.40800 27.26600 42.29800

