158

Mg 16.95700 -1.71400 27.07400
C  16.16200 0.36800 29.97200
C  18.84800 -3.70800 29.12600
C  18.06300 -3.16100 24.28000
C  15.26100 0.75400 25.02400
N  17.35900 -1.66000 29.29500
C  16.89900 -0.77300 30.26300
C  17.41600 -1.16700 31.69300
C  18.33100 -2.36100 31.39100
C  18.23500 -2.62100 29.81400
C  19.80900 -2.07200 31.90400
C  16.32900 -1.46600 32.75600
C  16.45100 -0.74700 34.12400
H  17.64600 -1.34600 34.96700
N  18.08800 -3.35200 26.80000
C  18.80300 -4.04100 27.70900
C  19.49100 -5.12500 27.08100
C  19.22600 -4.97500 25.66000
C  18.38500 -3.82000 25.51500
C  20.26100 -6.20200 27.83200
C  19.74400 -5.94800 24.58200
O  19.40000 -5.79000 23.42600
C  20.75200 -7.00000 24.92900
N  16.84400 -1.13800 25.02500
C  17.44100 -1.95800 24.03800
C  17.18400 -1.44300 22.61900
C  16.00200 -0.41800 22.89100
C  16.06300 -0.23900 24.41000
C  18.47300 -0.98300 21.85600
C  14.62900 -0.75500 22.29600
C  13.75000 -1.82100 22.98500
N  15.94800 0.17300 27.42300
C  15.25400 1.02000 26.42700
C  14.55100 2.03900 27.21000
C  14.88000 1.78800 28.53900
C  15.73600 0.73200 28.64600
C  13.74700 3.12900 26.59900
C  14.70000 2.30900 29.83600
O  14.03400 3.27100 30.16300
C  15.44600 1.45500 30.88400
C  16.32100 2.31600 31.66300
O  17.30700 2.90800 31.25500
O  15.82100 2.54300 32.92700
C  16.56700 3.56900 33.63500
H  19.45600 -4.34700 29.77000
H  18.63600 -3.51600 23.42100
H  14.64200 1.29100 24.30200
H  17.97800 -0.31200 32.06900
H  18.03400 -3.27000 31.91300
H  20.09700 -1.02300 31.97200
H  20.49100 -2.25500 31.07400
H  20.06600 -2.59300 32.82600
H  16.20600 -2.53500 32.92600
H  15.41400 -1.05000 32.33500
H  15.51000 -0.71500 34.67300
H  16.63600 0.29600 33.86700
H  20.24600 -6.01200 28.90500
H  21.27500 -6.18900 27.43300
H  19.87400 -7.21900 27.77100
H  20.42200 -7.79300 25.60100
H  21.69300 -6.62000 25.32500
H  20.95800 -7.51800 23.99200
H  16.79800 -2.32600 22.10900
H  16.25200 0.55700 22.47200
H  18.40100 0.04300 21.49300
H  18.86100 -1.61500 21.05800
H  19.22400 -0.91100 22.64300
H  14.84800 -0.98400 21.25300
H  14.13100 0.21300 22.23900
H  13.00900 -1.15500 23.42700
H  14.20000 -2.33900 23.83300
H  13.34100 -2.56100 22.29700
H  14.19600 3.45100 25.65900
H  13.62700 4.00700 27.23400
H  12.76400 2.67800 26.46800
H  14.71500 0.91800 31.48900
H  16.35800 4.58800 33.30700
H  17.59200 3.20700 33.70500
H  16.00700 3.50500 34.56800
Mg 25.76500 0.21800 29.57100
C  27.50300 0.09300 32.60000
C  22.86200 0.60500 31.38300
C  24.06400 0.37200 26.61600
C  28.54500 -0.85700 27.79100
N  25.26400 0.26800 31.76500
C  26.14700 0.27300 32.83100
C  25.46300 0.42600 34.15800
C  23.95100 0.47000 33.64900
C  23.99600 0.39800 32.19900
C  22.86300 -0.49300 34.32000
C  25.99700 1.70500 34.98100
C  25.11300 2.20200 36.11700
H  25.54500 1.80700 37.53000
N  23.76600 0.44800 29.12000
C  22.71900 0.63900 29.98600
C  21.48200 0.84000 29.27100
C  21.82900 0.74500 27.86500
C  23.26800 0.52800 27.83900
C  20.17300 1.08100 30.03800
C  20.95500 0.82700 26.61600
O  21.45100 0.86500 25.48100
C  19.46000 0.81300 26.74700
N  26.27100 -0.09200 27.41300
C  25.35700 0.04600 26.45700
C  25.92100 -0.33800 25.01900
C  27.41600 -0.73600 25.41200
C  27.46600 -0.54200 26.94300
C  25.16000 -1.45500 24.28800
C  28.48500 0.19100 24.68800
C  28.24800 0.36000 23.17100
N  27.61500 -0.26700 29.96900
C  28.66300 -0.67300 29.18600
C  29.83800 -0.67000 29.93900
C  29.45200 -0.41400 31.26500
C  28.09300 -0.17500 31.30400
C  31.19500 -0.99100 29.41400
C  29.89800 -0.33500 32.58500
O  31.03100 -0.49900 33.04300
C  28.68200 -0.08500 33.44200
C  28.52800 -1.19300 34.37300
O  28.09200 -2.29400 34.13400
O  29.01700 -0.85500 35.59200
C  28.76200 -1.79900 36.73000
H  21.95200 0.71800 31.97500
H  23.64100 0.45200 25.61200
H  29.47600 -1.12100 27.28500
H  25.69500 -0.46300 34.74400
H  23.52500 1.45700 33.83000
H  23.23200 -0.97100 35.22800
H  22.64300 -1.29000 33.61000
H  22.03000 0.17800 34.52900
H  26.04000 2.55800 34.30500
H  26.97400 1.43100 35.37900
H  24.08900 1.84100 36.02400
H  25.08300 3.28000 35.96000
H  19.75600 2.00000 29.62400
H  20.23300 1.26200 31.11100
H  19.48900 0.25700 29.83500
H  19.15600 0.01300 27.42300
H  18.89100 0.90800 25.82300
H  19.06500 1.60300 27.38500
H  25.80100 0.50800 24.34300
H  27.66300 -1.77300 25.18300
H  25.59100 -2.45400 24.35200
H  25.05600 -1.22800 23.22700
H  24.11600 -1.50200 24.59600
H  29.40500 -0.36100 24.87900
H  28.64100 1.09900 25.26900
H  28.97500 -0.03700 22.46200
H  28.01000 1.39800 22.94000
H  27.30100 -0.13500 22.95500
H  31.87100 -1.12100 30.25900
H  31.59000 -0.16700 28.81900
H  31.12300 -2.01500 29.04800
H  29.01600 0.83900 33.91600
H  29.67000 -2.21500 37.16600
H  28.01800 -2.55600 36.48300
H  28.31200 -1.29100 37.58400

