158

Mg 46.41100 24.46200 28.48600
C  46.63900 26.83600 31.06400
C  45.37900 22.19400 30.88900
C  46.42500 22.09600 26.09700
C  47.62400 26.78300 26.34700
N  45.77600 24.57100 30.62800
C  46.13700 25.61800 31.50300
C  45.76500 25.25100 32.98600
C  45.43500 23.71900 32.89800
C  45.49600 23.46000 31.41700
C  46.42300 22.89300 33.71400
C  44.49100 26.08200 33.39600
C  44.56200 27.01400 34.60200
H  43.57000 26.83700 35.75400
N  45.98700 22.45300 28.50500
C  45.36900 21.74800 29.54900
C  45.11300 20.36800 29.11700
C  45.36500 20.33300 27.73000
C  45.90200 21.63600 27.35200
C  44.51400 19.34700 30.10100
C  45.18500 19.14400 26.71500
O  45.64800 19.29100 25.56100
C  44.52600 17.90300 27.08900
N  47.14300 24.37800 26.60000
C  46.93300 23.35900 25.74400
C  47.26900 23.72300 24.25700
C  47.46200 25.26600 24.43100
C  47.50500 25.48200 25.89600
C  48.49600 22.92800 23.70200
C  46.35300 26.15100 23.70900
C  45.08000 26.63300 24.54500
N  47.03300 26.45200 28.62800
C  47.46600 27.30100 27.66100
C  47.60600 28.61900 28.18100
C  47.35800 28.47000 29.51800
C  47.00900 27.15700 29.77200
C  48.00400 29.82100 27.42400
C  47.36700 29.15600 30.75700
O  47.82900 30.24900 30.99100
C  46.90500 28.08000 31.89300
C  48.04900 27.90100 32.86900
O  49.06300 27.27500 32.64400
O  47.76200 28.48400 34.04700
C  48.58000 28.14400 35.21500
H  45.14000 21.47100 31.67200
H  46.31600 21.40600 25.25800
H  48.03700 27.45300 25.59000
H  46.62100 25.40900 33.64200
H  44.43000 23.54400 33.28300
H  45.99500 22.78800 34.71000
H  47.33200 23.47800 33.85800
H  46.64600 21.90600 33.31000
H  43.72900 25.34300 33.64000
H  44.20600 26.67000 32.52400
H  44.59200 28.06700 34.32300
H  45.55800 26.97400 35.04300
H  43.58100 18.91800 29.73700
H  44.32800 19.68700 31.12000
H  45.23900 18.54400 30.23700
H  45.20200 17.09700 27.37500
H  44.12000 17.60400 26.12300
H  43.76500 17.93100 27.86800
H  46.42700 23.61000 23.57400
H  48.38300 25.70400 24.04800
H  49.17800 23.70000 23.34500
H  48.02600 22.37000 22.89200
H  48.82800 22.27400 24.50800
H  45.97300 25.69900 22.79200
H  46.94000 26.93400 23.22900
H  45.02300 26.22100 25.55300
H  44.14900 26.27600 24.10600
H  45.08600 27.72300 24.56000
H  47.28200 30.14300 26.67300
H  48.97100 29.56700 26.99100
H  48.21600 30.60600 28.15100
H  46.05600 28.50000 32.43300
H  49.62400 27.94700 34.97100
H  48.22700 27.11900 35.32600
H  48.48800 28.73700 36.12500
Mg 26.58700 52.26400 25.80100
C  24.00100 53.04000 28.19800
C  28.58400 51.66100 28.40900
C  29.07800 51.82700 23.59800
C  24.47100 53.45600 23.33600
N  26.32400 52.54500 28.12600
C  25.16300 52.73300 28.83800
C  25.41500 52.35900 30.35100
C  26.93900 51.97400 30.32000
C  27.34100 52.05100 28.85100
C  27.92900 52.78700 31.31300
C  24.50100 51.20200 30.83200
C  23.56800 51.55500 32.02300
H  23.62500 50.62100 33.25400
N  28.60300 51.70700 26.00100
C  29.22000 51.53500 27.17500
C  30.52200 51.05000 26.94600
C  30.73300 51.08600 25.49000
C  29.49800 51.52500 24.96200
C  31.42700 50.46500 27.99700
C  31.84800 50.54100 24.66200
O  31.83800 50.60300 23.43900
C  32.92900 49.73500 25.30900
N  26.75500 52.52200 23.78600
C  27.93000 52.29500 23.12300
C  27.74800 52.67000 21.66700
C  26.27400 53.21300 21.52600
C  25.78300 53.04600 22.92000
C  28.92000 53.50800 21.07100
C  25.41400 52.66600 20.35200
C  25.30700 53.43200 19.00500
N  24.58900 53.04200 25.77800
C  23.86700 53.42200 24.66200
C  22.48600 53.75700 25.01600
C  22.49600 53.60400 26.42900
C  23.76600 53.19800 26.78200
C  21.34300 54.09700 24.08400
C  21.73100 53.68100 27.68400
O  20.57900 53.92900 27.87700
C  22.65500 53.42800 28.83400
C  22.78600 54.78800 29.47400
O  23.03000 55.82300 28.91000
O  22.69600 54.68900 30.80800
C  22.60000 55.97600 31.51500
H  29.33000 51.32800 29.13300
H  29.81000 51.65200 22.80700
H  23.76200 53.68800 22.53900
H  25.34800 53.18800 31.05500
H  27.02700 50.94600 30.67100
H  28.85500 53.09500 30.82900
H  28.34500 52.05900 32.00900
H  27.48200 53.50300 32.00300
H  25.08800 50.32100 31.09400
H  23.80200 51.02400 30.01600
H  22.49400 51.55500 31.83500
H  23.88000 52.52700 32.40400
H  31.37700 49.40200 27.76000
H  31.14000 50.64900 29.03200
H  32.45500 50.80200 27.86700
H  32.54000 48.90700 25.90200
H  33.50900 50.32700 26.01700
H  33.55100 49.28100 24.53800
H  27.77000 51.73000 21.11600
H  26.23900 54.28900 21.36000
H  29.57200 54.04400 21.76000
H  28.52200 54.25200 20.38100
H  29.56600 52.85000 20.49000
H  24.38900 52.41400 20.62700
H  25.88000 51.74600 20.00000
H  24.33800 53.27300 18.53200
H  25.96000 53.20400 18.16300
H  25.54800 54.47800 19.19400
H  20.40900 54.01700 24.64100
H  21.29200 53.27400 23.37200
H  21.49100 55.04200 23.56100
H  22.26900 52.67300 29.51800
H  23.59900 56.32000 31.78200
H  22.01400 55.68400 32.38700
H  22.04200 56.77800 31.03300

