158

Mg 40.67000 41.33800 27.74900
C  39.74300 43.88300 29.92600
C  41.36100 39.39500 30.64600
C  42.07100 39.02100 25.75600
C  40.58200 43.50700 25.09200
N  40.59400 41.64900 30.00000
C  40.07100 42.74200 30.61800
C  39.96600 42.56100 32.15900
C  40.62800 41.13100 32.36000
C  40.92100 40.68700 30.92800
C  41.69200 41.05700 33.49000
C  38.53200 42.68400 32.61800
C  38.02700 41.86200 33.83700
H  37.31000 42.58500 34.97700
N  41.46500 39.42900 28.15200
C  41.70400 38.83600 29.37100
C  42.19300 37.41100 29.21500
C  42.33400 37.29100 27.75400
C  41.92600 38.54900 27.18400
C  42.41300 36.50900 30.23000
C  42.73300 36.02500 26.98100
O  42.66500 35.98000 25.74200
C  42.98500 34.76000 27.73300
N  41.09000 41.21500 25.67400
C  41.66100 40.11400 25.07800
C  41.67800 40.22200 23.52700
C  41.15600 41.69000 23.41000
C  40.92100 42.19600 24.77500
C  43.07200 39.92800 22.93600
C  39.88800 41.55400 22.50900
C  38.49700 41.15400 23.04800
N  40.26900 43.36700 27.46200
C  40.20700 44.09400 26.30600
C  39.80000 45.41400 26.58900
C  39.63400 45.41600 28.00600
C  39.91400 44.12800 28.49500
C  39.63900 46.54000 25.56700
C  39.31800 46.21600 29.14700
O  39.06800 47.42500 29.26700
C  39.41800 45.29900 30.43000
C  40.47800 45.79800 31.37000
O  41.67600 45.68500 31.18000
O  39.80300 46.34700 32.42200
C  40.63600 46.67600 33.59000
H  41.39600 38.71200 31.49800
H  42.57000 38.31600 25.08700
H  40.56400 44.00300 24.11900
H  40.61200 43.32400 32.59300
H  39.89500 40.41900 32.73800
H  41.41200 40.27700 34.19700
H  41.90800 42.00300 33.98800
H  42.66300 40.75300 33.09700
H  37.95900 42.52200 31.70500
H  38.29300 43.74100 32.74300
H  38.93000 41.46900 34.30300
H  37.36700 41.01100 33.66800
H  42.23400 36.73400 31.28100
H  43.49500 36.40900 30.30800
H  42.02400 35.49800 30.11200
H  42.11200 34.43400 28.30000
H  43.90300 34.86000 28.31200
H  43.18000 33.94300 27.03900
H  40.96900 39.45100 23.22300
H  41.88900 42.25500 22.83400
H  42.97600 39.02600 22.33300
H  43.78900 39.83300 23.75100
H  43.41500 40.79700 22.37500
H  40.16300 40.86400 21.71100
H  39.74700 42.46600 21.92800
H  38.10400 40.22600 22.63200
H  37.87200 41.99600 22.75000
H  38.54700 41.08000 24.13400
H  38.74100 47.12600 25.76100
H  39.73900 46.21600 24.53100
H  40.44600 47.26300 25.68700
H  38.46300 45.39900 30.94600
H  41.24700 45.78600 33.74200
H  39.99900 46.87000 34.45300
H  41.28200 47.53100 33.39100
Mg -8.91100 41.05500 42.19700
C  -7.98200 37.88800 41.15400
C  -6.00600 42.18900 40.51600
C  -10.10700 44.34700 42.24200
C  -12.07400 39.96100 43.13600
N  -7.29700 40.09300 40.85000
C  -7.04400 38.79200 40.72500
C  -5.70000 38.46600 40.09900
C  -4.97800 39.84800 40.06800
C  -6.16100 40.76700 40.46100
C  -3.84000 39.97700 41.02000
C  -5.95300 37.82500 38.65800
C  -5.15300 36.59900 38.32900
H  -3.94800 36.66400 37.36800
N  -8.17500 42.92600 41.49800
C  -6.95900 43.15000 40.94700
C  -6.78300 44.58000 40.73800
C  -7.96900 45.29300 41.09200
C  -8.88400 44.19600 41.56900
C  -5.48400 45.12600 40.12400
C  -8.17400 46.79400 40.90800
O  -7.25400 47.47900 40.42000
C  -9.49700 47.46200 41.36400
N  -10.83800 41.99200 42.64900
C  -10.97200 43.36200 42.77900
C  -12.49600 43.63400 43.20200
C  -13.02900 42.26700 43.67700
C  -11.89300 41.32500 43.22300
C  -12.65100 44.72200 44.23000
C  -14.44900 41.81900 43.12300
C  -15.53500 41.60100 44.22100
N  -9.81400 39.32500 42.27900
C  -11.14300 39.02300 42.68800
C  -11.33600 37.57500 42.60200
C  -10.06900 37.12700 42.12600
C  -9.28100 38.21300 41.78300
C  -12.55600 36.72700 43.02800
C  -9.36500 35.98600 41.84800
O  -9.67800 34.81000 42.10600
C  -8.01200 36.35600 41.07400
C  -6.90100 35.72800 41.79500
O  -6.21200 36.24100 42.72900
O  -6.92600 34.45800 41.37300
C  -6.41400 33.52400 42.32800
H  -5.07500 42.49900 40.03700
H  -10.35700 45.41000 42.27800
H  -13.00600 39.56200 43.54300
H  -5.11500 37.77900 40.71000
H  -4.70200 40.19400 39.07200
H  -2.94800 39.60800 40.51300
H  -3.88000 39.24400 41.82600
H  -3.73000 40.92300 41.54900
H  -5.62800 38.59700 37.96100
H  -7.01700 37.69300 38.45700
H  -5.86300 35.81100 38.07500
H  -4.80600 36.19800 39.28100
H  -4.61500 44.46800 40.11900
H  -5.16300 45.91200 40.80800
H  -5.49000 45.74200 39.22500
H  -10.34600 47.11200 40.77600
H  -9.46500 48.52700 41.13300
H  -9.64000 47.25900 42.42500
H  -13.06700 43.94000 42.32500
H  -13.07700 42.24200 44.76500
H  -11.65200 45.08700 44.47100
H  -13.21100 44.35900 45.09100
H  -13.15400 45.59600 43.81800
H  -14.38500 41.00500 42.40100
H  -14.71700 42.70700 42.54900
H  -16.33600 42.33500 44.13900
H  -15.11200 41.42300 45.21000
H  -15.89000 40.59900 43.97900
H  -12.25200 35.68600 43.13100
H  -13.16400 36.81100 42.12800
H  -13.01900 37.06300 43.95600
H  -8.04000 35.97300 40.05400
H  -5.37000 33.71500 42.57800
H  -6.51800 32.65700 41.67500
H  -6.96900 33.49900 43.26600

