158

Mg 41.04400 40.85400 26.99300
C  40.54600 43.20100 29.60700
C  42.16700 38.69400 29.27500
C  41.78700 38.71000 24.42900
C  40.40400 43.31200 24.68000
N  41.25700 40.94300 29.22100
C  40.95600 41.95900 30.04900
C  40.98600 41.51400 31.56900
C  41.56200 40.04200 31.39200
C  41.71500 39.85900 29.87700
C  42.89000 39.84800 32.17900
C  39.57600 41.56900 32.23800
C  39.41000 42.43800 33.51200
H  39.05800 41.88100 34.96900
N  41.82300 38.95500 26.88100
C  42.17600 38.25400 27.94900
C  42.62500 36.94400 27.49600
C  42.45500 36.84000 26.08800
C  41.98000 38.19000 25.79100
C  43.26300 35.97900 28.41900
C  42.60400 35.68500 25.20500
O  42.52100 35.87000 23.96900
C  42.88900 34.30000 25.66200
N  41.00600 40.88000 24.88700
C  41.35100 39.89100 23.98200
C  41.09200 40.20800 22.52100
C  40.81700 41.77700 22.62700
C  40.65400 41.99800 24.18500
C  42.17000 39.88500 21.39600
C  39.53900 42.29700 21.92500
C  39.88000 43.45600 21.00000
N  40.34000 42.79200 27.03000
C  40.12400 43.70900 26.02800
C  39.95200 44.97700 26.53800
C  39.95900 44.82300 27.87900
C  40.30600 43.48200 28.20000
C  39.74400 46.26700 25.78200
C  39.80900 45.51800 29.17600
O  39.40100 46.63500 29.42000
C  40.17300 44.49100 30.31200
C  41.31100 45.00400 31.17600
O  42.46600 45.08900 30.84800
O  40.84600 45.28300 32.45300
C  41.73900 45.98700 33.40500
H  42.49800 37.96000 30.01300
H  41.96300 38.02900 23.59400
H  40.20700 44.09900 23.94900
H  41.71300 42.10700 32.12500
H  40.76300 39.40200 31.76900
H  43.12800 40.78200 32.68800
H  43.69000 39.73200 31.44800
H  43.02000 39.02700 32.88500
H  39.12200 40.61600 32.50900
H  38.90500 42.03900 31.51900
H  38.56300 43.08800 33.29400
H  40.30200 43.03100 33.71500
H  42.58800 35.21800 28.81000
H  43.71000 36.44400 29.29800
H  44.03600 35.44000 27.87200
H  42.21400 34.10900 26.49600
H  43.92200 34.30100 26.00800
H  42.76100 33.58100 24.85200
H  40.16600 39.68400 22.28300
H  41.66900 42.41300 22.38500
H  42.62400 40.78000 20.97000
H  41.73400 39.25100 20.62400
H  42.97800 39.40500 21.94800
H  38.76300 42.64700 22.60600
H  39.16700 41.53800 21.23700
H  39.10100 44.20100 21.15900
H  39.93300 43.13700 19.95900
H  40.83500 43.95900 21.15000
H  39.15100 46.99800 26.33200
H  39.28000 46.11400 24.80800
H  40.72600 46.73300 25.70000
H  39.32700 44.23500 30.95000
H  42.72600 46.07900 32.95100
H  41.82500 45.31100 34.25600
H  41.19700 46.91600 33.58200
Mg -2.24400 34.92100 26.20700
C  -4.20800 33.49100 28.53600
C  -1.33300 37.36400 28.47000
C  -0.39600 36.51600 23.76200
C  -3.93100 33.17900 23.66500
N  -2.63000 35.23800 28.32700
C  -3.36100 34.45600 29.08100
C  -3.30800 34.90200 30.55200
C  -2.51600 36.24400 30.46700
C  -2.17700 36.31600 28.96600
C  -3.33900 37.56000 30.89900
C  -2.71600 33.78000 31.45400
C  -2.31900 34.16900 32.93100
H  -2.86600 33.28000 34.02700
N  -0.99800 36.68900 26.13700
C  -0.83500 37.54600 27.18600
C  0.13400 38.61500 26.81900
C  0.46400 38.37800 25.42200
C  -0.27800 37.12100 25.02600
C  0.62800 39.61600 27.79100
C  1.27200 39.21600 24.42200
O  1.44500 38.95100 23.21000
C  1.88300 40.45300 24.91500
N  -2.18800 34.90700 23.98800
C  -1.20100 35.52100 23.23500
C  -1.19200 34.94700 21.81100
C  -2.51000 34.11900 21.81000
C  -2.89000 34.05400 23.21000
C  -1.13100 35.93800 20.59700
C  -2.35500 32.73200 21.16800
C  -3.41700 32.30000 20.16100
N  -3.72100 33.59000 26.03900
C  -4.22600 32.85800 24.97500
C  -5.16600 31.85000 25.41700
C  -5.14500 32.08200 26.84300
C  -4.25500 33.12300 27.16800
C  -5.98100 30.95100 24.56400
C  -5.76800 31.56900 28.10700
O  -6.47100 30.59800 28.25200
C  -5.21100 32.59400 29.21400
C  -6.43900 33.29200 29.76100
O  -7.25600 34.02800 29.18500
O  -6.56900 33.05400 31.10000
C  -7.56600 33.75800 31.93000
H  -0.99100 38.10800 29.19300
H  0.26200 36.93400 22.99700
H  -4.57300 32.64400 22.96300
H  -4.35400 35.08100 30.80500
H  -1.68900 36.35400 31.16900
H  -4.31800 37.25400 31.26700
H  -3.48300 38.32600 30.13800
H  -2.73100 38.06300 31.65200
H  -1.90800 33.29800 30.90400
H  -3.57000 33.11100 31.56000
H  -2.60100 35.21300 33.06500
H  -1.23100 34.18500 32.99300
H  -0.02300 40.48900 27.82100
H  1.62400 39.88400 27.43700
H  0.77000 39.16500 28.77300
H  1.23000 40.94700 25.63300
H  2.15800 40.96600 23.99300
H  2.87300 40.18600 25.28700
H  -0.37800 34.22100 21.80700
H  -3.22300 34.72500 21.25100
H  -0.10900 36.15500 20.28800
H  -1.40600 36.88500 21.06000
H  -1.86400 35.63300 19.85100
H  -2.36400 31.99300 21.96800
H  -1.43600 32.63200 20.59100
H  -2.90700 32.10900 19.21800
H  -4.05500 33.15200 19.92500
H  -3.99500 31.45200 20.52600
H  -6.79100 31.53600 24.12800
H  -6.26700 29.99700 25.00600
H  -5.31800 30.61300 23.76700
H  -4.74300 32.02800 30.01900
H  -7.00900 34.22200 32.74400
H  -8.13900 32.94800 32.38100
H  -8.16500 34.53600 31.45600

