158

Mg 48.46500 34.98300 26.87500
C  46.27600 33.53900 29.38900
C  48.74600 37.71400 28.91400
C  49.67700 36.47500 24.21000
C  47.46900 32.25300 24.83200
N  47.69300 35.45900 28.91000
C  46.97600 34.68000 29.74100
C  46.94300 35.31300 31.18400
C  47.36000 36.85100 30.88800
C  47.93500 36.69200 29.46300
C  46.09900 37.79800 30.83800
C  47.89200 34.41900 32.03900
C  49.29500 34.91900 32.53900
H  49.58400 35.20600 34.00900
N  49.24400 36.74700 26.69100
C  49.36100 37.76700 27.63000
C  50.32000 38.73900 27.09800
C  50.49300 38.46000 25.67900
C  49.77800 37.16000 25.51200
C  50.83900 39.91000 27.86200
C  51.25900 39.32400 24.68200
O  51.34300 38.99400 23.53700
C  51.99500 40.53900 25.10100
N  48.55200 34.38700 24.77700
C  49.18000 35.24500 23.85800
C  49.27300 34.57600 22.48600
C  48.82900 33.11900 22.74300
C  48.25200 33.21600 24.22900
C  48.53300 35.24200 21.33200
C  49.95100 32.00300 22.69100
C  50.14800 31.46400 21.21300
N  47.17200 33.28300 27.01300
C  46.81900 32.35100 26.08500
C  45.86400 31.38000 26.57200
C  45.57400 31.81800 27.88400
C  46.37400 32.96800 28.13800
C  45.26000 30.23500 25.85600
C  44.76800 31.59600 29.08200
O  43.88000 30.74700 29.26500
C  45.11200 32.80800 30.05700
C  45.45600 32.26800 31.48100
O  46.30400 31.48800 31.88000
O  44.64600 32.98800 32.35300
C  44.78900 32.57600 33.77100
H  48.98800 38.54300 29.58200
H  50.17700 36.96400 23.37000
H  47.18800 31.44000 24.16000
H  45.91100 35.26600 31.53000
H  48.15300 37.23300 31.53100
H  46.00900 38.41400 31.73300
H  45.22900 37.15700 30.69600
H  46.25600 38.53300 30.04900
H  48.03400 33.49500 31.48000
H  47.34900 34.21900 32.96300
H  49.70400 35.80700 32.05800
H  50.04000 34.22100 32.15500
H  51.91800 39.82500 27.99400
H  50.47400 39.92800 28.88900
H  50.70400 40.85500 27.33700
H  51.30100 41.37400 25.19700
H  52.67300 40.86300 24.31200
H  52.60200 40.23900 25.95600
H  50.32400 34.48800 22.21000
H  47.99700 32.74800 22.14500
H  47.85100 34.57100 20.80900
H  49.19700 35.60600 20.54800
H  47.88500 36.01800 21.73800
H  49.64000 31.20000 23.35900
H  50.90500 32.38800 23.05200
H  51.16000 31.73000 20.90700
H  49.42600 31.91600 20.53400
H  50.02500 30.38700 21.09300
H  44.90000 30.45000 24.85000
H  44.40500 29.98500 26.48400
H  46.02300 29.45600 25.86900
H  44.24900 33.46800 30.14300
H  45.37600 33.28000 34.36100
H  45.18500 31.58000 33.97000
H  43.81500 32.62600 34.25900
Mg -11.97300 16.58400 41.20900
C  -8.93100 14.57400 40.84400
C  -10.34900 19.11800 39.62100
C  -14.89500 18.01500 40.77200
C  -13.51300 13.68000 42.43200
N  -9.85800 16.79000 40.41900
C  -8.78200 15.95700 40.36900
C  -7.52400 16.59500 39.75400
C  -7.95600 18.08000 39.52000
C  -9.53500 18.00800 39.81300
C  -7.06900 19.22000 40.14200
C  -7.03300 15.92300 38.47400
C  -5.55100 15.46600 38.41900
H  -4.90200 16.02400 37.15300
N  -12.51900 18.41400 40.33500
C  -11.73300 19.29600 39.78000
C  -12.47000 20.48100 39.36200
C  -13.85700 20.23000 39.82700
C  -13.83900 18.86700 40.33400
C  -11.80700 21.67700 38.70400
C  -14.99600 21.22800 39.76400
O  -14.96000 22.33100 39.30900
C  -16.34200 20.83100 40.45800
N  -13.87400 15.92800 41.57700
C  -14.94800 16.72500 41.33000
C  -16.22800 16.13200 41.76200
C  -15.76800 14.83300 42.37900
C  -14.30100 14.77900 42.14700
C  -17.04500 16.99100 42.78600
C  -16.46000 13.49800 41.78200
C  -17.36400 12.75800 42.81900
N  -11.36100 14.57200 41.61600
C  -12.10600 13.49000 42.14000
C  -11.33600 12.38300 42.32100
C  -10.04100 12.78100 41.88100
C  -10.11100 14.10700 41.41700
C  -11.70400 11.01100 42.88100
C  -8.62000 12.27700 41.71900
O  -7.99900 11.27500 41.94000
C  -7.83900 13.50500 41.00800
C  -6.88500 13.94800 42.00100
O  -7.20500 14.48800 43.07300
O  -5.58800 13.60700 41.67900
C  -4.51200 14.34500 42.38900
H  -9.74300 19.90000 39.15800
H  -15.89600 18.44700 40.83400
H  -13.94500 12.74600 42.79900
H  -6.73600 16.51700 40.50300
H  -7.89600 18.27300 38.44900
H  -6.38800 18.79800 40.88000
H  -7.72200 19.93000 40.65000
H  -6.55300 19.71000 39.31600
H  -7.21400 16.48800 37.55900
H  -7.63200 15.01600 38.38700
H  -5.45200 14.38200 38.35400
H  -5.06200 15.84700 39.31600
H  -11.39200 21.37900 37.74200
H  -11.09600 22.05600 39.43900
H  -12.56000 22.46000 38.61700
H  -17.01100 21.69100 40.42800
H  -16.23000 20.60600 41.51800
H  -16.78000 19.94600 39.99500
H  -16.75000 16.04300 40.80900
H  -15.85600 14.80400 43.46500
H  -17.42900 16.45400 43.65300
H  -17.96900 17.33900 42.32500
H  -16.42600 17.78800 43.19900
H  -15.72800 12.83700 41.31900
H  -16.95400 13.81900 40.86500
H  -17.01100 11.73000 42.73100
H  -18.37400 12.70900 42.41200
H  -17.26600 13.15000 43.83100
H  -11.78000 11.09200 43.96600
H  -10.94600 10.24600 42.71100
H  -12.67000 10.70600 42.47900
H  -7.31800 13.11800 40.13200
H  -4.88000 15.27700 42.81900
H  -3.71500 14.58300 41.68400
H  -4.15700 13.67600 43.17400

