158

Mg -1.10200 17.76700 26.85000
C  -1.66100 15.23600 29.40300
C  -1.74600 20.10800 29.30000
C  -0.50300 19.88000 24.47100
C  -1.27600 15.15500 24.52700
N  -1.75300 17.65000 29.11400
C  -1.69300 16.52400 29.94000
C  -2.18900 16.97300 31.38300
C  -2.23800 18.52700 31.27700
C  -1.91800 18.81500 29.80600
C  -3.57400 19.25600 31.63300
C  -1.18900 16.44400 32.53800
C  -1.20400 17.24800 33.89900
H  -0.72600 16.50200 35.11900
N  -1.02400 19.64400 26.87200
C  -1.31200 20.50900 27.96500
C  -1.16600 21.84200 27.58300
C  -0.81600 21.79600 26.18700
C  -0.72800 20.39500 25.79600
C  -1.32100 23.00600 28.59100
C  -0.56600 22.93300 25.29600
O  -0.07800 22.83700 24.21200
C  -0.91100 24.28800 25.68600
N  -1.09300 17.58400 24.74900
C  -0.63200 18.60000 24.02800
C  -0.50200 18.14000 22.53200
C  -0.53000 16.60500 22.65000
C  -1.00900 16.40700 24.04300
C  -1.60700 18.75300 21.62500
C  0.85400 15.96000 22.29700
C  1.99900 16.12000 23.30600
N  -1.39600 15.68800 26.89900
C  -1.46200 14.77300 25.87300
C  -1.70500 13.47100 26.35500
C  -1.64000 13.56900 27.74900
C  -1.57100 14.94400 28.05800
C  -1.89300 12.22400 25.52200
C  -1.82700 12.78500 28.96300
O  -2.07600 11.62100 29.19100
C  -1.79600 13.90800 30.13500
C  -0.62500 13.56400 30.91100
O  0.52000 13.69100 30.43500
O  -0.93600 13.03000 32.13300
C  0.21100 12.82200 33.07300
H  -1.78100 20.78900 30.15300
H  -0.24400 20.60400 23.69500
H  -1.37900 14.31200 23.84000
H  -3.15200 16.47100 31.47900
H  -1.47400 19.00900 31.88700
H  -4.15600 18.56100 32.23700
H  -4.08100 19.50500 30.70100
H  -3.22400 20.16500 32.12100
H  -0.18100 16.22500 32.18700
H  -1.60000 15.47800 32.83000
H  -2.11800 17.79400 34.13300
H  -0.46600 18.02700 33.70700
H  -0.52300 23.74100 28.48800
H  -1.28300 22.77100 29.65500
H  -2.27100 23.53500 28.50200
H  -1.92400 24.35000 26.08500
H  -0.84600 25.05800 24.91700
H  -0.15400 24.60900 26.40000
H  0.36400 18.38700 21.91800
H  -1.18500 16.05400 21.97500
H  -2.08500 17.92000 21.10900
H  -1.28400 19.53900 20.94200
H  -2.36800 19.19400 22.26900
H  1.15900 16.51700 21.41100
H  0.79600 14.88800 22.10700
H  1.74400 15.67100 24.26600
H  2.19100 17.16800 23.53600
H  2.95800 15.69000 23.01800
H  -0.95900 11.82700 25.12500
H  -2.56800 12.50000 24.71200
H  -2.38000 11.43300 26.09200
H  -2.72500 13.90800 30.70600
H  1.09500 13.41100 32.82800
H  0.44400 11.76600 33.20800
H  -0.13500 13.26800 34.00600
Mg 51.40600 45.73500 41.88700
C  48.68500 47.02600 40.29200
C  50.48000 42.47800 41.06500
C  54.72000 44.67800 42.41000
C  52.64600 48.97700 42.47500
N  49.73600 44.84900 40.79700
C  48.68900 45.62600 40.35900
C  47.61300 44.67200 39.91600
C  48.10900 43.19900 40.28600
C  49.52900 43.46900 40.81800
C  47.28500 42.36300 41.27400
C  47.26100 44.91800 38.37600
C  45.78800 44.68000 38.11200
H  45.31700 43.40400 37.35200
N  52.47300 43.74800 41.85400
C  51.88700 42.61900 41.43700
C  52.85800 41.56600 41.40900
C  54.11900 42.14600 41.82700
C  53.83800 43.54300 42.08100
C  52.48700 40.05700 41.07400
C  55.34400 41.33900 42.02400
O  55.30200 40.13100 41.71400
C  56.52400 41.98600 42.62700
N  53.40100 46.71100 42.17600
C  54.46500 46.05300 42.59900
C  55.59400 46.97400 43.02200
C  54.93900 48.30000 43.23800
C  53.56700 48.00100 42.57800
C  56.47800 46.50100 44.17900
C  55.66000 49.57800 42.62600
C  56.10100 50.65600 43.70400
N  50.78300 47.60800 41.47500
C  51.39900 48.79400 41.84600
C  50.54000 49.87400 41.39000
C  49.42000 49.21900 40.84400
C  49.64900 47.85100 40.89400
C  50.85700 51.35700 41.38100
C  48.17700 49.40900 40.14100
O  47.60500 50.44100 39.74300
C  47.64900 47.95800 39.69600
C  46.22200 47.87500 40.16700
O  45.77700 47.69200 41.26700
O  45.45400 47.89500 39.08600
C  44.03700 47.76400 39.32600
H  50.18900 41.43900 40.89600
H  55.79200 44.47300 42.35600
H  52.92200 49.97400 42.82300
H  46.79600 44.99000 40.56300
H  48.13400 42.71500 39.31000
H  46.40000 42.93300 41.55800
H  47.86100 42.23700 42.19100
H  46.95000 41.43500 40.81100
H  47.78900 44.14600 37.81600
H  47.52300 45.88500 37.94700
H  45.45100 45.55200 37.55200
H  45.26600 44.76100 39.06500
H  52.84400 39.48000 41.92700
H  52.94400 39.63900 40.17800
H  51.42800 39.90000 40.86900
H  56.25400 42.66000 43.43900
H  56.94400 42.54800 41.79300
H  57.33400 41.29400 42.86000
H  56.28000 46.90000 42.17800
H  54.70700 48.47900 44.28800
H  56.46500 47.29500 44.92500
H  57.48900 46.32200 43.81300
H  56.05000 45.55000 44.49700
H  55.02200 50.11000 41.91900
H  56.55200 49.20900 42.12000
H  55.60900 51.58400 43.41100
H  57.18400 50.69400 43.82100
H  55.69800 50.31600 44.65800
H  50.25900 51.89200 40.64300
H  51.92100 51.47600 41.17400
H  50.66300 51.75800 42.37600
H  47.73900 47.91200 38.61000
H  43.47800 47.36000 38.48200
H  43.62500 48.76800 39.43100
H  43.66100 47.14500 40.14100

