158

Mg 40.10800 8.65700 29.29300
C  41.84900 9.75800 32.20000
C  37.82900 7.03900 31.45800
C  38.58400 7.58700 26.70500
C  42.87400 9.56800 27.52600
N  39.96100 8.33900 31.67600
C  40.65300 9.10000 32.60500
C  40.00800 8.85500 33.97100
C  38.76100 8.00200 33.79100
C  38.83500 7.76900 32.24100
C  38.74200 6.77300 34.66300
C  39.74400 10.18700 34.70300
C  40.01900 10.29900 36.19200
H  40.38500 11.62500 36.88100
N  38.47900 7.46100 29.13200
C  37.73800 6.83100 30.07800
C  36.60300 6.14300 29.41700
C  36.78900 6.32400 28.03300
C  37.97700 7.18200 27.92300
C  35.53400 5.44400 30.09500
C  35.92900 5.78500 26.85400
O  36.36100 5.82600 25.69200
C  34.56800 5.12500 27.13200
N  40.84800 8.23400 27.38000
C  39.89000 8.01600 26.45400
C  40.45500 8.06600 25.03600
C  41.79300 8.96400 25.29600
C  41.85200 8.95200 26.81600
C  40.89300 6.71800 24.38900
C  41.59900 10.40200 24.80200
C  40.44300 11.22400 25.27500
N  41.88900 9.57900 29.66200
C  42.94200 9.83600 28.85800
C  43.94200 10.56200 29.52800
C  43.54800 10.54000 30.83500
C  42.31200 9.90700 30.90000
C  45.19600 11.06200 28.92100
C  43.98100 10.92800 32.14700
O  44.91200 11.57300 32.54300
C  42.84500 10.41300 33.10500
C  43.34700 9.33200 34.06200
O  43.53900 8.19500 33.68400
O  43.34800 9.72100 35.38400
C  43.96800 8.91200 36.46700
H  37.01500 6.70300 32.10300
H  38.06100 7.32900 25.78200
H  43.73500 9.90500 26.94500
H  40.75000 8.30600 34.55100
H  37.84400 8.57400 33.93600
H  39.56600 6.76200 35.37700
H  38.78200 5.83300 34.11100
H  37.93200 6.76300 35.39300
H  38.69800 10.42900 34.51700
H  40.29800 11.03100 34.29000
H  40.76000 9.51800 36.36600
H  39.07100 10.19300 36.72000
H  35.79700 5.33200 31.14700
H  35.31200 4.44500 29.72100
H  34.56500 5.91900 29.94100
H  34.07300 5.88600 27.73600
H  34.74300 4.22000 27.71300
H  34.04000 4.82600 26.22600
H  39.72200 8.54600 24.38800
H  42.75000 8.58400 24.93800
H  41.89100 6.76100 23.95300
H  40.38000 6.29400 23.52500
H  40.76300 5.91800 25.11800
H  41.56100 10.24700 23.72400
H  42.52100 10.88200 25.13000
H  39.93300 10.74000 26.10800
H  39.74100 11.52200 24.49500
H  40.75200 12.20100 25.64600
H  45.64800 10.30100 28.28500
H  45.87700 11.31700 29.73300
H  44.96400 11.86200 28.21800
H  42.33900 11.12700 33.75400
H  45.01100 9.22100 36.39600
H  43.79200 7.84000 36.38400
H  43.48500 9.26300 37.37900
Mg 7.71100 53.85700 40.03300
C  7.25500 50.46600 40.15400
C  11.00500 53.50600 39.05400
C  7.84900 57.17600 39.36500
C  4.12800 54.19900 40.68300
N  8.97200 52.14400 39.60500
C  8.54700 50.82000 39.65800
C  9.76000 49.88700 39.36700
C  10.98700 50.85000 39.37700
C  10.29600 52.26100 39.34600
C  12.04100 50.61800 40.42000
C  9.54300 49.13600 37.99900
C  9.36000 49.99100 36.71300
H  8.31400 49.50200 35.66900
N  9.26400 55.19000 39.33600
C  10.49000 54.83400 38.91100
C  11.18000 55.98700 38.58500
C  10.35100 57.10000 38.66700
C  9.11400 56.54200 39.15700
C  12.66400 55.84800 38.15800
C  10.71100 58.51500 38.20400
O  11.85000 58.72100 37.78300
C  9.77600 59.66300 38.30900
N  6.20100 55.45100 40.06400
C  6.59000 56.73900 39.84000
C  5.37200 57.73200 40.00400
C  4.25500 56.71400 40.50700
C  4.87600 55.36200 40.36100
C  5.57800 59.08900 40.78600
C  2.79400 56.91300 39.92600
C  1.62200 56.98100 40.98500
N  5.96300 52.58500 40.44600
C  4.64700 52.85900 40.68400
C  3.99700 51.54300 40.95900
C  5.00200 50.63100 40.80500
C  6.15000 51.25600 40.38300
C  2.58400 51.39600 41.53100
C  5.26000 49.21700 40.95600
O  4.57000 48.28300 41.33200
C  6.73000 49.03600 40.48600
C  6.64100 48.14000 39.30600
O  6.12000 48.31300 38.22700
O  7.19900 46.94900 39.62300
C  6.77900 45.77200 38.84000
H  12.07300 53.37200 38.86700
H  8.00900 58.25600 39.31800
H  3.12600 54.49600 40.99800
H  9.78600 49.14900 40.16800
H  11.50300 50.81700 38.41700
H  12.91800 50.40500 39.80800
H  11.76200 49.68400 40.90700
H  12.26100 51.40200 41.14400
H  8.83900 48.31100 38.10600
H  10.48600 48.59900 37.89100
H  10.33200 49.95300 36.22200
H  9.10100 51.03500 36.89200
H  12.68800 56.06000 37.08900
H  13.12600 54.91500 38.48100
H  13.12700 56.64300 38.74200
H  9.60200 59.82500 39.37200
H  8.88200 59.51400 37.70300
H  10.29500 60.49500 37.83300
H  5.05700 58.03800 39.00700
H  4.28000 56.79400 41.59300
H  4.76300 59.22800 41.49700
H  5.49100 59.93700 40.10600
H  6.50900 59.09000 41.35400
H  2.60200 56.08400 39.24400
H  2.75500 57.80400 39.29900
H  1.03200 57.85600 40.71600
H  1.99700 57.11200 42.00000
H  0.91600 56.15300 41.05000
H  2.17100 52.38800 41.71800
H  2.78500 50.94600 42.50300
H  1.94300 50.77600 40.90500
H  7.31700 48.55900 41.27100
H  6.69300 44.95700 39.55800
H  7.57900 45.37500 38.21500
H  5.88400 45.95000 38.24400

