158

Mg -1.63400 17.64100 25.79900
C  -2.29100 15.51700 28.62000
C  -1.91100 20.32600 27.99600
C  -1.25300 19.65900 23.13900
C  -1.44100 14.78400 23.80200
N  -2.23900 17.88200 28.05300
C  -2.24500 16.87900 29.04100
C  -2.05800 17.43800 30.49800
C  -2.18500 18.97000 30.19500
C  -2.01700 19.09100 28.66500
C  -3.53500 19.63600 30.59100
C  -0.83600 16.94000 31.34800
C  -0.44600 17.80500 32.60100
H  -0.35900 17.05700 33.90800
N  -1.52300 19.73800 25.56400
C  -1.69200 20.66800 26.61100
C  -1.67200 21.99600 26.03000
C  -1.59000 21.76200 24.65100
C  -1.46200 20.33100 24.39800
C  -1.81100 23.29500 26.86800
C  -1.75000 22.73400 23.51800
O  -1.88600 22.48200 22.30200
C  -1.82100 24.23400 23.89500
N  -1.30900 17.28500 23.78600
C  -1.19400 18.27600 22.84800
C  -0.97100 17.72400 21.45500
C  -0.83300 16.16000 21.68700
C  -1.18300 16.03700 23.18000
C  -2.10400 18.17500 20.54800
C  0.61500 15.68600 21.33400
C  1.66400 16.04900 22.38900
N  -1.91700 15.56800 26.03800
C  -1.84700 14.53100 25.11000
C  -2.10200 13.25000 25.74800
C  -2.30500 13.57200 27.17400
C  -2.17900 15.03400 27.26500
C  -1.94700 11.97300 25.06300
C  -2.49100 13.06600 28.54200
O  -2.50300 11.88900 28.93000
C  -2.55200 14.30400 29.52700
C  -1.44900 14.06400 30.45300
O  -0.28100 14.04900 30.14600
O  -1.94400 13.70000 31.65300
C  -1.17200 12.96800 32.66300
H  -2.09100 21.20800 28.61500
H  -1.18900 20.26700 22.23400
H  -1.38000 13.89700 23.16700
H  -2.96100 17.12900 31.02500
H  -1.37500 19.52200 30.67200
H  -4.07700 18.88000 31.15900
H  -4.08800 20.09600 29.77100
H  -3.38900 20.49000 31.25200
H  0.01200 16.87300 30.66700
H  -1.20700 16.04500 31.84800
H  -1.14500 18.61400 32.81600
H  0.51600 18.25300 32.35100
H  -2.62800 23.94400 26.55200
H  -0.90500 23.88000 26.71000
H  -2.11300 23.16700 27.90700
H  -2.83500 24.43000 24.24400
H  -1.66100 24.78100 22.96600
H  -1.03000 24.50200 24.59600
H  -0.00900 18.13600 21.14800
H  -1.56500 15.51300 21.20400
H  -2.86200 18.63200 21.18400
H  -2.57300 17.33600 20.03300
H  -1.67400 18.96600 19.93300
H  0.94600 16.28600 20.48600
H  0.64100 14.60500 21.19500
H  1.33900 16.86100 23.04000
H  2.52400 16.40200 21.82100
H  1.95400 15.20800 23.01900
H  -1.14800 11.90900 24.32300
H  -2.77700 11.79700 24.37900
H  -2.00800 11.09600 25.70800
H  -3.51600 14.26300 30.03400
H  -0.38600 12.30600 32.29900
H  -1.86700 12.47700 33.34400
H  -0.58800 13.78600 33.08600
Mg 47.64200 43.77800 42.32600
C  44.23900 42.72000 42.20400
C  48.56900 40.36600 42.24300
C  50.73700 44.76000 42.22200
C  46.48200 47.03100 41.94100
N  46.50800 41.80000 42.24300
C  45.15100 41.63300 42.24000
C  44.73200 40.11300 42.23100
C  46.19700 39.43500 42.40400
C  47.14500 40.56200 42.26500
C  46.33300 38.52600 43.63200
C  43.82600 39.57400 41.11200
C  43.98900 40.26300 39.72000
H  43.97500 39.32500 38.50700
N  49.43500 42.73100 42.24800
C  49.59600 41.36900 42.14400
C  51.01500 41.14000 42.07100
C  51.70700 42.35800 41.89700
C  50.64000 43.35000 42.14600
C  51.63300 39.78500 42.12200
C  53.17000 42.52600 41.73400
O  53.86900 41.51900 41.59000
C  53.88400 43.86400 41.61700
N  48.49400 45.64400 42.10400
C  49.76800 45.71600 42.36400
C  50.26800 47.22200 42.29700
C  48.88500 48.04200 42.18400
C  47.89300 46.87900 42.00400
C  51.06000 47.64600 43.61400
C  48.80500 49.17400 41.15900
C  48.10900 50.42500 41.66400
N  45.77700 44.75500 41.99500
C  45.48800 46.07000 41.91800
C  44.03200 46.32500 41.93900
C  43.52900 45.02300 42.09200
C  44.60800 44.08500 42.10300
C  43.40000 47.74200 41.88600
C  42.29900 44.22200 42.32200
O  41.12800 44.60900 42.48700
C  42.78300 42.71800 42.43400
C  42.26500 42.26800 43.77600
O  41.35000 41.46600 43.97100
O  42.98200 42.88200 44.83000
C  42.73700 42.36900 46.17900
H  48.71800 39.28800 42.14900
H  51.78400 45.06200 42.14000
H  46.15200 48.07200 41.96100
H  44.22800 40.07700 43.19700
H  46.37500 38.73300 41.59000
H  47.22300 38.82200 44.18800
H  46.47400 37.55700 43.15500
H  45.44000 38.53500 44.25800
H  42.77400 39.59100 41.39900
H  43.92400 38.49000 41.04000
H  44.88200 40.88900 39.71400
H  43.21100 41.02500 39.75500
H  52.40200 39.91000 42.88500
H  52.17900 39.51900 41.21800
H  50.90800 38.98100 42.24900
H  53.41900 44.55900 40.91800
H  54.86300 43.53800 41.26400
H  54.01400 44.35900 42.57900
H  50.86700 47.45700 41.41800
H  48.59200 48.53700 43.11000
H  51.94400 48.24300 43.39100
H  51.49500 46.73200 44.01700
H  50.52200 48.24000 44.35300
H  48.13200 48.79000 40.39300
H  49.82900 49.30900 40.81200
H  47.71400 50.84000 40.73600
H  48.81500 51.17600 42.01800
H  47.26700 50.24100 42.33200
H  42.31300 47.75200 41.96500
H  43.59000 48.14100 40.89000
H  43.84300 48.39700 42.63700
H  42.27500 42.23700 41.59900
H  43.22200 41.44100 46.48000
H  41.72700 42.32900 46.58700
H  43.26900 43.11600 46.76900

