158

Mg 49.60800 45.37100 42.35500
C  46.61500 45.93700 40.77100
C  49.40200 42.10500 41.04400
C  52.90200 44.98800 42.95600
C  49.85700 48.89800 42.75600
N  48.24000 44.19400 41.09400
C  47.08200 44.65100 40.49700
C  46.36000 43.68900 39.65700
C  47.22300 42.36300 39.88000
C  48.31300 42.85700 40.86200
C  46.30200 41.21500 40.44500
C  46.32500 44.21900 38.21400
C  44.99600 44.10900 37.47200
H  44.97000 43.32800 36.09400
N  50.89900 43.73400 42.11700
C  50.67600 42.50400 41.57400
C  51.95600 41.74600 41.57200
C  52.83700 42.48800 42.47500
C  52.26200 43.79400 42.54700
C  52.15100 40.36500 40.96800
C  54.09500 41.97200 42.98700
O  54.37600 40.77400 42.94600
C  55.10600 42.82900 43.67100
N  51.19500 46.71500 42.63500
C  52.42500 46.32400 42.96200
C  53.34100 47.51700 43.35600
C  52.31000 48.73100 43.45300
C  51.07300 48.14100 42.79700
C  54.12000 47.23400 44.65100
C  52.87200 50.05900 42.84500
C  52.61700 51.39500 43.62100
N  48.37300 47.00800 42.17900
C  48.60800 48.36400 42.45900
C  47.30400 49.11000 42.31700
C  46.45600 48.14200 41.65900
C  47.22000 46.94100 41.52300
C  47.18200 50.62300 42.66600
C  45.10700 47.92900 41.16600
O  44.10300 48.58400 41.24600
C  45.18900 46.50500 40.49200
C  44.03300 45.74000 40.98700
O  43.02300 45.55700 40.36200
O  44.15500 45.40200 42.26800
C  42.98200 44.70100 42.78700
H  49.30900 41.08500 40.66700
H  53.99200 44.94900 42.90500
H  49.86100 49.98900 42.79900
H  45.33900 43.43800 39.94500
H  47.75700 41.94000 39.02900
H  46.13100 40.49100 39.64900
H  45.32500 41.57100 40.77100
H  46.81400 40.80000 41.31400
H  47.04300 43.65500 37.61800
H  46.79000 45.20200 38.14000
H  44.52200 45.09100 37.44700
H  44.35200 43.41800 38.01600
H  53.16300 40.25200 40.57700
H  51.45800 40.36500 40.12700
H  51.93900 39.55700 41.66800
H  54.84600 43.34000 44.59800
H  55.58700 43.55100 43.01100
H  55.91800 42.13000 43.87300
H  54.09400 47.79800 42.61900
H  51.86500 48.79400 44.44600
H  53.84100 48.05800 45.30800
H  55.17500 47.18800 44.38100
H  53.81800 46.23600 44.96700
H  52.45500 50.13400 41.84100
H  53.93800 49.96800 42.63700
H  52.48000 52.21400 42.91400
H  53.50100 51.53800 44.24200
H  51.75600 51.30100 44.28300
H  47.61100 51.17100 41.82700
H  47.73600 50.92900 43.55400
H  46.19300 50.86800 43.05500
H  45.18700 46.67200 39.41500
H  42.14700 45.35700 43.03500
H  43.31900 44.00000 43.55100
H  42.58800 43.99400 42.05700
Mg -11.07700 38.98200 42.37500
C  -8.79700 36.23100 41.63400
C  -9.02200 41.09700 40.74900
C  -13.55400 41.13200 42.55500
C  -13.34500 36.44600 43.58500
N  -9.18500 38.59200 41.25600
C  -8.46600 37.44100 40.97700
C  -7.31900 37.74800 39.97300
C  -7.33200 39.34200 39.84500
C  -8.60400 39.72800 40.62900
C  -6.12900 40.01500 40.58000
C  -7.41900 36.95600 38.66500
C  -6.14600 36.32900 38.13500
H  -5.47200 37.20400 37.10600
N  -11.18200 40.82900 41.93400
C  -10.20400 41.58600 41.34300
C  -10.57700 42.94000 41.35500
C  -11.87400 43.01700 41.83900
C  -12.26700 41.64600 42.18500
C  -9.68700 44.03800 40.89700
C  -12.68800 44.24700 42.08500
O  -12.14900 45.34000 41.89800
C  -14.16200 44.31400 42.54700
N  -13.18800 38.74100 42.94400
C  -14.03900 39.86700 42.87700
C  -15.48600 39.50500 43.15800
C  -15.46300 37.95400 43.50700
C  -13.90800 37.73200 43.45400
C  -16.02200 40.40000 44.29400
C  -16.24000 37.07800 42.40600
C  -16.75000 35.76300 42.87500
N  -11.10200 36.88200 42.80900
C  -12.00600 36.08400 43.36100
C  -11.47100 34.75900 43.54900
C  -10.22700 34.76800 42.89400
C  -9.99700 36.09100 42.45000
C  -12.06800 33.53300 44.23600
C  -9.00200 33.95300 42.59200
O  -8.75900 32.79400 42.89900
C  -8.17100 34.88300 41.63500
C  -6.74300 34.81300 42.16200
O  -5.94300 33.83100 41.89900
O  -6.52100 35.98100 42.84600
C  -5.12700 36.01800 43.45400
H  -8.57200 41.91900 40.18900
H  -14.39100 41.83200 42.58200
H  -13.95000 35.57700 43.85200
H  -6.42200 37.48900 40.53500
H  -7.43600 39.72800 38.83100
H  -5.39900 39.23800 40.80400
H  -6.29600 40.46000 41.56100
H  -5.78800 40.86600 39.99000
H  -7.68500 37.70000 37.91400
H  -8.11900 36.12100 38.70500
H  -6.38100 35.33800 37.74600
H  -5.51300 36.13200 39.00000
H  -9.87600 44.94200 41.47600
H  -9.81800 44.30700 39.84900
H  -8.62000 43.81700 40.93600
H  -14.41300 45.37300 42.61800
H  -14.29100 44.03200 43.59200
H  -14.73700 43.76300 41.80300
H  -16.01800 39.55000 42.20800
H  -15.98300 37.78900 44.45100
H  -16.00100 39.83800 45.22700
H  -17.04100 40.74900 44.12500
H  -15.39100 41.26400 44.50200
H  -15.63300 36.93800 41.51200
H  -17.04700 37.70200 42.02200
H  -16.33000 35.62500 43.87100
H  -16.26900 35.02000 42.23900
H  -17.83800 35.72200 42.81700
H  -12.30800 33.99600 45.19300
H  -11.48900 32.62100 44.38500
H  -13.02900 33.33000 43.76500
H  -8.23500 34.54400 40.60100
H  -4.43100 36.66100 42.91600
H  -4.69400 35.01800 43.48200
H  -5.26800 36.33200 44.48800

