158

Mg 24.03100 -5.49500 45.16800
C  26.02900 -3.11300 43.73000
C  21.59900 -4.64200 42.94400
C  22.33600 -8.33600 46.10700
C  26.74000 -6.79100 46.87800
N  23.87800 -4.09100 43.33600
C  24.74700 -3.19600 43.06500
C  24.24900 -2.26300 41.85900
C  22.73900 -2.57300 41.91200
C  22.73000 -3.83100 42.75400
C  21.87500 -1.41300 42.44900
C  24.91200 -2.71800 40.53600
C  25.70700 -1.59900 39.93000
H  25.19300 -1.11500 38.60400
N  22.18600 -6.28000 44.80600
C  21.34900 -5.74300 43.86500
C  20.18400 -6.60300 43.76100
C  20.39600 -7.69700 44.57100
C  21.69400 -7.46900 45.23300
C  18.95200 -6.17800 42.95300
C  19.36900 -8.74800 44.85800
O  18.39600 -8.87700 44.12500
C  19.50300 -9.79500 45.85300
N  24.53100 -7.49300 46.24800
C  23.59500 -8.28300 46.69700
C  24.11400 -9.28700 47.82300
C  25.55600 -8.71600 48.06400
C  25.61500 -7.67200 47.00300
C  23.14100 -9.57100 48.99500
C  26.66300 -9.80200 47.80700
C  28.00900 -9.88200 48.56400
N  25.93800 -5.07600 45.40100
C  26.86900 -5.59300 46.18100
C  28.16500 -4.86800 45.92000
C  27.81800 -3.90300 44.98300
C  26.51000 -4.07600 44.66600
C  29.48800 -5.27600 46.37600
C  28.38500 -2.78600 44.14100
O  29.55100 -2.34000 44.11700
C  27.18700 -2.20400 43.37800
C  26.95300 -0.70200 43.57000
O  26.02700 -0.14800 44.11200
O  28.01700 -0.18600 42.85400
C  27.91400 1.28200 42.88000
H  20.81600 -4.44100 42.20900
H  21.81400 -9.15800 46.60100
H  27.59800 -6.93000 47.54000
H  24.34500 -1.23800 42.21900
H  22.32300 -2.64000 40.90700
H  22.29800 -0.46800 42.10900
H  21.91400 -1.58000 43.52600
H  20.84500 -1.51700 42.10800
H  24.21300 -3.15400 39.82200
H  25.65800 -3.46700 40.79600
H  26.71400 -1.97600 39.75100
H  25.87700 -0.72800 40.56200
H  18.76400 -5.13100 42.71700
H  18.16500 -6.42400 43.66600
H  19.00700 -6.73000 42.01400
H  18.52100 -10.23500 46.03000
H  19.88900 -9.34600 46.76800
H  20.17200 -10.47600 45.32700
H  24.33500 -10.28600 47.44600
H  25.57900 -8.35500 49.09200
H  22.62400 -10.51700 48.83200
H  22.52700 -8.67500 49.08300
H  23.70800 -9.70200 49.91700
H  26.89800 -9.73100 46.74500
H  26.24000 -10.80500 47.86400
H  28.81600 -9.59100 47.89300
H  28.18100 -10.89000 48.94100
H  28.07500 -9.14100 49.36100
H  29.37800 -5.64600 47.39500
H  30.14200 -4.40700 46.30200
H  29.97700 -6.05200 45.78700
H  27.31800 -2.38300 42.31100
H  28.73900 1.50200 42.20300
H  28.07000 1.74000 43.85700
H  27.04600 1.68700 42.35900
Mg -5.84000 24.80800 25.98400
C  -4.49900 26.33300 28.64300
C  -8.00000 23.07500 28.26700
C  -7.10400 23.07100 23.47900
C  -3.56600 26.44900 23.86300
N  -5.99300 24.41900 28.18100
C  -5.48000 25.38700 29.02200
C  -5.97700 25.17400 30.47100
C  -6.96800 23.99100 30.33400
C  -7.03600 23.84000 28.82600
C  -6.60800 22.64700 30.91700
C  -6.65500 26.43900 31.10500
C  -6.65300 26.52700 32.59500
H  -5.98700 25.47800 33.49400
N  -7.36500 23.25400 25.88600
C  -8.12300 22.75000 26.91000
C  -9.20300 21.97400 26.33000
C  -8.98600 21.91500 24.93500
C  -7.80800 22.77400 24.71300
C  -10.37200 21.48400 27.09500
C  -9.72700 21.16100 23.93000
O  -9.45600 21.16000 22.74800
C  -10.74100 20.08700 24.43300
N  -5.28200 24.66200 23.97900
C  -5.93900 23.83900 23.14500
C  -5.38900 23.88600 21.63200
C  -4.51600 25.20300 21.73900
C  -4.45700 25.51700 23.27200
C  -4.63200 22.56900 21.21100
C  -5.07700 26.46600 21.05900
C  -4.50100 26.96900 19.67000
N  -4.21700 26.05200 26.12600
C  -3.43400 26.72500 25.25000
C  -2.54600 27.72500 25.95500
C  -2.93800 27.47400 27.31900
C  -3.91700 26.50800 27.33700
C  -1.61700 28.72800 25.31600
C  -2.76600 28.04200 28.56800
O  -2.05400 28.93100 28.89000
C  -3.71200 27.28100 29.48900
C  -2.83300 26.55000 30.39100
O  -2.60700 25.38300 30.47000
O  -2.47100 27.42100 31.39200
C  -1.75200 26.97900 32.59900
H  -8.59800 22.53100 29.00100
H  -7.45200 22.43900 22.65900
H  -2.89600 27.00900 23.20800
H  -5.19100 24.84400 31.15000
H  -7.94600 24.19900 30.76600
H  -7.20200 22.53900 31.82400
H  -5.55500 22.56700 31.18700
H  -6.69800 21.71800 30.35400
H  -7.71200 26.53900 30.85900
H  -6.31300 27.35500 30.62400
H  -7.71500 26.60500 32.82900
H  -6.20000 27.49900 32.79300
H  -10.31200 21.88200 28.10800
H  -10.28800 20.39800 27.05800
H  -11.28200 21.94800 26.71600
H  -11.53100 20.66400 24.91400
H  -10.18000 19.37000 25.03300
H  -11.17200 19.51000 23.61500
H  -6.19900 24.00300 20.91200
H  -3.53400 25.01000 21.30700
H  -3.57900 22.78200 21.02500
H  -5.11400 22.07600 20.36700
H  -4.59200 21.84400 22.02400
H  -5.00000 27.30100 21.75600
H  -6.14800 26.28800 20.96400
H  -4.08000 27.95800 19.84800
H  -5.27000 26.93700 18.89800
H  -3.67300 26.35900 19.30800
H  -1.91700 29.75300 25.53700
H  -1.64600 28.80800 24.22900
H  -0.56400 28.50000 25.48100
H  -4.37600 27.98700 29.98700
H  -1.11300 26.11700 32.40400
H  -2.34000 26.74000 33.48500
H  -1.05600 27.78600 32.82500

