158

Mg 48.46200 45.38000 42.63900
C  44.86000 45.27000 42.12300
C  48.41400 41.99300 42.26400
C  51.79700 45.52500 42.60400
C  48.18700 48.94000 42.51400
N  46.85400 43.83800 42.10200
C  45.47100 44.02800 42.03600
C  44.71300 42.70900 41.82600
C  45.85700 41.63600 41.94000
C  47.13700 42.49300 42.22200
C  45.57400 40.48600 43.03100
C  43.96400 42.70600 40.50300
C  44.69800 43.29000 39.30300
H  44.95100 42.35900 38.06400
N  50.00100 43.95500 42.44600
C  49.79100 42.55500 42.33300
C  51.11600 41.92500 42.30900
C  52.08500 42.90600 42.41300
C  51.31600 44.21000 42.53100
C  51.24900 40.43700 42.14300
C  53.63700 42.80700 42.37400
O  54.16300 41.73600 42.18800
C  54.56700 43.96600 42.75300
N  49.77300 46.93000 42.74300
C  51.09100 46.71200 42.71700
C  51.79800 48.11000 42.70500
C  50.64300 49.10000 42.83600
C  49.47100 48.28300 42.56100
C  52.97000 48.30600 43.68300
C  50.88700 50.43300 42.09000
C  50.76200 51.84900 42.74100
N  46.82200 46.85000 42.62200
C  46.92600 48.27200 42.53700
C  45.48100 48.78800 42.57100
C  44.66500 47.65400 42.37300
C  45.50800 46.52800 42.35900
C  45.02800 50.23200 42.37900
C  43.26000 47.17600 42.23700
O  42.16200 47.74800 42.26500
C  43.38000 45.64800 42.04400
C  42.53200 44.97000 43.03800
O  41.52900 44.34900 42.83700
O  43.02600 45.12900 44.33800
C  42.39100 44.27100 45.37100
H  48.34700 40.94800 42.57400
H  52.82700 45.76700 42.33200
H  48.16400 50.03100 42.53000
H  43.88500 42.69500 42.53400
H  45.95800 41.05900 41.02100
H  45.71700 39.46000 42.69200
H  44.52000 40.50100 43.30800
H  46.19900 40.65000 43.90800
H  43.03200 43.18500 40.80100
H  43.77500 41.66700 40.23000
H  45.68600 43.65900 39.57700
H  44.14900 44.12500 38.86800
H  50.38500 40.20000 41.52200
H  51.25500 40.11100 43.18300
H  52.11900 40.09800 41.58100
H  54.06300 44.43700 43.59700
H  54.50200 44.57300 41.85000
H  55.51900 43.51600 43.03600
H  52.23600 48.23200 41.71400
H  50.58100 49.39400 43.88400
H  52.81000 48.99000 44.51700
H  53.81600 48.58700 43.05500
H  53.29400 47.37100 44.14200
H  50.16100 50.40900 41.27700
H  51.91600 50.39100 41.73300
H  51.72100 52.35200 42.61300
H  50.61400 51.77100 43.81800
H  49.99500 52.51400 42.34400
H  43.96100 50.40700 42.24600
H  45.55500 50.71100 41.55300
H  45.44800 50.78200 43.22100
H  43.10600 45.52200 40.99600
H  41.30400 44.32900 45.30400
H  42.81000 44.49000 46.35300
H  42.68900 43.26400 45.07800
Mg 49.40000 35.98200 27.44400
C  47.06700 34.90700 29.82800
C  49.99500 38.82400 29.07100
C  51.33300 37.08000 24.75700
C  48.38500 33.27400 25.36200
N  48.58200 36.73100 29.19300
C  47.64800 36.19800 30.07500
C  47.49300 37.09800 31.26900
C  48.31200 38.37800 30.88100
C  48.97600 37.94000 29.61400
C  47.42000 39.71100 30.78700
C  47.79500 36.52500 32.81800
C  46.85000 36.57100 33.93500
H  46.89800 37.86000 34.79000
N  50.61500 37.64800 27.02200
C  50.73600 38.73200 27.87800
C  51.76600 39.63100 27.37400
C  52.24800 39.09400 26.13200
C  51.36700 37.88900 25.91100
C  52.22500 40.84200 28.09500
C  53.24400 39.64100 25.13500
O  53.51000 39.13100 24.03400
C  54.18500 40.75300 25.58000
N  49.81600 35.28900 25.32600
C  50.63400 35.91900 24.49400
C  50.76900 35.17400 23.19300
C  49.87000 33.92400 23.41800
C  49.30200 34.15200 24.78700
C  50.47800 35.92200 21.99600
C  50.45300 32.48600 23.26600
C  50.71600 32.12900 21.86500
N  48.16600 34.28600 27.55300
C  47.79500 33.32000 26.68600
C  46.82400 32.43200 27.21700
C  46.48600 33.00500 28.44500
C  47.32000 34.13500 28.61500
C  46.28100 31.26800 26.46600
C  45.57300 32.92800 29.61000
O  44.70000 32.18400 29.99800
C  46.07700 34.03000 30.60700
C  46.73500 33.29100 31.78400
O  47.83700 32.86600 31.94000
O  45.80000 33.22000 32.81800
C  46.23100 32.53200 34.10300
H  50.21000 39.74600 29.61500
H  51.98800 37.33200 23.92000
H  47.99300 32.52600 24.67000
H  46.42200 37.29400 31.20700
H  49.04400 38.50000 31.67900
H  46.63900 39.63100 31.54400
H  47.09300 39.83000 29.75400
H  48.10200 40.52500 31.03000
H  48.70300 37.05400 33.10700
H  48.05000 35.48100 32.63500
H  46.99900 35.70400 34.57900
H  45.85200 36.50000 33.50300
H  51.59200 41.70000 27.86600
H  53.26600 41.04600 27.84500
H  52.23100 40.77600 29.18300
H  53.71600 41.71700 25.77600
H  54.90400 40.98200 24.79300
H  54.75000 40.39200 26.43900
H  51.84100 35.01300 23.08300
H  49.15800 33.93100 22.59200
H  50.18300 36.93600 22.26400
H  49.70800 35.45400 21.38200
H  51.45400 36.02400 21.52300
H  49.66100 31.81100 23.59100
H  51.31000 32.35800 23.92700
H  51.58000 31.46800 21.78000
H  50.99500 32.95600 21.21300
H  49.87000 31.56600 21.47200
H  45.76600 31.50000 25.53400
H  45.57900 30.85300 27.18900
H  47.10600 30.62300 26.16400
H  45.19000 34.50000 31.03000
H  45.59400 32.99600 34.85600
H  47.24900 32.75100 34.42400
H  46.02500 31.46200 34.12100

