158

Mg 24.80600 -5.23500 46.18800
C  26.71600 -2.81800 44.74500
C  22.20000 -4.44300 44.08200
C  23.24500 -8.13900 47.03600
C  27.75800 -6.38400 47.97900
N  24.55800 -3.85900 44.56700
C  25.43800 -2.92800 44.16400
C  24.82400 -1.96000 43.12700
C  23.33100 -2.44800 43.03500
C  23.35000 -3.67800 43.91500
C  22.24100 -1.31900 43.24500
C  25.75000 -2.27600 41.84200
C  25.89000 -1.13700 40.85000
H  25.35900 -1.30600 39.44700
N  22.83900 -6.08900 45.84000
C  21.90300 -5.50700 44.95400
C  20.73200 -6.22800 45.04700
C  21.04700 -7.46600 45.76900
C  22.42000 -7.29600 46.22700
C  19.34400 -5.84300 44.45100
C  20.06500 -8.62100 45.96200
O  18.97100 -8.73900 45.40200
C  20.53200 -9.76700 46.76600
N  25.41000 -7.06000 47.23700
C  24.56600 -8.06300 47.59400
C  25.21300 -9.10800 48.51100
C  26.67100 -8.56600 48.81400
C  26.61300 -7.21300 47.96800
C  24.47500 -9.53400 49.75900
C  27.74800 -9.64400 48.38400
C  29.00900 -9.89700 49.27100
N  26.80600 -4.70400 46.37800
C  27.81300 -5.18400 47.18200
C  29.00500 -4.39200 47.02300
C  28.63800 -3.46100 46.04600
C  27.25800 -3.72000 45.71600
C  30.33500 -4.42300 47.80400
C  29.05700 -2.23100 45.32800
O  30.12300 -1.65300 45.31700
C  27.89700 -1.79100 44.37100
C  27.65500 -0.38300 44.50700
O  27.27000 0.16600 45.54000
O  27.88900 0.15700 43.30600
C  27.95000 1.67500 43.29600
H  21.46200 -4.07400 43.36700
H  22.86500 -9.15900 47.11500
H  28.55700 -6.67700 48.66200
H  25.01300 -0.94500 43.47500
H  23.26700 -2.79700 42.00500
H  22.81500 -0.50700 43.69000
H  21.50000 -1.68400 43.95600
H  21.81800 -1.06200 42.27400
H  25.14400 -3.01900 41.32300
H  26.67000 -2.77800 42.14100
H  26.93100 -0.88200 40.65200
H  25.43900 -0.25700 41.30900
H  19.37500 -5.14200 43.61700
H  18.77900 -5.28200 45.19500
H  18.66800 -6.63600 44.13100
H  19.76500 -10.54200 46.78000
H  20.80100 -9.57100 47.80400
H  21.32800 -10.33500 46.28500
H  25.27300 -9.98200 47.86300
H  26.70100 -8.29500 49.87000
H  23.43500 -9.22500 49.64500
H  24.93200 -9.10100 50.64800
H  24.48800 -10.61900 49.86200
H  28.01800 -9.42100 47.35200
H  27.35500 -10.66100 48.38400
H  29.05800 -10.89300 49.71000
H  28.96700 -9.20600 50.11300
H  29.91300 -9.62000 48.72900
H  30.98600 -5.16400 47.33900
H  30.16100 -4.82000 48.80400
H  30.71600 -3.40500 47.72700
H  28.32200 -2.04600 43.40000
H  27.58700 2.11700 44.22300
H  27.28700 2.01000 42.49900
H  28.95800 2.04200 43.10100
Mg 48.38700 35.11400 26.93000
C  46.37400 33.69300 29.44000
C  49.09200 37.72000 29.06800
C  49.90000 36.60600 24.42200
C  47.29300 32.49600 24.70100
N  47.77600 35.61900 29.00700
C  47.00300 34.90000 29.88900
C  47.17300 35.43200 31.37100
C  47.53500 36.93500 30.99500
C  48.18800 36.78200 29.54800
C  46.38900 37.96100 31.01400
C  48.27500 34.67100 32.14500
C  47.92600 34.23800 33.52900
H  47.13400 35.20500 34.34400
N  49.33400 36.99100 26.76500
C  49.66000 37.84700 27.78300
C  50.52600 38.83100 27.23800
C  50.61500 38.68000 25.85300
C  49.92500 37.40100 25.63000
C  51.11200 39.88400 28.20300
C  51.33400 39.48800 24.78700
O  51.23300 39.28000 23.56500
C  52.13400 40.53700 25.16700
N  48.47000 34.66600 24.78000
C  49.23900 35.43400 23.97800
C  49.31400 34.87800 22.52400
C  48.74100 33.34700 22.76900
C  48.11600 33.51000 24.18000
C  48.70500 35.79300 21.44700
C  49.80000 32.18900 22.78500
C  49.44800 30.94000 21.99000
N  47.11900 33.44900 26.99400
C  46.82600 32.47000 26.01100
C  45.94200 31.56900 26.60800
C  45.73300 31.97300 27.93200
C  46.44600 33.15100 28.10300
C  45.41200 30.30100 25.89400
C  45.03600 31.67000 29.14000
O  44.17700 30.82900 29.38900
C  45.29200 32.91500 30.07800
C  45.64800 32.35500 31.43400
O  46.59900 31.65100 31.64700
O  44.57500 32.60000 32.27500
C  44.64000 31.88300 33.58200
H  49.45800 38.50500 29.73400
H  50.44000 37.08300 23.60100
H  47.19300 31.70600 23.95300
H  46.23700 35.24500 31.89700
H  48.31800 37.34900 31.63200
H  45.39900 37.59200 31.28000
H  46.41700 38.26200 29.96700
H  46.59600 38.79800 31.68000
H  49.22200 35.19300 32.27700
H  48.36200 33.71500 31.62800
H  48.92400 34.13300 33.95300
H  47.40900 33.28100 33.59800
H  52.08600 40.24600 27.87300
H  51.18300 39.37500 29.16500
H  50.42300 40.72500 28.27600
H  52.42900 41.02000 24.23600
H  53.00200 40.20000 25.73300
H  51.49000 41.24600 25.68800
H  50.36600 34.84500 22.24000
H  47.92000 33.05200 22.11600
H  48.06300 35.18900 20.80600
H  49.55000 36.20700 20.89700
H  48.05100 36.61100 21.74800
H  50.06800 31.95200 23.81500
H  50.68300 32.64400 22.33700
H  50.25100 30.92100 21.25400
H  48.46100 31.02400 21.53500
H  49.44600 30.07600 22.65500
H  45.32500 30.60500 24.85100
H  44.47800 29.91900 26.30500
H  46.17600 29.52900 25.98800
H  44.35600 33.46900 30.14900
H  45.47700 31.22600 33.81600
H  43.67300 31.40500 33.73700
H  44.61900 32.66000 34.34600

