158

Mg -2.25000 17.61700 26.67800
C  -2.90400 15.86800 29.61500
C  -3.02500 20.47900 28.60500
C  -2.19600 19.52500 23.88700
C  -2.46400 14.83200 24.79100
N  -3.03100 18.10000 28.90000
C  -3.00900 17.23400 29.92700
C  -3.34800 17.88800 31.26700
C  -3.90500 19.29600 30.83600
C  -3.29600 19.37200 29.32800
C  -5.37100 19.63800 30.97800
C  -2.11600 17.93000 32.23800
C  -2.39100 17.47900 33.65300
H  -1.20500 17.41200 34.53200
N  -2.30700 19.72200 26.32100
C  -2.57900 20.67800 27.24600
C  -2.46900 22.01000 26.59900
C  -2.16500 21.82500 25.21900
C  -2.14700 20.30300 25.03900
C  -2.80600 23.34100 27.19000
C  -1.90000 22.81100 24.08000
O  -1.69500 22.44000 22.95300
C  -2.05900 24.30400 24.39600
N  -2.56400 17.32800 24.57400
C  -2.37500 18.18800 23.58200
C  -2.01200 17.56700 22.25300
C  -2.20700 16.06300 22.58300
C  -2.38100 16.02500 24.12300
C  -2.93000 18.15000 21.12200
C  -1.08700 15.17400 21.95200
C  0.37400 15.43000 22.40800
N  -2.53200 15.72300 27.03000
C  -2.60000 14.66000 26.20100
C  -2.67500 13.43000 27.00400
C  -2.77600 13.85400 28.32400
C  -2.73700 15.25800 28.33000
C  -2.53200 12.08000 26.38100
C  -2.88300 13.45800 29.71400
O  -3.02300 12.28900 30.12800
C  -2.86200 14.66900 30.56300
C  -1.65100 14.63800 31.46100
O  -0.55800 15.15200 31.23700
O  -1.97500 13.82900 32.56200
C  -0.94900 13.53500 33.55000
H  -3.19500 21.36400 29.22200
H  -2.16700 20.12300 22.97400
H  -2.31100 13.93400 24.18900
H  -4.17200 17.33300 31.71600
H  -3.53000 20.14700 31.40400
H  -5.44800 20.43800 31.71500
H  -5.99900 18.85300 31.40100
H  -5.73900 20.04800 30.03800
H  -1.90700 18.99800 32.30700
H  -1.23400 17.51200 31.75400
H  -2.82600 16.48000 33.66300
H  -3.13100 18.12300 34.12900
H  -3.05200 23.26300 28.24900
H  -3.55600 23.88900 26.61900
H  -1.85000 23.85500 27.09000
H  -1.93600 24.76500 23.41600
H  -1.38100 24.68100 25.16200
H  -3.05100 24.47700 24.81400
H  -0.95700 17.76000 22.05800
H  -3.13300 15.69100 22.14300
H  -3.61800 18.90900 21.49300
H  -3.62800 17.40200 20.74800
H  -2.21700 18.44400 20.35100
H  -1.21300 15.37800 20.88900
H  -1.19000 14.09800 22.09300
H  0.35700 15.87700 23.40200
H  0.94800 15.97400 21.65800
H  0.80000 14.43700 22.54800
H  -1.85900 11.41000 26.91700
H  -1.96700 12.23800 25.46200
H  -3.46000 11.51700 26.28300
H  -3.77300 14.85200 31.13200
H  -1.07900 13.97100 34.54000
H  0.01300 13.90400 33.19500
H  -0.93300 12.44500 33.54900
Mg 2.27100 -1.75800 44.51600
C  5.39800 -0.74700 43.76400
C  0.99700 0.93000 42.71100
C  -0.87200 -3.25000 44.74100
C  3.59300 -4.71200 46.11700
N  3.08000 -0.14700 43.21200
C  4.42600 0.10000 43.17100
C  4.72400 1.34600 42.35100
C  3.27600 2.03900 42.25400
C  2.38300 0.87100 42.71800
C  3.19800 3.43200 43.11000
C  5.38500 0.93300 40.97000
C  6.21100 2.06600 40.39000
H  6.71400 1.92100 38.92000
N  0.35000 -1.25400 43.84000
C  0.03700 -0.08300 43.16600
C  -1.35500 -0.09200 42.86600
C  -1.92300 -1.29000 43.43900
C  -0.80700 -2.00300 44.04800
C  -2.01700 0.98800 41.95800
C  -3.41200 -1.59400 43.37800
O  -4.22800 -0.72200 43.01800
C  -3.99000 -2.88500 43.91200
N  1.46200 -3.76100 45.26200
C  0.13600 -4.03600 45.26600
C  -0.09000 -5.41900 45.94800
C  1.30200 -5.83500 46.57900
C  2.22000 -4.79300 45.91200
C  -1.27900 -5.58700 46.93000
C  1.70000 -7.32200 46.35500
C  2.18700 -8.10100 47.61600
N  4.10400 -2.63200 44.93500
C  4.48100 -3.73600 45.59800
C  5.97300 -3.72000 45.67900
C  6.37700 -2.56700 45.01500
C  5.21700 -1.95900 44.49700
C  6.77400 -4.73700 46.38700
C  7.45800 -1.80200 44.69500
O  8.70100 -1.85300 44.82100
C  6.88700 -0.48800 44.03600
C  6.91100 0.61300 45.05300
O  6.18400 0.75400 46.02700
O  7.93700 1.45400 44.69900
C  7.89700 2.72700 45.40900
H  0.58700 1.80600 42.20400
H  -1.81500 -3.80000 44.76900
H  4.00500 -5.56200 46.66300
H  5.43400 2.03600 42.80700
H  3.02000 2.38600 41.25300
H  4.20300 3.74100 43.39700
H  2.63000 3.22800 44.01800
H  2.64800 4.19600 42.56100
H  4.50700 0.86000 40.32700
H  5.97300 0.01500 40.96500
H  7.16200 2.11400 40.92200
H  5.67800 3.01000 40.50800
H  -1.25600 1.65200 41.54800
H  -2.77100 1.54900 42.51100
H  -2.42200 0.58000 41.03200
H  -5.07800 -2.93200 43.87600
H  -3.74700 -2.90000 44.97500
H  -3.52900 -3.76200 43.45700
H  -0.29600 -6.15000 45.16600
H  1.26500 -5.57500 47.63700
H  -2.11600 -4.90400 46.78500
H  -1.05200 -5.64300 47.99500
H  -1.69700 -6.58300 46.77800
H  2.49600 -7.26100 45.61300
H  0.84100 -7.85700 45.94900
H  2.51400 -7.37800 48.36300
H  2.95900 -8.79700 47.28700
H  1.38500 -8.71200 48.03000
H  7.13900 -5.65800 45.93100
H  6.20200 -5.07100 47.25300
H  7.69100 -4.27500 46.75400
H  7.40400 -0.22700 43.11300
H  8.40900 3.47000 44.79700
H  8.43400 2.57900 46.34600
H  6.93800 3.23300 45.51400

