158

Mg 36.48700 49.92700 26.00900
C  36.86400 47.84100 28.77400
C  35.64800 52.52800 28.19200
C  36.18700 51.91900 23.36000
C  37.30500 47.20900 23.91400
N  36.07000 50.05400 28.24600
C  36.49700 49.15700 29.14900
C  36.34600 49.67100 30.57800
C  35.93800 51.19500 30.31800
C  35.87100 51.27900 28.80700
C  34.56700 51.63200 30.95400
C  37.73300 49.46700 31.24000
C  37.84100 49.27200 32.72800
H  36.49500 49.10400 33.48600
N  35.92400 51.92900 25.77600
C  35.65200 52.82900 26.79900
C  35.30600 54.13200 26.17000
C  35.44200 53.98900 24.77900
C  35.80100 52.57100 24.55000
C  35.05000 55.35700 27.03000
C  35.36900 55.07500 23.71800
O  35.43900 54.88200 22.48500
C  35.17800 56.56300 24.15000
N  36.75600 49.55500 23.89000
C  36.56800 50.57600 23.04000
C  36.91600 50.09800 21.60200
C  37.34900 48.63600 21.77100
C  37.11300 48.44100 23.27700
C  35.83000 50.24000 20.56000
C  38.85300 48.33300 21.45600
C  39.22800 46.84600 21.07100
N  36.88600 47.91100 26.20900
C  37.14800 46.89800 25.29800
C  37.38200 45.64700 26.03500
C  37.17300 45.98300 27.39700
C  36.88500 47.36500 27.45000
C  37.86800 44.36300 25.44000
C  37.40600 45.44700 28.66900
O  37.78500 44.34600 29.03800
C  37.02800 46.64100 29.71500
C  35.76100 46.11200 30.31200
O  34.66000 46.19200 29.79200
O  36.04900 45.41400 31.49500
C  34.96100 44.84400 32.34300
H  35.43500 53.38800 28.83100
H  36.18200 52.59300 22.50000
H  37.45600 46.35800 23.24600
H  35.55800 49.11200 31.08200
H  36.73000 51.77300 30.79400
H  33.99900 52.29800 30.30500
H  34.83600 52.19000 31.85000
H  33.97000 50.73800 31.13300
H  38.33600 50.35000 31.02400
H  38.33100 48.70300 30.74400
H  38.53300 49.98600 33.17500
H  38.28700 48.27900 32.78200
H  34.03800 55.67100 26.77100
H  35.71600 56.16600 26.72900
H  34.93800 55.24300 28.10800
H  35.00100 57.13100 23.23600
H  36.09700 56.85100 24.66000
H  34.22200 56.65800 24.66500
H  37.80500 50.67700 21.35000
H  36.63000 47.92200 21.36800
H  34.82700 50.28600 20.98600
H  35.73300 49.31100 19.99700
H  35.94100 51.11000 19.91200
H  39.43200 48.70200 22.30200
H  39.07500 49.01900 20.63900
H  39.69700 46.84700 20.08700
H  38.34800 46.21000 20.97300
H  39.82500 46.44500 21.89000
H  36.99000 43.89700 24.99300
H  38.26800 43.74700 26.24500
H  38.63800 44.44800 24.67200
H  37.76100 46.63500 30.52200
H  34.12000 44.43600 31.78200
H  34.74700 45.62300 33.07500
H  35.40700 44.02200 32.90400
Mg 6.46700 53.80300 41.62700
C  5.83300 50.39500 41.60000
C  9.44600 53.04800 40.22100
C  6.88200 57.06200 41.01200
C  2.99000 54.35500 42.37100
N  7.35600 51.94500 40.59600
C  6.99400 50.69800 40.97300
C  8.06300 49.58800 40.45600
C  9.32600 50.54400 40.42400
C  8.67500 51.93600 40.31800
C  10.40100 50.27900 41.56700
C  7.80200 48.86300 39.00000
C  6.70100 49.54000 38.06700
H  7.30600 49.99400 36.75500
N  8.14600 54.92100 40.97000
C  9.25700 54.39100 40.35300
C  10.08600 55.46900 39.97900
C  9.42900 56.67700 40.25800
C  8.04600 56.26900 40.70300
C  11.48100 55.32300 39.29600
C  9.99500 58.05600 40.01200
O  11.16000 58.29400 39.72800
C  9.09600 59.13900 40.10900
N  5.05100 55.39400 41.51500
C  5.59800 56.66000 41.44600
C  4.54600 57.68400 41.79500
C  3.19500 56.85000 41.88200
C  3.78000 55.43300 41.98900
C  4.86400 58.64100 42.89800
C  2.30700 56.96900 40.64200
C  0.99700 57.74500 40.83100
N  4.72600 52.63600 41.95200
C  3.40100 52.99600 42.33700
C  2.73000 51.78200 42.86100
C  3.69700 50.73900 42.53500
C  4.81400 51.29300 41.95200
C  1.46700 51.63600 43.56900
C  3.69100 49.34700 42.49800
O  2.87900 48.50400 42.86700
C  5.08700 49.06600 41.83300
C  4.79100 48.28500 40.65500
O  3.90500 48.50300 39.82200
O  5.54300 47.10500 40.68900
C  5.24400 46.19700 39.57400
H  10.49400 52.83600 39.99800
H  7.03300 58.14200 40.96600
H  2.02000 54.67600 42.75800
H  8.26000 48.86600 41.24900
H  9.94000 50.23800 39.57700
H  10.79100 51.18300 42.03400
H  11.34400 49.92000 41.15500
H  9.98900 49.60900 42.32100
H  7.49200 47.83500 39.18600
H  8.75300 48.89000 38.46700
H  6.28900 50.40700 38.58300
H  5.87600 48.85100 37.88400
H  11.52000 54.24800 39.12200
H  12.28300 55.64800 39.95900
H  11.57800 55.83200 38.33800
H  8.17300 58.88200 39.58900
H  9.57700 60.03300 39.71400
H  9.00500 59.33300 41.17800
H  4.40900 58.27000 40.88600
H  2.69400 57.17200 42.79500
H  5.94700 58.55700 42.97800
H  4.46000 58.28400 43.84600
H  4.40800 59.58200 42.59200
H  1.96400 55.99900 40.28200
H  2.78700 57.37300 39.75100
H  0.96200 58.56700 40.11500
H  0.94000 58.09700 41.86100
H  0.14400 57.11900 40.57100
H  1.45100 51.04400 44.48500
H  0.77200 51.10100 42.92200
H  1.28300 52.68000 43.81900
H  5.56200 48.34700 42.50000
H  4.34800 45.57700 39.59600
H  6.13000 45.57800 39.43400
H  5.22000 46.83500 38.69100

