158

Mg -2.55300 17.16100 27.25400
C  -3.07200 14.84600 29.84500
C  -2.95800 19.62000 29.55100
C  -2.71300 19.21400 24.68400
C  -2.65200 14.47000 24.92200
N  -3.10700 17.15500 29.39600
C  -3.07000 16.16500 30.24900
C  -3.21500 16.63700 31.72200
C  -3.26600 18.22100 31.56600
C  -3.12300 18.37800 30.03700
C  -4.58200 18.85100 32.10300
C  -2.12400 16.13100 32.67600
C  -1.79000 17.03400 33.92200
H  -1.40000 16.08900 35.11900
N  -2.62500 19.20000 27.13600
C  -2.71100 20.04200 28.24900
C  -2.53200 21.37800 27.74600
C  -2.38600 21.24500 26.29900
C  -2.55700 19.84100 25.97200
C  -2.45900 22.59500 28.65600
C  -1.96400 22.33500 25.22300
O  -1.79900 22.06100 24.05300
C  -1.82300 23.65600 25.60700
N  -2.75100 16.81600 25.03800
C  -2.78300 17.90600 24.25000
C  -2.91600 17.42300 22.77600
C  -2.56600 15.93100 22.78600
C  -2.66000 15.70000 24.34600
C  -4.29400 17.84000 22.15400
C  -1.23200 15.48700 22.07600
C  0.04600 16.10800 22.62500
N  -2.78300 15.09100 27.26400
C  -2.82000 14.15500 26.30500
C  -2.91200 12.88500 26.82500
C  -3.02200 13.05400 28.22200
C  -2.95100 14.48400 28.44500
C  -3.09900 11.61500 26.08100
C  -3.29300 12.39000 29.45700
O  -3.50400 11.22100 29.69200
C  -3.26500 13.50200 30.57400
C  -1.97900 13.19900 31.27300
O  -0.86600 13.61700 30.96700
O  -2.22500 12.53300 32.39700
C  -1.11700 12.36000 33.36000
H  -3.04700 20.36400 30.34600
H  -2.58900 19.82200 23.78600
H  -2.60200 13.55900 24.32200
H  -4.21500 16.32300 32.01800
H  -2.43100 18.69300 32.08300
H  -4.27100 19.69100 32.72300
H  -5.04000 18.07300 32.71300
H  -5.19900 19.20000 31.27500
H  -1.19200 15.83100 32.19700
H  -2.60200 15.24600 33.09600
H  -2.61500 17.61300 34.33800
H  -0.92100 17.64300 33.67300
H  -1.59700 23.19900 28.37400
H  -2.31000 22.24500 29.67800
H  -3.40400 23.13800 28.63400
H  -1.79500 24.43000 24.84000
H  -0.93900 23.68200 26.24500
H  -2.74200 23.94900 26.11300
H  -2.11500 17.77700 22.12800
H  -3.25800 15.38900 22.14200
H  -4.84600 18.45100 22.86800
H  -4.88100 16.96300 21.88100
H  -4.01300 18.51700 21.34600
H  -1.29700 15.78800 21.03000
H  -1.20400 14.39800 22.04300
H  0.59900 15.20000 22.86500
H  -0.05800 16.63700 23.57300
H  0.51800 16.73200 21.86600
H  -2.54000 10.86100 26.63600
H  -2.74100 11.63100 25.05100
H  -4.13600 11.28600 26.14800
H  -4.08300 13.43700 31.29200
H  -1.08900 11.28200 33.52000
H  -1.43400 12.86400 34.27300
H  -0.17100 12.61600 32.88300
Mg 47.57800 25.56100 28.14300
C  48.80100 27.65000 30.68200
C  46.90000 23.21500 30.49300
C  47.06200 23.44600 25.68000
C  49.24400 27.65500 25.74700
N  47.98600 25.39600 30.31900
C  48.27900 26.43900 31.18000
C  47.98600 26.06600 32.68900
C  47.53900 24.53000 32.59800
C  47.45100 24.34600 31.03900
C  48.60200 23.64600 33.28300
C  47.11200 27.12700 33.43300
C  46.24600 26.65700 34.60000
H  46.16300 27.61300 35.71400
N  46.96200 23.57000 28.07300
C  46.69800 22.76200 29.14500
C  46.11600 21.50000 28.67000
C  46.14900 21.55800 27.28500
C  46.71700 22.90600 26.90200
C  45.63700 20.50400 29.60500
C  45.59100 20.54900 26.33200
O  45.62800 20.75900 25.13200
C  45.03100 19.19100 26.93100
N  48.30800 25.48000 25.99000
C  47.76400 24.51900 25.21300
C  48.05600 24.73500 23.69900
C  48.68400 26.20400 23.73900
C  48.73600 26.50700 25.21700
C  48.96800 23.66100 23.04300
C  47.99700 27.28500 22.88900
C  48.68500 27.82900 21.60600
N  48.68300 27.32700 28.14500
C  49.21500 28.09200 27.14200
C  49.74700 29.30300 27.75400
C  49.62500 29.14600 29.10800
C  48.98500 27.97100 29.33300
C  50.50300 30.46500 27.02200
C  49.85700 29.87000 30.40600
O  50.35000 30.96400 30.65800
C  49.29300 28.87200 31.44700
C  50.48500 28.51200 32.29200
O  51.27000 27.61100 32.06200
O  50.40700 29.22700 33.44500
C  51.30000 28.88200 34.55600
H  46.72600 22.55200 31.34300
H  46.77000 22.91500 24.77200
H  49.85700 28.27500 25.09000
H  48.93900 26.31000 33.15700
H  46.60900 24.41900 33.15500
H  49.29300 24.25100 33.87200
H  49.21400 23.09600 32.56800
H  48.16500 22.93000 33.97900
H  46.56200 27.65800 32.65600
H  47.78000 27.87900 33.85300
H  46.55900 25.69000 34.99200
H  45.25700 26.49600 34.17100
H  46.41500 19.74200 29.65600
H  44.61900 20.24700 29.31300
H  45.30700 20.89400 30.56800
H  45.78700 18.77300 27.59600
H  44.87200 18.53800 26.07300
H  44.09600 19.30400 27.48000
H  47.08600 24.67800 23.20500
H  49.74300 26.21400 23.48000
H  49.72500 24.19200 22.46500
H  48.34600 23.14600 22.31200
H  49.38600 23.01500 23.81600
H  47.86400 28.18500 23.48900
H  47.06200 26.87500 22.50700
H  48.96300 28.87700 21.70900
H  47.87400 27.83900 20.87700
H  49.53900 27.28300 21.20500
H  49.90500 30.98400 26.27200
H  51.45600 30.11800 26.62400
H  50.71100 31.17500 27.82300
H  48.44100 29.18300 32.05200
H  50.83300 28.03000 35.05200
H  51.36800 29.74000 35.22500
H  52.28900 28.64400 34.16600

