158

Mg 10.10500 47.61400 25.67000
C  8.17600 47.65000 28.64100
C  12.77800 48.51600 27.56400
C  11.93700 46.94000 23.09200
C  7.08700 47.05300 23.89400
N  10.41300 48.12200 27.89600
C  9.49100 48.15800 28.95600
C  10.16200 48.52400 30.29900
C  11.64500 48.87600 29.88200
C  11.65000 48.42200 28.41700
C  11.94400 50.43200 30.01800
C  10.04600 47.35700 31.36700
C  11.06900 47.23700 32.57900
H  10.65600 46.35700 33.69300
N  12.09900 47.73100 25.36900
C  13.04600 48.18500 26.21300
C  14.38000 48.07100 25.53400
C  14.18100 47.57700 24.24200
C  12.70400 47.44000 24.17700
C  15.68700 48.35900 26.23700
C  15.21200 47.37300 23.04500
O  14.81300 47.05500 21.92400
C  16.67200 47.56900 23.32500
N  9.54000 47.09600 23.79000
C  10.55300 46.75700 22.90100
C  9.91800 46.14700 21.59100
C  8.45900 46.59200 21.69900
C  8.31700 46.89800 23.24800
C  10.59500 46.61800 20.27900
C  7.28000 45.73200 21.20500
C  7.31000 45.27500 19.80000
N  8.05600 47.46400 26.15000
C  6.95300 47.25100 25.33000
C  5.76600 47.09500 26.08200
C  6.21800 47.21200 27.44800
C  7.60000 47.45700 27.40500
C  4.33000 46.73400 25.52500
C  5.73200 47.16400 28.82400
O  4.54600 47.03400 29.24400
C  7.01400 47.45600 29.62900
C  7.10100 46.27900 30.49200
O  7.48900 45.18700 30.06300
O  6.84300 46.50700 31.82400
C  7.14600 45.41600 32.72300
H  13.74300 48.84800 27.95300
H  12.58500 46.58300 22.28900
H  6.28100 46.60500 23.30900
H  9.61200 49.34000 30.77000
H  12.38900 48.23200 30.35100
H  11.15500 50.83900 30.64900
H  11.91300 50.89200 29.03000
H  12.85800 50.59400 30.59000
H  10.01100 46.45900 30.75000
H  9.06900 47.47400 31.83600
H  11.11200 48.23100 33.02300
H  12.09000 47.06900 32.23700
H  16.30300 47.48400 26.44500
H  15.56600 48.97600 27.12700
H  16.34900 48.95300 25.60600
H  17.02400 47.08400 24.23500
H  16.97100 48.61700 23.33000
H  17.24000 47.15900 22.48900
H  10.00400 45.06400 21.50400
H  8.51800 47.58300 21.24800
H  11.27900 47.44900 20.45100
H  9.97000 46.95300 19.45100
H  11.20300 45.78100 19.93700
H  6.45600 46.44200 21.28200
H  7.17900 44.81400 21.78300
H  8.29400 45.49200 19.38300
H  6.50800 45.74800 19.23400
H  7.27300 44.18600 19.79100
H  4.20200 45.65500 25.44500
H  4.26500 47.37000 24.64200
H  3.71300 47.23100 26.27400
H  6.87600 48.39500 30.16300
H  6.78500 45.40700 33.75100
H  8.23500 45.36000 32.74700
H  6.66200 44.50600 32.36900
Mg -1.64400 34.27800 26.78900
C  -3.29600 32.93800 29.58700
C  -0.04100 36.39900 29.00400
C  -0.41300 35.86300 24.15800
C  -3.63200 32.36500 24.70600
N  -1.74100 34.63400 29.02900
C  -2.38900 33.92800 29.96000
C  -1.97600 34.24000 31.41200
C  -1.08900 35.52700 31.18600
C  -0.94800 35.53500 29.62800
C  -1.48900 36.88000 31.91400
C  -1.26100 32.96000 32.01200
C  -2.08300 32.24300 33.14800
H  -1.42700 31.97800 34.54200
N  -0.32100 35.78500 26.57700
C  0.21000 36.55100 27.56200
C  1.19900 37.41600 26.97600
C  1.13300 37.28500 25.59200
C  0.05200 36.34400 25.41500
C  2.14000 38.28700 27.81000
C  1.88800 38.10200 24.55800
O  1.62400 38.02600 23.34100
C  2.98600 39.04500 24.92600
N  -1.99200 34.14300 24.68500
C  -1.32600 34.85600 23.80700
C  -1.63500 34.41700 22.35400
C  -2.70900 33.26900 22.55300
C  -2.76600 33.16200 24.06000
C  -2.13400 35.50500 21.43400
C  -2.29400 31.97900 21.74200
C  -1.21000 31.12900 22.42100
N  -3.12800 32.95700 27.02700
C  -3.85600 32.17200 26.08300
C  -4.73500 31.33000 26.72400
C  -4.50900 31.53600 28.08900
C  -3.61100 32.60000 28.24200
C  -5.75700 30.49200 25.93400
C  -4.94700 31.10000 29.39200
O  -5.82700 30.30300 29.76100
C  -4.20200 31.99600 30.37200
C  -5.23800 32.76700 31.11600
O  -5.72300 33.81900 30.78500
O  -5.50600 32.12000 32.29900
C  -6.62200 32.62800 33.05900
H  0.67700 36.98600 29.57900
H  0.03000 36.43700 23.34200
H  -4.09500 31.58500 24.09900
H  -2.86400 34.44900 32.00900
H  -0.13600 35.30000 31.66400
H  -2.26300 36.67000 32.65200
H  -1.81100 37.66900 31.23400
H  -0.63800 37.34400 32.41300
H  -0.29900 33.17900 32.47500
H  -1.02400 32.16600 31.30400
H  -2.38600 31.25500 32.80100
H  -3.07500 32.65900 33.32700
H  3.16300 38.13100 27.46600
H  2.25800 38.07400 28.87300
H  1.82300 39.32200 27.68200
H  2.57900 39.80400 25.59400
H  3.34100 39.49600 24.00000
H  3.81700 38.42800 25.26800
H  -0.70500 34.14200 21.85700
H  -3.71900 33.57800 22.28400
H  -1.33000 35.70000 20.72400
H  -2.24200 36.47300 21.92400
H  -3.05900 35.19500 20.95000
H  -1.99300 32.18700 20.71500
H  -3.19000 31.37600 21.59300
H  -0.76200 31.63200 23.27900
H  -0.41300 30.77500 21.76800
H  -1.69800 30.26600 22.87300
H  -6.70100 30.51600 26.47700
H  -5.47000 29.44600 25.83300
H  -5.99400 30.95600 24.97700
H  -3.69300 31.39400 31.12400
H  -7.44700 32.78800 32.36500
H  -6.25500 33.62500 33.30400
H  -6.90900 31.97300 33.88100

