158

Mg 1.66000 -1.28800 45.05200
C  4.81300 0.22400 44.65900
C  0.19600 1.46600 43.51300
C  -1.27400 -3.03200 45.06800
C  3.33900 -4.28800 45.82600
N  2.44800 0.57600 44.14700
C  3.72200 1.00200 44.10500
C  3.75500 2.48200 43.69800
C  2.26400 2.91400 43.44800
C  1.57800 1.58300 43.77400
C  1.69300 4.08300 44.39900
C  4.65200 2.86400 42.47200
C  4.46700 1.98000 41.23100
H  5.73200 1.34100 40.64100
N  -0.22400 -0.90400 44.33300
C  -0.62400 0.27800 43.76200
C  -2.08500 0.21300 43.52700
C  -2.59700 -0.99700 44.03500
C  -1.37800 -1.74100 44.58000
C  -2.89600 1.33100 42.82700
C  -4.05700 -1.37500 44.04300
O  -4.79600 -0.78200 43.27100
C  -4.53700 -2.46500 44.87600
N  1.05400 -3.27900 45.44600
C  -0.19500 -3.80400 45.49800
C  -0.21500 -5.29000 45.65000
C  1.27900 -5.71200 45.68700
C  1.95300 -4.37700 45.61200
C  -1.14000 -5.89200 46.77100
C  1.86600 -6.78800 44.72600
C  1.81500 -8.31600 45.17400
N  3.62000 -1.88600 45.41800
C  4.14900 -3.11700 45.77900
C  5.59600 -3.00400 45.92800
C  5.95300 -1.72600 45.47200
C  4.72700 -1.09400 45.16600
C  6.48700 -4.12000 46.45600
C  6.98200 -0.81900 45.18700
O  8.18000 -0.93700 45.24900
C  6.30800 0.54300 44.71700
C  6.58600 1.61000 45.70200
O  6.59700 1.43300 46.91100
O  6.92400 2.73500 45.02900
C  7.52800 3.75300 45.89200
H  -0.33500 2.33200 43.11200
H  -2.24900 -3.51700 44.99100
H  3.91500 -5.21500 45.87700
H  4.05700 3.12800 44.52200
H  2.01900 3.11700 42.40600
H  2.44000 4.57100 45.02500
H  0.96400 3.61000 45.05800
H  1.09100 4.74400 43.77500
H  5.70900 3.01300 42.68800
H  4.24300 3.83900 42.20800
H  3.95200 2.68100 40.57500
H  3.83400 1.12600 41.47200
H  -3.71200 1.53000 43.52300
H  -3.12200 1.06300 41.79500
H  -2.38000 2.28300 42.94900
H  -4.58000 -3.40400 44.32400
H  -5.57000 -2.25400 45.15300
H  -3.93000 -2.55800 45.77600
H  -0.58600 -5.65800 44.69400
H  1.51500 -6.10900 46.67500
H  -2.00400 -6.34100 46.28000
H  -1.37100 -5.16500 47.54900
H  -0.62000 -6.69100 47.29900
H  2.90300 -6.51500 44.52900
H  1.32200 -6.84400 43.78400
H  1.38000 -8.70000 44.25200
H  1.09200 -8.40000 45.98500
H  2.81300 -8.69600 45.39200
H  6.03600 -4.43000 47.39900
H  7.48800 -3.70500 46.57300
H  6.50500 -4.98300 45.79100
H  6.75800 0.94200 43.80800
H  7.91200 4.56400 45.27200
H  8.32500 3.42400 46.55900
H  6.74000 4.11300 46.55200
Mg 26.90300 49.74600 26.59600
C  24.91000 50.59400 29.44300
C  29.42400 49.01600 28.78200
C  28.87000 49.35400 24.02900
C  24.28900 50.99400 24.56600
N  27.07200 49.82500 28.80300
C  26.12900 50.04300 29.76300
C  26.60800 49.65300 31.19600
C  28.12900 49.41900 30.95700
C  28.22400 49.40700 29.42000
C  29.00500 50.45100 31.62800
C  25.84700 48.43600 31.76800
C  25.05700 48.85300 33.02600
H  25.81300 49.46600 34.25000
N  28.96300 49.18100 26.41600
C  29.80300 48.82500 27.46200
C  31.02200 48.42300 26.88000
C  30.96400 48.66900 25.47200
C  29.56300 49.09000 25.20900
C  32.19800 47.99000 27.68500
C  31.97500 48.65600 24.42500
O  31.87900 49.15900 23.26800
C  33.32500 48.09400 24.56600
N  26.61800 50.10000 24.61400
C  27.54300 49.73700 23.70300
C  27.04200 50.01500 22.27500
C  25.59800 50.42700 22.43100
C  25.46500 50.52400 23.98200
C  27.86500 51.07500 21.51700
C  24.45800 49.39500 21.93200
C  23.37800 49.95800 21.07300
N  25.08000 50.67700 26.87300
C  24.10100 51.11600 25.97300
C  22.91700 51.63300 26.64900
C  23.18500 51.37900 27.98500
C  24.47800 50.82700 28.12000
C  21.67900 52.25500 26.06300
C  22.63600 51.51600 29.28800
O  21.53500 51.95800 29.63700
C  23.67200 50.93200 30.33100
C  24.07100 52.00100 31.26300
O  24.94200 52.83800 31.05400
O  23.40000 51.91800 32.40500
C  23.67000 53.01100 33.37600
H  30.11800 48.80000 29.59700
H  29.45800 49.11500 23.14000
H  23.38300 51.27500 24.02400
H  26.39000 50.55800 31.76300
H  28.40300 48.39300 31.20200
H  29.64100 49.88700 32.31000
H  28.37300 51.04400 32.28800
H  29.69300 50.87400 30.89600
H  26.53600 47.62400 32.00400
H  25.10400 48.06800 31.06000
H  24.60600 47.91000 33.33400
H  24.21900 49.51800 32.81700
H  31.80100 47.54800 28.59900
H  32.85600 48.83200 27.89900
H  32.68100 47.25700 27.03900
H  33.84800 47.85400 23.64000
H  33.11500 47.11800 25.00300
H  33.97200 48.58900 25.29100
H  27.11700 49.06000 21.75500
H  25.38600 51.40800 22.00500
H  28.79000 51.39100 22.00000
H  27.42300 52.05100 21.32000
H  28.18200 50.75300 20.52500
H  23.96300 48.91400 22.77500
H  24.99500 48.64800 21.34800
H  22.49000 49.36700 21.29700
H  23.73000 50.03300 20.04400
H  23.25800 50.94800 21.51300
H  21.58300 53.33900 26.12100
H  20.87500 51.94200 26.72800
H  21.41400 51.84400 25.08900
H  23.32600 50.04400 30.86000
H  24.63200 53.50800 33.25100
H  23.55400 52.67200 34.40600
H  22.86300 53.73700 33.27600

