158

Mg 40.21100 8.13800 28.80900
C  42.08800 9.35100 31.64700
C  38.33400 6.30100 31.15600
C  38.62400 6.65600 26.25800
C  42.41900 9.56400 26.72000
N  40.24600 7.81200 31.17200
C  40.97600 8.58000 32.03100
C  40.48900 8.35800 33.51000
C  39.35200 7.27900 33.30800
C  39.24200 7.11400 31.78500
C  39.60600 5.88100 33.98900
C  40.01600 9.66000 34.25100
C  39.60600 9.51900 35.72000
H  40.40200 10.42100 36.64500
N  38.61800 6.73600 28.71000
C  38.00800 6.09000 29.81000
C  37.02300 5.18700 29.24900
C  37.04800 5.25500 27.78400
C  38.11600 6.25600 27.50600
C  36.12000 4.40400 30.03100
C  36.17400 4.61200 26.70900
O  36.38100 4.84400 25.54200
C  35.17300 3.56900 27.06800
N  40.42000 8.17200 26.76600
C  39.71900 7.48500 25.88900
C  40.04500 7.87000 24.45100
C  41.21800 8.91800 24.66800
C  41.35200 8.91700 26.12000
C  40.42200 6.78800 23.47000
C  40.98600 10.30600 24.06600
C  40.20900 11.46500 24.86600
N  41.96400 9.14600 29.10600
C  42.78800 9.75900 28.12200
C  43.84200 10.45600 28.78400
C  43.52900 10.39600 30.15500
C  42.41000 9.56500 30.30000
C  45.05500 11.12300 28.17900
C  44.06600 10.81900 31.41600
O  45.08200 11.44600 31.66000
C  43.13800 10.12100 32.46600
C  43.94400 9.19300 33.39000
O  44.70300 8.32300 33.03800
O  43.59000 9.41100 34.68600
C  44.44500 8.69200 35.60200
H  37.59000 5.93900 31.86900
H  38.14200 6.28900 25.34900
H  43.08700 10.05900 26.01200
H  41.32100 7.98700 34.10900
H  38.35500 7.62100 33.58700
H  39.68400 5.12300 33.21000
H  38.70500 5.64200 34.55400
H  40.47200 5.79300 34.64600
H  39.11400 9.98200 33.73100
H  40.78500 10.41000 34.06600
H  39.82500 8.51800 36.09100
H  38.53300 9.69600 35.80300
H  36.10900 4.44700 31.12000
H  36.32600 3.35600 29.81200
H  35.10200 4.63900 29.72100
H  34.19700 3.86300 27.45400
H  35.57100 2.89000 27.82200
H  35.13200 3.04000 26.11600
H  39.19700 8.41900 24.04100
H  42.11600 8.50800 24.20600
H  41.03200 7.28700 22.71600
H  39.59400 6.23900 23.02100
H  41.05700 6.05600 23.96800
H  40.47900 10.19200 23.10700
H  41.98500 10.65600 23.80700
H  39.51700 11.91000 24.15200
H  40.84100 12.24000 25.30000
H  39.52500 11.07900 25.62200
H  44.83100 11.43700 27.15900
H  45.90900 10.45000 28.25300
H  45.16900 12.01200 28.79900
H  42.76100 10.94000 33.07700
H  43.94900 8.75400 36.57100
H  45.48500 9.01300 35.64500
H  44.44100 7.62100 35.40300
Mg 53.96100 24.56600 43.44200
C  51.36300 26.75800 42.86200
C  52.08100 22.11900 41.87400
C  56.89600 22.73600 42.69000
C  55.89600 27.20700 44.33800
N  52.02500 24.55100 42.37300
C  51.11200 25.48800 42.39000
C  49.77200 25.05600 41.83100
C  49.91500 23.56400 41.94500
C  51.42900 23.36200 42.06900
C  49.19800 23.07800 43.25200
C  49.46800 25.46100 40.30700
C  50.49700 24.98000 39.24600
H  50.85600 25.80100 37.98700
N  54.42600 22.59400 42.61100
C  53.46500 21.76400 42.04700
C  54.06900 20.56200 41.69000
C  55.46000 20.67900 42.00800
C  55.68000 22.04700 42.45200
C  53.33900 19.40400 41.10000
C  56.50300 19.55800 41.82000
O  56.14800 18.48700 41.33000
C  58.00400 19.59700 42.19800
N  56.13600 24.98000 43.35200
C  57.09800 24.04500 43.15600
C  58.51500 24.64600 43.33500
C  58.17700 26.07900 43.84200
C  56.65400 26.10100 43.87000
C  59.31000 23.76800 44.39600
C  58.86300 27.24300 43.07500
C  59.84400 28.33300 43.66700
N  53.66000 26.51600 43.82700
C  54.51800 27.50000 44.27700
C  53.80800 28.72500 44.49400
C  52.54800 28.44900 44.00300
C  52.55900 27.10700 43.48200
C  54.23100 30.01000 45.07600
C  51.26000 29.03500 43.68700
O  50.74100 30.15200 43.99800
C  50.47100 27.99500 42.92200
C  50.24000 28.50700 41.51600
O  51.10800 28.64700 40.64500
O  48.84900 28.72100 41.25800
C  48.42500 28.86800 39.89400
H  51.36000 21.32300 41.67700
H  57.80600 22.15300 42.53200
H  56.35100 28.12400 44.71700
H  48.95200 25.47500 42.41500
H  49.59900 23.08800 41.01600
H  48.96100 22.01500 43.21100
H  48.28400 23.64000 43.44400
H  49.90300 23.10000 44.08300
H  49.37700 26.54700 40.29900
H  48.50300 25.10500 39.94500
H  50.02000 24.11300 38.78900
H  51.50500 24.88700 39.65000
H  53.71200 18.52700 41.62900
H  53.58600 19.20700 40.05600
H  52.29700 19.32300 41.40900
H  58.03300 20.08900 43.17000
H  58.46700 20.29200 41.49800
H  58.44600 18.60100 42.19000
H  58.91100 24.57100 42.32200
H  58.51300 26.23400 44.86700
H  59.67700 22.80000 44.05200
H  58.71900 23.84100 45.30800
H  60.23600 24.27000 44.67700
H  58.06300 27.74200 42.52800
H  59.35800 26.67700 42.28600
H  60.51900 27.92500 44.42000
H  59.21400 29.12000 44.08000
H  60.48100 28.82000 42.92900
H  53.91900 30.17500 46.10700
H  53.74900 30.75900 44.44800
H  55.28100 30.29500 45.01200
H  49.53300 27.84400 43.45700
H  48.04600 29.87900 39.74400
H  47.69000 28.07900 39.73600
H  49.21500 28.73100 39.15600

