158

Mg 40.24000 41.60400 27.10200
C  39.56100 44.05700 29.67200
C  41.24500 39.57700 29.39300
C  41.07500 39.65900 24.58300
C  39.32900 44.21600 24.82500
N  40.59300 41.97700 29.28900
C  40.07200 42.85500 30.12000
C  40.00800 42.37700 31.55100
C  40.73300 40.96500 31.40400
C  40.85200 40.79900 29.86900
C  42.00800 40.70700 32.22200
C  38.66500 42.40200 32.26600
C  38.62000 41.78100 33.65100
H  38.27500 42.66800 34.86100
N  41.04300 39.78000 26.97600
C  41.42200 39.09600 28.08900
C  41.96900 37.83800 27.64100
C  42.04100 37.91800 26.22500
C  41.35900 39.15200 25.85800
C  42.50100 36.75700 28.53200
C  42.69300 36.94300 25.25500
O  42.79200 37.24400 24.04200
C  43.36500 35.63900 25.74500
N  40.16600 41.89400 25.04700
C  40.46300 40.85500 24.22800
C  40.20300 41.23600 22.79700
C  39.31200 42.50900 22.86200
C  39.66500 42.93700 24.29400
C  41.54100 41.28000 21.98200
C  37.82300 42.25000 22.58000
C  37.27400 41.14000 23.49700
N  39.60000 43.64300 27.15400
C  39.34000 44.59100 26.16600
C  39.06500 45.91400 26.68300
C  39.07600 45.72900 28.06200
C  39.41100 44.38100 28.29900
C  38.73600 47.17500 25.86800
C  38.83700 46.36000 29.32200
O  38.42200 47.49000 29.63000
C  39.07300 45.28400 30.39000
C  39.95300 45.68500 31.52700
O  41.18000 45.55900 31.54700
O  39.19200 46.16700 32.53300
C  39.93800 46.45100 33.80100
H  41.50900 38.83000 30.14500
H  41.21400 39.03700 23.69600
H  39.16700 45.02300 24.10700
H  40.65900 43.08600 32.06300
H  39.93900 40.27600 31.69400
H  42.17400 41.60300 32.81900
H  42.78300 40.43100 31.50800
H  41.92500 39.90300 32.95400
H  37.97600 41.94000 31.55900
H  38.35200 43.43200 32.43400
H  39.55200 41.29000 33.93000
H  37.92800 40.94400 33.55300
H  43.58100 36.65400 28.41900
H  42.11100 35.74500 28.42200
H  42.35700 37.06900 29.56600
H  43.71100 35.13800 24.84100
H  42.64400 34.93000 26.15200
H  44.10000 35.95800 26.48400
H  39.59300 40.53500 22.22700
H  39.66600 43.28400 22.18200
H  41.71400 42.30200 21.64500
H  41.38600 40.58800 21.15400
H  42.36100 40.92500 22.60600
H  37.72200 42.07700 21.50800
H  37.30400 43.20500 22.65700
H  36.49900 41.51100 24.16800
H  38.01000 40.44400 23.89900
H  36.86600 40.49100 22.72200
H  38.57200 47.97800 26.58700
H  37.83900 46.86200 25.33400
H  39.56700 47.39900 25.19900
H  38.12900 44.99700 30.85200
H  40.74500 45.74400 33.99300
H  39.25600 46.31400 34.64000
H  40.42100 47.42200 33.91000
Mg -8.53700 18.27100 42.87800
C  -5.07100 17.71700 42.74700
C  -8.07700 21.57000 41.48600
C  -11.79900 18.50700 42.23800
C  -8.96500 14.77900 43.04400
N  -6.80400 19.43900 42.20800
C  -5.42800 19.06000 42.26700
C  -4.54100 20.19600 41.92900
C  -5.54200 21.38200 41.57700
C  -6.91800 20.75000 41.72800
C  -5.31100 22.71100 42.34500
C  -3.39900 19.85700 40.88000
C  -3.73100 18.90200 39.65500
H  -3.42700 19.52100 38.31100
N  -9.86300 19.92200 42.21500
C  -9.44200 21.17000 41.69600
C  -10.66400 21.88400 41.36100
C  -11.80900 20.99600 41.66400
C  -11.16500 19.74700 42.04600
C  -10.60300 23.27700 40.76700
C  -13.28400 21.34400 41.39300
O  -13.51700 22.40600 40.87100
C  -14.36600 20.52200 41.74700
N  -10.15400 16.81000 42.64300
C  -11.47600 17.24000 42.58700
C  -12.46200 16.14000 42.89300
C  -11.53500 14.91000 42.99400
C  -10.13400 15.51500 42.98000
C  -13.50900 16.33200 44.03700
C  -11.66300 13.81800 41.86800
C  -11.79700 12.31900 42.28100
N  -7.21900 16.57000 43.06500
C  -7.59500 15.18700 43.14700
C  -6.39400 14.46800 43.42200
C  -5.37300 15.40700 43.26900
C  -5.91000 16.63000 43.03400
C  -6.18000 13.06200 43.76600
C  -3.93800 15.58400 43.32900
O  -3.04200 14.76400 43.48700
C  -3.66100 17.09200 43.02900
C  -2.78100 17.66700 44.11100
O  -1.57000 17.77500 43.97600
O  -3.53800 18.18300 45.14300
C  -2.88400 18.83300 46.29000
H  -7.98100 22.62500 41.22200
H  -12.87600 18.50200 42.05400
H  -9.06300 13.69100 43.03300
H  -3.97900 20.41900 42.83600
H  -5.39500 21.62500 40.52500
H  -6.21700 22.91800 42.91300
H  -5.11700 23.49300 41.61100
H  -4.49800 22.52400 43.04600
H  -2.50900 19.54600 41.42700
H  -3.09400 20.78300 40.39200
H  -4.76300 18.56700 39.75900
H  -3.15500 17.97700 39.70400
H  -9.94800 23.32000 39.89700
H  -10.23100 23.89000 41.58800
H  -11.54600 23.73100 40.46100
H  -14.01600 20.11300 42.69400
H  -14.49100 19.63900 41.12000
H  -15.27400 21.10800 41.88900
H  -12.94100 15.91300 41.94100
H  -11.93100 14.41600 43.88100
H  -14.42900 16.49500 43.47600
H  -13.26600 17.23200 44.60200
H  -13.74000 15.51100 44.71700
H  -10.80500 13.87400 41.19800
H  -12.53100 13.94400 41.22100
H  -12.71400 11.90300 41.86200
H  -11.84100 12.34200 43.37000
H  -10.96900 11.69300 41.95100
H  -5.61000 12.66200 42.92700
H  -7.13000 12.54200 43.88800
H  -5.56300 13.11200 44.66300
H  -3.04500 17.05500 42.13100
H  -3.31600 19.83400 46.30700
H  -1.80800 18.79100 46.12500
H  -3.14800 18.27100 47.18600

