158

Mg 9.27400 48.37800 25.25300
C  7.05900 49.12400 27.96600
C  11.98400 48.98700 27.28000
C  11.13300 47.97100 22.62000
C  6.29700 48.16200 23.11000
N  9.44700 49.03000 27.31200
C  8.44800 49.13500 28.28400
C  9.06800 49.37500 29.63400
C  10.58200 49.37600 29.39300
C  10.70500 49.08500 27.87400
C  11.30500 50.75200 29.72700
C  8.61500 48.32400 30.77800
C  9.42800 48.14200 32.05800
H  8.63600 47.79500 33.30100
N  11.23300 48.49300 25.00100
C  12.23200 48.76200 25.91700
C  13.51800 48.71000 25.32900
C  13.31800 48.31100 23.94800
C  11.82800 48.26200 23.78200
C  14.75200 49.00000 26.10300
C  14.38800 48.17200 22.77900
O  14.05700 47.95200 21.63000
C  15.86200 48.23000 23.01000
N  8.80100 48.13900 23.09400
C  9.78500 47.89900 22.26700
C  9.24100 47.51500 20.89800
C  7.72000 47.47500 21.09200
C  7.55000 47.94700 22.48900
C  9.67600 48.33600 19.66800
C  6.83000 46.23200 20.79400
C  5.39900 46.45300 20.31000
N  7.03900 48.56000 25.46200
C  5.99600 48.45600 24.52600
C  4.78400 48.67800 25.19200
C  5.14000 49.01300 26.51300
C  6.52800 48.91000 26.64300
C  3.39600 48.58100 24.58300
C  4.58700 49.34500 27.73800
O  3.40300 49.58500 27.96900
C  5.82700 49.50400 28.81300
C  5.49800 48.34100 29.74500
O  5.68400 47.16200 29.45600
O  4.98800 48.89100 30.87100
C  4.74100 47.90500 31.93200
H  12.79400 49.18500 27.98600
H  11.68400 47.87400 21.68300
H  5.37700 48.09300 22.52500
H  8.69500 50.34300 29.96700
H  11.18000 48.69300 29.99600
H  12.16400 50.63600 30.38800
H  10.53200 51.36300 30.19200
H  11.74600 51.23700 28.85600
H  8.52000 47.37100 30.25800
H  7.60900 48.62200 31.07300
H  10.00400 49.06100 32.16500
H  10.16800 47.37300 31.83600
H  15.12400 48.18300 26.72100
H  14.69800 49.87500 26.75100
H  15.57300 49.33300 25.46900
H  16.20900 49.20800 23.34400
H  16.35300 47.97700 22.07000
H  16.17600 47.45700 23.71100
H  9.59700 46.51100 20.67000
H  7.28000 48.31200 20.55000
H  8.98200 49.12800 19.38500
H  9.72300 47.55800 18.90500
H  10.59300 48.84900 19.95600
H  6.70300 45.75400 21.76600
H  7.39500 45.48000 20.24300
H  5.23400 47.49500 20.03700
H  4.71600 46.16800 21.11000
H  5.21200 45.85100 19.42100
H  3.28200 49.49000 23.99200
H  2.66500 48.48100 25.38600
H  3.42100 47.73100 23.90100
H  5.72400 50.49100 29.26500
H  5.38100 47.02500 31.86400
H  3.70300 47.57200 31.94600
H  5.07500 48.46800 32.80400
Mg -6.19500 25.68500 26.23400
C  -4.77700 27.26300 29.11400
C  -8.02900 23.74400 28.47200
C  -7.20600 23.95100 23.62300
C  -4.20000 27.75900 24.24200
N  -6.40600 25.58400 28.51000
C  -5.73600 26.28700 29.45600
C  -6.29100 25.98700 30.86600
C  -7.07000 24.68100 30.64900
C  -7.15300 24.64600 29.11400
C  -6.56900 23.46200 31.43900
C  -7.10600 27.13900 31.44800
C  -6.98000 27.34200 32.95000
H  -6.37300 26.24600 33.88500
N  -7.49500 24.07000 26.11000
C  -8.15000 23.38700 27.08900
C  -8.95200 22.39500 26.50200
C  -8.64900 22.35800 25.12200
C  -7.66800 23.46500 24.86700
C  -9.90500 21.49200 27.32100
C  -9.15400 21.40200 24.10300
O  -8.80600 21.32300 22.93900
C  -10.14400 20.26000 24.47300
N  -5.58000 25.71100 24.22800
C  -6.26400 24.96400 23.31800
C  -5.67100 25.25200 21.96000
C  -4.99300 26.69300 22.12900
C  -4.97100 26.78300 23.64100
C  -4.69900 24.11600 21.52300
C  -5.77700 27.78400 21.51600
C  -5.62600 27.98500 19.98100
N  -4.87600 27.26400 26.49000
C  -4.10100 27.98600 25.66500
C  -3.43500 29.04900 26.37900
C  -3.67300 28.82900 27.73200
C  -4.44500 27.67200 27.77700
C  -2.53300 30.10600 25.73500
C  -3.33700 29.16000 29.12000
O  -2.52200 30.05900 29.39500
C  -4.08700 28.15800 30.10400
C  -2.89000 27.45700 30.76000
O  -2.03800 26.82200 30.17600
O  -3.02100 27.78600 32.11900
C  -2.12500 27.07200 33.00700
H  -8.51600 23.02100 29.12900
H  -7.55600 23.38500 22.75700
H  -3.61400 28.39600 23.57600
H  -5.41700 25.88500 31.51000
H  -8.11500 24.77800 30.94300
H  -6.08600 22.70800 30.81800
H  -7.42400 22.92700 31.85100
H  -5.94500 23.75600 32.28300
H  -8.17400 26.97500 31.31000
H  -6.87300 28.04700 30.89100
H  -7.99200 27.47600 33.33200
H  -6.51700 28.28900 33.22700
H  -10.85400 21.39000 26.79500
H  -10.05700 21.85900 28.33600
H  -9.40900 20.52200 27.35900
H  -9.88500 19.58800 25.29000
H  -10.60200 19.82000 23.58800
H  -10.85000 20.97900 24.89000
H  -6.45400 25.36800 21.21000
H  -3.95400 26.64800 21.80200
H  -4.97600 23.90200 20.49000
H  -4.78800 23.30200 22.24300
H  -3.65600 24.43100 21.50900
H  -5.35200 28.70800 21.90800
H  -6.83600 27.68900 21.75300
H  -6.54800 28.50000 19.71200
H  -5.62100 27.11800 19.32100
H  -4.85500 28.68800 19.66500
H  -2.39800 29.88900 24.67600
H  -1.61900 30.04800 26.32600
H  -3.04900 31.04900 25.91600
H  -4.75400 28.61900 30.83200
H  -1.09500 27.08300 32.64800
H  -2.40300 26.04500 33.24600
H  -2.13800 27.62200 33.94700

