158

Mg 43.22000 42.57700 26.42000
C  41.96200 44.93500 28.98100
C  44.72600 40.82100 28.98300
C  44.32000 40.59600 24.10800
C  41.93100 44.86500 24.04100
N  43.41000 42.86200 28.70800
C  42.68600 43.80000 29.53600
C  42.68300 43.32500 31.06700
C  43.70100 42.08900 31.01800
C  43.97400 41.91100 29.51300
C  44.94900 42.17400 31.93400
C  41.28200 43.07200 31.54900
C  41.11800 42.33400 32.85200
H  40.49000 42.91500 34.03300
N  44.38300 40.97600 26.50700
C  44.94000 40.39800 27.61400
C  45.65000 39.20300 27.19300
C  45.61300 39.17700 25.79600
C  44.75000 40.33100 25.43800
C  46.30700 38.18300 28.16600
C  46.28900 38.17500 24.83800
O  46.22700 38.22800 23.61700
C  47.10800 37.02000 25.36500
N  43.21900 42.79100 24.34000
C  43.59800 41.71700 23.64600
C  43.37300 41.96200 22.23800
C  42.33000 43.13800 22.20600
C  42.50600 43.65200 23.61200
C  44.66700 42.36300 21.48100
C  40.92100 42.63100 21.93500
C  40.43700 41.58500 22.87900
N  42.38500 44.58100 26.40900
C  41.91900 45.36600 25.38500
C  41.44900 46.64500 25.85200
C  41.35500 46.44800 27.22200
C  42.00500 45.21900 27.58700
C  40.96400 47.86100 25.08500
C  40.91700 47.08600 28.45300
O  40.39000 48.20900 28.59900
C  41.30000 46.12300 29.66000
C  42.21500 46.77300 30.67900
O  43.20900 47.46200 30.47000
O  41.66400 46.58400 31.91700
C  42.46200 47.11100 33.01400
H  45.12600 40.18400 29.77400
H  44.46900 39.80800 23.36700
H  41.35200 45.48700 23.35500
H  43.16600 44.09800 31.66600
H  43.17000 41.17100 31.27100
H  45.00900 43.19000 32.32400
H  45.80400 41.89100 31.32000
H  44.77600 41.44400 32.72500
H  40.72700 42.52500 30.78700
H  40.96100 44.11300 31.57700
H  42.14900 42.15300 33.15500
H  40.69700 41.35700 32.61700
H  45.77100 37.23400 28.15700
H  46.22200 38.49700 29.20600
H  47.35700 38.06600 27.89800
H  46.56000 36.31600 25.99200
H  47.95800 37.48000 25.86900
H  47.40800 36.43400 24.49600
H  42.80100 41.10500 21.88400
H  42.69400 43.93200 21.55500
H  45.50300 41.98900 22.07200
H  44.88800 43.41300 21.28900
H  44.75300 41.85400 20.52000
H  40.91700 42.41700 20.86700
H  40.26800 43.50300 21.95200
H  39.71800 42.04400 23.55700
H  41.15100 41.01800 23.47700
H  39.88500 40.80700 22.35300
H  41.31900 48.06200 24.07500
H  41.26300 48.72300 25.68200
H  39.88500 47.90300 24.93900
H  40.39800 45.65900 30.05900
H  42.15300 46.72300 33.98400
H  42.37500 48.18700 33.16100
H  43.48900 46.78800 32.84200
Mg -12.04400 38.10100 41.35500
C  -9.79400 35.53000 40.55200
C  -9.92400 40.31600 39.73300
C  -14.60500 40.28600 41.29200
C  -14.33900 35.73800 42.58000
N  -10.19200 37.94900 40.10700
C  -9.39800 36.78100 40.06300
C  -8.05400 37.01800 39.34800
C  -8.02800 38.66100 39.38700
C  -9.49300 39.00700 39.76900
C  -6.97700 39.07200 40.50500
C  -8.02600 36.31600 37.93300
C  -6.76400 35.39500 37.68900
H  -5.69400 35.90300 36.70400
N  -12.25100 40.06300 40.68600
C  -11.23200 40.81800 40.12400
C  -11.66600 42.18100 40.18900
C  -13.09600 42.17100 40.45900
C  -13.34500 40.83400 40.81400
C  -10.79600 43.41400 39.67300
C  -14.10200 43.33100 40.43300
O  -13.73200 44.49300 40.36100
C  -15.61400 43.20400 40.60100
N  -14.10500 38.08700 41.97100
C  -14.93100 39.08800 41.84700
C  -16.36300 38.86100 42.35800
C  -16.22600 37.39500 42.88200
C  -14.81500 37.04000 42.49300
C  -16.90800 39.83800 43.47000
C  -17.30400 36.40000 42.25000
C  -17.91800 35.38700 43.20500
N  -12.09300 35.98800 41.65200
C  -13.06600 35.19300 42.21600
C  -12.59100 33.81500 42.21900
C  -11.26600 33.89800 41.65200
C  -11.04000 35.22200 41.27500
C  -13.31400 32.68000 42.80500
C  -10.00700 33.22100 41.22500
O  -9.66800 32.06800 41.32800
C  -9.09200 34.20400 40.51300
C  -7.76500 34.24900 41.18600
O  -6.89400 33.47000 40.86700
O  -7.65300 35.25400 42.08100
C  -6.39400 35.25400 42.85700
H  -9.22200 41.05600 39.34500
H  -15.51000 40.88100 41.42900
H  -15.14500 35.12900 42.99200
H  -7.26600 36.55700 39.94400
H  -7.78100 39.09500 38.41800
H  -6.78000 38.24500 41.18800
H  -7.39200 39.88700 41.09800
H  -6.03500 39.44800 40.10500
H  -7.90900 37.03300 37.12000
H  -8.96200 35.79900 37.72100
H  -6.98200 34.39100 37.32300
H  -6.31200 35.12100 38.64200
H  -11.03100 43.51500 38.61400
H  -9.73400 43.20100 39.79300
H  -11.19200 44.30200 40.16600
H  -16.05400 44.14400 40.26600
H  -15.79700 42.98400 41.65300
H  -15.86200 42.35900 39.95900
H  -17.06500 38.92100 41.52600
H  -16.31300 37.21000 43.95200
H  -16.11800 40.45700 43.89400
H  -17.33800 39.28400 44.30400
H  -17.66200 40.45000 42.97300
H  -16.92700 35.95100 41.33200
H  -18.12000 36.98900 41.83100
H  -17.35400 35.34500 44.13700
H  -17.95200 34.36100 42.84000
H  -18.90400 35.80200 43.41600
H  -13.25300 31.79100 42.17800
H  -14.36400 32.93800 42.94700
H  -12.77200 32.53400 43.73900
H  -8.81000 33.91900 39.49900
H  -6.47800 35.89000 43.73800
H  -5.56300 35.62600 42.25700
H  -6.28400 34.26300 43.29800

