158

Mg -1.37300 18.21300 27.13100
C  -1.75600 15.92100 29.80600
C  -2.17500 20.71900 29.19500
C  -1.50400 20.10700 24.49300
C  -1.56300 15.35700 25.03700
N  -1.64700 18.33600 29.28600
C  -1.77100 17.30300 30.18000
C  -1.83200 17.77300 31.64400
C  -2.00500 19.35500 31.38400
C  -1.99200 19.48300 29.86300
C  -3.34000 19.84500 31.95100
C  -0.52800 17.46700 32.49100
C  -0.23900 18.35800 33.78500
H  0.16700 17.59200 35.04700
N  -1.65900 20.21100 26.87800
C  -2.03800 21.13600 27.82200
C  -2.12900 22.46900 27.20600
C  -1.74900 22.25600 25.84500
C  -1.67700 20.80700 25.69900
C  -2.40500 23.72600 28.03100
C  -1.52000 23.23600 24.72300
O  -1.19200 22.88000 23.60900
C  -1.71400 24.72700 24.99500
N  -1.42000 17.76100 25.09000
C  -1.37700 18.78900 24.14600
C  -1.37400 18.24600 22.70300
C  -1.23700 16.72100 22.96400
C  -1.44700 16.61400 24.43100
C  -2.46000 18.74200 21.70800
C  0.16100 16.21700 22.61900
C  0.31500 14.77200 22.05800
N  -1.58700 16.06800 27.34100
C  -1.58400 15.03500 26.42500
C  -1.61100 13.77200 27.02000
C  -1.65500 14.07700 28.34500
C  -1.72900 15.44400 28.53000
C  -1.73500 12.44600 26.35500
C  -1.75000 13.48000 29.58600
O  -1.79300 12.32100 29.92200
C  -1.74200 14.61900 30.64400
C  -0.55400 14.47200 31.44600
O  0.57400 14.88800 31.02800
O  -0.80900 13.88800 32.64800
C  0.28100 13.76400 33.64300
H  -2.45000 21.46700 29.94200
H  -1.32000 20.58700 23.53000
H  -1.30000 14.53600 24.36700
H  -2.73100 17.32900 32.07200
H  -1.19800 19.92000 31.84900
H  -4.02100 20.14300 31.15400
H  -3.08600 20.75400 32.49700
H  -3.84200 19.06400 32.52300
H  0.29400 17.49900 31.77500
H  -0.69500 16.46800 32.89500
H  -1.20700 18.76700 34.07700
H  0.44900 19.16100 33.51900
H  -2.76500 23.69900 29.06000
H  -3.16300 24.26800 27.46500
H  -1.51200 24.34200 27.92700
H  -0.88500 25.02100 25.63900
H  -2.73700 24.91500 25.32000
H  -1.55500 25.32000 24.09400
H  -0.43000 18.68100 22.37600
H  -2.00400 16.09700 22.50800
H  -3.08700 17.86200 21.57100
H  -2.00700 18.99100 20.74800
H  -3.05100 19.56700 22.10600
H  0.70400 16.17500 23.56400
H  0.70600 16.88700 21.95500
H  1.22100 14.57100 21.48500
H  -0.58400 14.47200 21.51800
H  0.45500 14.06100 22.87200
H  -1.89900 11.61600 27.04200
H  -0.80600 12.27400 25.81100
H  -2.50500 12.43300 25.58400
H  -2.66600 14.64100 31.22200
H  0.24400 12.84100 34.22200
H  0.17900 14.64500 34.27700
H  1.26500 13.78800 33.17500
Mg 47.76200 24.50500 29.15000
C  48.85400 26.91400 31.41500
C  46.81000 22.47600 31.66900
C  46.90700 22.22600 26.84800
C  49.14700 26.56200 26.56500
N  47.69300 24.77500 31.24300
C  48.16900 25.80900 31.96700
C  47.68300 25.66700 33.44400
C  47.22200 24.19700 33.58100
C  47.24800 23.79700 32.07800
C  47.99000 23.16800 34.45700
C  46.55600 26.70800 33.81600
C  46.85500 27.78200 34.86500
H  45.79800 28.04000 35.99000
N  46.87200 22.66300 29.23700
C  46.58600 21.92400 30.39300
C  46.06800 20.62200 30.11300
C  46.00100 20.56000 28.67400
C  46.57600 21.85300 28.16700
C  45.55700 19.67100 31.15500
C  45.47400 19.49400 27.83900
O  45.33400 19.70700 26.63900
C  45.03000 18.18700 28.42000
N  48.03100 24.40700 26.97800
C  47.53200 23.38200 26.26000
C  47.84200 23.52800 24.73100
C  48.19500 24.99000 24.66900
C  48.39600 25.38900 26.11400
C  49.05500 22.61700 24.32000
C  47.05700 25.78800 24.03400
C  46.91300 25.72000 22.50800
N  48.84100 26.32800 28.99900
C  49.38100 27.00900 27.84800
C  50.10500 28.14300 28.34600
C  49.96500 28.14100 29.75300
C  49.17100 27.07700 30.07100
C  50.89100 29.17700 27.61900
C  50.27400 28.76100 30.98300
O  50.97800 29.76600 31.25600
C  49.47400 28.06100 32.13500
C  50.44600 27.67900 33.17900
O  51.20300 26.73700 33.20600
O  50.20800 28.58200 34.21100
C  51.13800 28.32800 35.33100
H  46.53400 21.96000 32.59100
H  46.68700 21.53300 26.03300
H  49.55100 27.08900 25.69800
H  48.58700 25.71500 34.05000
H  46.18900 24.24500 33.92600
H  48.94000 23.56000 34.82200
H  48.27100 22.31100 33.84500
H  47.40400 22.78600 35.29200
H  45.63400 26.23000 34.14700
H  46.22900 27.07600 32.84400
H  47.05700 28.73700 34.38000
H  47.76500 27.43500 35.35500
H  45.85800 18.68100 30.81200
H  44.46700 19.64200 31.13800
H  45.94500 19.94800 32.13500
H  45.83900 17.51500 28.71000
H  44.47300 17.57700 27.70900
H  44.29700 18.37700 29.20400
H  47.01700 23.26200 24.07100
H  49.07500 25.27900 24.09500
H  49.62500 22.09500 25.08900
H  49.82400 23.19000 23.80100
H  48.54700 21.78700 23.83000
H  47.19400 26.83000 24.32500
H  46.20000 25.49300 24.64000
H  47.62100 25.03200 22.04600
H  47.12700 26.73200 22.16300
H  45.85400 25.47300 22.43500
H  50.52700 29.21400 26.59200
H  51.96800 29.01200 27.59300
H  50.68400 30.13000 28.10500
H  48.59200 28.59200 32.49400
H  52.17300 28.09500 35.08200
H  50.73000 27.49000 35.89700
H  51.22900 29.19900 35.98000

