158

Mg 46.99400 14.82300 27.15400
C  45.17300 15.04800 30.14300
C  49.26800 17.03900 28.39500
C  48.35000 15.07200 23.99900
C  44.41300 12.85400 25.76200
N  47.17400 15.90300 29.01500
C  46.30200 15.90500 30.08400
C  46.91300 16.59900 31.35000
C  48.11000 17.37100 30.65800
C  48.19500 16.72600 29.25500
C  47.91100 18.87900 30.66000
C  47.38400 15.63500 32.49600
C  47.02000 16.10900 33.95500
H  48.06400 15.77700 35.01800
N  48.68300 15.70100 26.39900
C  49.54200 16.48400 27.09700
C  50.62600 16.94500 26.24400
C  50.40500 16.36800 24.96100
C  49.06600 15.69400 25.08100
C  51.78100 17.94700 26.69500
C  51.05100 16.75200 23.62100
O  50.63100 16.50800 22.52000
C  52.32400 17.51400 23.70700
N  46.44700 14.08000 25.17100
C  47.19400 14.29800 24.09600
C  46.66000 13.55300 22.84500
C  45.41500 12.80300 23.40600
C  45.42000 13.17900 24.90000
C  46.36100 14.42000 21.65300
C  45.42100 11.24300 23.22500
C  46.46800 10.48700 24.11000
N  45.10900 14.07500 27.73800
C  44.29000 13.26600 27.11000
C  43.17400 12.98500 28.09300
C  43.52700 13.61800 29.25700
C  44.67000 14.32100 29.02100
C  41.95500 12.10800 27.83000
C  43.17500 13.78100 30.61300
O  42.13300 13.40100 31.23700
C  44.22200 14.67600 31.29800
C  43.44700 15.84000 31.92200
O  43.20200 16.84300 31.29600
O  43.14900 15.57900 33.22400
C  42.72100 16.76600 34.04200
H  50.07500 17.66000 28.79100
H  48.84900 15.02500 23.02900
H  43.70700 12.06500 25.49500
H  46.26600 17.33400 31.82900
H  49.09000 17.15100 31.08200
H  47.85900 19.14900 29.60500
H  48.66400 19.33100 31.30500
H  46.95400 19.19200 31.07900
H  48.44900 15.40600 32.47900
H  46.93800 14.64300 32.44200
H  46.11500 15.56600 34.22800
H  46.74800 17.16500 33.94700
H  52.70800 17.37400 26.71100
H  51.64600 18.24700 27.73400
H  51.83500 18.85700 26.09800
H  52.21700 18.58900 23.84800
H  52.73000 17.36000 22.70800
H  53.10100 17.03600 24.30500
H  47.37800 12.79700 22.52900
H  44.49000 13.10600 22.91700
H  47.08000 14.07700 20.90900
H  46.37400 15.45700 21.99000
H  45.37900 14.24900 21.21400
H  45.81000 10.98100 22.24200
H  44.48800 10.73700 23.47700
H  46.10900 9.68800 24.75900
H  46.99700 11.15300 24.79200
H  47.27000 10.00500 23.55200
H  42.42300 11.35600 27.19500
H  41.30600 12.72100 27.20500
H  41.62300 11.64800 28.76100
H  44.67000 14.04500 32.06600
H  42.34300 16.52900 35.03600
H  41.97600 17.36900 33.52300
H  43.52500 17.46700 34.26700
Mg 47.63500 45.15500 42.71600
C  44.17300 45.10000 42.74200
C  47.65700 41.76600 42.31200
C  51.02700 45.25100 42.22200
C  47.48100 48.63800 42.12100
N  46.10800 43.65700 42.66300
C  44.74900 43.81900 42.64600
C  44.02200 42.54800 42.63000
C  45.09900 41.44200 42.55800
C  46.42600 42.34900 42.41900
C  45.17800 40.34300 43.77100
C  42.88800 42.45500 41.51200
C  43.06600 43.35500 40.21700
H  43.69800 42.66400 38.98500
N  49.16300 43.73700 42.53200
C  48.92500 42.37200 42.32200
C  50.18300 41.65300 42.16100
C  51.20100 42.59200 42.22100
C  50.52900 43.94700 42.35100
C  50.33100 40.24200 41.76900
C  52.68600 42.38500 41.96000
O  53.06100 41.29400 41.64500
C  53.71400 43.48600 42.14200
N  49.07900 46.78500 42.21700
C  50.37200 46.54000 42.25000
C  51.13100 47.85600 42.35000
C  50.08200 48.97600 41.92700
C  48.78200 48.11300 42.12900
C  51.94100 48.11100 43.70200
C  50.08100 49.48400 40.48400
C  50.64900 50.89100 40.25100
N  46.18900 46.60100 42.58800
C  46.28200 47.97700 42.35000
C  44.92700 48.50100 42.31700
C  44.08900 47.39400 42.59900
C  44.93400 46.28400 42.69700
C  44.47400 49.97100 42.13400
C  42.69600 47.02800 42.72700
O  41.67600 47.71000 42.57700
C  42.68600 45.45200 42.89400
C  42.03300 45.06100 44.12700
O  40.94600 44.53100 44.14500
O  42.81800 45.24000 45.23800
C  42.22800 44.50700 46.41000
H  47.54800 40.68700 42.18800
H  52.10100 45.35800 42.05200
H  47.49900 49.72500 42.01600
H  43.62700 42.55000 43.64600
H  44.92900 40.79900 41.69400
H  46.10700 40.54900 44.30200
H  45.17400 39.37200 43.27500
H  44.35000 40.53900 44.45200
H  41.92400 42.76500 41.91500
H  42.74900 41.39800 41.28400
H  43.74000 44.20900 40.29000
H  42.05100 43.66600 39.96800
H  49.43500 40.01300 41.19200
H  50.47300 39.48400 42.54000
H  51.16500 40.04400 41.09600
H  53.71500 44.16100 41.28600
H  54.69400 43.01500 42.22800
H  53.47000 44.00700 43.06800
H  51.84500 47.87600 41.52600
H  49.93200 49.78800 42.63800
H  51.64700 49.00600 44.25000
H  52.99200 48.28100 43.46500
H  51.90600 47.33000 44.46200
H  49.14300 49.47000 39.92900
H  50.77700 48.80000 39.99800
H  51.08400 51.28700 41.16800
H  49.83300 51.47400 39.82200
H  51.40500 50.78300 39.47300
H  45.29200 50.63200 41.84700
H  44.11800 50.26000 43.12200
H  43.71700 50.12000 41.36400
H  42.09200 45.01800 42.08900
H  42.36000 43.43200 46.29000
H  41.20000 44.80700 46.61000
H  42.74000 44.82500 47.31800

