158

Mg 47.38700 25.71300 29.49500
C  48.41100 28.17000 31.97400
C  46.15200 23.74600 31.92800
C  47.29800 23.33500 27.23200
C  49.21200 27.73100 27.19300
N  47.14700 26.08400 31.63500
C  47.66700 27.07800 32.40300
C  47.14900 26.89000 33.81900
C  46.57300 25.41600 33.83600
C  46.55700 25.07300 32.33800
C  47.60100 24.50800 34.59100
C  46.09900 27.96900 34.13700
C  46.15800 28.77400 35.50700
H  46.85900 27.91700 36.65800
N  46.64900 23.76700 29.63100
C  46.19100 23.16000 30.67200
C  45.63500 21.92600 30.32600
C  45.97200 21.76200 28.90700
C  46.69800 22.97800 28.51100
C  44.79300 21.04500 31.27600
C  45.58900 20.62300 27.97500
O  45.86400 20.67900 26.78800
C  44.81300 19.47900 28.39800
N  48.09500 25.58900 27.47900
C  47.78900 24.50300 26.75100
C  48.21800 24.71100 25.26100
C  48.66200 26.20600 25.24600
C  48.60600 26.59600 26.69800
C  49.13400 23.65700 24.66900
C  47.80900 27.05300 24.32500
C  48.57500 27.69100 23.15800
N  48.55400 27.67600 29.48400
C  49.28900 28.25500 28.50700
C  49.89600 29.50000 28.94400
C  49.53100 29.54800 30.34300
C  48.77600 28.37800 30.59900
C  50.74100 30.49000 28.08100
C  49.70500 30.23700 31.53100
O  50.25500 31.27200 31.81800
C  49.05000 29.30900 32.71200
C  50.08900 28.95000 33.67600
O  51.15900 28.44800 33.34000
O  49.72600 29.44400 34.91400
C  50.63200 29.17000 36.03600
H  45.70200 23.20200 32.76000
H  47.19700 22.63300 26.40200
H  49.64100 28.25700 26.33800
H  48.08500 27.01300 34.36400
H  45.59100 25.35100 34.30400
H  48.54300 25.02200 34.78200
H  47.92300 23.73900 33.89000
H  47.24900 23.96000 35.46500
H  45.12500 27.48700 34.06100
H  45.99900 28.77300 33.40700
H  45.19400 29.08200 35.91100
H  46.73200 29.70100 35.51100
H  43.87800 20.69400 30.80000
H  44.49300 21.45500 32.24000
H  45.36400 20.22000 31.70200
H  43.74600 19.69500 28.35600
H  45.09400 19.13800 29.39500
H  44.97900 18.66500 27.69200
H  47.32100 24.58300 24.65500
H  49.67800 26.14600 24.85800
H  49.89000 23.45600 25.42800
H  49.54600 24.09700 23.76100
H  48.45800 22.84400 24.40100
H  47.26500 27.77800 24.93000
H  46.96900 26.55700 23.83900
H  48.05500 27.54500 22.21100
H  49.59400 27.31600 23.06700
H  48.43700 28.76900 23.24700
H  50.99400 30.06800 27.10900
H  51.67100 30.53400 28.64900
H  50.16000 31.40700 27.99100
H  48.26600 29.85700 33.23500
H  51.53800 29.67300 35.69700
H  50.80500 28.09500 36.07900
H  50.26700 29.52800 36.99900
Mg 1.53700 42.04600 25.58800
C  3.45600 42.28100 28.54200
C  -1.16000 41.04300 27.41600
C  0.01000 41.14800 22.69800
C  4.57800 42.28800 23.72500
N  1.25500 41.77700 27.82500
C  2.14800 42.04300 28.89800
C  1.39200 42.03200 30.21500
C  -0.09600 41.55300 29.86000
C  -0.07400 41.44700 28.25300
C  -0.37400 40.13800 30.37700
C  1.34300 43.47800 30.80400
C  1.66300 43.58500 32.27100
H  1.30200 42.32200 33.18200
N  -0.34900 41.28800 25.12000
C  -1.28900 40.90200 26.01800
C  -2.43900 40.31500 25.35100
C  -2.09800 40.32700 23.88300
C  -0.80300 41.00300 23.84200
C  -3.72200 39.85100 26.05200
C  -2.90600 39.85400 22.70500
O  -2.50800 39.79800 21.62100
C  -4.32000 39.48100 23.03300
N  2.17700 41.87700 23.55100
C  1.29400 41.61200 22.55300
C  1.97300 41.60800 21.19000
C  3.33600 42.23300 21.48900
C  3.37700 42.16700 23.03000
C  2.05400 40.17400 20.55200
C  3.45200 43.73400 21.02500
C  4.90800 44.30600 20.84000
N  3.59000 42.30400 25.96600
C  4.69100 42.33400 25.13000
C  5.85300 42.56400 25.94900
C  5.41200 42.47400 27.27300
C  4.02600 42.36000 27.24300
C  7.28900 42.80700 25.39900
C  5.87600 42.54800 28.61500
O  6.93300 42.73100 29.10600
C  4.67300 42.51400 29.47900
C  4.69300 41.37700 30.35800
O  4.57700 40.19400 30.07800
O  4.80000 41.83400 31.68900
C  5.21600 40.72500 32.59500
H  -2.11000 40.80300 27.89800
H  -0.62100 40.81900 21.87000
H  5.53900 42.46800 23.23900
H  1.89400 41.37900 30.92900
H  -0.99900 42.03600 30.23100
H  -0.34000 39.46200 29.52200
H  -1.37700 39.91500 30.74200
H  0.23700 39.76900 31.20000
H  0.39600 44.01000 30.71800
H  2.21400 44.03100 30.45100
H  1.08100 44.37000 32.75400
H  2.71400 43.81200 32.45200
H  -4.48900 40.56800 25.75800
H  -3.61600 40.00100 27.12600
H  -3.94400 38.80500 25.83900
H  -4.39100 38.49400 23.49000
H  -4.89500 39.40700 22.11000
H  -4.72600 40.30100 23.62600
H  1.49700 42.28900 20.48500
H  4.17900 41.72800 21.01800
H  1.92400 39.48000 21.38200
H  3.04100 39.99300 20.12600
H  1.24200 40.00200 19.84500
H  3.01200 44.37700 21.78700
H  2.90600 43.91500 20.10000
H  5.08100 44.70600 19.84100
H  5.78400 43.69000 21.04100
H  5.03800 45.15600 21.51000
H  7.18600 43.32700 24.44600
H  7.68800 41.81400 25.19100
H  7.95400 43.33000 26.08600
H  4.62200 43.37400 30.14500
H  4.36000 40.41200 33.19300
H  5.84200 40.97900 33.45100
H  5.74800 39.90000 32.12300

