158

Mg 41.45500 41.40000 27.28300
C  40.72900 43.84000 29.73600
C  42.48000 39.26000 29.64400
C  42.63700 39.46700 24.76100
C  41.03200 44.13700 24.82500
N  41.58400 41.56000 29.35900
C  41.11200 42.55600 30.18100
C  41.12100 42.17200 31.62900
C  41.75500 40.72600 31.59800
C  42.01700 40.47600 30.14000
C  43.16100 40.66500 32.29300
C  39.64800 42.26600 32.38300
C  39.50900 43.12300 33.63500
H  39.06900 42.50500 34.94200
N  42.36400 39.67500 27.21100
C  42.63200 38.84200 28.29900
C  42.98200 37.51200 27.81800
C  43.06500 37.56400 26.40700
C  42.67100 38.98500 26.08300
C  43.26500 36.34400 28.73200
C  43.51300 36.50700 25.36200
O  43.61500 36.79700 24.16900
C  43.87100 34.98900 25.80700
N  41.84700 41.79300 25.11800
C  42.26700 40.75100 24.34000
C  41.98700 41.06400 22.87300
C  41.22900 42.45400 22.92400
C  41.36400 42.81200 24.39500
C  43.22200 40.99200 21.98300
C  39.75300 42.30100 22.44300
C  38.63800 42.32100 23.45500
N  40.89400 43.46000 27.23700
C  40.82200 44.40800 26.21400
C  40.40100 45.69400 26.69500
C  40.33500 45.51300 28.05200
C  40.70700 44.13800 28.35400
C  40.19900 46.98500 25.91200
C  40.14400 46.19500 29.32100
O  39.83700 47.34700 29.58600
C  40.36800 45.11800 30.42500
C  41.49200 45.60800 31.30000
O  42.60900 45.76200 30.98000
O  41.00300 46.03300 32.55300
C  41.87500 46.98600 33.28000
H  42.68300 38.52200 30.42300
H  42.73200 38.81900 23.88800
H  40.73800 44.86600 24.06700
H  41.83300 42.77000 32.19900
H  41.15300 39.91500 32.00700
H  43.05100 40.38600 33.34100
H  43.52000 41.69100 32.37800
H  43.92400 40.03000 31.84300
H  39.37400 41.23600 32.61000
H  38.94400 42.53000 31.59400
H  38.75600 43.86200 33.36000
H  40.43000 43.69800 33.72900
H  43.14500 36.54100 29.79800
H  44.33300 36.18200 28.58400
H  42.60500 35.53100 28.42700
H  42.96500 34.45000 26.08300
H  44.61100 35.03500 26.60600
H  44.30300 34.44400 24.96700
H  41.33000 40.34300 22.38500
H  41.76200 43.15700 22.28300
H  43.99600 40.63900 22.66300
H  43.47600 41.95900 21.54900
H  42.98300 40.31000 21.16600
H  39.76400 41.39900 21.83000
H  39.68700 43.24100 21.89500
H  37.87100 41.57200 23.25500
H  38.25200 43.34000 23.41400
H  38.92800 42.18900 24.49700
H  40.26100 47.78300 26.65200
H  39.19400 46.80400 25.53200
H  40.91500 47.20300 25.12000
H  39.49000 45.00700 31.06100
H  41.91700 47.94700 32.76700
H  42.83900 46.54200 33.52900
H  41.45300 47.23300 34.25400
Mg 26.01000 51.43000 26.26100
C  23.76500 52.55400 28.57100
C  28.09000 50.41300 28.97100
C  28.43100 50.86700 24.10900
C  24.04100 52.83300 23.72600
N  26.03800 51.74300 28.54600
C  24.91200 52.10500 29.26400
C  25.18900 52.01500 30.81300
C  26.63200 51.57000 30.80000
C  27.01100 51.21600 29.35100
C  27.59700 52.67700 31.34500
C  24.18400 50.97700 31.55300
C  23.47300 51.51500 32.75600
H  24.27300 51.94300 34.04300
N  27.93200 50.64100 26.48000
C  28.52700 50.23800 27.60100
C  29.90500 49.91300 27.30800
C  30.10300 50.08500 25.89800
C  28.76300 50.58200 25.41700
C  30.87600 49.31300 28.44100
C  31.24200 49.83100 24.94600
O  31.22900 50.04100 23.72500
C  32.47400 49.36200 25.56900
N  26.23100 51.94800 24.17800
C  27.30300 51.44800 23.48700
C  27.14400 51.79700 22.03200
C  25.64200 52.25100 21.85500
C  25.28000 52.36300 23.32500
C  28.28700 52.61300 21.32600
C  24.83600 51.13700 21.12400
C  23.61400 51.60600 20.41200
N  24.16200 52.38100 26.15200
C  23.46900 52.78700 25.04000
C  22.09600 53.24700 25.49100
C  22.20900 53.12400 26.88000
C  23.45900 52.58300 27.19700
C  20.95600 53.83300 24.63100
C  21.47600 53.41800 28.14600
O  20.36400 53.86300 28.40100
C  22.51600 53.07000 29.29000
C  22.73800 54.29700 30.13100
O  23.83200 54.93900 30.16400
O  21.77900 54.37200 31.13700
C  22.11800 55.27900 32.23600
H  28.68300 50.12300 29.84000
H  29.19600 50.66500 23.35700
H  23.49200 53.18700 22.85100
H  25.03900 53.01000 31.23000
H  26.77100 50.69300 31.43300
H  27.08400 53.28600 32.09000
H  27.92200 53.29500 30.50900
H  28.56600 52.27500 31.64100
H  24.86800 50.22900 31.95300
H  23.44200 50.57700 30.86200
H  22.77200 50.70200 32.94300
H  23.01800 52.43800 32.39700
H  30.29600 48.95500 29.29200
H  31.50300 50.11000 28.84100
H  31.48400 48.48400 28.07800
H  32.32100 48.33000 25.88300
H  32.70600 49.90100 26.48800
H  33.30000 49.52600 24.87800
H  27.35100 50.80600 21.62800
H  25.59300 53.24400 21.40800
H  29.05700 52.73900 22.08800
H  28.00500 53.57900 20.90900
H  28.77500 51.95500 20.60600
H  24.45900 50.44100 21.87300
H  25.44900 50.64700 20.36900
H  23.94000 51.99900 19.44800
H  23.06800 52.29900 21.05200
H  23.00900 50.73200 20.17100
H  20.85900 53.23700 23.72400
H  21.24300 54.80500 24.23000
H  20.00700 53.89800 25.16400
H  22.07400 52.24800 29.85300
H  23.12700 54.93100 32.45500
H  21.37800 55.41300 33.02500
H  22.26800 56.30600 31.90300

