158

Mg 29.39900 58.78400 41.17200
C  26.45200 57.13900 40.30100
C  31.22700 56.23700 39.87700
C  32.05400 60.95000 40.90600
C  27.45600 61.65900 41.98100
N  28.84300 57.01600 40.15500
C  27.57700 56.43600 39.99300
C  27.69300 55.15300 39.20500
C  29.18900 54.73200 39.47300
C  29.83200 56.08700 39.87000
C  29.33800 53.54100 40.49800
C  27.32300 55.38000 37.66900
C  26.35700 54.42600 36.94900
H  25.62700 55.01100 35.69900
N  31.40400 58.52200 40.75200
C  31.96500 57.35100 40.26500
C  33.38800 57.60800 40.21200
C  33.66300 58.94300 40.53300
C  32.36200 59.54400 40.75500
C  34.39900 56.51000 39.68900
C  35.08000 59.50800 40.72500
O  36.00800 58.75200 40.66200
C  35.26200 60.86100 41.27300
N  29.72900 61.07000 41.52500
C  30.96300 61.58200 41.41700
C  30.98100 63.07900 41.73700
C  29.45200 63.35700 42.02400
C  28.80600 61.99100 41.93800
C  31.94400 63.40200 42.98000
C  28.77300 64.33800 41.05600
C  27.99700 65.48800 41.83600
N  27.38900 59.29900 41.22900
C  26.73200 60.48500 41.59800
C  25.25900 60.25600 41.47100
C  25.08200 59.00900 40.99800
C  26.44600 58.45000 40.86100
C  24.24700 61.35900 41.79000
C  24.12400 57.98700 40.58100
O  22.91500 58.01000 40.62700
C  24.97000 56.85300 40.13400
C  24.57900 55.67600 41.09200
O  24.51300 55.77400 42.33200
O  24.16300 54.52700 40.37800
C  23.86000 53.32800 41.11800
H  31.62700 55.28900 39.51200
H  32.88700 61.56400 40.55800
H  26.90100 62.53300 42.32700
H  26.96800 54.40100 39.51600
H  29.58700 54.38100 38.52000
H  29.57400 53.86200 41.51300
H  30.15700 52.88800 40.19600
H  28.41300 52.96500 40.50700
H  28.22900 55.35700 37.06300
H  26.98600 56.40500 37.51000
H  25.58300 54.11400 37.65100
H  26.88900 53.51700 36.67100
H  35.00400 56.97800 38.91200
H  33.89300 55.62600 39.30100
H  35.08700 56.09600 40.42700
H  35.16400 61.59800 40.47600
H  36.29900 60.92500 41.60500
H  34.59900 61.04200 42.12000
H  31.20200 63.59500 40.80300
H  29.38200 63.79000 43.02200
H  31.38300 63.91900 43.75900
H  32.72400 64.09000 42.65300
H  32.41200 62.49800 43.36900
H  28.10800 63.83100 40.35700
H  29.45900 64.76200 40.32300
H  26.91900 65.47300 41.67700
H  28.27900 66.50300 41.55400
H  28.26600 65.51000 42.89200
H  24.53100 62.27400 41.27100
H  24.45400 61.49400 42.85100
H  23.22000 61.04800 41.59500
H  24.70500 56.58100 39.11300
H  23.27300 52.76500 40.39300
H  23.36400 53.54500 42.06400
H  24.69200 52.64900 41.30300
Mg -3.28400 34.32500 26.83200
C  -3.90600 32.36700 29.68800
C  -1.80800 36.73000 28.86400
C  -3.31000 36.54600 24.34100
C  -5.04300 32.07800 24.89500
N  -2.90800 34.45600 28.95900
C  -3.16300 33.50400 29.91500
C  -2.67800 33.93200 31.41100
C  -2.07300 35.32100 31.01600
C  -2.27400 35.55800 29.52500
C  -2.37600 36.54100 31.98700
C  -1.82100 32.91800 32.25500
C  -2.26000 32.54000 33.65200
H  -1.21300 32.56100 34.75300
N  -2.49200 36.30200 26.57200
C  -1.93300 37.12000 27.51700
C  -1.50700 38.40400 26.91700
C  -1.96100 38.35400 25.55500
C  -2.63800 37.01300 25.42500
C  -0.84100 39.44100 27.70300
C  -1.86100 39.41900 24.48100
O  -2.32600 39.27200 23.37300
C  -1.21400 40.77200 24.76600
N  -4.32500 34.37100 24.98300
C  -4.06200 35.38000 24.10800
C  -4.49100 35.06300 22.65100
C  -4.89800 33.56200 22.84000
C  -4.67500 33.26500 24.33900
C  -5.58500 35.96200 21.96300
C  -4.12200 32.63700 21.85100
C  -2.73800 32.03800 22.32100
N  -4.31900 32.58800 27.11400
C  -5.02600 31.76700 26.20600
C  -5.47300 30.65400 26.97200
C  -5.08100 30.87900 28.34300
C  -4.39300 32.08900 28.37200
C  -6.29800 29.53900 26.38600
C  -5.13100 30.36400 29.69500
O  -5.68300 29.34300 30.17100
C  -4.34200 31.32900 30.63600
C  -5.33100 31.89900 31.55900
O  -6.11600 32.74600 31.27500
O  -5.12900 31.49900 32.89300
C  -6.21300 31.81700 33.85700
H  -1.51500 37.45900 29.62300
H  -3.03200 37.17200 23.49100
H  -5.50400 31.36400 24.20900
H  -3.59400 34.06700 31.98500
H  -0.99300 35.18000 30.97000
H  -2.73400 36.26400 32.97800
H  -3.30800 37.01200 31.67700
H  -1.62800 37.32500 32.11200
H  -0.82000 33.34100 32.33300
H  -1.77600 32.03400 31.62000
H  -2.48100 31.47500 33.57900
H  -3.09800 33.18900 33.90700
H  -0.23300 39.00400 28.49500
H  -1.59700 40.03500 28.21600
H  -0.14200 39.97900 27.06100
H  -2.01200 41.32000 25.26800
H  -1.09000 41.30100 23.82100
H  -0.22100 40.77600 25.21600
H  -3.63200 35.18600 21.99100
H  -5.96600 33.44200 22.65600
H  -5.89300 36.68000 22.72400
H  -6.49700 35.48600 21.60400
H  -5.15000 36.54700 21.15400
H  -4.01500 33.08800 20.86400
H  -4.72700 31.76000 21.62000
H  -2.56500 32.12100 23.39400
H  -1.91500 32.46800 21.75000
H  -2.72400 30.96800 22.11500
H  -5.82000 29.15200 25.48600
H  -7.27000 29.97600 26.15600
H  -6.36000 28.79800 27.18300
H  -3.53600 30.80000 31.14400
H  -7.10400 32.10100 33.29700
H  -5.96100 32.53000 34.64200
H  -6.55600 30.90100 34.33800

