158

Mg 24.66500 -5.86500 45.64400
C  26.75300 -3.41700 44.42800
C  22.07200 -4.58800 43.79100
C  23.06900 -8.70500 46.00200
C  27.36700 -7.13700 47.50900
N  24.41800 -4.15900 44.26600
C  25.42800 -3.31300 43.89600
C  24.95800 -2.43500 42.71500
C  23.39100 -2.56700 42.84300
C  23.26100 -3.81900 43.66900
C  22.60500 -1.32300 43.50000
C  25.56300 -2.98900 41.37000
C  25.95700 -1.82900 40.38200
H  25.37000 -1.81800 39.00700
N  22.76700 -6.52100 45.11800
C  21.84900 -5.81000 44.42100
C  20.59200 -6.57500 44.37900
C  20.88900 -7.75600 45.07200
C  22.30800 -7.69200 45.43600
C  19.38500 -6.19200 43.63100
C  19.83400 -8.78500 45.35000
O  18.69200 -8.66900 44.87300
C  20.11800 -9.99700 46.17900
N  25.10200 -7.67700 46.72600
C  24.34800 -8.74400 46.46600
C  24.90500 -9.96900 47.16600
C  26.37900 -9.52800 47.56600
C  26.25800 -7.98600 47.30400
C  24.11700 -10.25400 48.51900
C  27.52100 -10.13100 46.75400
C  28.80700 -10.53000 47.53600
N  26.68700 -5.37500 45.96200
C  27.61500 -5.95900 46.79700
C  28.80700 -5.09400 46.83700
C  28.60900 -4.16400 45.76800
C  27.27300 -4.36000 45.35300
C  30.04100 -5.31400 47.65200
C  29.20500 -3.02100 45.08900
O  30.27300 -2.44300 45.11700
C  28.00700 -2.59100 44.09000
C  27.77700 -1.24100 44.39100
O  27.11000 -0.79200 45.32800
O  28.41900 -0.46700 43.39700
C  27.90900 0.89600 43.36600
H  21.29300 -4.03500 43.26100
H  22.71400 -9.73300 46.09600
H  28.20100 -7.53900 48.08900
H  25.19600 -1.37200 42.77000
H  23.04900 -2.85900 41.85100
H  23.40600 -0.70300 43.90300
H  21.91800 -1.52700 44.32100
H  21.96500 -0.81400 42.78000
H  24.84300 -3.55300 40.77800
H  26.46600 -3.59000 41.48000
H  27.00900 -2.01000 40.16300
H  25.82600 -0.84000 40.82200
H  19.04800 -7.08300 43.10100
H  19.55700 -5.29500 43.03600
H  18.58600 -5.96900 44.33700
H  19.21000 -10.41900 46.61000
H  20.64000 -9.73300 47.09900
H  20.57700 -10.80000 45.60200
H  24.86500 -10.73100 46.38800
H  26.64900 -9.62100 48.61800
H  23.20900 -10.80800 48.27900
H  24.02700 -9.24400 48.91800
H  24.65200 -11.02500 49.07300
H  27.91900 -9.31400 46.15100
H  27.19700 -10.90400 46.05700
H  29.67400 -9.87000 47.56500
H  29.07800 -11.53700 47.21900
H  28.66800 -10.68600 48.60600
H  30.73500 -5.68300 46.89700
H  29.90800 -6.09200 48.40300
H  30.33200 -4.37500 48.12200
H  28.32800 -2.75700 43.06200
H  26.87100 0.91900 43.03400
H  28.55000 1.50400 42.72700
H  27.92200 1.24800 44.39800
Mg 26.53300 50.67500 25.89700
C  24.39300 51.81600 28.56700
C  28.88700 49.97300 28.21800
C  28.57500 49.81300 23.24600
C  24.22900 51.81900 23.67400
N  26.60500 51.03500 28.15900
C  25.55000 51.29200 29.01300
C  25.96000 51.19900 30.48200
C  27.49200 50.74200 30.30300
C  27.74500 50.65500 28.80200
C  28.42700 51.78100 30.85300
C  25.13200 50.10400 31.21300
C  24.88400 50.31800 32.69100
H  26.08000 50.50800 33.68400
N  28.53900 49.98200 25.73200
C  29.31300 49.80200 26.83500
C  30.63600 49.24700 26.41400
C  30.48100 49.05000 24.97300
C  29.16500 49.64500 24.55300
C  31.81700 48.92800 27.38000
C  31.39000 48.35500 23.96500
O  31.28500 48.35300 22.75400
C  32.51800 47.59700 24.49400
N  26.47400 50.83200 23.76800
C  27.37300 50.36800 22.92000
C  26.93800 50.45800 21.48500
C  25.42100 50.84700 21.69500
C  25.38400 51.20900 23.17500
C  27.71000 51.53100 20.58200
C  24.30000 49.73500 21.34400
C  24.70000 48.26400 21.54400
N  24.77400 51.69500 26.04300
C  23.96100 52.07000 24.99300
C  22.81600 52.70100 25.55000
C  22.98900 52.70100 26.92200
C  24.14200 52.05300 27.19500
C  21.58700 53.13200 24.70500
C  22.33600 52.97700 28.20700
O  21.28300 53.46300 28.48300
C  23.25200 52.41500 29.31500
C  23.62200 53.55300 30.14000
O  24.11000 54.60200 29.67600
O  23.47900 53.28600 31.46800
C  23.79000 54.30800 32.40400
H  29.54600 49.55900 28.98400
H  29.11300 49.39000 22.39500
H  23.51500 52.21400 22.94800
H  25.86800 52.11100 31.07200
H  27.63200 49.79900 30.83200
H  28.88700 51.20700 31.65800
H  27.89900 52.61400 31.31700
H  29.20600 52.08100 30.15300
H  25.63700 49.14000 31.27600
H  24.18000 49.94400 30.70600
H  24.54700 49.34200 33.04100
H  24.09300 51.03400 32.91400
H  32.04100 49.79100 28.00600
H  32.72000 48.60500 26.86100
H  31.53200 48.11600 28.04900
H  32.77800 46.91300 23.68600
H  32.24200 46.99900 25.36200
H  33.25700 48.35900 24.74000
H  27.03800 49.45300 21.07600
H  25.22400 51.77900 21.16500
H  28.40700 52.06500 21.22700
H  27.08500 52.27600 20.08800
H  28.28700 50.91900 19.88900
H  24.16100 49.79100 20.26500
H  23.35300 50.06500 21.77200
H  23.86100 47.97900 22.17800
H  25.69600 48.19300 21.97900
H  24.77500 47.67400 20.63100
H  20.65500 53.05600 25.26600
H  21.36000 52.57700 23.79500
H  21.78500 54.12900 24.31000
H  22.51900 51.74300 29.76000
H  24.14400 55.19100 31.87200
H  24.64500 54.02700 33.01900
H  23.00800 54.65300 33.08100

