158

Mg 17.23500 -2.15500 27.58800
C  16.26300 0.13300 29.96600
C  19.53800 -3.51500 29.72100
C  18.51500 -3.94600 24.98400
C  15.46000 -0.17500 25.21400
N  17.79300 -1.74900 29.59600
C  17.16100 -0.83400 30.42500
C  17.58300 -0.97900 31.94600
C  18.69700 -2.09600 31.85400
C  18.73000 -2.49600 30.33800
C  20.12900 -1.71300 32.34000
C  16.35700 -1.41600 32.80800
C  16.24400 -0.66900 34.11800
H  17.52700 -0.32000 34.81800
N  18.71000 -3.65400 27.46100
C  19.57900 -4.07900 28.43200
C  20.32200 -5.15200 27.88900
C  19.93900 -5.37300 26.54900
C  19.00300 -4.30400 26.26300
C  21.46000 -5.91400 28.65800
C  20.33000 -6.52400 25.61500
O  19.92100 -6.55300 24.44300
C  21.29100 -7.71600 26.09000
N  17.15300 -1.92500 25.35600
C  17.75000 -2.85500 24.55000
C  17.29600 -2.59100 23.08900
C  16.24300 -1.43800 23.17700
C  16.23500 -1.14800 24.67500
C  18.47800 -2.34800 22.12900
C  14.78800 -1.79800 22.66800
C  14.34600 -1.27000 21.34500
N  16.07900 -0.36300 27.55900
C  15.40400 0.26400 26.56200
C  14.65600 1.39800 27.02800
C  14.98000 1.44500 28.36400
C  15.82900 0.33800 28.67600
C  13.66500 2.25400 26.19700
C  14.89100 2.09800 29.55600
O  14.35400 3.12500 29.81300
C  15.57000 1.32300 30.68800
C  16.44300 2.24700 31.44700
O  17.53500 2.68000 31.10900
O  15.75300 2.59200 32.59400
C  16.39800 3.50100 33.60200
H  20.21700 -4.07200 30.37100
H  18.87900 -4.57200 24.16700
H  14.95500 0.40600 24.43900
H  17.90100 0.05200 32.10300
H  18.42300 -2.95800 32.46200
H  20.12000 -0.68800 32.71100
H  20.79300 -1.61100 31.48200
H  20.59700 -2.42800 33.01600
H  16.41000 -2.48600 33.00700
H  15.38500 -1.21500 32.35800
H  15.58500 -1.16500 34.83100
H  15.66100 0.23000 33.91700
H  22.34400 -5.90300 28.02000
H  21.21200 -6.93400 28.94900
H  21.95200 -5.27600 29.39200
H  21.04600 -8.15000 27.06000
H  22.28100 -7.26100 26.13300
H  21.23500 -8.46900 25.30400
H  16.79300 -3.51100 22.79100
H  16.62300 -0.56100 22.65400
H  18.16400 -1.65800 21.34700
H  18.91800 -3.23600 21.67400
H  19.32600 -1.87300 22.62400
H  13.99600 -1.50700 23.35700
H  14.69200 -2.87200 22.50600
H  13.56400 -1.84700 20.85000
H  15.17600 -1.07900 20.66500
H  13.88500 -0.33400 21.65900
H  12.81100 1.66600 25.86300
H  14.09600 2.54900 25.24100
H  13.32800 3.12500 26.75900
H  14.85900 0.91500 31.40600
H  17.13700 4.15900 33.14500
H  16.81500 2.95700 34.44900
H  15.62600 4.17200 33.97800
Mg 47.13900 43.97000 43.33600
C  43.74400 43.27400 43.61100
C  47.79100 40.52000 43.04600
C  50.34000 44.69300 42.51300
C  46.37100 47.44700 43.31800
N  45.89300 42.03100 43.30800
C  44.55900 42.02800 43.48300
C  43.94500 40.64100 43.45000
C  45.28000 39.80200 43.58000
C  46.39800 40.81600 43.24100
C  45.55100 39.03800 44.90400
C  43.08100 40.27100 42.21000
C  43.30100 41.03800 40.87400
H  44.28700 40.49800 39.84800
N  48.88600 42.73600 42.94300
C  48.93600 41.36400 42.94200
C  50.31400 40.99400 42.83100
C  51.04900 42.15100 42.62400
C  50.08900 43.28100 42.69700
C  50.82900 39.60400 42.88100
C  52.49400 42.14600 42.29700
O  53.14800 41.13100 42.29800
C  53.20500 43.38800 42.09800
N  48.17700 45.73300 43.10300
C  49.47500 45.76400 42.69200
C  49.96300 47.23500 42.32000
C  48.75000 48.17900 42.69000
C  47.70100 47.02200 42.98000
C  51.27300 47.65100 43.05800
C  48.18100 49.19700 41.67400
C  48.44600 50.63500 42.18600
N  45.46300 45.14800 43.34000
C  45.24800 46.53600 43.44800
C  43.80800 46.88500 43.55700
C  43.21300 45.61700 43.49900
C  44.23100 44.65100 43.52400
C  43.16500 48.22600 43.43700
C  41.88900 45.03800 43.56900
O  40.74900 45.48300 43.73000
C  42.17600 43.41400 43.71100
C  41.58600 42.92900 45.00100
O  40.43200 42.65900 45.27700
O  42.57100 42.91100 45.97900
C  42.13500 42.63400 47.34100
H  47.94100 39.44500 42.93200
H  51.31800 44.99800 42.13400
H  46.05800 48.48500 43.45000
H  43.29700 40.57700 44.32400
H  45.29200 38.93300 42.92200
H  46.38400 39.58400 45.34800
H  45.89100 38.01900 44.71700
H  44.63900 38.92700 45.48900
H  42.04600 40.41600 42.52100
H  43.13200 39.20200 42.00400
H  43.74300 42.02200 41.02800
H  42.37400 41.26600 40.34800
H  51.79900 39.64900 43.37800
H  50.98100 39.08300 41.93500
H  50.23300 38.92400 43.48900
H  52.99400 43.97600 41.20400
H  54.24500 43.20400 42.36700
H  52.88100 43.95800 42.96900
H  50.11700 47.31700 41.24400
H  48.98000 48.55400 43.68700
H  52.13400 47.63900 42.38900
H  51.65100 46.82700 43.66300
H  51.31600 48.60700 43.57900
H  47.11500 49.24600 41.45100
H  48.60900 48.94400 40.70400
H  48.99000 51.29600 41.51100
H  48.93500 50.76600 43.15200
H  47.51300 51.14900 42.42000
H  42.09400 48.20200 43.63800
H  43.31700 48.54600 42.40600
H  43.62900 49.00700 44.04000
H  41.57100 42.88300 42.97700
H  41.89400 41.57600 47.44000
H  41.36900 43.32400 47.69400
H  43.00000 42.71100 47.99900

