158

Mg 7.17200 2.80200 28.10800
C  8.72600 1.82900 31.13400
C  4.90300 4.55900 29.77300
C  5.97300 3.84000 25.16800
C  9.28500 0.63700 26.47000
N  6.84700 3.17400 30.29100
C  7.61100 2.68100 31.37800
C  7.18900 3.34600 32.67900
C  5.78100 3.93000 32.29400
C  5.86100 3.95300 30.66000
C  4.49200 3.15100 32.82900
C  8.19300 4.33100 33.26500
C  8.97000 3.90800 34.50600
H  8.23800 3.29300 35.72400
N  5.70300 4.15500 27.51200
C  4.78400 4.77900 28.37400
C  3.85500 5.66200 27.64900
C  4.18400 5.41700 26.26000
C  5.31900 4.46300 26.24400
C  2.76300 6.51900 28.30800
C  3.60500 5.97500 24.95200
O  3.89200 5.56200 23.82700
C  2.53700 7.04400 25.11200
N  7.49200 2.24300 26.04100
C  6.85500 2.80600 25.03300
C  7.19000 2.13700 23.72400
C  8.38400 1.22400 24.12800
C  8.43600 1.34500 25.64000
C  5.89600 1.49000 23.14600
C  9.70600 1.40700 23.47000
C  10.71500 2.38900 24.14600
N  8.69600 1.49200 28.63600
C  9.46500 0.71500 27.83600
C  10.40100 -0.01700 28.63900
C  10.18900 0.39800 29.96300
C  9.09300 1.29500 29.89800
C  11.45000 -0.93900 28.06000
C  10.65700 0.31500 31.31200
O  11.56900 -0.36400 31.82300
C  9.78300 1.25200 32.08800
C  9.17300 0.38700 33.16600
O  7.99000 -0.01000 33.19700
O  10.04000 0.34700 34.27800
C  9.56600 -0.40500 35.39500
H  4.20000 5.19000 30.32100
H  5.69700 4.20300 24.17600
H  9.94600 -0.04300 25.92800
H  6.90100 2.53100 33.34300
H  5.59900 4.98000 32.52300
H  4.67900 2.61300 33.75800
H  4.15100 2.45900 32.05800
H  3.74300 3.92400 32.99800
H  7.74200 5.29700 33.49400
H  8.97400 4.53900 32.53300
H  9.50900 4.75600 34.92700
H  9.79400 3.33500 34.08200
H  2.73700 6.25900 29.36600
H  1.85400 6.03500 27.95100
H  2.70900 7.60500 28.23100
H  2.99800 7.93400 25.54200
H  1.67500 6.68400 25.67300
H  2.10400 7.27600 24.13900
H  7.48700 2.91200 23.01700
H  8.15000 0.17700 23.93200
H  5.01700 1.81700 23.70200
H  6.06200 0.41600 23.06700
H  5.78700 1.89100 22.13900
H  9.39500 1.89200 22.54500
H  10.14100 0.42000 23.31000
H  10.25000 2.99600 24.92300
H  11.05700 3.06200 23.35900
H  11.49300 1.80100 24.63300
H  12.20300 -0.41200 27.47300
H  10.99700 -1.75600 27.50000
H  11.93100 -1.33500 28.95400
H  10.53800 1.93200 32.48200
H  8.76000 0.10100 35.92700
H  10.37600 -0.61600 36.09300
H  9.15200 -1.37800 35.13100
Mg 41.99300 41.47600 26.35700
C  40.90900 43.76900 28.73900
C  43.37500 39.55500 28.78400
C  43.08300 39.33200 23.93900
C  40.94800 43.62500 23.87200
N  42.19100 41.77800 28.54700
C  41.53000 42.67900 29.36900
C  41.85000 42.41000 30.82200
C  42.87300 41.17300 30.76500
C  42.81400 40.75000 29.27600
C  44.32000 41.44000 31.36600
C  40.46000 42.16400 31.75300
C  40.44400 43.02000 33.07700
H  39.83800 42.37800 34.33500
N  42.97600 39.64400 26.44500
C  43.44300 39.00700 27.53400
C  44.08800 37.77100 27.14200
C  43.97000 37.64600 25.74900
C  43.27400 38.89000 25.29000
C  44.52900 36.70500 28.19700
C  44.43200 36.49500 24.82700
O  44.15200 36.48300 23.69100
C  45.38200 35.40800 25.28100
N  42.04100 41.47600 24.22100
C  42.54600 40.51700 23.41400
C  42.35800 40.75400 21.96900
C  41.47600 42.07300 22.00000
C  41.47900 42.42700 23.47600
C  43.58900 40.80700 21.21000
C  39.95100 41.90600 21.45600
C  39.24200 40.57600 21.87300
N  41.21700 43.38100 26.26100
C  40.82900 44.13800 25.13000
C  40.37400 45.42900 25.57800
C  40.40700 45.33000 26.96400
C  40.93100 44.10100 27.35300
C  39.81000 46.48900 24.68600
C  40.12600 45.99900 28.19800
O  39.71300 47.09900 28.38000
C  40.44300 45.05600 29.39300
C  41.47700 45.71500 30.18500
O  42.60700 45.94100 29.74700
O  40.94500 46.11900 31.39000
C  41.95400 46.60900 32.26800
H  43.81100 38.96900 29.59600
H  43.42700 38.64700 23.16100
H  40.64500 44.22100 23.01000
H  42.36800 43.28800 31.20800
H  42.52000 40.45700 31.50600
H  45.02100 40.97400 30.67400
H  44.33400 40.95800 32.34300
H  44.50600 42.51400 31.37200
H  40.36700 41.11300 32.02600
H  39.54800 42.40400 31.20700
H  39.88100 43.93000 32.87400
H  41.48000 43.32300 33.22700
H  44.03400 35.76300 27.96000
H  44.28100 37.07700 29.19100
H  45.61200 36.59100 28.14500
H  46.36000 35.84200 25.49000
H  45.47100 34.61000 24.54400
H  44.86700 34.78600 26.01300
H  41.78500 39.87200 21.68100
H  42.03400 42.81000 21.42400
H  43.48300 41.69900 20.59300
H  43.69600 39.89700 20.61800
H  44.43300 40.88600 21.89500
H  40.02200 42.06100 20.37900
H  39.29500 42.64900 21.90900
H  39.44400 39.76700 21.17100
H  38.16200 40.71500 21.92900
H  39.49400 40.24200 22.88000
H  39.21500 46.08500 23.86700
H  40.64200 47.11000 24.35300
H  39.13100 47.12100 25.25800
H  39.48500 44.95900 29.90300
H  42.57700 47.34000 31.75300
H  42.38500 45.75800 32.79600
H  41.38500 47.26800 32.92400

