158

Mg 45.18300 5.19900 47.00900
C  42.85500 7.83400 46.58400
C  42.55000 2.99300 46.40900
C  47.43300 2.88800 46.56300
C  47.83200 7.65500 46.85500
N  43.00900 5.46900 46.45800
C  42.24400 6.61400 46.30800
C  40.73400 6.37700 46.28200
C  40.65600 4.80000 46.11000
C  42.11000 4.38000 46.38600
C  39.56900 4.13700 47.17700
C  39.85800 7.09500 45.13900
C  40.62000 7.44600 43.78000
H  39.88400 6.96100 42.49000
N  44.99400 3.18000 46.59200
C  43.87800 2.45200 46.49800
C  44.20800 1.02700 46.43100
C  45.66200 1.02000 46.24000
C  46.11400 2.35500 46.45800
C  43.19400 -0.07100 46.29500
C  46.43100 -0.22600 45.81300
O  45.85200 -1.30800 45.57000
C  48.00400 -0.12000 45.49900
N  47.31100 5.29200 46.86300
C  47.99300 4.12000 46.76200
C  49.54100 4.28300 46.94800
C  49.71800 5.79200 47.01500
C  48.26800 6.27800 46.89100
C  50.19100 3.61000 48.23300
C  50.74300 6.34600 46.01600
C  51.98000 6.97200 46.63100
N  45.35000 7.27100 46.84200
C  46.45400 8.11700 46.82900
C  45.99600 9.52000 46.82900
C  44.59300 9.37000 46.90700
C  44.24900 8.06900 46.79100
C  46.84400 10.71800 46.92500
C  43.46000 10.18700 47.04300
O  43.36200 11.37400 47.33200
C  42.23100 9.18400 46.66200
C  41.22400 9.18300 47.78000
O  41.18200 8.38700 48.69100
O  40.36200 10.29000 47.53400
C  39.29500 10.56200 48.47300
H  41.78500 2.25600 46.15400
H  48.23100 2.15900 46.40900
H  48.65800 8.34000 47.05800
H  40.15900 6.64200 47.17000
H  40.29900 4.65300 45.09100
H  39.05600 4.83500 47.83800
H  40.06900 3.41000 47.81600
H  38.79000 3.56300 46.67500
H  39.69800 8.11000 45.50100
H  38.89900 6.58500 45.04900
H  41.56100 6.93000 43.97400
H  40.75000 8.52800 43.74800
H  43.38600 -0.69300 45.42100
H  42.16700 0.28500 46.21400
H  43.16500 -0.65100 47.21700
H  48.61000 -0.09600 46.40500
H  48.12200 0.80600 44.93700
H  48.26000 -0.96900 44.86400
H  50.03200 3.85300 46.07500
H  49.91400 6.15700 48.02400
H  51.08000 4.15800 48.54800
H  50.47000 2.58700 47.98100
H  49.34900 3.59200 48.92500
H  50.19300 7.12100 45.48100
H  50.96000 5.53400 45.32200
H  51.75700 8.03900 46.65300
H  52.86900 6.69300 46.06600
H  52.11300 6.56900 47.63600
H  47.74500 10.59000 47.52500
H  46.26500 11.57200 47.27700
H  47.21200 10.99700 45.93700
H  41.77800 9.53800 45.73600
H  39.10900 11.63500 48.51100
H  39.63600 10.31800 49.47900
H  38.40600 9.99000 48.20700
Mg 30.10200 57.88000 40.85600
C  27.44000 56.08300 39.54800
C  32.30900 55.51200 39.36000
C  32.70700 59.95800 41.37700
C  27.79000 60.24700 41.84900
N  29.84000 56.00400 39.63800
C  28.68900 55.46900 39.22900
C  28.86800 54.21400 38.37700
C  30.33200 53.80100 38.78400
C  30.89400 55.18900 39.27600
C  30.48600 52.80700 40.01900
C  28.69000 54.50200 36.96400
C  27.71100 53.53800 36.25900
H  26.92400 54.20200 35.11600
N  32.20800 57.67700 40.45900
C  32.86100 56.61900 39.89400
C  34.32600 56.90000 39.84100
C  34.42700 58.21600 40.44500
C  33.12200 58.70800 40.80500
C  35.32400 55.91600 39.24000
C  35.70600 58.97100 40.64600
O  36.75800 58.51900 40.20400
C  35.89000 60.22600 41.48200
N  30.24600 59.75500 41.68000
C  31.45700 60.46200 41.71100
C  31.20200 61.80200 42.48300
C  29.68200 61.88300 42.51600
C  29.14800 60.50000 42.00800
C  31.82200 61.85200 43.87900
C  29.09600 63.22900 41.99500
C  29.09900 64.31700 43.06100
N  28.01800 58.15500 40.85500
C  27.17000 59.13600 41.22200
C  25.78600 58.90500 40.98800
C  25.86400 57.64400 40.28300
C  27.26400 57.29900 40.27500
C  24.64200 59.65400 41.42200
C  25.07300 56.58700 39.59100
O  23.90400 56.58200 39.23600
C  26.03800 55.51800 39.10400
C  25.60900 54.31000 39.82200
O  25.68800 54.10600 41.04900
O  24.88600 53.48300 38.93700
C  24.48000 52.11100 39.49000
H  32.93300 54.70500 38.97000
H  33.43300 60.77200 41.44200
H  27.12300 61.05400 42.15700
H  28.23400 53.41000 38.75000
H  30.96600 53.47700 37.95900
H  30.60000 53.41100 40.92000
H  31.35600 52.22700 39.71300
H  29.61700 52.15700 40.11800
H  29.67900 54.52000 36.50700
H  28.33700 55.51200 36.75500
H  26.90100 53.27000 36.93700
H  28.34700 52.72800 35.90300
H  35.74300 56.34600 38.33100
H  34.92000 54.97500 38.86700
H  36.11500 55.76900 39.97600
H  35.50000 60.95800 40.77500
H  36.95400 60.39300 41.65200
H  35.26500 60.23000 42.37500
H  31.63300 62.66300 41.97100
H  29.37200 61.87700 43.56000
H  32.74400 61.27300 43.91900
H  31.13600 61.56600 44.67700
H  32.22900 62.85500 44.00700
H  28.11000 63.13600 41.54100
H  29.84500 63.58600 41.28800
H  29.48000 65.30000 42.78400
H  29.45400 64.07400 44.06300
H  28.04200 64.49500 43.26000
H  23.75600 59.06800 41.17700
H  24.63200 60.58600 40.85800
H  24.53700 59.82800 42.49200
H  25.74600 55.31700 38.07400
H  24.59300 51.37700 38.69300
H  23.40100 52.15800 39.63500
H  25.08900 51.65600 40.27200

