158

Mg 35.66100 48.22100 25.29500
C  36.22400 46.44900 28.33900
C  34.43500 50.86300 27.26100
C  35.08400 49.96400 22.48100
C  36.70900 45.36600 23.55800
N  35.22800 48.49200 27.47800
C  35.60600 47.69500 28.58000
C  35.26300 48.36900 29.89100
C  34.44300 49.63400 29.44600
C  34.71800 49.67600 27.95000
C  32.92500 49.61200 29.86700
C  36.55100 48.71400 30.72400
C  36.53500 48.24600 32.18000
H  35.15600 48.14700 32.92500
N  34.92700 50.10200 24.95100
C  34.59700 51.07700 25.87100
C  34.29700 52.29800 25.18800
C  34.45100 52.10000 23.77800
C  34.86500 50.64500 23.68600
C  34.03200 53.52000 25.98800
C  34.37000 53.06500 22.71600
O  34.70200 52.85300 21.56400
C  33.78700 54.51100 22.90000
N  35.89600 47.73100 23.38300
C  35.53100 48.62800 22.39000
C  35.44200 47.87100 21.01100
C  35.93200 46.42300 21.33000
C  36.21300 46.53600 22.79800
C  33.95000 47.93500 20.34400
C  37.12700 45.82600 20.47600
C  36.66600 44.96600 19.29200
N  36.46500 46.39400 25.80100
C  36.83000 45.34300 24.96000
C  37.22400 44.17400 25.80900
C  36.95500 44.61500 27.11400
C  36.56700 45.93400 27.05700
C  37.81500 42.88200 25.33200
C  36.84100 44.12600 28.47300
O  37.10500 43.05400 29.03500
C  36.42000 45.35500 29.27500
C  35.26200 44.96500 30.09500
O  34.08200 44.97800 29.77400
O  35.71300 44.43300 31.30400
C  34.76700 43.77500 32.22500
H  34.04900 51.61400 27.95400
H  34.67900 50.44600 21.58900
H  36.99000 44.46700 23.00500
H  34.59500 47.64200 30.35300
H  34.95200 50.49200 29.88400
H  32.24800 49.68000 29.01500
H  32.82300 50.38400 30.62900
H  32.68500 48.66700 30.35500
H  36.70600 49.79000 30.64800
H  37.44500 48.28600 30.27100
H  37.25100 48.92300 32.64600
H  37.02700 47.27400 32.21600
H  34.95500 53.95400 26.37300
H  33.41500 53.18500 26.82200
H  33.46300 54.27600 25.44600
H  33.66900 55.15400 22.02800
H  34.48500 54.99800 23.58200
H  32.90200 54.52100 23.53600
H  36.19400 48.27900 20.33500
H  35.10700 45.71700 21.24600
H  33.71500 46.87900 20.21000
H  33.95400 48.59600 19.47800
H  33.41400 48.41200 21.16500
H  37.72300 45.21600 21.15500
H  37.75800 46.57600 19.99800
H  35.58700 45.01500 19.14300
H  36.88500 43.90800 19.43600
H  37.05000 45.44000 18.38900
H  37.91700 42.99200 24.25300
H  37.13000 42.09300 25.64300
H  38.66500 42.70800 25.99100
H  37.29500 45.65800 29.85000
H  33.93700 44.42000 32.51300
H  35.28600 43.38600 33.10100
H  34.42900 42.88800 31.69000
Mg -6.53600 25.54600 27.14000
C  -4.95000 27.33600 29.71100
C  -8.06400 23.66200 29.55100
C  -7.75300 23.66100 24.67000
C  -4.44800 27.35400 24.83200
N  -6.45700 25.46700 29.32100
C  -5.75500 26.27600 30.18800
C  -6.06500 25.97200 31.67600
C  -6.85900 24.61600 31.60400
C  -7.19500 24.59100 30.07700
C  -5.89500 23.48500 32.01000
C  -6.92300 27.07600 32.29300
C  -6.67900 27.36600 33.79700
H  -6.69700 26.10700 34.76300
N  -7.78300 23.99300 27.08500
C  -8.37500 23.39200 28.19300
C  -9.35100 22.37300 27.76700
C  -9.25900 22.35100 26.35300
C  -8.29800 23.38400 25.95500
C  -10.25800 21.69200 28.69100
C  -10.10800 21.55300 25.29600
O  -9.98500 21.73400 24.08000
C  -11.03000 20.56400 25.79500
N  -6.08300 25.41400 25.08100
C  -6.85600 24.65300 24.25100
C  -6.45300 24.82500 22.79500
C  -5.57300 26.16400 22.83200
C  -5.30100 26.28500 24.35000
C  -5.69700 23.64200 22.08100
C  -6.36700 27.33700 22.18300
C  -7.28900 28.18000 23.08500
N  -5.06200 27.02700 27.14600
C  -4.31000 27.68500 26.19100
C  -3.48900 28.71500 26.75600
C  -3.69500 28.56800 28.12800
C  -4.65300 27.61400 28.37900
C  -2.64800 29.73200 26.06600
C  -3.26800 29.10600 29.42200
O  -2.33600 29.85300 29.69300
C  -4.12100 28.37400 30.49900
C  -3.22100 27.83000 31.57400
O  -2.48900 26.88300 31.41700
O  -3.36700 28.53700 32.75800
C  -2.56300 28.05100 33.90700
H  -8.53000 23.05200 30.32800
H  -8.04500 23.09600 23.78200
H  -3.86900 27.90400 24.08800
H  -5.19900 25.89700 32.33500
H  -7.70000 24.66500 32.29500
H  -5.58400 23.59900 33.04800
H  -5.13600 23.26500 31.25900
H  -6.51200 22.58600 32.02800
H  -7.96200 26.74800 32.26100
H  -6.77700 27.87900 31.57100
H  -7.37900 28.09600 34.20400
H  -5.68900 27.81600 33.87000
H  -11.26900 21.51600 28.32300
H  -10.48000 22.25900 29.59500
H  -9.92700 20.74800 29.12400
H  -10.54700 19.99000 26.58500
H  -11.41600 19.98700 24.95500
H  -11.83600 21.17300 26.20500
H  -7.43200 24.94500 22.33200
H  -4.61600 26.01100 22.33400
H  -5.10700 23.20800 22.88900
H  -5.09500 24.08400 21.28800
H  -6.48400 23.09100 21.56700
H  -6.98800 26.90500 21.39800
H  -5.58400 27.94100 21.72400
H  -7.32800 27.92200 24.14300
H  -8.25600 28.23500 22.58500
H  -6.95200 29.21300 22.99900
H  -2.46600 29.22900 25.11700
H  -1.66000 29.73400 26.52700
H  -3.16900 30.68800 26.11100
H  -4.47700 29.24700 31.04600
H  -1.54000 28.26900 33.59800
H  -2.79000 26.98800 33.98900
H  -2.87400 28.45700 34.86900

