158

Mg -2.21000 17.01200 26.14300
C  -2.65000 14.91200 28.88600
C  -2.60200 19.72400 28.24200
C  -1.90100 19.08000 23.55800
C  -2.03500 14.23400 24.01700
N  -2.59900 17.27400 28.35200
C  -2.69500 16.24300 29.27700
C  -2.87700 16.79700 30.69000
C  -3.02100 18.30000 30.41500
C  -2.70500 18.45900 28.90700
C  -4.43200 18.84600 30.74000
C  -1.68700 16.56800 31.69300
C  -1.63800 17.27900 33.00700
H  -1.06100 16.44200 34.12500
N  -2.41000 19.08900 25.91100
C  -2.38600 20.00500 26.90800
C  -2.35600 21.29900 26.27400
C  -2.25700 21.18400 24.90100
C  -2.14200 19.73100 24.75900
C  -2.44400 22.60800 27.03900
C  -2.15900 22.15300 23.76400
O  -2.08600 21.71500 22.65300
C  -2.12700 23.70900 23.96500
N  -2.06100 16.73800 24.02500
C  -1.84900 17.73900 23.21200
C  -1.48700 17.21600 21.74700
C  -1.30400 15.64600 22.01400
C  -1.83600 15.52000 23.46400
C  -2.57500 17.48200 20.65400
C  0.11900 15.18300 22.03900
C  0.74100 15.39500 20.63400
N  -2.26000 14.96100 26.34400
C  -2.29400 13.97700 25.39500
C  -2.48900 12.71700 26.05000
C  -2.59300 13.07200 27.41000
C  -2.48900 14.42700 27.53900
C  -2.56200 11.41000 25.40800
C  -2.68000 12.50600 28.68700
O  -2.72100 11.31600 29.08200
C  -2.82800 13.68000 29.70900
C  -1.79700 13.43300 30.73100
O  -0.57900 13.58500 30.60500
O  -2.39800 12.86300 31.82400
C  -1.45200 12.28900 32.85400
H  -2.68100 20.54800 28.95300
H  -1.83500 19.61300 22.60800
H  -2.00000 13.43400 23.27400
H  -3.79600 16.44000 31.15500
H  -2.29100 18.90500 30.95300
H  -4.34900 19.45500 31.64000
H  -5.20600 18.09400 30.89100
H  -4.86800 19.34200 29.87300
H  -0.80600 16.74400 31.07600
H  -1.77600 15.49300 31.84900
H  -2.66500 17.58300 33.21100
H  -0.94200 18.11600 32.95400
H  -3.06700 23.26600 26.43300
H  -1.45600 23.06700 27.07700
H  -2.76100 22.65300 28.08000
H  -1.43800 24.01200 24.75300
H  -3.08400 24.17700 24.19600
H  -1.74500 23.99900 22.98600
H  -0.54400 17.60700 21.36500
H  -1.86000 15.03400 21.30400
H  -2.31200 18.16200 19.84400
H  -3.41200 17.89100 21.22000
H  -2.84900 16.52000 20.22100
H  0.13100 14.12900 22.32000
H  0.70200 15.64200 22.83700
H  0.59600 16.35200 20.13200
H  0.29400 14.69400 19.92900
H  1.80700 15.17900 20.69800
H  -3.07100 11.52900 24.45200
H  -3.07900 10.67600 26.02600
H  -1.59100 10.95200 25.22300
H  -3.80100 13.59100 30.19100
H  -0.84600 11.42800 32.57000
H  -2.08100 12.09100 33.72200
H  -0.74600 13.06800 33.14100
Mg 1.19400 7.92800 25.49100
C  1.63300 9.59600 28.51100
C  1.13700 4.90000 27.30100
C  0.94400 6.35300 22.55900
C  1.12900 10.98600 23.79500
N  1.27100 7.39900 27.64700
C  1.33600 8.24700 28.71700
C  1.37300 7.44700 30.01200
C  1.45800 5.95400 29.57600
C  1.18100 6.13000 28.04200
C  2.76200 5.10900 29.97000
C  0.22600 7.70000 31.01300
C  0.69100 7.89800 32.50300
H  1.99800 7.19200 33.04800
N  1.10600 5.92600 25.00000
C  1.07700 4.82600 25.86900
C  1.05200 3.58300 25.11600
C  0.92100 3.95700 23.73100
C  1.02100 5.45900 23.67900
C  0.97900 2.23400 25.74700
C  0.84100 3.16100 22.44300
O  0.87800 3.68700 21.33100
C  1.02500 1.75600 22.60200
N  0.99500 8.58300 23.43900
C  0.94200 7.72100 22.43500
C  0.86100 8.40400 21.06700
C  0.75200 9.95200 21.50300
C  0.93300 9.87400 23.02000
C  2.03400 8.07800 20.15600
C  -0.65800 10.65300 21.27900
C  -0.54600 11.95700 20.53300
N  1.28500 9.85100 26.00600
C  1.33800 11.01200 25.21300
C  1.50400 12.19000 26.01100
C  1.74400 11.68400 27.34100
C  1.53200 10.26300 27.30300
C  1.61100 13.56600 25.59900
C  2.04900 12.02200 28.76000
O  2.20300 13.09500 29.29500
C  1.83800 10.63800 29.55200
C  3.00000 10.56700 30.46100
O  4.11900 10.28500 30.23400
O  2.65200 11.11500 31.66800
C  3.70200 11.50400 32.59100
H  1.21000 4.01400 27.93600
H  0.90200 5.86200 21.58400
H  0.89500 11.97300 23.39200
H  2.32900 7.71800 30.46100
H  0.68700 5.35700 30.06200
H  3.56800 5.18800 29.24000
H  2.58000 4.03500 29.98900
H  3.07600 5.47900 30.94600
H  -0.56300 6.96500 30.85200
H  -0.27100 8.61800 30.69900
H  -0.13400 7.61900 33.15800
H  0.85800 8.94800 32.74500
H  1.23800 2.26900 26.80500
H  1.68900 1.57600 25.24500
H  0.00900 1.74900 25.63400
H  0.08700 1.33600 22.96300
H  1.82100 1.49900 23.30100
H  1.44100 1.53700 21.61800
H  -0.05900 8.16800 20.53300
H  1.58300 10.50200 21.06100
H  1.75300 7.09200 19.78600
H  2.98800 8.02600 20.68100
H  2.09900 8.74300 19.29500
H  -1.10400 10.93700 22.23200
H  -1.31000 9.95900 20.75100
H  -0.70100 11.78000 19.46900
H  0.47600 12.31500 20.66100
H  -1.30700 12.65600 20.87900
H  2.45700 14.08500 26.04700
H  0.62500 14.03200 25.62000
H  1.88000 13.41800 24.55300
H  1.01700 10.60400 30.26800
H  4.48900 10.75500 32.68200
H  3.28300 11.75800 33.56500
H  4.11900 12.41500 32.16300

