158

Mg 46.66400 34.71700 27.81700
C  45.20400 32.74500 30.40700
C  46.66600 37.36200 30.06000
C  47.48000 36.71400 25.29800
C  45.98900 32.18500 25.50300
N  45.99800 34.98600 29.95300
C  45.75200 33.95100 30.85700
C  45.80400 34.50300 32.30700
C  45.94600 36.06000 32.07300
C  46.23400 36.17000 30.60900
C  44.76100 36.90700 32.58000
C  47.09100 33.92600 33.05100
C  47.03400 33.64500 34.55300
H  45.98800 34.57600 35.36700
N  47.21100 36.68000 27.71400
C  47.09900 37.65800 28.74900
C  47.60700 38.97400 28.24700
C  47.87100 38.68100 26.83900
C  47.52000 37.30800 26.54800
C  47.96000 40.13200 29.17000
C  48.42000 39.65400 25.78400
O  48.60200 39.40300 24.59800
C  48.75900 41.07200 26.28800
N  46.63400 34.52100 25.70300
C  47.00800 35.48800 24.86700
C  46.99100 35.00400 23.42800
C  46.75000 33.47400 23.50300
C  46.42900 33.36700 25.02400
C  45.82700 35.73700 22.69200
C  47.89600 32.57800 22.94200
C  49.19100 32.49000 23.85300
N  45.77300 32.83600 27.90200
C  45.62100 31.98600 26.83200
C  45.09400 30.72800 27.35700
C  44.79600 31.03100 28.77900
C  45.24800 32.34300 29.05600
C  44.80400 29.42700 26.67500
C  44.23600 30.50400 30.03300
O  43.71800 29.42900 30.21300
C  44.35000 31.68600 31.08800
C  44.74700 31.30400 32.47800
O  45.78400 30.84700 32.88700
O  43.62400 31.57600 33.28000
C  43.88000 31.44900 34.74300
H  46.64800 38.17100 30.79300
H  47.65800 37.35100 24.42800
H  45.85500 31.33500 24.83000
H  44.78900 34.32800 32.66300
H  46.82500 36.39300 32.62400
H  45.22900 37.78900 33.01800
H  44.08500 36.38700 33.26000
H  44.15700 37.20400 31.72300
H  47.91300 34.64000 32.99100
H  47.28300 32.96700 32.57100
H  48.00400 33.91800 34.96700
H  46.86000 32.61400 34.86200
H  48.91400 40.60400 28.93700
H  47.93300 39.75800 30.19400
H  47.19100 40.90300 29.11800
H  49.55100 41.17100 27.03100
H  47.85000 41.50300 26.70800
H  49.11700 41.69100 25.46600
H  47.88200 35.15800 22.81900
H  45.89200 33.23600 22.87400
H  45.78300 36.80800 22.89200
H  44.85300 35.34100 22.98000
H  46.06900 35.70400 21.63000
H  48.19600 32.95300 21.96300
H  47.41500 31.60500 22.84800
H  50.04700 32.54800 23.18000
H  49.28000 31.46700 24.22000
H  49.13600 33.37100 24.49100
H  43.75400 29.17500 26.81900
H  45.47000 28.68600 27.11900
H  45.03400 29.62400 25.62800
H  43.40200 32.19500 31.26400
H  43.39200 30.55100 35.12400
H  43.37100 32.33200 35.12900
H  44.88800 31.43500 35.15800
Mg 8.59800 47.73800 25.08700
C  6.49200 47.78600 27.88900
C  11.16100 48.82200 27.21000
C  10.68400 47.95500 22.38700
C  5.94000 47.31000 22.98000
N  8.74200 48.31700 27.38500
C  7.76800 48.12400 28.30400
C  8.32500 48.42400 29.75300
C  9.78600 48.88400 29.43700
C  9.93900 48.71900 27.88400
C  10.18600 50.25300 30.06700
C  8.10900 47.24500 30.74900
C  9.10000 47.02500 31.94300
H  8.41100 46.42000 33.22300
N  10.65200 48.30300 24.78900
C  11.53000 48.67500 25.75100
C  12.82600 48.74300 25.15700
C  12.74600 48.43200 23.80600
C  11.28200 48.27500 23.59900
C  14.03700 49.13000 26.03700
C  13.80600 48.48100 22.80900
O  13.62700 48.21700 21.62800
C  15.30800 48.45400 23.19800
N  8.29700 47.77200 22.87600
C  9.36300 47.69400 22.00600
C  8.83400 47.23800 20.61000
C  7.27800 47.00800 20.85000
C  7.11900 47.33000 22.30900
C  9.40300 48.13900 19.43100
C  6.93000 45.61400 20.43400
C  5.50300 45.36300 19.88200
N  6.68900 47.46800 25.34500
C  5.66100 47.43300 24.39900
C  4.34400 47.43700 25.04100
C  4.68500 47.38700 26.37900
C  6.08900 47.43500 26.52100
C  2.94800 47.46600 24.36000
C  4.07800 47.35200 27.71100
O  2.87800 47.27700 27.98600
C  5.23600 47.58400 28.74300
C  5.16100 46.42400 29.72700
O  5.41900 45.25600 29.47200
O  4.65100 46.84800 30.94500
C  4.26400 45.75300 31.84300
H  11.93700 49.15700 27.90100
H  11.38100 47.78300 21.56400
H  5.03400 47.16700 22.38700
H  7.79600 49.29500 30.14000
H  10.48900 48.12500 29.77900
H  9.31100 50.86500 30.28300
H  10.83800 50.75100 29.35000
H  10.81800 49.94500 30.90000
H  8.14100 46.31000 30.19000
H  7.12200 47.45800 31.16000
H  9.53400 48.00300 32.15300
H  9.96400 46.42500 31.65700
H  13.86600 49.33800 27.09300
H  14.37400 50.09700 25.66200
H  14.86300 48.43700 26.19300
H  15.72200 49.29100 23.76200
H  15.91400 48.27100 22.31100
H  15.46400 47.59200 23.84700
H  9.34100 46.29400 20.41000
H  6.73300 47.67600 20.18300
H  8.57900 48.76600 19.08900
H  9.73800 47.50000 18.61400
H  10.32800 48.61400 19.75900
H  6.86000 44.97400 21.31300
H  7.60700 45.26200 19.65600
H  5.51700 44.52300 19.18800
H  4.98400 46.23300 19.48200
H  4.95900 45.04400 20.77200
H  2.43400 46.57300 24.71500
H  3.06500 47.31000 23.28800
H  2.37400 48.38000 24.51500
H  5.13500 48.54700 29.24200
H  3.67300 46.18900 32.64900
H  5.08100 45.25800 32.36700
H  3.56500 45.06700 31.36400

