158

Mg 44.82600 3.74900 47.48200
C  42.63100 6.52400 47.15700
C  42.10400 1.71400 47.05500
C  46.82100 1.16200 46.86200
C  47.49500 5.98300 47.03900
N  42.65400 4.15600 47.05900
C  42.00000 5.31700 47.12800
C  40.42000 5.01500 47.14100
C  40.34800 3.51000 47.35800
C  41.79900 3.10900 47.17100
C  39.68000 3.08600 48.69900
C  39.74400 5.65000 45.90100
C  40.52300 5.60200 44.58200
H  39.86700 5.05600 43.30800
N  44.49900 1.63900 47.12100
C  43.29100 1.00300 47.07700
C  43.58600 -0.44000 46.95800
C  44.96600 -0.61900 46.84900
C  45.47900 0.76800 46.91700
C  42.54200 -1.55000 46.81900
C  45.60300 -1.92100 46.71600
O  44.84600 -2.92900 46.85700
C  47.09800 -2.21900 46.58900
N  46.82500 3.61000 47.05700
C  47.47300 2.42200 46.92600
C  48.93600 2.57100 46.66300
C  49.17000 4.09600 47.06800
C  47.75700 4.64300 47.05600
C  49.83800 1.55100 47.36600
C  50.12500 4.79500 46.15200
C  51.35500 5.35900 46.79700
N  45.07800 5.87300 47.34600
C  46.21700 6.63600 47.12600
C  45.90300 8.04100 47.19800
C  44.46100 8.04800 47.16600
C  44.03700 6.68800 47.20200
C  46.77300 9.18600 46.98100
C  43.38300 8.87000 47.13000
O  43.29700 10.08000 47.04100
C  42.09200 7.99600 47.12100
C  41.23000 8.36100 48.27100
O  41.31100 7.90500 49.37200
O  40.27500 9.19700 47.80200
C  39.13700 9.37900 48.76200
H  41.25700 1.02500 47.08400
H  47.45100 0.28200 46.71700
H  48.30100 6.71900 47.04700
H  40.09900 5.60700 47.99800
H  39.69700 3.04700 46.61600
H  39.42300 3.92500 49.34500
H  40.47700 2.53600 49.19900
H  38.89800 2.33800 48.56600
H  39.53100 6.68100 46.18400
H  38.81900 5.07700 45.83000
H  41.50100 5.12300 44.62800
H  40.76900 6.64500 44.38200
H  41.55700 -1.08600 46.86100
H  42.41500 -2.31400 47.58600
H  42.54000 -2.00100 45.82700
H  47.51300 -1.78400 45.68000
H  47.13500 -3.30800 46.58300
H  47.61600 -1.86400 47.47900
H  49.06200 2.39400 45.59500
H  49.54400 4.24500 48.08100
H  50.66300 2.11200 47.80500
H  50.22300 0.80500 46.67200
H  49.23200 1.06400 48.13100
H  49.59400 5.58600 45.62300
H  50.54700 3.98600 45.55500
H  51.19300 6.10700 47.57300
H  51.90000 5.90800 46.02900
H  51.93500 4.50800 47.15300
H  46.85300 9.39300 45.91400
H  47.77200 9.07100 47.40000
H  46.29900 10.00400 47.52500
H  41.51900 8.18900 46.21400
H  38.49800 8.56300 48.42400
H  38.68400 10.36000 48.61500
H  39.28600 9.33200 49.84100
Mg 8.68700 47.73000 26.91100
C  6.69200 47.48900 29.79800
C  11.48000 47.89700 28.92900
C  10.70100 48.31900 24.30200
C  5.93800 47.66500 24.97400
N  8.98100 47.76000 29.05600
C  8.06300 47.50600 30.08800
C  8.75600 47.57100 31.47000
C  10.27600 47.81600 31.11100
C  10.25600 47.83800 29.59200
C  10.95900 49.09400 31.71400
C  8.50200 46.32600 32.37000
C  9.53600 45.98700 33.46300
H  9.03100 45.44600 34.79600
N  10.80800 47.83400 26.69600
C  11.78000 47.86700 27.63000
C  13.07900 48.01000 27.05600
C  12.92100 48.19200 25.65400
C  11.43400 48.15100 25.49600
C  14.30400 47.98000 27.92100
C  13.97300 48.44600 24.54200
O  13.66500 48.52900 23.38700
C  15.38300 48.40600 24.79000
N  8.34400 48.21100 24.89800
C  9.31100 48.43500 23.99700
C  8.76300 48.45500 22.55000
C  7.25000 48.06500 22.76000
C  7.14600 47.96100 24.31700
C  8.88400 49.90200 21.84000
C  6.90600 46.65700 22.15700
C  5.90300 46.63100 20.99700
N  6.63700 47.75700 27.30000
C  5.66200 47.63900 26.38900
C  4.32400 47.50800 27.10100
C  4.67100 47.54700 28.45600
C  6.12600 47.57900 28.51400
C  3.00500 47.27900 26.51300
C  4.17700 47.40900 29.79300
O  3.04900 47.36900 30.20200
C  5.49000 47.42300 30.71600
C  5.34100 46.01500 31.31800
O  5.92900 45.01000 31.01600
O  4.65300 46.14500 32.48100
C  4.60300 44.96700 33.36800
H  12.36400 47.90400 29.57000
H  11.36100 48.41500 23.43700
H  5.03100 47.73600 24.37100
H  8.31000 48.49100 31.84600
H  10.83000 46.89900 31.30600
H  11.94400 48.76800 32.04900
H  10.36400 49.70700 32.39200
H  11.14000 49.72800 30.84600
H  8.29300 45.50900 31.68000
H  7.58000 46.50000 32.92400
H  10.19000 46.84200 33.63100
H  10.25100 45.39200 32.89400
H  14.14400 47.42200 28.84400
H  14.51900 49.01800 28.17800
H  15.10200 47.50800 27.34900
H  16.00900 48.69400 23.94600
H  15.81200 47.44200 25.06400
H  15.61600 49.01800 25.66200
H  9.37000 47.77900 21.94900
H  6.61800 48.84600 22.33800
H  9.52600 50.62900 22.33700
H  7.97100 50.47900 21.69300
H  9.34200 49.61900 20.89200
H  6.60600 45.97600 22.95400
H  7.84400 46.15900 21.91200
H  6.58400 46.68500 20.14700
H  5.20400 47.46400 21.06600
H  5.36700 45.68300 20.96100
H  2.29600 48.05000 26.81800
H  2.57000 46.36000 26.90600
H  2.93400 47.17700 25.43000
H  5.42300 48.17700 31.50100
H  4.83300 45.37100 34.35300
H  5.24800 44.13500 33.08700
H  3.62800 44.48200 33.40800

