158

Mg 8.81000 2.70300 27.88100
C  10.17700 1.16700 30.80600
C  7.01300 4.77300 29.93100
C  7.64100 4.19900 25.14600
C  10.45400 0.32800 25.91700
N  8.70400 2.98500 30.18600
C  9.40000 2.32400 31.13400
C  9.04300 2.86100 32.50100
C  7.96300 3.91100 32.18200
C  7.73800 3.78600 30.67200
C  6.60600 3.65100 32.91400
C  10.27400 3.27600 33.30200
C  10.10200 4.11700 34.55800
H  10.94500 3.65400 35.77000
N  7.42200 4.25500 27.57500
C  6.79500 4.99400 28.52600
C  5.95900 6.06100 27.91500
C  6.09100 5.91200 26.51800
C  7.11100 4.76800 26.35100
C  5.25000 7.12200 28.70700
C  5.39400 6.71100 25.36400
O  5.68700 6.54500 24.17400
C  4.22300 7.51200 25.70700
N  9.05400 2.33100 25.83100
C  8.43700 3.14100 24.84900
C  8.88500 2.73600 23.41900
C  9.54700 1.33200 23.67900
C  9.78700 1.32900 25.21300
C  7.67000 2.51400 22.44500
C  10.95900 1.13300 22.93000
C  11.03100 0.34500 21.62300
N  9.95700 0.99800 28.23500
C  10.64900 0.21600 27.32900
C  11.27900 -0.89000 28.04800
C  11.20000 -0.46500 29.39800
C  10.37200 0.64500 29.52300
C  12.08300 -2.10500 27.55800
C  11.69400 -0.76800 30.74300
O  12.49600 -1.55600 31.16200
C  11.00400 0.25900 31.73000
C  10.00900 -0.48300 32.59100
O  9.11800 -1.29200 32.17500
O  10.39900 -0.45700 33.89600
C  9.74100 -1.34800 34.80300
H  6.69100 5.64800 30.50000
H  7.45900 4.83800 24.28000
H  10.79500 -0.41400 25.19200
H  8.57300 2.09900 33.12200
H  8.38100 4.87000 32.48800
H  5.80100 3.52800 32.19000
H  6.33600 4.51700 33.51900
H  6.65100 2.82100 33.61900
H  10.86700 3.84500 32.58500
H  10.95500 2.45900 33.53800
H  9.10400 4.34200 34.93600
H  10.50700 5.07800 34.24300
H  5.39600 8.11500 28.28200
H  5.40200 7.07100 29.78500
H  4.19900 6.85700 28.59100
H  4.48600 8.42000 26.24800
H  3.64000 6.90900 26.40300
H  3.54400 7.81700 24.91000
H  9.56800 3.43000 22.92900
H  8.97300 0.44700 23.40400
H  7.56000 1.45400 22.21700
H  7.68900 3.29600 21.68500
H  6.73700 2.75600 22.95600
H  11.62900 0.72600 23.68800
H  11.37500 2.10300 22.65500
H  10.07800 0.48900 21.11300
H  11.06700 -0.73300 21.78300
H  11.93000 0.48000 21.02200
H  13.12100 -1.80900 27.71200
H  11.89900 -2.00600 26.48800
H  11.72900 -3.03700 27.99800
H  11.73400 0.81800 32.31600
H  9.02000 -0.77600 35.38700
H  10.56500 -1.54300 35.48800
H  9.40200 -2.28300 34.35600
Mg 48.04300 34.31800 27.22300
C  46.19100 32.93000 29.86900
C  48.40900 37.19400 29.14900
C  48.94800 36.07900 24.48300
C  47.13700 31.66500 25.15300
N  47.35200 35.01100 29.19800
C  46.75000 34.17700 30.17500
C  46.94500 34.74800 31.59200
C  47.33000 36.20300 31.25000
C  47.79400 36.13600 29.78100
C  46.21100 37.23200 31.41400
C  48.13000 33.89500 32.25300
C  48.05000 33.70900 33.74700
H  47.17000 34.75800 34.53300
N  48.68800 36.28900 26.95200
C  48.78400 37.34100 27.81600
C  49.31200 38.56300 27.17300
C  49.52100 38.21000 25.77700
C  49.03500 36.78100 25.72000
C  49.59400 39.89300 27.92400
C  50.00800 39.12600 24.59000
O  50.16000 38.71900 23.45800
C  50.51900 40.50500 24.82700
N  47.88900 33.98700 25.09800
C  48.43700 34.81600 24.19800
C  48.64300 34.25800 22.78500
C  47.99800 32.82900 22.96900
C  47.64300 32.80500 24.49300
C  48.13600 35.10500 21.56700
C  48.96700 31.72300 22.59100
C  50.26200 31.64200 23.40900
N  46.98500 32.57600 27.41600
C  46.75500 31.56600 26.51700
C  46.03500 30.52400 27.22500
C  45.63800 31.07400 28.50800
C  46.33800 32.33200 28.61900
C  45.85100 29.17500 26.70800
C  44.91400 30.82000 29.67100
O  44.23300 29.86900 29.99400
C  45.08000 32.13700 30.52000
C  45.29500 31.72300 31.90600
O  46.08800 30.86600 32.30600
O  44.46300 32.40400 32.73700
C  44.35700 31.95300 34.14400
H  48.62200 38.12400 29.68200
H  49.22500 36.66100 23.60200
H  46.70000 30.92300 24.48100
H  46.00600 34.66400 32.13900
H  48.25200 36.53200 31.72900
H  46.75800 38.16900 31.51600
H  45.50700 37.01700 32.21800
H  45.64600 37.36500 30.49200
H  49.01400 34.50000 32.05300
H  48.26200 32.94400 31.73700
H  49.06500 33.86700 34.11000
H  47.75900 32.67000 33.90300
H  50.34700 40.54300 27.47800
H  49.90400 39.60500 28.92900
H  48.59900 40.32000 28.05200
H  51.49400 40.41200 25.30500
H  49.74100 41.09500 25.31200
H  50.79700 40.88800 23.84500
H  49.72800 34.24800 22.67500
H  47.12700 32.59400 22.35900
H  47.38500 35.86800 21.77500
H  47.68900 34.45200 20.81700
H  49.00200 35.61500 21.14600
H  49.27000 31.99400 21.57900
H  48.47700 30.76900 22.39600
H  50.37500 32.45900 24.12200
H  51.11500 31.63800 22.73000
H  50.26700 30.70700 23.97000
H  45.45100 28.54800 27.50500
H  46.81800 28.80000 26.37100
H  45.09400 29.09900 25.92700
H  44.13600 32.66900 30.40000
H  44.06100 30.90400 34.14400
H  43.61500 32.59600 34.61800
H  45.34900 32.07000 34.58000

