158

Mg 30.59800 57.79300 39.96300
C  27.93100 55.40500 39.12900
C  32.84600 55.26600 39.19800
C  32.95400 60.07700 39.84100
C  28.10600 60.27600 39.85200
N  30.42700 55.67800 39.22700
C  29.23100 54.91800 39.05300
C  29.63700 53.45800 38.66800
C  31.04400 53.43500 39.31300
C  31.48700 54.82400 39.24800
C  31.00500 52.86700 40.71900
C  29.69800 53.33200 37.09900
C  28.47900 52.67100 36.46300
H  27.55400 53.38200 35.41000
N  32.60100 57.67400 39.76800
C  33.33800 56.58700 39.33800
C  34.77200 56.95100 39.21700
C  34.84700 58.33600 39.40700
C  33.45100 58.75300 39.69400
C  35.88000 56.04400 38.96000
C  36.17100 59.19300 39.29000
O  37.24300 58.71100 38.99800
C  36.20400 60.68700 39.51000
N  30.60000 59.86200 39.92400
C  31.72300 60.62800 39.98700
C  31.42500 62.08800 40.20900
C  29.84400 62.21800 40.00800
C  29.46900 60.68500 39.90000
C  31.92500 62.65300 41.56600
C  29.35300 63.01200 38.78700
C  28.48800 64.26800 39.01300
N  28.43400 57.86200 39.72400
C  27.61300 58.96800 39.62900
C  26.23500 58.54500 39.42800
C  26.30700 57.17500 39.24500
C  27.64300 56.81500 39.39200
C  25.08800 59.47800 39.27600
C  25.49300 55.96400 38.96700
O  24.29500 55.77300 38.75700
C  26.56000 54.75300 38.87300
C  26.06800 53.59200 39.68800
O  26.60200 53.24400 40.75200
O  25.02900 52.91800 39.06400
C  24.57400 51.66300 39.64700
H  33.57500 54.45500 39.14000
H  33.69500 60.87600 39.92000
H  27.26800 60.97200 39.93400
H  28.97100 52.69300 39.06500
H  31.59400 52.67900 38.75200
H  30.02000 53.09600 41.12500
H  31.82300 53.29100 41.30200
H  31.05200 51.78100 40.79800
H  30.55200 52.72500 36.79900
H  29.65800 54.27800 36.55900
H  27.85200 52.18900 37.21400
H  28.89600 51.88700 35.83200
H  36.43100 56.41400 38.09500
H  35.71600 54.96700 38.93300
H  36.50200 56.28900 39.82100
H  35.52800 60.77000 40.36100
H  35.92400 61.22400 38.60400
H  37.22400 60.93100 39.80600
H  31.99700 62.66000 39.47700
H  29.49500 62.60200 40.96600
H  31.18200 62.93600 42.31100
H  32.56100 63.53000 41.44600
H  32.56400 61.95600 42.10700
H  28.81300 62.35300 38.10700
H  30.21400 63.24200 38.16000
H  28.38800 64.58400 40.05200
H  27.42900 64.17400 38.77400
H  28.84500 65.12300 38.43900
H  24.78700 59.87900 40.24400
H  24.27800 59.00300 38.72200
H  25.36200 60.37800 38.72500
H  26.44900 54.42200 37.84000
H  25.38200 50.94000 39.75600
H  23.87100 51.07600 39.05600
H  24.16500 51.80800 40.64700
Mg -2.07700 34.12600 27.08400
C  -3.69100 32.47800 29.73200
C  -0.25500 35.95500 29.31200
C  -0.69400 35.74700 24.44400
C  -3.84300 31.93100 24.80000
N  -2.04600 34.16900 29.27600
C  -2.79700 33.49400 30.19200
C  -2.25100 33.72000 31.66200
C  -1.34200 34.95400 31.50900
C  -1.16300 35.04000 29.91500
C  -1.73700 36.27900 32.20700
C  -1.53200 32.44000 32.16600
C  -0.92700 32.55800 33.62300
H  -1.61400 31.60400 34.64800
N  -0.68900 35.67000 26.90100
C  -0.00800 36.30700 27.90300
C  0.93900 37.31400 27.40600
C  0.82900 37.29200 26.01200
C  -0.25500 36.17200 25.72500
C  1.84600 38.11000 28.29700
C  1.59700 38.07000 24.95500
O  1.31800 37.96400 23.76300
C  2.64600 39.03600 25.36200
N  -2.52600 34.09400 24.87400
C  -1.62500 34.73200 24.02200
C  -1.70800 34.22200 22.58300
C  -2.51500 32.83700 22.78300
C  -3.03300 32.94900 24.21200
C  -2.33800 35.29900 21.60900
C  -1.69100 31.54200 22.56700
C  -0.27400 31.39300 23.13100
N  -3.60600 32.66200 27.19100
C  -4.19300 31.86400 26.18100
C  -4.98900 30.83900 26.82400
C  -4.81100 31.10600 28.19400
C  -3.96300 32.17200 28.39300
C  -5.90500 29.85500 26.17700
C  -5.20600 30.65000 29.49100
O  -5.92400 29.69300 29.80800
C  -4.50900 31.47900 30.53500
C  -5.59400 32.10300 31.32300
O  -6.29900 33.01900 30.94800
O  -5.83900 31.43600 32.49400
C  -7.03700 31.84700 33.22200
H  0.41000 36.42500 30.04000
H  -0.11400 36.30000 23.70200
H  -4.23800 31.05000 24.28900
H  -3.12100 33.91100 32.29100
H  -0.31700 34.74200 31.81400
H  -0.90700 36.82000 32.65900
H  -2.30300 35.90700 33.06100
H  -2.33900 37.00400 31.65900
H  -0.57600 32.36000 31.64800
H  -2.06100 31.51100 31.95300
H  -1.05400 33.56300 34.02500
H  0.15700 32.44100 33.61900
H  2.02000 39.10500 27.88800
H  2.81900 37.62000 28.27600
H  1.42700 38.16400 29.30200
H  2.12300 39.85200 25.85900
H  3.11500 39.41900 24.45600
H  3.42800 38.60200 25.98600
H  -0.72000 33.92300 22.23200
H  -3.30700 32.89700 22.03700
H  -1.56000 35.57800 20.89900
H  -2.73800 36.24000 21.98800
H  -3.17400 34.84400 21.07800
H  -1.59500 31.48400 21.48300
H  -2.28900 30.65000 22.75200
H  0.32700 31.37700 22.22200
H  -0.17400 30.36300 23.47600
H  0.00000 32.15400 23.86100
H  -6.89800 30.29400 26.27600
H  -5.78800 28.96100 26.79000
H  -5.75900 29.58200 25.13200
H  -3.95400 30.83600 31.21800
H  -6.67300 32.18700 34.19100
H  -7.78800 31.07400 33.38200
H  -7.64100 32.65400 32.80600

