158

Mg -1.89500 16.80300 25.54100
C  -2.35800 14.32400 28.07600
C  -2.68400 19.12500 27.87600
C  -1.91700 18.96800 23.01700
C  -1.69900 14.12500 23.17800
N  -2.34400 16.69900 27.77200
C  -2.43300 15.63100 28.62900
C  -2.82800 16.07200 30.02100
C  -2.94400 17.64700 29.91300
C  -2.65000 17.85500 28.42500
C  -4.20000 18.36100 30.37900
C  -1.89300 15.56800 31.13500
C  -1.84200 16.32600 32.45100
H  -1.44500 15.47700 33.68100
N  -2.32000 18.79600 25.40800
C  -2.53100 19.58500 26.53100
C  -2.53800 20.92000 25.97800
C  -2.48100 20.87200 24.51600
C  -2.24000 19.49600 24.24700
C  -2.86300 22.06400 26.95100
C  -2.66200 21.99800 23.51900
O  -2.50500 21.85700 22.32600
C  -2.70600 23.49700 24.12600
N  -1.87300 16.53900 23.39300
C  -1.77600 17.67700 22.59000
C  -1.62100 17.19200 21.13900
C  -1.41700 15.71300 21.26500
C  -1.73500 15.45300 22.67600
C  -2.73000 17.69900 20.16600
C  -0.02800 15.08900 20.81500
C  1.09800 15.54300 21.73300
N  -2.03600 14.64400 25.57300
C  -2.00300 13.76600 24.50000
C  -2.16400 12.41900 24.96500
C  -2.20000 12.55100 26.40100
C  -2.12300 13.92600 26.69100
C  -2.35200 11.13900 24.31200
C  -2.31200 11.88100 27.58300
O  -2.55600 10.68800 27.79700
C  -2.20400 12.93300 28.73300
C  -0.94700 12.80300 29.45800
O  0.08700 13.46100 29.25500
O  -1.06500 11.82400 30.36700
C  -0.07100 11.79900 31.44500
H  -2.83800 19.94900 28.57600
H  -1.83100 19.70100 22.21200
H  -1.74600 13.27700 22.49100
H  -3.80400 15.75200 30.38600
H  -2.12800 18.06500 30.50300
H  -4.66300 18.84300 29.51900
H  -3.90100 19.08400 31.13900
H  -5.02300 17.74500 30.74200
H  -0.93400 15.58800 30.61700
H  -2.15900 14.54400 31.39500
H  -2.72600 16.95700 32.54600
H  -0.99600 17.01200 32.41100
H  -3.20900 21.79900 27.94900
H  -3.62000 22.76200 26.59400
H  -1.98000 22.69700 27.04400
H  -1.79000 23.53500 24.71600
H  -3.62300 23.68900 24.68400
H  -2.42600 24.27300 23.41500
H  -0.69600 17.64800 20.78600
H  -2.17900 15.18000 20.69700
H  -2.25700 18.08200 19.26100
H  -3.27000 18.52000 20.63800
H  -3.49800 16.95500 19.95700
H  0.15700 15.24000 19.75200
H  -0.18400 14.02800 21.01300
H  1.23700 14.84500 22.55900
H  0.89900 16.55300 22.09400
H  2.00700 15.50200 21.13300
H  -1.39200 10.64100 24.17500
H  -2.82800 11.30200 23.34500
H  -2.88500 10.45400 24.97200
H  -3.12800 12.76400 29.28600
H  -0.50800 11.89700 32.43800
H  0.76100 12.49100 31.31300
H  0.44800 10.84200 31.49600
Mg 48.02600 34.86600 27.91400
C  45.95900 33.22000 30.15300
C  48.59100 37.19400 30.11900
C  49.15400 36.79700 25.35600
C  47.16500 32.41700 25.49500
N  47.27900 35.16800 29.85500
C  46.61400 34.30900 30.71300
C  46.68300 34.69300 32.16500
C  47.10500 36.23100 31.96300
C  47.71500 36.25600 30.56300
C  45.94500 37.15700 32.21300
C  47.65600 33.77200 33.05500
C  48.56800 34.46100 34.14000
H  47.92700 35.54300 35.04100
N  48.87100 36.73400 27.78400
C  49.05100 37.57100 28.83900
C  49.85800 38.68200 28.44200
C  49.87200 38.66300 27.06800
C  49.25000 37.36200 26.66600
C  50.56500 39.57000 29.48600
C  50.44300 39.68000 26.05500
O  50.53200 39.42900 24.78200
C  50.92900 41.02500 26.46600
N  47.99900 34.65000 25.69600
C  48.61700 35.61000 24.91400
C  48.68100 35.12800 23.47500
C  48.15000 33.67100 23.44700
C  47.73100 33.58700 24.97600
C  47.98200 36.11400 22.45800
C  49.15300 32.58000 22.96000
C  50.25900 32.07000 23.96400
N  46.95500 33.08800 27.84900
C  46.63900 32.19500 26.85900
C  45.91400 31.04500 27.43300
C  45.47300 31.49700 28.65500
C  46.14800 32.76400 28.87600
C  45.45600 29.86100 26.71600
C  44.71700 31.14700 29.75400
O  44.02300 30.16200 29.99100
C  44.91000 32.30600 30.76700
C  45.14200 31.84200 32.10700
O  46.09900 31.16000 32.47600
O  44.20000 32.29300 32.90400
C  44.35400 31.94900 34.32100
H  48.89100 37.88600 30.90800
H  49.37900 37.47900 24.53400
H  47.07400 31.56700 24.81600
H  45.69400 34.60300 32.61400
H  47.95700 36.40900 32.62000
H  45.98000 37.54200 33.23200
H  45.00700 36.60500 32.27000
H  45.93200 37.99800 31.51900
H  48.32000 33.33700 32.30800
H  47.24500 32.84500 33.45300
H  49.39700 34.94100 33.61900
H  48.94400 33.69700 34.82100
H  50.68400 40.60200 29.15400
H  51.54700 39.11500 29.62000
H  50.15600 39.35200 30.47300
H  50.17500 41.58200 27.02200
H  51.43600 41.49900 25.62600
H  51.71300 40.79400 27.18700
H  49.73900 35.19700 23.22000
H  47.26600 33.55500 22.82000
H  47.05900 35.73300 22.01900
H  48.78800 36.26800 21.74000
H  47.83400 37.00600 23.06600
H  49.79900 33.02200 22.20100
H  48.56900 31.80100 22.46900
H  50.37600 31.01900 23.69900
H  50.01600 32.05000 25.02600
H  51.24600 32.49200 23.77200
H  46.27500 29.28000 26.29300
H  44.87400 30.32500 25.92000
H  44.87100 29.24700 27.40000
H  44.01700 32.93000 30.78100
H  43.37400 32.15000 34.75300
H  45.10300 32.63600 34.71700
H  44.58200 30.93600 34.65400

