158

Mg 36.30000 49.55200 24.75900
C  36.38400 47.89200 27.68300
C  34.86300 52.22300 26.32100
C  35.50900 50.79100 21.72500
C  37.38000 46.53500 23.14200
N  35.60800 50.01500 26.71100
C  35.81500 49.17300 27.78700
C  35.40300 49.75800 29.18700
C  34.65300 51.02100 28.67400
C  35.07000 51.18800 27.13100
C  33.07800 51.15700 28.86800
C  36.64900 50.19000 30.08100
C  36.60000 49.95500 31.56000
H  35.29000 49.98400 32.30700
N  35.37800 51.36800 24.16600
C  34.98400 52.41700 24.94100
C  34.64000 53.54200 24.11900
C  34.66300 53.05300 22.75700
C  35.15500 51.65400 22.83300
C  34.25700 54.84200 24.68100
C  34.40500 53.81900 21.48400
O  34.57100 53.37500 20.32800
C  33.79300 55.19900 21.53100
N  36.55500 48.86800 22.79200
C  36.08800 49.50500 21.68100
C  36.42700 48.75800 20.37600
C  37.37600 47.57300 20.85100
C  37.12400 47.61700 22.38800
C  35.15400 48.31600 19.57900
C  38.89600 47.76300 20.62200
C  39.68600 46.54100 20.21000
N  36.79700 47.65400 25.27300
C  37.25800 46.52400 24.54500
C  37.59500 45.46800 25.45100
C  37.27400 45.98700 26.70300
C  36.84900 47.32100 26.54700
C  38.13200 44.14400 25.05400
C  37.23600 45.68300 28.08200
O  37.45400 44.67300 28.72700
C  36.86500 46.88100 28.76900
C  35.77300 46.53400 29.74600
O  34.56400 46.39300 29.49600
O  36.30800 46.29700 31.01300
C  35.38600 45.69000 32.01600
H  34.42000 53.02800 26.91100
H  35.18400 51.18200 20.75900
H  37.73100 45.59500 22.71300
H  34.66900 49.16100 29.72900
H  35.15600 51.91600 29.04000
H  32.82800 52.21800 28.89200
H  32.64300 50.50100 29.62200
H  32.64600 50.96600 27.88500
H  37.07800 51.17900 29.92300
H  37.45300 49.52300 29.76800
H  37.26500 50.65300 32.06800
H  37.06900 49.00200 31.80400
H  34.55000 54.92200 25.72800
H  33.17000 54.92200 24.69300
H  34.84700 55.54900 24.09800
H  32.81500 55.07300 21.99500
H  33.78600 55.63300 20.53100
H  34.51300 55.85200 22.02400
H  36.89200 49.48200 19.70800
H  37.08500 46.60700 20.43900
H  34.20200 48.72700 19.91600
H  35.05100 47.24500 19.40300
H  35.18100 48.81600 18.61100
H  39.46300 48.05800 21.50400
H  39.00000 48.59800 19.92900
H  39.14000 45.68600 20.61000
H  40.61400 46.44100 20.77400
H  39.77700 46.36200 19.13900
H  39.21600 44.18500 24.95300
H  37.67500 43.83300 24.11400
H  37.80900 43.45700 25.83600
H  37.69200 47.26700 29.36500
H  35.11200 44.68800 31.68500
H  34.50300 46.30900 32.17300
H  35.90200 45.67300 32.97600
Mg 1.96500 42.03200 24.29900
C  3.52900 42.07000 27.68900
C  -0.89300 41.16200 25.81200
C  0.81400 41.83000 21.33700
C  5.19600 42.67900 23.04000
N  1.41100 41.51400 26.49500
C  2.16500 41.69600 27.69000
C  1.27600 41.45500 28.95200
C  -0.11100 41.18500 28.34100
C  0.11300 41.24200 26.78700
C  -0.75600 39.90300 28.77900
C  1.32400 42.69000 29.87800
C  1.24000 42.41600 31.43300
H  -0.16400 42.10000 31.96000
N  0.28100 41.36000 23.67400
C  -0.86200 41.16500 24.45800
C  -2.04400 41.14300 23.57700
C  -1.55500 41.21100 22.21200
C  -0.09300 41.50300 22.38400
C  -3.46700 41.06100 24.13200
C  -2.28900 41.12400 20.91100
O  -1.76600 41.13600 19.77700
C  -3.76300 40.86100 21.01600
N  2.86700 42.04200 22.50000
C  2.15600 42.07100 21.36700
C  2.99200 42.33900 20.13200
C  4.38400 42.66800 20.77000
C  4.12100 42.47100 22.23200
C  2.97500 41.11500 19.10700
C  4.98900 44.06300 20.45100
C  4.37200 45.21900 21.16600
N  3.92300 42.39800 25.16000
C  5.12200 42.63800 24.47400
C  6.23100 42.69300 25.42800
C  5.60300 42.55900 26.70600
C  4.20600 42.35000 26.51400
C  7.71000 42.72700 25.15100
C  5.86800 42.47500 28.12400
O  6.94100 42.50700 28.64100
C  4.52000 42.15700 28.86100
C  4.68300 40.89900 29.64400
O  4.44600 39.74300 29.24700
O  5.31400 41.18100 30.82800
C  5.80800 39.98400 31.61300
H  -1.86300 41.04700 26.30000
H  0.37900 41.79600 20.33600
H  6.20600 42.97200 22.74600
H  1.61400 40.60700 29.54800
H  -0.81800 41.99000 28.54500
H  -0.18600 39.38200 29.54800
H  -0.80700 39.28300 27.88400
H  -1.73700 40.22400 29.12800
H  0.40500 43.25400 29.71500
H  2.10200 43.35700 29.50600
H  1.61200 43.27800 31.98700
H  1.88800 41.55700 31.60600
H  -3.44500 40.89800 25.21000
H  -4.02200 40.19000 23.78300
H  -4.06400 41.94100 23.89300
H  -4.28200 41.74100 21.39400
H  -3.94600 39.95300 21.59100
H  -4.16000 40.68600 20.01600
H  2.64600 43.19000 19.54600
H  5.02800 41.83100 20.49900
H  3.94700 40.68400 18.86600
H  2.71700 41.50600 18.12300
H  2.30200 40.36100 19.51300
H  4.85600 44.27400 19.39000
H  6.05200 44.07300 20.69100
H  3.49500 44.87900 21.71700
H  3.90600 45.86900 20.42500
H  5.09000 45.68100 21.84300
H  8.09500 41.86000 24.61400
H  8.23800 42.84700 26.09700
H  7.84100 43.58400 24.49100
H  4.10900 42.94200 29.49500
H  6.66000 39.48300 31.15500
H  4.98900 39.26400 31.60900
H  6.13200 40.33500 32.59200

