158

Mg 35.35500 48.93900 25.49500
C  35.95600 47.22300 28.44100
C  33.70900 51.39100 27.22400
C  34.43800 50.37700 22.55100
C  36.74500 46.31900 23.65900
N  34.92400 49.20700 27.56100
C  35.45600 48.53300 28.61900
C  35.33100 49.24300 29.90900
C  34.56600 50.56500 29.46300
C  34.46800 50.42200 27.94000
C  33.17300 50.67000 30.11700
C  36.71100 49.53800 30.52900
C  36.75800 49.37900 32.11000
H  35.40900 49.48700 32.80700
N  34.17400 50.62400 24.95700
C  33.51800 51.43500 25.85600
C  32.60800 52.34700 25.09700
C  32.77500 51.99700 23.69000
C  33.84400 50.96200 23.66200
C  31.72800 53.39800 25.71500
C  32.17000 52.64500 22.40700
O  32.32900 52.26300 21.26500
C  31.15100 53.82400 22.61600
N  35.82600 48.54900 23.45200
C  35.29600 49.29300 22.41600
C  35.65500 48.77100 21.00400
C  36.57500 47.50700 21.32400
C  36.43800 47.44300 22.93000
C  34.37200 48.44500 20.15100
C  38.11300 47.57100 20.98300
C  38.83200 46.25700 20.55800
N  36.07500 47.07900 25.86800
C  36.63500 46.10100 25.02100
C  36.96600 44.94600 25.85000
C  36.79900 45.34500 27.18700
C  36.21400 46.65300 27.15200
C  37.41400 43.57600 25.34400
C  36.96200 44.91200 28.54200
O  37.41400 43.87200 28.96000
C  36.23100 46.09600 29.39800
C  35.08400 45.63600 30.21200
O  34.20800 44.83400 29.91400
O  35.28300 46.04500 31.44100
C  34.41400 45.42000 32.48800
H  33.23100 52.19100 27.79300
H  34.08200 50.73000 21.58100
H  37.13400 45.44800 23.12700
H  34.74700 48.56900 30.53600
H  35.19900 51.42400 29.68500
H  32.75500 49.79400 30.61200
H  32.42300 50.75200 29.33100
H  33.14400 51.56200 30.74400
H  36.97800 50.58300 30.36800
H  37.42300 48.78400 30.19300
H  37.42000 50.15200 32.50100
H  37.19300 48.39500 32.28800
H  31.80900 53.33500 26.80000
H  30.69300 53.13500 25.49700
H  31.96900 54.39700 25.35200
H  31.77000 54.59100 23.08200
H  30.33400 53.49900 23.25900
H  30.78800 54.12200 21.63200
H  36.22900 49.54100 20.48900
H  36.12800 46.62700 20.86000
H  33.45800 48.88800 20.54600
H  34.19200 47.37000 20.15100
H  34.49500 48.71500 19.10200
H  38.60500 48.07900 21.81200
H  38.33600 48.26500 20.17300
H  39.36000 46.47000 19.62800
H  38.22100 45.35500 20.53300
H  39.63300 46.15300 21.29100
H  38.49100 43.59100 25.51000
H  37.14500 43.35100 24.31200
H  37.05900 42.81800 26.04300
H  37.07100 46.44800 29.99700
H  33.54700 46.06400 32.63400
H  34.94200 45.68700 33.40300
H  34.22600 44.34700 32.54200
Mg -11.58100 17.21000 40.47000
C  -8.52900 15.40900 40.33700
C  -9.84000 20.11700 39.73200
C  -14.48700 18.77400 39.80800
C  -13.19500 14.06300 40.19700
N  -9.43600 17.64900 39.80300
C  -8.44600 16.78200 39.91700
C  -7.10300 17.48900 39.49700
C  -7.55200 19.00100 39.35700
C  -9.03100 18.96600 39.67700
C  -6.63700 19.92300 40.21400
C  -6.46900 16.91800 38.19500
C  -5.02600 16.34900 38.30000
H  -4.68900 15.13000 37.38600
N  -12.06500 19.19200 39.99400
C  -11.19800 20.24000 39.81300
C  -11.94500 21.46400 39.56500
C  -13.35200 21.09200 39.64100
C  -13.35000 19.62400 39.86400
C  -11.39200 22.85200 39.25600
C  -14.49000 22.09100 39.47600
O  -14.31500 23.29900 39.34600
C  -15.96400 21.65700 39.38800
N  -13.52700 16.51300 40.06100
C  -14.55700 17.34900 39.88800
C  -15.86900 16.61100 39.70800
C  -15.43400 15.15800 39.87900
C  -13.95400 15.22000 40.00400
C  -17.16300 17.03700 40.60000
C  -16.02100 14.22000 38.82900
C  -16.43800 12.84300 39.39700
N  -11.04300 15.16000 40.55600
C  -11.81000 13.97500 40.42200
C  -10.96000 12.80700 40.61000
C  -9.65800 13.37200 40.73000
C  -9.79000 14.78200 40.55400
C  -11.34100 11.39800 40.63100
C  -8.21300 13.05200 40.91400
O  -7.63900 12.01700 41.09300
C  -7.44200 14.38700 40.73100
C  -6.75300 14.79600 41.97600
O  -7.03000 15.62800 42.79600
O  -5.61900 13.98900 42.10600
C  -4.79200 14.24600 43.27600
H  -9.23300 21.01200 39.58500
H  -15.47300 19.22100 39.66000
H  -13.64200 13.07000 40.12000
H  -6.44900 17.23000 40.33000
H  -7.47000 19.34700 38.32700
H  -6.64800 19.47800 41.20900
H  -6.91400 20.96600 40.37000
H  -5.65500 19.94200 39.74100
H  -6.41900 17.74600 37.48800
H  -7.07500 16.10100 37.80200
H  -4.94600 15.97000 39.31800
H  -4.35800 17.18500 38.09200
H  -11.87200 23.63700 39.84100
H  -11.52800 22.94300 38.17800
H  -10.32200 22.85600 39.46000
H  -16.02900 21.08500 38.46200
H  -16.61700 22.52800 39.33700
H  -16.30600 21.06200 40.23500
H  -16.26200 16.84700 38.71900
H  -15.78700 14.78600 40.84100
H  -17.32300 18.11400 40.54200
H  -17.03600 16.68900 41.62600
H  -18.06100 16.60900 40.15500
H  -15.34800 14.14200 37.97500
H  -16.97900 14.52700 38.40900
H  -17.50600 12.77600 39.60300
H  -15.76500 12.64200 40.23000
H  -16.13200 12.12800 38.63200
H  -12.17500 11.20100 39.95600
H  -11.63100 11.21000 41.66500
H  -10.48000 10.80200 40.32900
H  -6.68000 14.40300 39.95200
H  -4.16300 15.13600 43.27900
H  -4.25100 13.31800 43.46600
H  -5.41200 14.31800 44.16900

