158

Mg 16.60800 51.64700 24.87300
C  18.37000 50.53600 27.70000
C  14.10100 52.65500 26.95500
C  14.60000 52.18300 22.29600
C  18.95600 50.06200 22.83600
N  16.31700 51.49700 27.06400
C  17.24900 51.20700 27.97800
C  16.83000 51.63300 29.40100
C  15.32100 52.09700 29.12400
C  15.23400 52.14400 27.60900
C  14.28300 51.18900 29.89500
C  17.70400 52.84000 29.93600
C  17.93300 52.87400 31.51800
H  17.20800 52.03000 32.41500
N  14.67900 52.45600 24.67100
C  13.81400 52.85800 25.63900
C  12.64500 53.41300 25.02600
C  12.74300 53.26200 23.67800
C  14.06300 52.69400 23.47300
C  11.47000 54.05200 25.77800
C  11.71200 53.57500 22.64700
O  11.89600 53.36700 21.47400
C  10.33500 53.93400 23.04300
N  16.71400 51.29600 22.88700
C  15.81500 51.60600 21.97100
C  16.24900 51.33800 20.55600
C  17.70200 50.66200 20.73500
C  17.79500 50.70500 22.27500
C  15.22000 50.59000 19.66200
C  18.92000 51.40800 20.04600
C  19.88900 50.54100 19.15100
N  18.28400 50.47700 25.19500
C  19.24300 50.03400 24.22800
C  20.34000 49.40900 24.97100
C  20.04600 49.58100 26.33800
C  18.78100 50.28200 26.38000
C  21.62000 48.79800 24.35600
C  20.54200 49.40200 27.65600
O  21.62100 48.99900 28.02200
C  19.41600 49.94900 28.58400
C  18.91500 48.71700 29.33700
O  18.11800 47.89000 28.91400
O  19.34200 48.77600 30.68100
C  18.66100 47.85400 31.63400
H  13.40400 53.16100 27.62600
H  13.94500 52.30500 21.43100
H  19.73600 49.67100 22.17900
H  16.80400 50.74400 30.03000
H  15.21200 53.10800 29.51500
H  13.79300 50.71100 29.04600
H  13.63900 51.84900 30.47700
H  14.82200 50.57200 30.61300
H  17.17500 53.77600 29.75900
H  18.59100 52.68600 29.32100
H  17.94400 53.91900 31.82500
H  18.99900 52.68900 31.65400
H  10.64700 53.35000 25.90900
H  11.04300 54.96300 25.35800
H  11.81800 54.32200 26.77500
H  10.27200 54.96000 23.40700
H  9.99500 53.16500 23.73700
H  9.68500 53.94500 22.16800
H  16.33100 52.29200 20.03600
H  17.74400 49.61400 20.44200
H  14.74200 51.37200 19.07200
H  14.40400 50.08500 20.18100
H  15.72400 49.90000 18.98500
H  19.49100 52.00600 20.75700
H  18.61500 52.06400 19.23100
H  19.87900 50.92000 18.13000
H  19.57600 49.49800 19.19100
H  20.87200 50.78800 19.55300
H  22.15000 49.52700 23.74300
H  21.26000 47.96600 23.75100
H  22.30900 48.39500 25.09900
H  19.73300 50.73600 29.26800
H  18.42100 46.90100 31.16400
H  17.89400 48.31800 32.25500
H  19.45400 47.50300 32.29500
Mg -4.74900 24.86800 26.84900
C  -3.60300 26.89300 29.58800
C  -5.97300 22.60800 29.11500
C  -5.83800 23.02900 24.21400
C  -3.55700 27.33300 24.74600
N  -4.87200 24.85800 29.07600
C  -4.34500 25.75100 30.02500
C  -4.75600 25.26700 31.44600
C  -5.25900 23.80800 31.25500
C  -5.34600 23.73600 29.72500
C  -4.39800 22.69800 31.89000
C  -5.90800 26.24600 32.04000
C  -5.86400 26.51200 33.54500
H  -5.70200 25.18800 34.28600
N  -5.58700 23.00100 26.66400
C  -6.06800 22.30500 27.76300
C  -6.66100 21.02200 27.25100
C  -6.64900 21.16600 25.83000
C  -5.97600 22.40600 25.46400
C  -7.30800 19.96200 28.07800
C  -7.11400 20.19100 24.75300
O  -6.73000 20.30400 23.55900
C  -7.76600 18.87300 25.13800
N  -4.74700 25.17200 24.72200
C  -5.35200 24.30700 23.87300
C  -5.47500 24.90800 22.46900
C  -4.55600 26.21400 22.66600
C  -4.32000 26.29100 24.11200
C  -4.96800 23.99500 21.29600
C  -5.05500 27.56200 22.08200
C  -5.67000 27.43200 20.67200
N  -3.63600 26.61300 27.01800
C  -3.24900 27.56800 26.10300
C  -2.54500 28.66200 26.66800
C  -2.66700 28.43700 28.10100
C  -3.33200 27.17500 28.22600
C  -1.71400 29.77000 25.96000
C  -2.28600 28.97900 29.38800
O  -1.61700 29.94800 29.69800
C  -2.90900 27.98500 30.43200
C  -1.78500 27.39800 31.30600
O  -0.91400 26.56500 30.99600
O  -1.96300 27.78200 32.58200
C  -0.91800 27.24300 33.51400
H  -6.41000 21.85600 29.77600
H  -6.29700 22.60000 23.32000
H  -3.20000 28.07000 24.02400
H  -3.85700 25.35600 32.05600
H  -6.21900 23.73100 31.76600
H  -4.87700 22.64400 32.86700
H  -3.33400 22.88900 32.02500
H  -4.53800 21.76600 31.34300
H  -6.87200 25.79700 31.80200
H  -5.91300 27.23800 31.58700
H  -6.75300 27.04100 33.88900
H  -4.99700 27.14700 33.72800
H  -6.83800 18.98000 28.02600
H  -8.34000 19.83900 27.74900
H  -7.54100 20.28800 29.09200
H  -8.00800 18.36500 24.20500
H  -8.78500 19.14700 25.41500
H  -7.24500 18.33600 25.93000
H  -6.53700 25.08800 22.29900
H  -3.61600 26.00100 22.15600
H  -4.34700 24.63500 20.66900
H  -5.82900 23.65000 20.72500
H  -4.33200 23.15900 21.58600
H  -4.23800 28.26900 21.93600
H  -5.74400 28.13100 22.70700
H  -5.05800 27.88000 19.88900
H  -6.67200 27.85500 20.74500
H  -5.92700 26.44500 20.28700
H  -1.96500 30.70500 26.46200
H  -2.09900 29.84900 24.94300
H  -0.65300 29.55600 26.09000
H  -3.55500 28.52700 31.12300
H  0.05900 27.20500 33.03100
H  -1.05300 26.18300 33.73100
H  -0.76900 27.95400 34.32700

