158

Mg 46.91300 24.77700 28.70400
C  47.71900 27.19200 31.17800
C  45.76900 22.77500 31.22000
C  46.41700 22.45900 26.51400
C  48.26000 26.87900 26.26500
N  46.76400 24.97300 30.87900
C  47.07800 26.02600 31.69200
C  46.83700 25.81900 33.17500
C  46.32600 24.35800 33.20000
C  46.34500 23.93700 31.69800
C  47.22100 23.26700 33.88600
C  45.69800 26.73700 33.72400
C  45.77200 27.28800 35.14300
H  46.01800 26.40700 36.35900
N  46.13100 22.90800 28.78100
C  45.68100 22.26300 29.90300
C  45.18500 20.94200 29.54200
C  45.32100 20.83100 28.13600
C  45.94000 22.06900 27.72400
C  44.63600 19.87000 30.52100
C  44.79800 19.66100 27.22700
O  45.06400 19.63200 26.06000
C  44.10000 18.51700 27.86000
N  47.47200 24.62700 26.57400
C  47.00600 23.59100 25.88900
C  47.22500 23.78300 24.38500
C  47.55700 25.28300 24.30500
C  47.74300 25.67100 25.83600
C  48.29100 22.80300 23.92200
C  46.54100 26.28500 23.64300
C  45.04800 25.93200 23.60400
N  47.80100 26.63600 28.63000
C  48.30500 27.37900 27.57400
C  48.81600 28.67000 28.08500
C  48.62100 28.62300 29.50100
C  48.02800 27.36000 29.77800
C  49.32600 29.69900 27.23400
C  48.78000 29.38300 30.78800
O  49.25900 30.50000 30.97700
C  48.19600 28.42400 31.90200
C  49.31500 28.22400 32.91800
O  50.38800 27.60000 32.72600
O  48.96200 28.74900 34.10300
C  49.84200 28.59000 35.26600
H  45.43600 22.15400 32.05500
H  46.14700 21.64400 25.83900
H  48.68400 27.61800 25.58200
H  47.68600 26.13900 33.77800
H  45.33800 24.14600 33.61000
H  47.81300 23.87300 34.57200
H  47.76000 22.50200 33.32800
H  46.61500 22.66400 34.56200
H  44.76000 26.18500 33.67900
H  45.59900 27.56700 33.02400
H  44.76400 27.67600 35.29400
H  46.38000 28.18400 35.27500
H  45.06400 18.87000 30.44800
H  43.55900 19.70000 30.52200
H  44.77000 20.14000 31.56800
H  44.80800 17.82300 28.31300
H  43.57300 17.94700 27.09500
H  43.29400 18.69500 28.57200
H  46.37100 23.47300 23.78400
H  48.50200 25.41300 23.77700
H  48.40400 22.06000 24.71100
H  49.22500 23.26000 23.59300
H  47.92500 22.30300 23.02600
H  46.93400 26.46900 22.64300
H  46.67900 27.20300 24.21300
H  44.79100 25.04200 24.17900
H  44.77300 25.68400 22.57900
H  44.39400 26.70200 24.01300
H  49.08100 29.58800 26.17800
H  50.38900 29.70800 27.47700
H  48.94500 30.67700 27.52700
H  47.42000 28.90500 32.49700
H  50.31000 29.54800 35.49300
H  50.59400 27.87400 34.93500
H  49.28100 28.15800 36.09500
Mg 42.32700 41.26300 26.38600
C  41.51700 43.67900 28.86700
C  43.22800 39.09000 28.82100
C  43.10900 39.11400 23.98200
C  41.59000 43.67900 23.97200
N  42.47600 41.48600 28.66900
C  42.03100 42.52200 29.46400
C  42.27100 42.13100 30.95200
C  42.81400 40.58200 30.85100
C  42.87100 40.37900 29.31500
C  44.27200 40.45100 31.36300
C  40.93200 42.44100 31.81300
C  40.77900 41.62500 33.13300
H  40.12800 42.45200 34.24100
N  43.01900 39.31200 26.43100
C  43.39200 38.59900 27.48700
C  43.86500 37.32200 26.99300
C  43.76500 37.34400 25.61600
C  43.28600 38.63900 25.25300
C  44.53200 36.28800 27.93900
C  43.90500 36.13100 24.60500
O  43.65000 36.16300 23.39400
C  44.16300 34.84000 25.18000
N  42.35200 41.41700 24.32400
C  42.80800 40.35700 23.58200
C  42.66800 40.61300 22.09200
C  42.13500 42.06600 22.07100
C  41.98100 42.39800 23.55400
C  44.00900 40.43200 21.28300
C  40.71300 42.16900 21.37400
C  39.60700 41.28400 21.93800
N  41.66000 43.12900 26.36700
C  41.49300 44.03200 25.29300
C  40.94200 45.25100 25.82100
C  40.90600 45.18400 27.16400
C  41.39700 43.86500 27.49600
C  40.63400 46.45300 24.94700
C  40.49800 45.86300 28.38300
O  39.99100 46.95500 28.53800
C  40.99000 44.92100 29.54100
C  41.98000 45.65600 30.38600
O  43.16900 45.70900 30.10500
O  41.38800 46.18900 31.44800
C  42.38000 46.55300 32.52500
H  43.56400 38.34100 29.54100
H  43.32700 38.41200 23.17500
H  41.48500 44.49800 23.25800
H  42.98000 42.87200 31.32100
H  42.11500 39.88700 31.31500
H  44.51000 41.32700 31.96600
H  45.05900 40.39400 30.61000
H  44.39400 39.57600 32.00200
H  40.06600 42.24700 31.18000
H  40.98600 43.50300 32.05200
H  41.79800 41.36900 33.42300
H  40.21000 40.70100 33.03500
H  45.42200 35.96300 27.40000
H  43.90500 35.44200 28.22000
H  44.85100 36.81200 28.84000
H  44.17400 34.10000 24.37900
H  43.23500 34.50200 25.64200
H  45.15100 34.75300 25.63200
H  41.95200 39.92200 21.64800
H  42.85200 42.76700 21.64500
H  44.17800 41.28800 20.62900
H  43.90900 39.56500 20.63200
H  44.80900 40.43100 22.02400
H  40.80900 41.77000 20.36400
H  40.37900 43.20700 21.40000
H  39.24100 40.55000 21.22100
H  38.84100 41.99900 22.24000
H  39.95300 40.75100 22.82300
H  41.41900 46.42700 24.19100
H  40.83000 47.36000 25.52000
H  39.68900 46.47700 24.40500
H  40.14000 44.70300 30.18900
H  42.90200 45.66400 32.87900
H  41.79400 47.08800 33.27300
H  43.05900 47.28500 32.08700

