158

Mg -1.55200 17.33200 25.56100
C  -2.14800 14.82900 28.10500
C  -1.94900 19.67000 27.90500
C  -1.01500 19.50000 23.10800
C  -1.19400 14.56300 23.18000
N  -2.19500 17.18200 27.74500
C  -2.39100 16.10700 28.58300
C  -2.66500 16.58500 30.03900
C  -2.69000 18.17400 29.88500
C  -2.26200 18.38300 28.42400
C  -4.02100 18.73900 30.44700
C  -1.75300 15.97200 31.05900
C  -1.33900 16.79900 32.30900
H  -0.86500 16.00500 33.50900
N  -1.35700 19.31200 25.54300
C  -1.61200 20.13500 26.60100
C  -1.60800 21.54900 26.11700
C  -1.33700 21.49000 24.70500
C  -1.19400 20.06100 24.38400
C  -1.96100 22.75900 26.99600
C  -1.23700 22.60300 23.67800
O  -0.73800 22.47700 22.55200
C  -1.59700 24.04500 24.21400
N  -1.39900 17.01500 23.38300
C  -1.10300 18.14000 22.64600
C  -0.75100 17.79700 21.24200
C  -0.62800 16.22500 21.23400
C  -1.09800 15.88900 22.65600
C  -1.66400 18.28900 20.11700
C  0.80500 15.79500 20.91300
C  1.92800 16.16900 21.92600
N  -1.78400 15.19800 25.50900
C  -1.57400 14.24500 24.48200
C  -1.85400 12.90200 25.06400
C  -2.06900 13.13600 26.44000
C  -1.94900 14.52900 26.71800
C  -1.83200 11.56900 24.33000
C  -2.25400 12.42000 27.61900
O  -2.35600 11.22900 27.87600
C  -2.38500 13.55200 28.78100
C  -1.28100 13.20400 29.69600
O  -0.11800 13.48800 29.59300
O  -1.87000 12.54200 30.78300
C  -0.96500 11.93900 31.80300
H  -1.95600 20.50000 28.61400
H  -0.71200 20.21100 22.33700
H  -1.14700 13.73500 22.47000
H  -3.59400 16.08300 30.31000
H  -1.90600 18.61700 30.49800
H  -4.05100 18.84600 31.53100
H  -4.90700 18.11900 30.31500
H  -4.30300 19.60100 29.84200
H  -0.81800 15.71200 30.56300
H  -2.13300 15.02700 31.44600
H  -2.14000 17.48800 32.57500
H  -0.49600 17.39700 31.96200
H  -2.91000 23.16400 26.64500
H  -1.23200 23.55700 26.85700
H  -1.96000 22.46600 28.04600
H  -1.22400 24.65800 23.39400
H  -1.09400 24.35500 25.13100
H  -2.67000 24.22900 24.26600
H  0.23900 18.24200 21.13700
H  -1.29100 15.85300 20.45200
H  -1.22100 19.22300 19.77000
H  -2.59400 18.56700 20.61400
H  -1.74300 17.67400 19.22000
H  1.10400 16.39800 20.05600
H  0.96700 14.75300 20.63700
H  2.43400 17.08600 21.62500
H  2.63100 15.37100 22.16300
H  1.37200 16.36200 22.84300
H  -1.04700 11.57800 23.57400
H  -2.74600 11.46000 23.74600
H  -1.65700 10.73700 25.01200
H  -3.30400 13.49600 29.36500
H  -1.24900 10.90300 31.98600
H  -1.00700 12.33500 32.81800
H  0.07300 11.94400 31.47100
Mg 0.03400 43.86900 25.90600
C  2.00100 43.21100 28.74900
C  -2.65100 42.27700 27.53900
C  -1.64600 43.81000 23.07300
C  2.97500 44.66200 24.18500
N  -0.23300 42.79100 27.83600
C  0.64900 42.87500 28.89500
C  0.00200 42.61600 30.26700
C  -1.40400 42.06800 29.85800
C  -1.44200 42.36000 28.30200
C  -1.80200 40.67100 30.25700
C  0.02700 43.87200 31.25700
C  0.34300 43.61000 32.74600
H  0.07400 42.22100 33.50300
N  -1.88800 43.21200 25.35300
C  -2.83400 42.57100 26.17600
C  -4.08900 42.35500 25.38900
C  -3.78100 42.83000 24.07100
C  -2.35200 43.32300 24.10800
C  -5.34000 41.68300 25.97300
C  -4.61600 42.94500 22.84200
O  -4.31000 43.44700 21.79100
C  -5.99100 42.37100 22.94700
N  0.62000 44.24700 23.89900
C  -0.33000 44.32900 22.94800
C  0.17500 44.87500 21.66900
C  1.66100 44.99400 21.93900
C  1.76500 44.61600 23.42500
C  -0.02800 43.92100 20.48000
C  2.20200 46.34200 21.46800
C  2.16200 47.43700 22.59000
N  2.02700 44.12000 26.32800
C  3.16700 44.41700 25.52500
C  4.38600 44.56600 26.32700
C  3.92200 44.08400 27.58500
C  2.58300 43.78400 27.59000
C  5.72000 45.08600 25.96000
C  4.31300 43.75100 28.94300
O  5.41200 43.78300 29.33600
C  3.11500 43.22900 29.74500
C  3.46700 41.88600 30.27700
O  3.49100 40.85600 29.56100
O  3.65200 41.92400 31.66100
C  4.09900 40.63700 32.32900
H  -3.55700 41.89500 28.01500
H  -2.16800 43.83500 22.11500
H  3.76900 45.13300 23.60100
H  0.58700 41.75900 30.60200
H  -2.08700 42.80500 30.28200
H  -2.48200 40.09900 29.62500
H  -2.21400 40.78900 31.25900
H  -0.87900 40.10300 30.37400
H  -0.89700 44.43900 31.14000
H  0.75300 44.53400 30.78400
H  -0.39000 44.26200 33.22200
H  1.37000 43.87800 32.99200
H  -6.15500 42.37500 25.76000
H  -5.30300 41.44900 27.03700
H  -5.40200 40.74700 25.41800
H  -5.83900 41.30800 23.13500
H  -6.49400 42.52100 21.99200
H  -6.58000 42.87300 23.71500
H  -0.43000 45.74700 21.42100
H  2.17500 44.16300 21.45700
H  -0.32400 44.46600 19.58400
H  -0.87700 43.23800 20.48100
H  0.87100 43.45100 20.08100
H  1.70300 46.72000 20.57600
H  3.18200 46.18400 21.01800
H  3.13900 47.88900 22.76100
H  1.71200 47.09400 23.52200
H  1.40200 48.17400 22.33000
H  6.30000 45.30600 26.85600
H  5.64800 46.06800 25.49300
H  6.36100 44.44200 25.35700
H  2.90900 43.87900 30.59500
H  4.06700 39.85600 31.56900
H  3.41800 40.40000 33.14600
H  5.12800 40.87300 32.60100

