158

Mg 48.84500 44.97100 44.10700
C  45.42700 45.33800 43.17900
C  48.67200 41.67100 43.17500
C  52.06900 44.97800 44.09900
C  48.74400 48.54800 44.84400
N  47.21700 43.65200 43.29400
C  45.94500 43.99000 42.91900
C  45.30900 42.85400 42.15100
C  46.10300 41.61200 42.77600
C  47.42900 42.28600 43.24200
C  45.40000 40.72800 43.88000
C  45.45600 43.02500 40.60700
C  44.27800 42.53300 39.81500
H  43.75200 43.45300 38.76000
N  50.22300 43.57100 43.56800
C  49.96800 42.24600 43.31200
C  51.22600 41.56000 42.96900
C  52.24500 42.55900 43.11500
C  51.54100 43.81000 43.53100
C  51.24700 40.12200 42.53100
C  53.73300 42.44400 42.79200
O  54.24100 41.37600 42.59800
C  54.67600 43.59700 42.65000
N  50.26500 46.53600 44.46100
C  51.56800 46.17400 44.56900
C  52.42200 47.34600 45.06300
C  51.39200 48.54900 45.19700
C  50.05200 47.80200 44.85800
C  53.09800 46.96700 46.32100
C  51.69500 49.79000 44.39000
C  52.47300 50.85700 45.21400
N  47.46400 46.64700 44.02000
C  47.57600 47.99900 44.33800
C  46.32100 48.61500 44.11100
C  45.42100 47.61200 43.73600
C  46.19700 46.44900 43.61900
C  45.96200 50.06700 44.32500
C  44.08300 47.29800 43.31900
O  43.03400 47.92100 43.39300
C  44.02800 45.82500 42.90300
C  42.90900 45.11000 43.49400
O  41.91000 44.70000 42.90200
O  43.21100 44.78400 44.78600
C  42.19900 43.88200 45.44100
H  48.76500 40.58400 43.15200
H  53.15500 44.97000 44.21500
H  48.69400 49.55800 45.25700
H  44.26800 42.78600 42.46700
H  46.27600 40.86200 42.00400
H  45.02600 39.79500 43.46000
H  44.60000 41.38200 44.22500
H  46.06800 40.52200 44.71700
H  46.31300 42.43700 40.27700
H  45.54900 44.08500 40.37200
H  43.44100 42.28700 40.46900
H  44.53000 41.63100 39.25700
H  50.93400 40.04000 41.49100
H  50.65500 39.47300 43.17600
H  52.24600 39.68900 42.59400
H  54.05900 44.45100 42.37100
H  55.38800 43.41000 41.84700
H  55.35400 43.86000 43.46200
H  53.12200 47.62200 44.27500
H  51.28900 48.73800 46.26500
H  53.19400 45.89300 46.48400
H  52.65900 47.39400 47.22200
H  54.08900 47.39600 46.17200
H  50.73200 50.10000 43.98300
H  52.28500 49.53900 43.50800
H  52.07800 51.84300 44.96900
H  53.51100 50.79800 44.88800
H  52.37700 50.69900 46.28800
H  45.00900 50.42600 43.93800
H  46.71800 50.59000 43.74000
H  46.08900 50.36100 45.36700
H  43.82300 45.80700 41.83300
H  42.49400 43.82000 46.48900
H  42.12300 42.83200 45.15900
H  41.26300 44.41800 45.59500
Mg 41.54800 41.20100 26.75000
C  40.79400 43.38800 29.47400
C  42.61800 38.90400 29.05000
C  42.65600 39.28800 24.21800
C  40.77300 43.82600 24.55600
N  41.70500 41.13900 29.06700
C  41.16800 42.13900 29.89700
C  41.36900 41.57500 31.37300
C  42.11300 40.15100 31.29700
C  42.17500 40.04100 29.73100
C  43.37900 39.99300 32.03700
C  40.06500 41.59900 32.13000
C  40.20400 41.40400 33.63600
H  39.54600 42.50600 34.52300
N  42.45900 39.31800 26.61400
C  42.81900 38.52900 27.67100
C  43.43400 37.27600 27.14600
C  43.45700 37.34100 25.72400
C  42.80300 38.70900 25.45000
C  43.96100 36.18600 28.07500
C  44.04600 36.32300 24.75000
O  44.04600 36.55300 23.50100
C  44.89100 35.14000 25.17200
N  41.80300 41.58900 24.71700
C  42.14900 40.55900 23.87900
C  41.97400 40.99900 22.46100
C  41.11700 42.31500 22.50000
C  41.23000 42.58300 24.01900
C  43.32000 41.37100 21.61900
C  39.63700 42.27400 22.02000
C  38.81700 41.06400 22.45600
N  40.95000 43.19500 26.93000
C  40.74300 44.21100 25.89000
C  40.44600 45.45800 26.49900
C  40.28500 45.13200 27.91000
C  40.72700 43.76900 28.11600
C  40.13100 46.72900 25.84100
C  39.84100 45.73200 29.22300
O  39.44100 46.86800 29.53000
C  40.14000 44.54600 30.24500
C  41.16200 45.22200 31.13900
O  42.20000 45.65700 30.70200
O  40.80000 45.31700 32.46300
C  41.85400 45.97200 33.38600
H  42.97000 38.19800 29.80600
H  43.08800 38.73900 23.37900
H  40.37700 44.63500 23.93800
H  42.09300 42.27100 31.79600
H  41.43500 39.33200 31.54100
H  43.87500 40.94400 32.23200
H  43.99900 39.36200 31.39900
H  43.28000 39.44900 32.97700
H  39.48500 40.74400 31.78300
H  39.59300 42.58000 32.08400
H  41.27000 41.25000 33.80900
H  39.75000 40.45600 33.92300
H  44.97600 35.90900 27.78900
H  43.35600 35.30400 27.86100
H  43.95300 36.36800 29.14900
H  44.97400 34.39200 24.38400
H  44.33100 34.70400 25.99900
H  45.86700 35.58800 25.35900
H  41.57200 40.18500 21.85600
H  41.56200 43.14600 21.95100
H  44.15400 40.93100 22.16700
H  43.46600 42.44500 21.50400
H  43.35100 41.04500 20.57900
H  39.65300 42.26500 20.93000
H  39.05800 43.15900 22.28300
H  38.63400 40.51200 21.53400
H  37.87600 41.31000 22.94700
H  39.43600 40.40100 23.06200
H  40.31100 46.70600 24.76600
H  40.74200 47.53400 26.24900
H  39.08800 46.96000 26.05700
H  39.22300 44.45000 30.82500
H  42.02100 45.30200 34.22900
H  41.52400 46.94900 33.73900
H  42.81500 46.06300 32.88000

