158

Mg 16.88000 -2.29400 27.37000
C  15.64800 -0.13700 29.90300
C  19.08400 -3.49300 29.51300
C  18.13200 -4.11500 24.84200
C  14.71400 -0.59800 25.11700
N  17.31500 -1.86900 29.50600
C  16.67500 -0.97200 30.34800
C  17.23300 -1.20100 31.77700
C  18.53400 -2.05800 31.52300
C  18.33700 -2.46900 30.04000
C  19.88000 -1.43600 31.84600
C  16.17400 -1.93200 32.68700
C  16.17900 -1.71400 34.20000
H  17.37200 -0.88400 34.69700
N  18.35200 -3.61200 27.20900
C  19.15400 -4.03700 28.24600
C  20.11400 -5.02800 27.80300
C  19.75700 -5.28300 26.46500
C  18.67300 -4.34800 26.09900
C  21.20700 -5.69800 28.69000
C  20.35500 -6.31100 25.46600
O  20.02300 -6.53600 24.32100
C  21.54000 -7.12700 25.92200
N  16.47800 -2.28000 25.23000
C  17.12900 -3.14400 24.44000
C  16.53900 -3.05200 23.07000
C  15.25800 -2.12300 23.17400
C  15.43100 -1.68300 24.60000
C  17.59400 -2.50400 22.10200
C  13.91300 -2.79300 22.96400
C  13.51000 -2.81500 21.45500
N  15.39200 -0.70700 27.47800
C  14.67000 -0.09100 26.46200
C  13.84600 1.01200 27.03800
C  14.18600 0.94700 28.41300
C  15.13000 -0.08300 28.62500
C  12.77200 1.90200 26.39900
C  13.87400 1.50200 29.71700
O  13.09100 2.43100 29.95200
C  14.90100 0.93000 30.68500
C  15.71900 1.91800 31.45400
O  16.67300 2.56000 30.90500
O  15.32200 2.00700 32.76800
C  16.14100 2.97800 33.56300
H  19.85500 -3.89500 30.17400
H  18.28800 -4.77800 23.98900
H  14.02700 -0.11400 24.42000
H  17.50200 -0.20800 32.13900
H  18.43200 -2.91500 32.18800
H  20.34300 -2.12700 32.55000
H  19.83600 -0.41100 32.21500
H  20.55200 -1.52900 30.99300
H  16.12700 -2.98200 32.39600
H  15.18000 -1.58700 32.39900
H  16.35800 -2.68200 34.66800
H  15.28900 -1.26100 34.63600
H  22.14300 -5.94900 28.19100
H  20.78200 -6.64400 29.02600
H  21.40900 -4.94900 29.45600
H  22.38600 -6.47100 26.12700
H  21.85000 -7.80400 25.12600
H  21.30800 -7.82300 26.72900
H  16.18300 -3.99600 22.65600
H  15.30700 -1.25600 22.51600
H  18.55700 -2.21000 22.51900
H  17.32700 -1.59600 21.56200
H  17.84200 -3.29800 21.39700
H  13.06700 -2.31500 23.45700
H  14.04100 -3.82200 23.30100
H  14.16200 -2.18000 20.85400
H  12.50600 -2.40700 21.57100
H  13.41900 -3.84300 21.10400
H  12.09700 1.31700 25.77400
H  13.15900 2.63600 25.69200
H  12.26100 2.44900 27.19100
H  14.35900 0.51500 31.53400
H  15.92700 4.00200 33.25900
H  17.21400 2.80000 33.48800
H  15.87800 2.86200 34.61500
Mg 48.67800 35.69300 27.97800
C  46.28300 34.37400 30.18300
C  49.08400 38.20700 30.21100
C  50.63800 37.00600 25.65900
C  47.49100 33.31300 25.66900
N  47.98600 36.07200 30.00500
C  47.17400 35.26900 30.70600
C  47.33300 35.58100 32.21900
C  47.79700 37.06300 32.16000
C  48.27400 37.14600 30.69400
C  46.65900 38.09400 32.46200
C  48.39400 34.61300 32.99000
C  48.87500 35.00000 34.46700
H  48.28900 36.20200 35.23300
N  49.83100 37.29100 28.05100
C  49.81000 38.31600 29.01400
C  50.77000 39.37000 28.61300
C  51.26600 38.91200 27.34600
C  50.66600 37.63500 26.97000
C  51.00200 40.61300 29.44200
C  52.23400 39.69300 26.43100
O  52.55800 39.34900 25.30100
C  52.86700 40.95800 26.95800
N  48.91200 35.25700 25.80300
C  49.89000 35.94000 25.09900
C  50.09700 35.29800 23.68000
C  49.00700 34.15700 23.66100
C  48.48600 34.12900 25.13600
C  50.02500 36.47900 22.56500
C  49.48100 32.73900 23.13600
C  48.80500 32.15700 21.92600
N  47.21000 34.15200 27.93000
C  46.90600 33.27900 26.89500
C  45.80400 32.45100 27.34400
C  45.51500 32.86000 28.60000
C  46.42600 33.86200 28.89700
C  45.23200 31.33200 26.46500
C  44.68100 32.51000 29.75700
O  43.78700 31.67100 29.93000
C  45.12800 33.56600 30.83700
C  45.41700 32.82500 32.10100
O  46.02000 31.72400 32.15000
O  44.86700 33.47600 33.20200
C  44.83500 32.68700 34.47700
H  49.29900 39.07500 30.83800
H  51.44100 37.32600 24.99100
H  47.07600 32.63400 24.92100
H  46.36900 35.58200 32.72700
H  48.58600 37.29700 32.87600
H  46.88800 38.60100 33.39900
H  45.76700 37.51200 32.69200
H  46.49700 38.80800 31.65400
H  49.26900 34.57700 32.34200
H  47.91600 33.63500 33.05000
H  49.94600 35.10100 34.29000
H  48.73500 34.12500 35.10300
H  50.79600 41.53500 28.89700
H  52.05500 40.64800 29.72400
H  50.40000 40.53000 30.34700
H  52.14000 41.77000 26.98500
H  53.77400 41.14800 26.38600
H  53.24500 40.81200 27.97000
H  51.06500 34.80800 23.57600
H  48.20900 34.45100 22.97900
H  49.07800 36.26300 22.07100
H  50.86400 36.48000 21.86900
H  49.89700 37.46700 23.00800
H  49.30700 32.02800 23.94400
H  50.54700 32.71300 22.91100
H  48.39200 32.91400 21.25900
H  48.02200 31.44000 22.17300
H  49.56500 31.60000 21.38000
H  44.91500 31.75500 25.51200
H  44.43000 30.68600 26.82200
H  46.12300 30.75600 26.21400
H  44.26100 34.20700 30.99700
H  43.81300 32.63500 34.85400
H  45.38500 33.29500 35.19500
H  45.11400 31.63500 34.41300

