158

Mg 1.86900 7.96300 25.97700
C  2.36100 9.92700 28.84800
C  2.17400 5.15800 28.05500
C  1.68400 6.10600 23.32100
C  2.05000 10.86800 24.02300
N  2.17100 7.60600 28.22800
C  2.30000 8.60900 29.16900
C  2.42000 8.00000 30.60100
C  2.40100 6.48100 30.36500
C  2.26700 6.36300 28.81100
C  3.58900 5.64600 30.89100
C  1.14000 8.49700 31.52200
C  1.40600 8.68800 33.04900
H  2.58200 8.02700 33.76400
N  1.73000 5.92900 25.70700
C  1.84700 4.97600 26.65000
C  1.73100 3.66100 26.06300
C  1.53900 3.93400 24.69300
C  1.71700 5.38000 24.47200
C  1.90900 2.41400 26.79300
C  1.09600 2.88100 23.67900
O  1.10600 3.21500 22.48100
C  0.71300 1.54300 24.02500
N  1.91700 8.48400 23.92900
C  1.74300 7.51300 23.07700
C  1.61300 8.09100 21.65600
C  1.67000 9.66400 21.85400
C  1.77500 9.70400 23.36100
C  2.73000 7.55000 20.66700
C  0.39900 10.46700 21.41700
C  0.71700 11.80100 20.67400
N  2.15900 9.97600 26.30400
C  2.15900 11.06600 25.41100
C  2.19500 12.35200 26.16300
C  2.28200 11.91500 27.48900
C  2.19400 10.49800 27.53000
C  2.31200 13.69300 25.51500
C  2.54100 12.37500 28.89500
O  2.68600 13.48400 29.35400
C  2.55100 11.11700 29.76200
C  3.90400 11.15900 30.35500
O  4.89000 10.54700 29.98300
O  3.81000 11.71200 31.63200
C  4.94700 11.74300 32.54000
H  2.25100 4.28300 28.70500
H  1.49900 5.53400 22.40900
H  2.22500 11.74200 23.39100
H  3.38900 8.21100 31.05300
H  1.56400 5.99000 30.86200
H  4.24900 5.34400 30.07700
H  3.22800 4.76900 31.42700
H  4.17200 6.12800 31.67500
H  0.35500 7.76300 31.34100
H  0.82400 9.43500 31.06500
H  0.50800 8.34800 33.56400
H  1.49200 9.77300 33.10800
H  1.17200 2.17900 27.56000
H  2.89200 2.32600 27.25700
H  2.02500 1.60300 26.07400
H  1.60600 0.91700 24.03500
H  0.01000 1.25300 23.24400
H  0.19300 1.41500 24.97500
H  0.64300 7.75800 21.28600
H  2.49600 10.17400 21.35900
H  3.72500 7.48400 21.10700
H  2.88500 8.13800 19.76300
H  2.47000 6.52800 20.39100
H  -0.17800 10.91500 22.22500
H  -0.41700 9.96000 20.90200
H  1.35300 12.51700 21.19500
H  -0.08600 12.41500 20.26700
H  1.35900 11.60500 19.81600
H  1.43700 14.27100 25.81000
H  2.34000 13.51800 24.43900
H  3.24600 14.04400 25.95300
H  1.83300 11.19200 30.57900
H  5.36800 12.74800 32.56200
H  5.69600 10.97400 32.35200
H  4.49900 11.56500 33.51800
Mg 9.14600 47.49500 25.34300
C  7.13300 47.43700 28.50400
C  11.74000 48.34300 27.19200
C  10.89300 47.51400 22.52000
C  6.11300 47.44500 23.55900
N  9.29300 47.85500 27.57500
C  8.41500 47.76400 28.71300
C  9.14000 48.08300 30.02500
C  10.48800 48.80300 29.44900
C  10.53300 48.25800 27.96300
C  10.46000 50.35900 29.46700
C  9.39000 46.82400 30.95900
C  9.07100 47.22800 32.44000
H  8.72700 46.16500 33.50200
N  11.11800 47.77600 24.92100
C  12.06700 48.12800 25.83400
C  13.35900 48.22800 25.12900
C  13.17100 47.87800 23.79800
C  11.69700 47.69700 23.71100
C  14.61700 48.58900 25.86500
C  14.12500 47.66600 22.60800
O  13.59800 47.47800 21.48200
C  15.59800 47.58500 22.84400
N  8.60200 47.65900 23.39900
C  9.52400 47.56000 22.35000
C  8.86200 47.61600 20.93500
C  7.37900 47.39900 21.24900
C  7.35300 47.46500 22.83500
C  9.16400 48.92200 20.14000
C  6.67300 46.12900 20.57600
C  5.24700 46.52600 20.08800
N  7.06100 47.47200 25.86800
C  5.99300 47.47300 25.00700
C  4.70400 47.42200 25.76500
C  5.15300 47.29300 27.15600
C  6.55900 47.34900 27.16100
C  3.31500 47.49300 25.25200
C  4.71300 47.15200 28.51400
O  3.63000 46.84100 28.96600
C  5.99500 47.23400 29.41800
C  6.04800 45.90300 30.22800
O  6.42400 44.83400 29.75500
O  5.63700 46.16500 31.46300
C  5.52800 45.04400 32.42200
H  12.57200 48.53400 27.87400
H  11.32800 47.27600 21.54800
H  5.13100 47.39200 23.08500
H  8.46100 48.75900 30.54400
H  11.37100 48.46600 29.99100
H  10.55500 50.74100 28.45000
H  11.23200 50.72000 30.14700
H  9.67100 50.90900 29.98000
H  10.35600 46.32000 30.98300
H  8.79100 45.91700 30.87200
H  8.27600 47.96800 32.53400
H  9.80900 47.98500 32.70700
H  15.29900 47.74200 25.79500
H  14.43200 48.70200 26.93300
H  14.98500 49.56000 25.53500
H  15.67500 48.50700 23.42000
H  16.09800 47.71500 21.88400
H  15.88000 46.72100 23.44500
H  9.33700 46.76500 20.44600
H  6.84300 48.29800 20.94500
H  9.92200 48.75700 19.37500
H  9.64900 49.63200 20.81100
H  8.26500 49.18900 19.58300
H  6.47700 45.35100 21.31300
H  7.10800 45.72600 19.66200
H  5.23500 46.22900 19.03900
H  5.07100 47.60100 20.12900
H  4.43200 45.97700 20.55900
H  3.08000 46.47600 24.93700
H  3.44400 48.27700 24.50500
H  2.74700 47.95000 26.06200
H  6.03000 48.03100 30.16100
H  5.84800 44.04700 32.11900
H  4.49000 45.01600 32.75400
H  6.11500 45.29700 33.30500

