158

Mg 25.48400 1.65300 29.87000
C  27.62600 1.52500 32.76900
C  22.91400 2.08700 31.95500
C  23.51900 1.61800 27.27100
C  28.23700 0.62500 27.98200
N  25.46700 1.64300 32.21400
C  26.36700 1.83100 33.16900
C  25.79600 2.21600 34.50500
C  24.24700 2.31600 34.23100
C  24.19300 1.95300 32.71100
C  23.41300 1.30600 35.16200
C  26.47700 3.54900 35.04700
C  27.30400 3.41600 36.34100
H  27.09900 4.42000 37.49100
N  23.50800 1.79900 29.66200
C  22.60600 1.97800 30.65900
C  21.26200 2.10800 30.08900
C  21.44000 2.00200 28.66500
C  22.83500 1.82900 28.46200
C  20.05300 2.36500 30.90700
C  20.34600 2.06500 27.56600
O  20.61700 2.02000 26.37000
C  18.84900 2.08800 27.84400
N  25.79900 1.20300 27.93600
C  24.88900 1.36600 27.00300
C  25.48800 1.36600 25.62700
C  26.96900 0.98000 25.79600
C  27.02400 0.96500 27.35600
C  24.74800 0.42000 24.54500
C  28.03600 1.82700 25.17000
C  28.14700 3.34100 25.51000
N  27.49800 1.19400 30.22200
C  28.52000 0.76600 29.38000
C  29.76000 0.56300 30.14200
C  29.44100 0.82500 31.45400
C  28.12900 1.29100 31.44700
C  31.00300 0.08700 29.54300
C  29.92000 0.89600 32.79400
O  31.05500 0.64400 33.18700
C  28.81200 1.40200 33.70000
C  28.67900 0.47400 34.78400
O  28.20400 -0.69100 34.76400
O  29.22000 1.08200 35.86200
C  29.37000 0.24500 37.00200
H  22.13100 2.42100 32.63800
H  22.82400 1.69600 26.43200
H  29.04900 0.16100 27.41900
H  26.08400 1.30700 35.03400
H  23.94400 3.32700 34.50100
H  22.76000 0.72700 34.51100
H  22.75100 1.92000 35.77400
H  23.99400 0.66100 35.82100
H  25.65000 4.22600 35.26600
H  27.09400 3.99700 34.26700
H  28.36700 3.44900 36.10100
H  26.98200 2.42700 36.66900
H  19.15400 1.87600 30.53300
H  19.93000 3.42800 30.70000
H  20.22300 2.20100 31.97100
H  18.72200 3.00200 28.42400
H  18.63600 1.29100 28.55600
H  18.25900 1.99000 26.93300
H  25.35500 2.38900 25.27500
H  27.12200 -0.03800 25.43900
H  23.83200 -0.05100 24.90100
H  25.28600 -0.46200 24.19500
H  24.58200 1.01200 23.64500
H  27.80300 1.89900 24.10800
H  28.99900 1.31900 25.21100
H  29.03000 3.31100 26.14800
H  27.19100 3.67400 25.91400
H  28.32800 3.90300 24.59300
H  31.09900 0.36600 28.49300
H  31.18200 -0.97800 29.69100
H  31.79500 0.57100 30.11300
H  29.07800 2.40100 34.04500
H  29.59600 -0.80600 36.82400
H  28.37600 0.29900 37.44700
H  30.13000 0.68600 37.64800
Mg 5.90400 53.20400 41.55200
C  5.59500 49.71300 41.46900
C  9.19300 52.72800 40.48700
C  6.16300 56.56700 41.07400
C  2.45400 53.37400 41.89400
N  7.13800 51.39900 40.77800
C  6.79200 50.13500 40.84600
C  7.92900 49.24400 40.26500
C  9.09000 50.21800 40.43100
C  8.46200 51.51700 40.56700
C  9.95200 49.96000 41.63000
C  7.67800 48.63300 38.78200
C  6.77300 49.43700 37.77700
H  6.33700 48.82000 36.50000
N  7.57400 54.47900 40.91600
C  8.83600 54.10700 40.67000
C  9.68900 55.24500 40.53200
C  8.79800 56.44000 40.60000
C  7.40600 55.87200 40.87400
C  11.12800 55.13000 40.18200
C  9.20700 57.84100 40.64900
O  10.41500 57.98600 40.39600
C  8.35900 59.00800 40.97000
N  4.48500 54.73600 41.40500
C  4.88400 56.07700 41.37700
C  3.69000 56.99400 41.75600
C  2.49100 55.96900 41.50400
C  3.13900 54.60600 41.54000
C  3.77500 57.52900 43.20800
C  1.51800 56.15300 40.30100
C  0.09900 56.47100 40.59100
N  4.32500 51.87200 41.93100
C  2.97000 52.08200 42.10400
C  2.35500 50.89300 42.60400
C  3.35300 49.87700 42.39100
C  4.49300 50.55100 41.86600
C  0.93600 50.75800 43.11700
C  3.63100 48.43500 42.35100
O  3.10000 47.43800 42.77300
C  5.05500 48.32200 41.75900
C  4.79800 47.61400 40.42400
O  4.13000 48.08300 39.52000
O  5.48700 46.35600 40.50000
C  5.28700 45.51700 39.33300
H  10.24900 52.53300 40.28500
H  6.22000 57.65200 40.96400
H  1.36900 53.32200 42.01000
H  8.07900 48.38800 40.92400
H  9.61100 50.32700 39.48000
H  10.93200 50.31900 41.31700
H  9.99800 48.92700 41.97700
H  9.78400 50.53900 42.53800
H  7.30000 47.62000 38.92300
H  8.66500 48.66700 38.32100
H  7.32700 50.28600 37.37600
H  5.84200 49.76900 38.23700
H  11.74100 55.94900 40.55800
H  11.25900 55.10900 39.10100
H  11.56500 54.22300 40.60000
H  9.00500 59.88600 40.98800
H  7.82600 58.75800 41.88700
H  7.71900 58.86500 40.09900
H  3.74100 57.90300 41.15800
H  1.88200 55.95500 42.40800
H  4.69200 57.16900 43.67400
H  3.02900 57.03100 43.82800
H  3.64500 58.61100 43.24100
H  1.57600 55.41500 39.50100
H  1.80200 57.04400 39.74100
H  -0.35000 57.21100 39.92800
H  -0.15500 56.54600 41.64900
H  -0.40400 55.58000 40.21800
H  0.45900 51.73200 43.22500
H  0.80400 50.27500 44.08500
H  0.40800 50.23600 42.31900
H  5.75600 47.72200 42.33900
H  6.18600 44.93000 39.14400
H  5.21200 46.13900 38.44100
H  4.46200 44.81700 39.46900

