158

Mg 17.20500 50.74800 26.34400
C  19.13800 49.65300 28.98600
C  14.71600 51.50700 28.65400
C  15.46000 51.86200 23.80000
C  19.82300 49.71500 24.12500
N  17.06100 50.65400 28.60000
C  17.93700 50.16000 29.47200
C  17.45300 50.33300 30.95600
C  15.89100 50.38000 30.64200
C  15.83800 50.90600 29.23300
C  15.12700 49.06400 30.89500
C  18.03800 51.55300 31.62200
C  18.46600 51.25600 33.02600
H  17.47000 51.83500 34.13200
N  15.43600 51.72100 26.24300
C  14.58200 52.02000 27.30100
C  13.47300 52.87800 26.69400
C  13.65500 52.95300 25.28600
C  14.86800 52.14200 25.07700
C  12.43000 53.53400 27.64600
C  12.91400 53.76600 24.24900
O  13.20700 53.79200 23.08100
C  11.81300 54.56900 24.74200
N  17.58400 50.60500 24.20300
C  16.65100 51.25600 23.38400
C  17.08500 51.15200 21.86800
C  18.53200 50.67500 22.03600
C  18.70500 50.28400 23.49800
C  16.08900 50.21600 21.06800
C  19.71700 51.59800 21.54500
C  20.30600 51.52600 20.12000
N  19.05100 49.69500 26.46800
C  20.02100 49.40700 25.54300
C  21.25700 48.89000 26.23200
C  20.92100 49.04400 27.51500
C  19.61100 49.55800 27.67800
C  22.57500 48.38400 25.60900
C  21.47500 48.84900 28.79200
O  22.62100 48.42900 29.07700
C  20.32800 49.15300 29.83400
C  20.05400 47.97100 30.61200
O  19.33700 47.00900 30.37800
O  20.72700 48.06400 31.75600
C  20.34600 47.10700 32.82900
H  13.80900 51.71300 29.22600
H  14.92800 52.22700 22.91900
H  20.67400 49.41000 23.51300
H  17.64800 49.44700 31.56000
H  15.44100 51.05200 31.37200
H  14.28400 49.13700 31.58100
H  15.83300 48.42100 31.42000
H  14.67500 48.64900 29.99400
H  17.33400 52.37300 31.48300
H  18.92800 51.81600 31.05000
H  19.39400 51.82700 33.05900
H  18.70800 50.20200 33.16100
H  11.45500 53.10300 27.41600
H  12.26200 54.58000 27.38700
H  12.62700 53.51600 28.71800
H  11.30300 55.02300 23.89300
H  12.15700 55.37500 25.39000
H  11.09300 53.88400 25.19000
H  16.98200 52.12900 21.39600
H  18.70400 49.75400 21.47800
H  16.52700 49.24700 20.82700
H  15.86300 50.75200 20.14600
H  15.22300 50.23000 21.73000
H  20.54000 51.30900 22.19800
H  19.45100 52.64100 21.71700
H  19.63600 50.91000 19.52000
H  21.33400 51.17400 20.03100
H  20.42500 52.58100 19.87300
H  22.29400 47.98100 24.63600
H  23.09300 47.61400 26.18100
H  23.20800 49.22900 25.33700
H  20.63200 49.92000 30.54600
H  19.36600 47.23300 33.29100
H  21.07700 47.16000 33.63500
H  20.46200 46.07200 32.50700
Mg 9.98100 46.58300 25.64700
C  7.84300 46.92600 28.32900
C  12.47800 48.02900 27.35800
C  11.92800 46.48300 22.81600
C  7.10000 46.00700 23.64500
N  10.16100 47.17500 27.63600
C  9.21200 47.13700 28.60200
C  9.82200 47.68500 29.94600
C  11.05000 48.45100 29.45300
C  11.26700 47.90900 28.03300
C  11.21800 50.02000 29.62800
C  10.09600 46.55000 30.89300
C  10.04000 46.88600 32.34700
H  9.94900 45.68500 33.28000
N  11.96400 47.11400 25.16300
C  12.92800 47.61700 26.08900
C  14.28500 47.72800 25.45600
C  14.07500 47.24800 24.12000
C  12.58100 46.95000 23.93800
C  15.54600 48.11900 26.28400
C  15.02400 47.07600 23.08000
O  14.74700 46.68100 21.92000
C  16.40600 47.44400 23.31300
N  9.56400 46.47900 23.55400
C  10.57200 46.32000 22.62000
C  10.06000 45.96200 21.24400
C  8.58300 45.49400 21.65000
C  8.38600 46.05800 23.05700
C  10.14300 47.12800 20.22200
C  8.35000 43.96700 21.37700
C  7.91200 43.60000 19.95000
N  7.84300 46.50400 25.88400
C  6.82000 46.30700 24.98500
C  5.50700 46.23300 25.73700
C  5.92900 46.44100 27.05300
C  7.29900 46.68500 27.03300
C  4.12600 45.94300 25.22600
C  5.43900 46.62100 28.42600
O  4.30000 46.62200 28.87500
C  6.66100 46.92900 29.31100
C  6.84500 45.86400 30.35900
O  7.13600 44.71100 30.12300
O  6.58700 46.20900 31.61400
C  6.51700 45.13000 32.59700
H  13.21500 48.44400 28.04900
H  12.51300 46.40500 21.89700
H  6.21800 45.63800 23.11600
H  9.14200 48.45100 30.31700
H  11.89800 48.14700 30.06600
H  12.12500 50.22400 30.19700
H  10.44300 50.43700 30.27100
H  11.22200 50.52500 28.66300
H  11.09200 46.13000 30.74800
H  9.44700 45.68400 30.76800
H  9.28300 47.64900 32.52700
H  11.04400 47.25500 32.55700
H  15.18300 48.27800 27.29900
H  15.93800 49.06400 25.90700
H  16.35600 47.39600 26.37000
H  16.88400 46.81500 24.06400
H  16.37200 48.50400 23.56300
H  17.00200 47.28600 22.41500
H  10.63600 45.11800 20.86500
H  7.84100 46.08700 21.11400
H  10.40100 48.12700 20.57200
H  9.16500 47.31600 19.77900
H  10.83400 46.82900 19.43400
H  7.64200 43.58300 22.11100
H  9.24400 43.37300 21.56800
H  8.72500 43.10800 19.41600
H  7.69700 44.47200 19.33200
H  7.12100 42.85000 19.92000
H  4.12600 45.26100 24.37600
H  3.69000 46.86200 24.83500
H  3.47300 45.54100 26.00100
H  6.62000 47.90600 29.79300
H  6.94300 45.48700 33.53500
H  7.13100 44.26400 32.35000
H  5.52000 44.73200 32.78800

