158

Mg 36.18000 49.19700 24.68800
C  35.94400 47.21500 27.67300
C  34.79100 51.74000 26.52200
C  35.73900 50.61000 21.82300
C  37.33100 46.26400 23.16700
N  35.47400 49.43400 26.90800
C  35.59300 48.53100 27.92100
C  35.49200 49.29500 29.36900
C  34.79000 50.69400 28.91500
C  35.05900 50.62300 27.35300
C  33.31400 50.85100 29.43400
C  36.81200 49.35300 30.20000
C  36.74000 49.05800 31.71700
H  35.41200 49.33500 32.46200
N  35.31300 50.95000 24.22500
C  34.85400 51.91400 25.11300
C  34.64700 53.17000 24.38200
C  34.93800 52.89500 22.95900
C  35.30300 51.42700 22.91200
C  34.30400 54.51100 24.98300
C  35.05300 53.72600 21.72100
O  35.30500 53.25100 20.64800
C  34.70700 55.09700 21.83100
N  36.44400 48.46400 22.78500
C  36.29400 49.31500 21.73900
C  36.69800 48.64600 20.42900
C  37.52700 47.45600 20.96800
C  37.05200 47.37500 22.39100
C  35.51300 48.20000 19.49800
C  39.09600 47.71800 20.91500
C  39.75200 49.14900 20.92000
N  36.48300 47.10800 25.25000
C  36.97800 46.06700 24.48900
C  37.14600 44.79900 25.29100
C  36.73700 45.32800 26.55700
C  36.38400 46.71000 26.45100
C  37.68000 43.47100 24.85000
C  36.52900 44.88000 27.98300
O  36.65100 43.73500 28.46300
C  36.14400 46.13600 28.75500
C  34.90300 45.86800 29.58600
O  33.78500 46.22600 29.33800
O  35.24800 45.24700 30.77900
C  34.13000 44.87900 31.67600
H  34.48800 52.64000 27.06200
H  35.52400 50.95400 20.80900
H  37.73400 45.42000 22.60300
H  34.82200 48.66500 29.95400
H  35.25300 51.58300 29.34500
H  33.17900 51.79900 29.95500
H  32.98300 50.08000 30.13000
H  32.52600 50.91600 28.68300
H  37.26300 50.33400 30.04800
H  37.39500 48.61000 29.65700
H  37.63300 49.50700 32.15300
H  36.90000 47.98700 31.84000
H  35.12900 55.18200 24.74600
H  34.00600 54.59600 26.02800
H  33.46400 54.88900 24.40000
H  33.69200 55.13600 22.22600
H  34.75900 55.51600 20.82600
H  35.44200 55.66400 22.40200
H  37.29900 49.30800 19.80500
H  37.36300 46.44300 20.60100
H  34.52800 48.38600 19.92600
H  35.61500 47.17800 19.13500
H  35.54500 48.87200 18.64000
H  39.38600 47.17700 20.01400
H  39.31000 47.19200 21.84600
H  40.25400 49.28700 19.96200
H  40.61600 49.33700 21.55800
H  39.07100 49.99800 20.97600
H  37.95700 43.38500 23.79900
H  36.86000 42.82800 25.17000
H  38.58500 43.28600 25.42800
H  37.00400 46.48700 29.32500
H  34.32000 43.91800 32.15500
H  33.14400 44.88400 31.21200
H  34.21000 45.74700 32.33000
Mg -5.19800 25.14200 26.66300
C  -3.99300 26.43700 29.63100
C  -6.91400 22.77500 28.55300
C  -6.05800 23.72500 23.73300
C  -2.92000 27.25000 24.85700
N  -5.34000 24.65000 28.82900
C  -4.82800 25.35300 29.82500
C  -5.27100 24.84300 31.23300
C  -6.01300 23.46400 30.85000
C  -6.13700 23.64000 29.29900
C  -5.19800 22.18600 31.26500
C  -6.16500 26.02400 31.87400
C  -5.98500 26.19100 33.41500
H  -5.39400 24.98000 34.19500
N  -6.19200 23.51300 26.21600
C  -6.99900 22.74200 27.12900
C  -7.81500 21.80900 26.38600
C  -7.63100 22.13400 25.02300
C  -6.58400 23.17800 24.93500
C  -8.66300 20.75300 27.08200
C  -8.33500 21.44600 23.92400
O  -8.08200 21.77600 22.77200
C  -9.38900 20.33000 24.12800
N  -4.57400 25.45200 24.53900
C  -5.07000 24.71700 23.56900
C  -4.43000 25.07700 22.20600
C  -3.45900 26.21100 22.59400
C  -3.59900 26.32400 24.12300
C  -3.77900 23.89800 21.47600
C  -3.62500 27.51800 21.78200
C  -2.43000 28.00300 20.92400
N  -3.93100 26.63000 27.10000
C  -3.06000 27.40000 26.26200
C  -2.23600 28.22900 27.02900
C  -2.54700 28.02300 28.33500
C  -3.52400 26.91100 28.39800
C  -1.31600 29.26900 26.45600
C  -2.35100 28.41800 29.75300
O  -1.71300 29.36300 30.31900
C  -3.25800 27.33200 30.56400
C  -2.38800 26.50600 31.53300
O  -1.80700 25.47500 31.20600
O  -2.20600 27.03100 32.82200
C  -1.17400 26.27100 33.56300
H  -7.49900 22.05400 29.12800
H  -6.23900 23.20100 22.79100
H  -2.15500 27.77500 24.28000
H  -4.37300 24.63700 31.81500
H  -6.95500 23.48800 31.39900
H  -4.27500 22.53300 31.72900
H  -4.87900 21.60800 30.39700
H  -5.74800 21.56600 31.97400
H  -7.19700 25.73200 31.68100
H  -6.00300 26.95800 31.33700
H  -7.02400 26.33800 33.71200
H  -5.45700 27.12700 33.59800
H  -9.74000 20.86000 26.95500
H  -8.27400 20.56600 28.08300
H  -8.43500 19.83200 26.54600
H  -9.76500 19.99900 23.16000
H  -10.14700 20.75000 24.78800
H  -9.00400 19.44000 24.62600
H  -5.32500 25.30700 21.62800
H  -2.46100 25.79800 22.44400
H  -3.00500 24.24000 20.78900
H  -4.58300 23.39900 20.93600
H  -3.25700 23.23900 22.17000
H  -3.94700 28.35200 22.40500
H  -4.56800 27.40700 21.24700
H  -2.05900 28.91900 21.38500
H  -2.84100 28.12200 19.92100
H  -1.72100 27.17900 21.00600
H  -1.95500 30.11400 26.20200
H  -0.77100 28.94700 25.56900
H  -0.58100 29.54600 27.21200
H  -4.02000 27.89600 31.10200
H  -0.72100 26.96800 34.26800
H  -0.32700 26.02200 32.92400
H  -1.52900 25.37800 34.07800

