158

Mg 16.38100 -2.24200 27.64100
C  15.23100 -0.26700 30.24300
C  18.43500 -3.84800 29.78400
C  17.48300 -3.97600 24.98500
C  14.46300 -0.14500 25.50100
N  16.86900 -2.00300 29.76800
C  16.24100 -1.17200 30.62300
C  16.75100 -1.40300 32.08300
C  17.78900 -2.59900 31.89500
C  17.67600 -2.89500 30.39700
C  19.15500 -2.28100 32.34900
C  15.61600 -1.83900 33.02300
C  15.45700 -1.07800 34.31700
H  16.68600 -0.45400 34.96200
N  17.75100 -3.75000 27.47900
C  18.46600 -4.37500 28.46600
C  19.38700 -5.28800 27.89800
C  19.01100 -5.43500 26.52300
C  18.04500 -4.32100 26.27000
C  20.51300 -5.98400 28.58400
C  19.45400 -6.45800 25.44400
O  19.03000 -6.47500 24.31500
C  20.48100 -7.47900 25.84200
N  16.10400 -2.01900 25.50200
C  16.58000 -2.89200 24.60700
C  16.20600 -2.50700 23.08800
C  15.17000 -1.39900 23.30300
C  15.22400 -1.11100 24.85100
C  17.51100 -2.04900 22.35600
C  13.77300 -1.78700 22.79100
C  13.16800 -1.04200 21.59100
N  15.07900 -0.69800 27.79300
C  14.40800 0.08600 26.85200
C  13.71100 1.11100 27.47600
C  14.01100 1.00400 28.77800
C  14.81000 -0.07900 28.96700
C  12.69600 2.09200 26.81700
C  13.84600 1.71900 30.03200
O  13.20400 2.71800 30.24600
C  14.63400 0.82300 31.09300
C  15.50400 1.94300 31.53900
O  16.31700 2.52300 30.77600
O  15.23800 2.43600 32.80700
C  16.09500 3.50200 33.30200
H  19.12300 -4.41000 30.41800
H  17.79900 -4.50900 24.08600
H  13.74200 0.51300 25.01200
H  17.35500 -0.59800 32.50100
H  17.33100 -3.50900 32.28100
H  19.86600 -2.09700 31.54300
H  19.50200 -3.20000 32.82000
H  19.10400 -1.51800 33.12600
H  15.73200 -2.88000 33.32600
H  14.63700 -1.82400 32.54300
H  14.86600 -1.71700 34.97300
H  14.75700 -0.29500 34.02400
H  20.06300 -6.96300 28.75200
H  20.65700 -5.52200 29.56100
H  21.41800 -5.98600 27.97600
H  20.24200 -8.08600 26.71600
H  21.47500 -7.05400 25.98000
H  20.51500 -8.12400 24.96400
H  15.88700 -3.43500 22.61300
H  15.40600 -0.50300 22.72800
H  18.30900 -1.88300 23.08000
H  17.35000 -1.15800 21.75000
H  17.86400 -2.84800 21.70200
H  13.03100 -1.68100 23.58300
H  13.79600 -2.85900 22.59500
H  13.89200 -1.05800 20.77600
H  12.93400 -0.05900 21.99800
H  12.26600 -1.57700 21.29200
H  13.25000 2.83900 26.24800
H  11.97500 2.55200 27.49300
H  12.17100 1.49400 26.07200
H  14.04600 0.49000 31.94900
H  17.10000 3.43500 32.88600
H  16.13800 3.33700 34.37800
H  15.76300 4.51900 33.09200
Mg 49.85100 46.42600 43.09600
C  47.27200 48.67900 42.24700
C  47.95400 43.89400 41.84400
C  52.66200 44.70600 43.00500
C  51.64600 49.33900 43.95900
N  47.86800 46.36900 42.22500
C  46.99800 47.35400 41.85100
C  45.80900 46.77900 41.16100
C  45.83300 45.28200 41.67700
C  47.33600 45.16200 41.86800
C  45.14300 44.93500 42.95700
C  45.80300 46.86700 39.60600
C  44.40100 46.68900 38.93200
H  44.46700 45.55700 37.92400
N  50.24300 44.55200 42.55200
C  49.37500 43.69100 42.01300
C  49.98200 42.46400 41.84100
C  51.32900 42.60000 42.17900
C  51.53300 43.99900 42.60500
C  49.34900 41.11200 41.42100
C  52.44500 41.60400 41.87600
O  52.22100 40.51900 41.39400
C  53.93900 41.93000 42.19300
N  51.90300 46.99400 43.32500
C  52.87400 45.99500 43.32200
C  54.18200 46.48100 43.95300
C  53.91700 48.00100 43.81600
C  52.36700 48.16000 43.66500
C  54.64600 45.94000 45.34700
C  54.68600 48.76300 42.75800
C  56.19400 49.11600 43.01200
N  49.53700 48.51500 43.37000
C  50.28600 49.51700 43.80400
C  49.53100 50.80100 43.84000
C  48.39700 50.55600 43.12600
C  48.42700 49.12600 42.87100
C  50.22700 52.09700 44.27700
C  47.19600 51.14900 42.64300
O  46.74800 52.27700 42.77600
C  46.41000 49.96000 41.99100
C  45.11600 49.79500 42.66100
O  45.00400 49.28500 43.70700
O  44.10200 49.91900 41.73300
C  42.78000 49.54500 42.29100
H  47.31800 43.13300 41.38800
H  53.63300 44.24400 43.19300
H  52.22100 50.21300 44.27200
H  44.90100 47.24900 41.53900
H  45.55900 44.57600 40.89400
H  44.27500 44.31000 42.75000
H  44.77500 45.86900 43.38100
H  45.79000 44.43800 43.67900
H  46.44000 46.01600 39.36800
H  46.12500 47.82700 39.20200
H  44.14600 47.61300 38.41200
H  43.60100 46.33500 39.58200
H  48.26000 41.15900 41.43600
H  49.64600 40.41800 42.20800
H  49.79200 40.84800 40.46100
H  53.94000 42.14700 43.26100
H  54.06500 42.92800 41.77100
H  54.64700 41.20800 41.78700
H  54.99700 46.24600 43.26800
H  54.24200 48.51100 44.72300
H  55.72700 46.02200 45.46100
H  54.40300 44.88400 45.46400
H  54.31600 46.62000 46.13300
H  54.08400 49.61000 42.42900
H  54.73900 48.09300 41.90000
H  56.18700 50.20500 42.98200
H  56.86600 48.60000 42.32700
H  56.46800 48.92000 44.04800
H  51.20100 52.16800 43.79200
H  50.49100 52.11000 45.33400
H  49.62900 52.99300 44.11100
H  46.33100 50.21000 40.93300
H  42.68000 48.46800 42.42900
H  41.98000 49.89600 41.64000
H  42.73200 50.14100 43.20200

