158

Mg 24.92200 -5.49600 45.69400
C  26.84600 -2.82800 44.01300
C  22.38400 -4.86600 43.60700
C  23.66700 -8.19400 46.81300
C  28.01900 -6.16500 47.30000
N  24.77100 -4.13900 43.83000
C  25.57300 -3.09000 43.42700
C  24.87400 -2.38400 42.27500
C  23.38800 -2.85600 42.38700
C  23.49000 -4.03800 43.32300
C  22.37900 -1.71500 42.81300
C  25.56200 -2.55100 40.90500
C  25.35700 -1.41000 39.89200
H  26.21100 -1.42400 38.62200
N  23.14300 -6.40600 45.32700
C  22.20600 -6.04000 44.38900
C  21.05400 -6.90900 44.64200
C  21.40800 -7.94800 45.55600
C  22.84300 -7.54100 45.95400
C  19.75600 -6.71300 43.84800
C  20.48100 -9.06600 46.12200
O  19.35800 -9.20700 45.73300
C  20.91800 -9.94300 47.34400
N  25.74300 -6.97000 46.84300
C  24.97500 -8.01300 47.18700
C  25.78800 -9.09200 47.90800
C  27.16400 -8.39000 48.17000
C  26.97600 -7.10400 47.36300
C  25.17100 -9.58500 49.27100
C  28.42800 -9.17800 47.69400
C  29.57300 -9.23100 48.74200
N  26.98800 -4.50100 45.94200
C  28.09300 -4.89900 46.61700
C  29.13300 -3.98800 46.44100
C  28.78300 -3.18500 45.38600
C  27.43500 -3.52100 45.14800
C  30.42800 -4.10700 47.08400
C  29.22700 -2.15200 44.44800
O  30.40400 -1.76800 44.25900
C  27.97300 -1.92400 43.45000
C  27.66600 -0.46600 43.26600
O  26.94700 0.18900 44.00900
O  28.53800 0.07800 42.32500
C  28.50500 1.53400 41.98500
H  21.45900 -4.63300 43.07600
H  23.18800 -9.14300 47.06600
H  28.92400 -6.40600 47.86200
H  24.95800 -1.35400 42.62100
H  23.09300 -3.17400 41.38700
H  21.88300 -1.52500 41.86100
H  22.79000 -0.74400 43.09000
H  21.68400 -2.11700 43.55000
H  25.10000 -3.44100 40.47700
H  26.60900 -2.78000 41.10400
H  25.70100 -0.52600 40.43000
H  24.29800 -1.25800 39.68500
H  19.38300 -7.66400 43.47000
H  19.88400 -6.10700 42.95100
H  18.97800 -6.12300 44.33200
H  20.01700 -10.33700 47.81400
H  21.33800 -9.33400 48.14500
H  21.57200 -10.76900 47.06400
H  25.86100 -9.97300 47.27000
H  27.19700 -8.05900 49.20800
H  24.16000 -9.19900 49.40600
H  25.83600 -9.42900 50.12100
H  24.98300 -10.65400 49.18000
H  28.81100 -8.78600 46.75200
H  28.09900 -10.17100 47.38700
H  29.54800 -10.18400 49.27000
H  29.33100 -8.55900 49.56500
H  30.54500 -9.05500 48.28100
H  31.05500 -3.22300 46.96300
H  30.83800 -5.01600 46.64500
H  30.26700 -4.20800 48.15700
H  28.33900 -2.15300 42.44800
H  28.04500 1.73700 41.01800
H  29.49900 1.97200 41.89100
H  28.02100 2.12900 42.75900
Mg 25.72800 1.70900 29.51400
C  27.84000 1.31400 32.24000
C  23.07600 1.77900 31.65500
C  23.56900 1.65600 26.85000
C  28.47400 1.14700 27.42400
N  25.48100 1.52400 31.65700
C  26.54200 1.65300 32.51000
C  25.98400 1.87200 33.92600
C  24.40600 1.88100 33.76900
C  24.28000 1.68100 32.29200
C  23.66400 0.79800 34.57600
C  26.60500 3.03300 34.70900
C  27.26200 2.62900 36.02300
H  26.36700 2.92600 37.18500
N  23.60700 1.85300 29.25100
C  22.68400 1.82900 30.31300
C  21.35500 2.01600 29.75300
C  21.50600 2.11100 28.32400
C  22.92600 1.80400 28.09100
C  20.10100 2.25100 30.66500
C  20.44700 2.17800 27.22500
O  20.70800 2.21900 26.01300
C  19.03100 2.10600 27.73500
N  25.98100 1.34600 27.40500
C  24.93900 1.50900 26.54900
C  25.51100 1.83900 25.06300
C  27.16000 1.70700 25.25400
C  27.25400 1.33800 26.78800
C  24.94700 1.10000 23.78500
C  27.98600 2.90900 24.91400
C  27.47700 4.24700 25.40100
N  27.70500 1.21100 29.69200
C  28.72100 1.01600 28.81400
C  29.97600 0.67800 29.53000
C  29.66600 0.83900 30.87400
C  28.32700 1.13700 30.92100
C  31.30500 0.29100 29.00300
C  30.27000 0.75200 32.20600
O  31.42700 0.48400 32.47600
C  29.06300 1.08800 33.21400
C  28.99100 -0.02500 34.18900
O  28.26400 -0.97800 34.10100
O  29.83800 0.17500 35.18700
C  29.88800 -0.64200 36.35700
H  22.20300 1.74100 32.31000
H  23.02700 1.82200 25.91700
H  29.33600 1.23600 26.75900
H  26.27900 0.99300 34.49900
H  23.97100 2.84500 34.03000
H  23.25200 0.03600 33.91400
H  22.86800 1.27100 35.15200
H  24.42600 0.32800 35.19800
H  25.84700 3.79600 34.88600
H  27.43500 3.40200 34.10500
H  28.17700 3.21200 36.12600
H  27.61200 1.59700 36.04800
H  19.87900 3.31700 30.61100
H  20.11100 2.02900 31.73200
H  19.28400 1.64100 30.28000
H  18.81000 3.00300 28.31500
H  18.82100 1.20400 28.30900
H  18.30100 2.12400 26.92500
H  25.25100 2.88100 24.87500
H  27.43800 0.95500 24.51600
H  24.31200 0.24800 24.02900
H  25.76100 0.84100 23.10700
H  24.35600 1.76100 23.15200
H  27.89200 2.81000 23.83300
H  28.98700 2.65900 25.26800
H  26.72700 4.24600 26.19200
H  27.03000 4.73000 24.53300
H  28.27700 4.88700 25.77500
H  31.96400 1.06900 28.61900
H  31.09600 -0.42300 28.20700
H  31.75500 -0.38300 29.73200
H  29.33600 2.03900 33.67100
H  29.84800 -1.70500 36.12200
H  29.22400 -0.25500 37.13000
H  30.85800 -0.56300 36.84800

