158

Mg 47.58300 34.79800 28.30500
C  46.20500 33.11800 30.89500
C  47.91900 37.64200 30.28900
C  48.92600 36.62900 25.65800
C  46.84100 32.26500 26.15300
N  47.07600 35.32600 30.30200
C  46.60900 34.47400 31.22200
C  46.65400 35.10000 32.62100
C  46.77700 36.61300 32.33800
C  47.24900 36.53700 30.84700
C  45.43000 37.41700 32.52900
C  47.85200 34.52200 33.46500
C  47.50200 33.95000 34.81600
H  47.98300 34.75200 36.02300
N  48.34000 36.88000 28.00100
C  48.46000 37.77200 29.01200
C  49.15100 38.92800 28.46500
C  49.43800 38.72600 27.14100
C  48.87600 37.39200 26.82600
C  49.55800 40.11200 29.33700
C  50.29400 39.53000 26.20600
O  50.48800 39.20400 25.02200
C  50.97900 40.77600 26.64300
N  47.84700 34.51200 26.23600
C  48.42100 35.35600 25.38800
C  48.52900 34.78100 23.94900
C  48.11000 33.32400 24.18600
C  47.55600 33.36700 25.56100
C  47.78200 35.57200 22.78300
C  49.22200 32.20700 24.02900
C  48.76600 30.97100 23.27000
N  46.59200 33.11300 28.40000
C  46.45000 32.07300 27.47800
C  45.77800 30.93700 28.04000
C  45.60700 31.38100 29.39700
C  46.18900 32.59300 29.58300
C  45.29500 29.68100 27.37000
C  45.13900 30.92300 30.68600
O  44.60200 29.84400 30.99100
C  45.43400 32.09600 31.74600
C  46.09200 31.47400 32.90300
O  47.22800 31.15300 32.88100
O  45.26100 31.25200 34.00800
C  45.90200 30.53700 35.13100
H  48.01600 38.49200 30.96800
H  49.40900 37.08100 24.78900
H  46.74800 31.43000 25.45600
H  45.74400 34.88000 33.17900
H  47.54500 37.05700 32.97100
H  45.31000 37.98700 31.60800
H  45.52800 38.05300 33.40900
H  44.58400 36.74900 32.68900
H  48.50300 35.34300 33.76500
H  48.29800 33.72700 32.86800
H  48.14800 33.07800 34.91700
H  46.46200 33.63900 34.90600
H  50.63400 40.12600 29.50900
H  49.05900 39.98000 30.29700
H  49.21000 41.06200 28.93000
H  51.36100 41.31100 25.77400
H  51.84200 40.45300 27.22600
H  50.31200 41.45600 27.17200
H  49.59000 34.72800 23.70700
H  47.27200 32.95800 23.59200
H  47.44000 36.51300 23.21300
H  46.86700 35.03400 22.53600
H  48.44200 35.73600 21.93100
H  49.48600 31.85700 25.02800
H  50.20300 32.52400 23.67400
H  49.11700 30.12700 23.86500
H  49.26700 31.02200 22.30300
H  47.70700 31.00000 23.01200
H  45.98300 29.32900 26.60100
H  44.30000 29.92300 26.99600
H  45.28300 28.95300 28.18100
H  44.56400 32.53300 32.23600
H  45.54600 30.92200 36.08600
H  46.99100 30.50200 35.14500
H  45.60700 29.49300 35.23400
Mg 16.43700 51.46100 25.15200
C  18.08100 50.54500 28.03400
C  13.76600 52.49000 27.06500
C  14.63400 51.75300 22.35300
C  19.04900 49.76900 23.32500
N  16.01300 51.50300 27.35400
C  16.87200 51.14200 28.33900
C  16.26000 51.61200 29.72000
C  14.77700 52.02200 29.36300
C  14.81000 51.98800 27.83700
C  13.61600 51.29100 30.11200
C  17.30200 52.61700 30.40900
C  17.80300 52.33500 31.84600
H  16.94300 51.60300 32.81200
N  14.50400 52.14600 24.80200
C  13.58200 52.53600 25.69800
C  12.32700 53.01700 25.06600
C  12.55700 52.71000 23.66100
C  13.94200 52.12200 23.52000
C  11.06200 53.63000 25.63500
C  11.65300 52.92500 22.48000
O  11.96400 52.71100 21.31800
C  10.22700 53.41600 22.63000
N  16.82000 50.92600 23.10100
C  15.91300 51.17200 22.11600
C  16.44700 50.78700 20.62000
C  17.92800 50.39000 21.02900
C  17.91000 50.31900 22.57300
C  15.62700 49.66600 19.92200
C  19.08500 51.21400 20.45700
C  19.35000 52.65700 20.97100
N  18.27400 50.41700 25.49500
C  19.22300 49.77800 24.69300
C  20.19400 49.18300 25.57300
C  19.85400 49.54700 26.86100
C  18.64400 50.23600 26.77800
C  21.28800 48.23000 25.08100
C  20.18100 49.37700 28.25900
O  21.11100 48.80400 28.77800
C  19.05400 50.01900 29.03300
C  18.48500 48.86700 29.89300
O  17.67700 48.03600 29.49200
O  19.13600 48.86900 31.10300
C  18.64800 47.85500 32.00800
H  12.90500 52.73700 27.68900
H  14.15100 51.83300 21.37600
H  19.97700 49.32100 22.96200
H  16.20300 50.71700 30.33900
H  14.52800 53.07300 29.51100
H  13.98600 50.77300 30.99700
H  12.99200 50.61000 29.53500
H  12.94600 52.04900 30.51900
H  16.74700 53.55100 30.31200
H  18.14400 52.83500 29.75200
H  18.18300 53.20400 32.38300
H  18.71000 51.75200 31.69100
H  11.26600 53.79300 26.69300
H  10.19900 52.97900 25.50000
H  10.79100 54.65800 25.39400
H  10.40400 54.45000 22.92700
H  9.73100 52.68000 23.26300
H  9.73100 53.32700 21.66400
H  16.37300 51.60900 19.90800
H  18.17100 49.36600 20.74600
H  15.11000 50.17000 19.10500
H  14.82600 49.31200 20.57100
H  16.25400 48.80300 19.69300
H  18.89900 51.19500 19.38300
H  19.88900 50.52000 20.70000
H  20.28500 52.64000 21.53200
H  18.44400 52.98700 21.48000
H  19.44000 53.35100 20.13500
H  21.12700 47.79300 24.09500
H  21.26900 47.41500 25.80300
H  22.20100 48.81900 25.16500
H  19.47600 50.74300 29.73000
H  17.64000 47.45400 31.90500
H  18.63700 48.32100 32.99400
H  19.36300 47.03200 32.03400

