158

Mg 2.36900 -1.81400 44.02000
C  5.63500 -0.80100 43.32500
C  1.27400 1.10500 42.60100
C  -0.64300 -3.23600 43.62000
C  3.61700 -4.84600 45.34600
N  3.37500 -0.12100 42.92500
C  4.67100 0.18600 42.88300
C  4.88200 1.58000 42.36100
C  3.56300 2.26600 42.47000
C  2.65800 1.04600 42.72400
C  3.45600 3.39500 43.63800
C  5.52200 1.51200 40.92700
C  6.49900 2.68100 40.60900
H  6.31200 3.45500 39.25100
N  0.44700 -1.12300 43.35100
C  0.21400 0.13500 42.79600
C  -1.08300 0.25300 42.47200
C  -1.75200 -0.97400 42.88900
C  -0.68600 -1.86800 43.33900
C  -1.61400 1.45400 41.77700
C  -3.29500 -1.21800 42.72300
O  -4.06900 -0.31500 42.32500
C  -3.91300 -2.46800 43.08100
N  1.63400 -3.77500 44.44400
C  0.28800 -4.08300 44.23500
C  -0.00200 -5.50500 44.74100
C  1.29700 -5.92200 45.47100
C  2.26700 -4.80700 45.11700
C  -1.31700 -5.67200 45.52000
C  1.90400 -7.35600 44.95300
C  1.06700 -8.60300 45.25400
N  4.22000 -2.72100 44.24000
C  4.55000 -3.96800 44.84400
C  6.02200 -3.98000 44.86000
C  6.46300 -2.78200 44.31800
C  5.34700 -2.09400 43.94000
C  6.82500 -5.02400 45.53100
C  7.67600 -2.05400 43.95500
O  8.82300 -2.45800 44.08400
C  7.16600 -0.70600 43.31800
C  7.49600 0.38600 44.22400
O  7.24200 0.34100 45.41400
O  8.13300 1.38100 43.56900
C  8.34600 2.57500 44.47700
H  1.05100 2.06000 42.12100
H  -1.60600 -3.74800 43.56400
H  3.91400 -5.76900 45.84800
H  5.52600 2.17500 43.00800
H  3.42000 2.81400 41.53800
H  2.40200 3.29200 43.89900
H  3.66000 4.29500 43.05800
H  4.14900 3.35200 44.47800
H  4.71800 1.55800 40.19200
H  6.02600 0.58600 40.65100
H  7.48800 2.24000 40.73000
H  6.35100 3.31300 41.48500
H  -2.45700 1.19800 41.13400
H  -0.88300 1.82200 41.05800
H  -2.00300 2.21500 42.45300
H  -4.97500 -2.35300 43.29700
H  -3.53700 -2.98400 43.96400
H  -3.80700 -3.10700 42.20400
H  -0.11600 -6.05200 43.80500
H  1.07400 -5.91900 46.53800
H  -1.91000 -4.76100 45.60000
H  -1.09800 -5.95100 46.55100
H  -2.01500 -6.41700 45.13900
H  2.91100 -7.54700 45.32300
H  2.08700 -7.32000 43.87900
H  0.74500 -8.92700 44.26400
H  0.20500 -8.20800 45.79300
H  1.51500 -9.40300 45.84300
H  7.81700 -4.95500 45.08500
H  6.36000 -6.00700 45.46600
H  6.98800 -4.74100 46.57100
H  7.55900 -0.52700 42.31600
H  8.55600 2.44000 45.53800
H  7.45500 3.14200 44.21000
H  9.20100 3.09700 44.04600
Mg 26.53200 50.07100 26.37300
C  24.41700 51.47200 28.72500
C  28.71600 49.13400 28.73300
C  28.58300 48.78200 23.87200
C  24.35900 51.33000 23.88600
N  26.58600 50.28200 28.46800
C  25.54800 50.75400 29.22800
C  25.82300 50.45600 30.81100
C  27.26800 49.86600 30.74300
C  27.52200 49.68800 29.21700
C  28.34500 50.85300 31.31600
C  24.72200 49.69500 31.49200
C  24.22400 50.13400 32.89700
H  25.12800 50.79200 33.98300
N  28.29000 49.06000 26.33400
C  29.11600 48.82300 27.40400
C  30.24800 48.10100 27.03600
C  30.15800 47.87900 25.62100
C  28.89300 48.53700 25.20000
C  31.31800 47.59100 28.01500
C  31.09300 47.01600 24.75900
O  30.82700 46.63500 23.66100
C  32.46800 46.77600 25.28500
N  26.59300 50.22700 24.13500
C  27.43900 49.49600 23.38900
C  27.16200 49.61900 21.89600
C  25.70300 50.29300 21.86500
C  25.51100 50.67000 23.35000
C  28.29700 50.34000 21.13400
C  24.62700 49.37100 21.22000
C  24.12500 48.15300 21.96500
N  24.69700 51.15000 26.26900
C  23.96000 51.57600 25.22900
C  22.80800 52.29900 25.71700
C  22.97400 52.32700 27.07000
C  24.14500 51.61100 27.38200
C  21.80900 53.03300 24.90500
C  22.36800 52.79800 28.29800
O  21.43300 53.54000 28.55400
C  23.29000 52.23900 29.42300
C  23.68600 53.42000 30.24600
O  24.21200 54.46600 29.87500
O  23.06600 53.36600 31.45400
C  23.19600 54.45200 32.46600
H  29.23500 48.80200 29.63500
H  29.31300 48.35500 23.18100
H  23.55700 51.50500 23.16600
H  25.77100 51.40300 31.34800
H  27.32700 48.88400 31.21200
H  29.15300 50.92700 30.58900
H  28.65400 50.28700 32.19500
H  28.00300 51.85100 31.59000
H  25.03500 48.65600 31.60000
H  23.91100 49.61800 30.76800
H  24.09100 49.16500 33.37800
H  23.31400 50.70500 32.71400
H  31.49400 46.53000 27.84000
H  30.84200 47.75500 28.98200
H  32.23100 48.18000 27.92500
H  32.84300 47.65900 25.80200
H  33.22900 46.57200 24.53100
H  32.54300 45.92800 25.96700
H  27.17600 48.62000 21.46000
H  25.64200 51.25000 21.34800
H  28.17500 51.40800 20.95300
H  28.57700 49.81400 20.22200
H  29.25800 50.33800 21.64900
H  25.07800 49.17800 20.24600
H  23.69400 49.84500 20.91500
H  23.08500 48.39400 22.18600
H  24.77500 48.19900 22.83900
H  24.27400 47.25400 21.36700
H  21.85600 54.07700 25.21600
H  20.80600 52.62000 25.01300
H  22.16700 52.98900 23.87700
H  22.75100 51.50000 30.01800
H  23.70000 55.31500 32.02900
H  23.78100 54.11800 33.32200
H  22.19900 54.75900 32.78200

