158

Mg 35.65000 2.33700 29.09600
C  33.48600 3.11600 31.68100
C  38.30200 2.49600 31.32500
C  37.77800 2.23100 26.39300
C  32.94500 2.73300 26.80300
N  35.84600 2.73400 31.23600
C  34.79800 2.80500 32.09100
C  35.24100 2.93600 33.48400
C  36.83000 2.94400 33.43600
C  37.03900 2.73900 31.86700
C  37.53100 4.23000 34.03400
C  34.63900 1.74400 34.36800
C  34.48800 2.08900 35.87900
H  34.90600 3.49600 36.46700
N  37.71700 2.25500 28.94300
C  38.64100 2.35900 29.98400
C  39.94800 2.18100 29.44600
C  39.83900 2.08300 28.01300
C  38.39300 2.23700 27.69600
C  41.19000 2.12900 30.30300
C  41.01300 1.94300 27.05200
O  40.81900 1.98300 25.79100
C  42.36000 1.62900 27.50700
N  35.43200 2.37400 27.00800
C  36.40600 2.37300 26.09000
C  35.94100 2.64100 24.65700
C  34.41800 2.38300 24.74200
C  34.19400 2.44200 26.25200
C  36.27100 4.08800 24.07400
C  33.89900 1.10200 24.06300
C  33.24400 1.39700 22.73000
N  33.58700 2.81400 29.15500
C  32.60500 2.96100 28.14500
C  31.39200 3.56800 28.72900
C  31.70000 3.58200 30.13600
C  33.03100 3.15900 30.32500
C  30.11300 3.90600 28.00900
C  31.13500 3.86100 31.52900
O  29.98200 3.96500 31.90700
C  32.28400 3.60800 32.53500
C  32.48000 4.83000 33.27700
O  33.16400 5.83600 33.01500
O  31.67900 4.66700 34.47200
C  31.45600 5.89300 35.27800
H  39.15800 2.35100 31.98800
H  38.49800 2.16400 25.57500
H  32.02800 2.83400 26.22000
H  34.94500 3.87500 33.95200
H  37.21300 2.04900 33.92600
H  38.24800 3.91900 34.79400
H  36.76900 4.93400 34.37000
H  38.17000 4.69000 33.28000
H  35.36700 0.93700 34.27900
H  33.69900 1.42800 33.91600
H  35.05200 1.30500 36.38600
H  33.46300 1.90400 36.20000
H  41.93700 2.84300 29.95500
H  41.52200 1.09200 30.35100
H  41.13600 2.40700 31.35600
H  42.65200 2.45500 28.15600
H  42.91800 1.49100 26.58100
H  42.33700 0.67400 28.03100
H  36.35900 1.88500 23.99200
H  33.82000 3.22100 24.38600
H  36.67400 4.00900 23.06400
H  36.96800 4.49300 24.80800
H  35.40900 4.74200 23.93900
H  33.21700 0.57300 24.72800
H  34.68400 0.36600 23.88900
H  32.17700 1.36900 22.95200
H  33.42000 0.56100 22.05300
H  33.70000 2.31800 22.36600
H  29.65100 2.98700 27.64600
H  30.37300 4.65000 27.25600
H  29.36100 4.30300 28.69000
H  32.02600 2.89200 33.31600
H  31.38900 6.84400 34.75000
H  32.12300 5.89700 36.14000
H  30.48200 5.78900 35.75400
Mg 30.46200 57.64900 40.05000
C  27.70100 55.79000 39.01200
C  32.50300 55.01800 39.31200
C  33.07400 59.78300 40.25700
C  28.37200 60.42600 40.56400
N  30.13800 55.71500 39.09900
C  28.92800 55.06100 38.89700
C  29.10500 53.63300 38.51600
C  30.52200 53.33500 39.12500
C  31.12300 54.75700 39.17500
C  30.39900 52.74200 40.53300
C  29.09500 53.42000 36.96400
C  27.98800 52.56700 36.29000
H  27.05300 53.22500 35.28700
N  32.51300 57.46500 39.81500
C  33.16200 56.27700 39.63500
C  34.52800 56.45700 39.58000
C  34.79600 57.85100 39.80700
C  33.42000 58.44700 40.02700
C  35.43500 55.40900 39.20200
C  36.17100 58.54200 39.83800
O  37.26500 58.02300 39.59000
C  36.23800 60.04200 40.29700
N  30.66500 59.83900 40.38200
C  31.90300 60.42600 40.36500
C  31.75100 61.95000 40.67700
C  30.24700 62.11200 40.83400
C  29.69800 60.74700 40.59500
C  32.63400 62.55300 41.84700
C  29.69600 63.30100 39.94500
C  29.03500 64.44900 40.67100
N  28.40800 58.04400 39.96700
C  27.70400 59.18900 40.28600
C  26.26000 58.78500 40.21800
C  26.25300 57.52600 39.65000
C  27.55600 57.13700 39.44800
C  25.00200 59.62800 40.70800
C  25.36700 56.39500 39.34800
O  24.12800 56.34400 39.32000
C  26.26600 55.17400 38.88500
C  25.86600 54.04200 39.82700
O  26.54300 53.59100 40.65600
O  24.70900 53.44800 39.36600
C  24.43800 52.08800 39.84200
H  33.14900 54.13800 39.30100
H  33.85300 60.53400 40.40800
H  27.67300 61.19800 40.89200
H  28.35100 53.09100 39.08600
H  31.09200 52.66800 38.47800
H  31.05900 51.87400 40.51700
H  29.39500 52.34800 40.69000
H  30.62200 53.32600 41.42500
H  30.03400 52.98600 36.62200
H  29.22100 54.39800 36.49900
H  27.35600 52.11000 37.05200
H  28.51000 51.76400 35.76900
H  35.09200 54.91300 38.29400
H  35.36000 54.62700 39.95800
H  36.49400 55.65600 39.12800
H  35.86400 60.20500 41.30800
H  35.66100 60.69900 39.64600
H  37.31200 60.23000 40.28600
H  32.04300 62.50700 39.78700
H  29.90600 62.36700 41.83800
H  33.48400 63.02400 41.35300
H  33.00700 61.74500 42.47700
H  32.10700 63.29200 42.45100
H  28.84000 62.97900 39.35300
H  30.40800 63.71800 39.23200
H  27.94500 64.44600 40.69200
H  29.35900 65.39800 40.24400
H  29.34100 64.51600 41.71500
H  24.39800 59.78600 39.81400
H  25.28100 60.48700 41.31900
H  24.42900 58.96100 41.35200
H  26.23200 54.85000 37.84400
H  23.36800 51.98900 40.02300
H  24.86200 51.90700 40.82900
H  24.75000 51.30400 39.15300

