158

Mg 40.48200 9.11500 29.30200
C  42.15200 10.41800 32.07100
C  38.31500 7.53300 31.61200
C  38.92200 7.73600 26.69300
C  43.04800 10.14100 27.25900
N  40.28900 9.03500 31.55800
C  41.00100 9.79200 32.46300
C  40.34500 9.75400 33.88700
C  39.24800 8.71300 33.60900
C  39.33900 8.35100 32.21800
C  39.20400 7.46900 34.59900
C  39.99200 11.17200 34.43800
C  39.27000 11.17000 35.82300
H  39.97000 11.91600 36.96200
N  38.74200 7.89500 29.15200
C  38.00200 7.37100 30.21700
C  36.90100 6.77800 29.60000
C  36.99900 6.84300 28.19200
C  38.28200 7.49300 27.92300
C  35.82000 6.13000 30.46600
C  36.05500 6.40500 27.11700
O  36.29400 6.58800 25.93100
C  34.79200 5.72800 27.53000
N  40.93200 8.95700 27.35700
C  40.05000 8.49200 26.41400
C  40.55100 8.56700 24.97900
C  41.86100 9.43200 25.11400
C  41.98600 9.55900 26.66400
C  40.81200 7.13300 24.37100
C  41.89800 10.78400 24.38600
C  41.10600 12.01200 24.94900
N  42.23300 10.13200 29.58200
C  43.17300 10.52400 28.61700
C  44.26900 11.27900 29.26200
C  43.84900 11.33900 30.61100
C  42.67100 10.52800 30.76900
C  45.49400 11.83300 28.64600
C  44.21000 11.88000 31.89700
O  45.18600 12.52300 32.23200
C  43.09500 11.31200 32.90000
C  43.76900 10.53300 34.03400
O  44.72000 9.82500 33.82400
O  43.23400 10.93700 35.23800
C  43.68200 10.12400 36.36400
H  37.60000 7.15500 32.34500
H  38.40300 7.37700 25.80100
H  43.81300 10.46200 26.54800
H  41.15100 9.25700 34.42700
H  38.33300 9.28000 33.77800
H  38.17600 7.42300 34.95900
H  39.83300 7.63800 35.47300
H  39.63400 6.58700 34.12400
H  39.34600 11.64400 33.69900
H  40.91000 11.74000 34.58800
H  39.18800 10.12500 36.12100
H  38.31400 11.67200 35.67200
H  35.96500 6.36700 31.52000
H  35.90900 5.07000 30.22900
H  34.81200 6.48900 30.25700
H  34.06500 6.48200 27.82900
H  34.85700 4.94500 28.28600
H  34.36600 5.21700 26.66700
H  39.75900 9.06000 24.41800
H  42.74500 8.86600 24.81900
H  41.86300 6.85200 24.31700
H  40.36000 7.06900 23.38100
H  40.33200 6.36800 24.98300
H  41.30200 10.59100 23.49400
H  42.91300 11.11400 24.16300
H  40.76000 11.90400 25.97700
H  40.22700 12.33800 24.39300
H  41.79100 12.85600 25.03400
H  45.25600 12.86400 28.38200
H  45.81600 11.32400 27.73800
H  46.28700 11.89500 29.39000
H  42.59600 12.23200 33.20400
H  44.74400 9.88600 36.29700
H  42.87400 9.42400 36.57900
H  43.54600 10.84000 37.17500
Mg 54.91200 23.60300 44.85100
C  53.05900 26.44800 44.39900
C  52.33900 21.68400 43.75500
C  57.13000 21.00500 44.55000
C  57.70500 25.67900 45.96100
N  52.92100 24.03400 44.23400
C  52.37100 25.27500 44.02900
C  50.90800 25.12000 43.54000
C  50.67100 23.60700 43.77000
C  52.01300 23.04600 43.91600
C  49.86000 23.37000 45.10000
C  50.59800 25.55600 42.07000
C  49.12500 25.73600 41.61000
H  48.61000 24.76400 40.54900
N  54.80800 21.59400 44.13300
C  53.61100 21.02000 43.82200
C  53.85300 19.67100 43.53400
C  55.26500 19.39700 43.73200
C  55.84300 20.68200 44.10800
C  52.65800 18.86700 42.98000
C  55.97600 18.06100 43.40400
O  55.35000 17.14500 42.89200
C  57.38300 17.70900 43.67100
N  57.15800 23.41400 45.01600
C  57.74100 22.21800 44.94700
C  59.18800 22.31600 45.50900
C  59.41900 23.83500 45.89500
C  58.01400 24.33300 45.61100
C  59.48900 21.31500 46.64000
C  60.44100 24.59100 44.95000
C  61.86700 24.53100 45.50900
N  55.29300 25.61400 45.26900
C  56.42700 26.27600 45.70900
C  56.14000 27.69600 45.87200
C  54.83000 27.83500 45.37500
C  54.41000 26.52100 44.96900
C  57.08700 28.78100 46.31300
C  53.73900 28.73900 45.04300
O  53.53400 29.93100 45.20500
C  52.61000 27.87600 44.30800
C  52.24700 28.46900 42.97200
O  52.87500 28.42200 41.91600
O  51.03300 29.05600 43.03900
C  50.35000 29.38800 41.78100
H  51.40300 21.14100 43.60800
H  57.86500 20.20000 44.48900
H  58.53500 26.33800 46.22300
H  50.26900 25.73000 44.17800
H  50.08000 23.27200 42.91800
H  49.05000 24.07200 45.29700
H  50.48300 23.21800 45.98100
H  49.36700 22.44400 44.80200
H  50.99400 24.72500 41.48600
H  51.27400 26.32500 41.69400
H  49.01400 26.71500 41.14200
H  48.46300 25.63600 42.47000
H  53.03800 18.07400 42.33500
H  51.91700 19.34800 42.34200
H  52.08800 18.50800 43.83700
H  57.99600 18.45700 43.16800
H  57.57100 16.75500 43.17800
H  57.52500 17.68200 44.75100
H  60.03300 22.16900 44.83500
H  59.73000 23.93200 46.93500
H  59.65600 21.68800 47.65000
H  60.46200 20.86600 46.44200
H  58.68300 20.58300 46.70300
H  60.11100 25.62700 44.88800
H  60.34900 24.29200 43.90600
H  62.45300 24.49400 44.59100
H  62.08100 23.62000 46.06700
H  61.96900 25.40400 46.15200
H  56.78600 29.22000 47.26400
H  57.12000 29.57200 45.56500
H  58.09700 28.42000 46.50900
H  51.72600 27.93000 44.94300
H  50.53200 28.69700 40.95700
H  50.70600 30.38900 41.53700
H  49.26500 29.39400 41.89000

