158

Mg 0.07600 8.17200 26.72700
C  0.79000 10.40500 29.33100
C  -0.41300 5.71100 29.03000
C  0.06700 5.91500 24.14600
C  0.79600 10.70000 24.43100
N  0.36800 7.99500 28.92700
C  0.56900 9.05100 29.76300
C  0.24800 8.69000 31.27300
C  0.09100 7.14700 31.10100
C  0.04500 6.90800 29.58400
C  1.25800 6.26200 31.73400
C  -1.05200 9.40600 31.76100
C  -1.23500 9.60200 33.27200
H  -0.03600 9.30700 34.11000
N  -0.11100 6.14300 26.57600
C  -0.48500 5.35700 27.68700
C  -0.73600 4.05800 27.17800
C  -0.67800 4.05200 25.73200
C  -0.19200 5.40500 25.38900
C  -1.04400 2.88300 28.16200
C  -0.98900 2.96400 24.70300
O  -0.89700 3.03000 23.49300
C  -1.49100 1.65500 25.18900
N  0.64500 8.27300 24.61200
C  0.41400 7.23300 23.72700
C  0.67500 7.57900 22.31500
C  0.50000 9.21600 22.31600
C  0.59700 9.44900 23.87000
C  1.90000 6.99300 21.65200
C  -0.81500 9.71800 21.74200
C  -0.69400 10.88900 20.73300
N  0.71400 10.10600 26.70300
C  0.85200 11.09700 25.76800
C  1.19300 12.33300 26.36300
C  1.10200 12.10600 27.71200
C  0.80200 10.77000 27.92500
C  1.38000 13.63900 25.64600
C  1.24700 12.76100 29.01500
O  1.55300 13.87200 29.28300
C  1.11000 11.67000 30.12700
C  2.34600 11.66300 30.90000
O  3.37400 11.09000 30.53300
O  2.14500 12.30800 32.10600
C  3.28600 12.34100 33.06800
H  -0.74600 5.02700 29.81400
H  -0.09200 5.29800 23.26000
H  0.66600 11.57000 23.78300
H  1.16500 8.94900 31.80200
H  -0.80000 6.74900 31.58800
H  0.90600 5.46600 32.39100
H  1.88100 6.94800 32.30800
H  1.91200 5.83100 30.97700
H  -1.84200 8.72100 31.45400
H  -1.26100 10.36700 31.29100
H  -2.04400 8.93800 33.57600
H  -1.56600 10.61900 33.48300
H  -0.82600 3.00700 29.22300
H  -0.63400 1.95700 27.75800
H  -2.12500 2.75900 28.21500
H  -1.85500 1.15000 24.29400
H  -2.35500 1.79900 25.83800
H  -0.68200 1.26200 25.80400
H  -0.11000 7.11300 21.72000
H  1.38200 9.65600 21.84900
H  2.61800 6.78600 22.44600
H  2.26200 7.59900 20.82200
H  1.67000 6.00500 21.25400
H  -1.48400 10.11800 22.50400
H  -1.20400 8.81200 21.27900
H  0.28900 10.99600 20.27300
H  -0.92200 11.83000 21.23300
H  -1.40200 10.74200 19.91700
H  0.86000 13.70800 24.69100
H  2.41600 13.95500 25.52900
H  1.09900 14.45700 26.31000
H  0.25200 11.91800 30.75100
H  4.12800 12.51200 32.39600
H  3.37900 11.32200 33.44200
H  3.09300 12.97300 33.93500
Mg 45.03800 5.38300 47.89400
C  43.17600 8.32700 47.28900
C  42.23500 3.58800 46.72700
C  46.93800 2.61700 47.64100
C  47.84700 7.40700 48.28400
N  42.94700 5.92300 47.22300
C  42.48300 7.17100 46.98600
C  41.03200 7.09000 46.42300
C  40.63400 5.57200 46.50600
C  42.04000 4.98900 46.84200
C  39.55700 5.25000 47.58800
C  41.04400 7.50900 44.94700
C  40.12200 8.66900 44.61000
H  39.20700 8.37600 43.37300
N  44.64300 3.31000 47.39200
C  43.39300 2.81500 46.95500
C  43.53900 1.42700 46.82900
C  44.92200 1.05300 47.00500
C  45.59300 2.31100 47.34300
C  42.40400 0.44400 46.43800
C  45.48600 -0.31100 46.65400
O  44.69900 -1.22500 46.30700
C  46.96500 -0.67300 46.67700
N  47.09100 5.06600 48.08700
C  47.62100 3.76100 48.00600
C  49.13500 3.79500 48.23900
C  49.48700 5.33800 48.11800
C  48.11900 6.00000 48.23800
C  49.55000 3.13400 49.59400
C  50.18800 5.75300 46.78100
C  51.59400 6.27500 46.86300
N  45.32700 7.48000 48.16400
C  46.61100 8.09800 48.18200
C  46.37700 9.48900 48.06900
C  45.06100 9.64200 47.65500
C  44.54100 8.35100 47.69400
C  47.38200 10.57900 48.19000
C  44.04000 10.68000 47.23100
O  44.16100 11.89900 47.01500
C  42.68000 9.73300 47.17900
C  41.63700 10.06800 48.16900
O  41.41000 9.44200 49.18300
O  40.79800 10.99900 47.69400
C  39.59100 11.27400 48.54000
H  41.36600 3.11500 46.26500
H  47.48100 1.67400 47.73300
H  48.68200 8.11000 48.27500
H  40.35200 7.65800 47.05600
H  40.20900 5.28500 45.54400
H  39.12800 6.13400 48.06100
H  39.93600 4.89800 48.54700
H  38.66200 4.78700 47.17200
H  40.70400 6.75800 44.23300
H  42.08100 7.75000 44.71200
H  40.75800 9.53700 44.43600
H  39.54500 9.00800 45.47000
H  42.29600 -0.32700 47.20100
H  42.57300 0.02000 45.44900
H  41.48300 1.02600 46.39600
H  47.53000 -0.04600 45.98600
H  47.10100 -1.73100 46.45500
H  47.41900 -0.43400 47.63800
H  49.67900 3.23300 47.48000
H  50.11100 5.64800 48.95600
H  48.61700 3.04700 50.15000
H  50.33600 3.69600 50.09800
H  49.88800 2.11200 49.42400
H  49.52100 6.44200 46.26200
H  50.27100 4.83200 46.20500
H  51.52300 7.36000 46.78200
H  52.26100 5.87300 46.10100
H  52.02900 6.08000 47.84300
H  48.10100 10.58300 47.37100
H  48.00600 10.51300 49.08200
H  46.75100 11.45900 48.06500
H  42.25400 9.75200 46.17600
H  39.20200 12.27200 48.33800
H  39.67100 11.01600 49.59600
H  38.77000 10.62700 48.23100

