158

Mg 24.85900 1.69600 29.25700
C  26.95700 1.76800 32.18700
C  22.19100 1.65600 31.32000
C  22.95100 1.53600 26.51600
C  27.69000 1.15400 27.29700
N  24.63100 1.79200 31.53700
C  25.58600 1.86300 32.53700
C  24.92200 2.17700 33.97600
C  23.41500 1.99800 33.54900
C  23.36500 1.74800 32.02000
C  22.64500 0.87600 34.33700
C  25.30600 3.53500 34.46600
C  24.76200 4.06200 35.84700
H  25.65200 3.85100 37.15000
N  22.88900 1.57600 29.00700
C  21.93200 1.61100 29.94500
C  20.57900 1.40000 29.39200
C  20.77200 1.30100 27.94200
C  22.24300 1.49000 27.76300
C  19.25800 1.40100 30.18300
C  19.77900 1.12700 26.81000
O  20.12700 1.20700 25.63600
C  18.29300 0.89700 27.13800
N  25.22900 1.47600 27.19600
C  24.34200 1.48400 26.22100
C  24.97600 1.52000 24.87300
C  26.46400 1.54800 25.13000
C  26.49100 1.31500 26.64500
C  24.48300 0.28600 24.00800
C  27.29500 2.81400 24.74900
C  26.79300 4.12100 25.34000
N  26.94200 1.33500 29.64600
C  27.96000 1.16700 28.72500
C  29.15000 1.01700 29.42900
C  28.86500 1.30500 30.81700
C  27.44000 1.50800 30.88300
C  30.39700 0.58600 28.74900
C  29.36800 1.34700 32.17300
O  30.49100 1.11600 32.61600
C  28.25800 1.92600 33.02500
C  28.13200 1.17800 34.30000
O  27.65200 0.06800 34.39900
O  28.79900 1.87400 35.30300
C  29.16800 1.10300 36.52400
H  21.34000 1.71900 32.00200
H  22.34700 1.53400 25.60600
H  28.56500 1.18200 26.64500
H  25.17400 1.37500 34.67100
H  22.89100 2.92200 33.79500
H  22.54800 0.11200 33.56500
H  21.71300 1.29500 34.71400
H  23.19900 0.39400 35.14300
H  25.13200 4.22000 33.63600
H  26.38000 3.39900 34.59800
H  23.81100 3.56400 36.03700
H  24.48400 5.11000 35.73500
H  18.69400 2.19400 29.69100
H  19.26200 1.69100 31.23400
H  18.83200 0.39800 30.17400
H  18.26800 0.03100 27.80000
H  17.73800 0.79000 26.20500
H  17.87400 1.70700 27.73500
H  24.60200 2.43000 24.40300
H  27.01000 0.77900 24.58300
H  23.66500 -0.20700 24.53300
H  25.31800 -0.40200 23.87300
H  24.15800 0.77100 23.08700
H  27.28800 2.96700 23.67000
H  28.36000 2.61800 24.87300
H  26.35300 4.02000 26.33200
H  26.00300 4.44200 24.66000
H  27.60300 4.83400 25.49100
H  30.34500 0.35900 27.68500
H  30.70600 -0.30700 29.29200
H  31.18000 1.33900 28.84000
H  28.43800 2.99100 33.17100
H  29.26000 0.04300 36.28600
H  28.39400 1.16200 37.28900
H  30.11600 1.46700 36.92200
Mg 47.68300 25.11000 28.47900
C  48.68000 27.30700 31.20800
C  46.49900 22.92700 30.90700
C  47.33600 23.03000 26.10700
C  49.13900 27.52800 26.25600
N  47.60700 25.12300 30.78100
C  48.05500 26.11000 31.60500
C  47.64600 25.80000 33.10300
C  47.16700 24.27500 32.98500
C  47.15900 24.03000 31.45800
C  48.06900 23.32500 33.70800
C  46.64100 26.78800 33.70400
C  47.05200 27.56900 34.98200
H  45.97700 27.84500 35.97800
N  46.88400 23.29300 28.49000
C  46.44900 22.58200 29.55500
C  45.84100 21.41000 28.98600
C  46.03600 21.37000 27.56400
C  46.87400 22.56100 27.36500
C  45.06500 20.35500 29.84700
C  45.49300 20.45400 26.45600
O  45.62000 20.60000 25.27000
C  44.58300 19.28400 26.95500
N  48.05500 25.35000 26.46200
C  47.85100 24.26000 25.68800
C  48.40500 24.40400 24.24200
C  48.82800 25.93900 24.22700
C  48.70000 26.35400 25.72800
C  49.64300 23.45900 23.96400
C  47.95200 26.74800 23.29200
C  46.71100 27.44000 23.85500
N  48.71200 26.98600 28.61200
C  49.16800 27.86100 27.64800
C  49.83700 28.99800 28.22100
C  49.64300 28.81400 29.63100
C  48.92600 27.58700 29.81200
C  50.62000 30.15500 27.66500
C  49.96400 29.39300 30.92900
O  50.60500 30.37800 31.30900
C  49.22900 28.49100 31.94900
C  50.26900 28.09000 32.91500
O  51.20000 27.30500 32.68700
O  50.14100 28.71700 34.15600
C  51.17800 28.47100 35.12100
H  46.09000 22.19200 31.60300
H  47.34400 22.33900 25.26100
H  49.51800 28.22900 25.51000
H  48.53300 25.89100 33.72900
H  46.17400 24.12700 33.40900
H  48.79000 22.94300 32.98600
H  47.50900 22.47200 34.09100
H  48.55600 23.80500 34.55600
H  45.78600 26.19200 34.02100
H  46.37400 27.57800 33.00200
H  47.35900 28.57200 34.68800
H  47.88200 27.08800 35.50000
H  44.00500 20.38200 29.59600
H  45.21100 20.59100 30.90100
H  45.41400 19.32400 29.77500
H  44.84900 18.65900 27.80800
H  44.57200 18.62600 26.08700
H  43.56300 19.64700 27.08400
H  47.58600 24.03900 23.62200
H  49.87500 26.05100 23.94500
H  50.02900 23.07100 24.90600
H  50.49100 23.85600 23.40600
H  49.22100 22.56500 23.50400
H  47.67800 26.24500 22.36400
H  48.58100 27.53500 22.87600
H  46.61300 27.60700 24.92800
H  45.78600 26.96700 23.52500
H  46.64700 28.49800 23.60200
H  50.84300 30.01100 26.60800
H  51.55400 30.12100 28.22600
H  50.20400 31.13200 27.91100
H  48.42500 29.06400 32.41200
H  50.93800 27.49500 35.54500
H  51.12700 29.34500 35.76900
H  52.15800 28.42200 34.64600

