158

Mg 35.10100 2.22400 28.97100
C  33.06800 3.59500 31.53400
C  37.72600 2.21800 31.02600
C  37.04800 1.38800 26.28800
C  32.47300 2.88400 26.71900
N  35.31300 2.93900 31.02400
C  34.39000 3.22700 31.95800
C  34.99800 3.29700 33.38100
C  36.54300 3.09300 33.07300
C  36.50200 2.72300 31.63000
C  37.37700 4.39000 33.36800
C  34.36100 2.14900 34.28200
C  33.76400 2.61200 35.57000
H  34.52000 3.71200 36.22500
N  37.06200 1.77400 28.69600
C  37.94200 1.70900 29.74600
C  39.16200 1.05200 29.31900
C  39.05900 0.86500 27.91100
C  37.64800 1.30400 27.57100
C  40.34800 0.91500 30.27300
C  40.04000 0.38400 26.84200
O  39.86100 0.41500 25.63700
C  41.32400 -0.20300 27.26500
N  34.70900 1.92500 26.87800
C  35.71400 1.64700 26.02700
C  35.15000 1.67800 24.57100
C  33.66200 2.03700 24.76600
C  33.57800 2.33000 26.20500
C  35.93100 2.71500 23.69300
C  32.62900 0.96100 24.20300
C  32.63700 -0.43400 24.85100
N  33.19200 3.09400 29.03800
C  32.25400 3.20500 28.08600
C  31.04400 3.78100 28.62400
C  31.30800 3.98300 29.98200
C  32.63200 3.50800 30.19800
C  29.77400 4.01700 28.03500
C  30.71600 4.32900 31.23700
O  29.66300 4.84100 31.51700
C  31.85700 4.06700 32.32700
C  32.10400 5.20000 33.22800
O  32.83400 6.15500 33.05800
O  31.32000 5.03300 34.31200
C  31.50100 6.01100 35.44700
H  38.52200 2.11900 31.76700
H  37.66700 1.12000 25.42900
H  31.63600 2.82700 26.02000
H  34.92700 4.27700 33.85200
H  37.04200 2.30900 33.64200
H  38.02200 4.81800 32.60100
H  37.91500 4.16400 34.28900
H  36.70600 5.19500 33.66700
H  35.00200 1.29900 34.51400
H  33.52900 1.79300 33.67500
H  33.64400 1.78700 36.27200
H  32.79200 3.04400 35.33300
H  40.85300 -0.01600 30.01500
H  39.96700 0.80500 31.28800
H  40.98000 1.80200 30.23100
H  41.88300 -0.72600 26.48900
H  41.18600 -0.89500 28.09600
H  41.99500 0.59600 27.57900
H  35.27600 0.66500 24.18900
H  33.51800 2.99600 24.26800
H  36.39200 3.35500 24.44500
H  35.22900 3.23300 23.04000
H  36.66000 2.08100 23.18800
H  32.74800 0.70600 23.15100
H  31.67000 1.47700 24.13800
H  32.66100 -1.22400 24.10100
H  31.71400 -0.58500 25.41200
H  33.52000 -0.54400 25.48100
H  29.74400 5.00000 27.56400
H  28.94900 4.15600 28.73400
H  29.43700 3.41700 27.19000
H  31.44100 3.15400 32.75300
H  30.56000 6.53600 35.60900
H  32.31200 6.69700 35.20200
H  31.77600 5.59000 36.41400
Mg 49.81000 46.23800 43.23700
C  46.60600 46.78500 41.96900
C  49.85100 43.10800 41.79200
C  53.17700 46.09100 43.74000
C  49.82900 49.47000 44.54800
N  48.33600 45.12200 41.91700
C  47.06700 45.47000 41.58400
C  46.32600 44.30500 40.90100
C  47.30900 43.06700 41.15600
C  48.64000 43.81200 41.53600
C  46.75300 42.03400 42.15900
C  46.13900 44.68000 39.38200
C  44.72700 44.42300 38.85500
H  44.63000 43.35700 37.75200
N  51.30100 44.72500 42.91900
C  51.08400 43.53100 42.32000
C  52.26700 42.72900 42.41300
C  53.28900 43.54000 42.96700
C  52.65700 44.88300 43.19200
C  52.32300 41.23300 41.96500
C  54.70900 43.06000 43.23700
O  54.99900 41.87800 43.11200
C  55.68500 43.94200 43.84100
N  51.32800 47.66000 43.72600
C  52.54800 47.25800 44.07400
C  53.33800 48.32500 44.85100
C  52.19900 49.33000 45.25400
C  51.09700 48.81600 44.38800
C  54.19000 47.71000 46.07400
C  52.46000 50.83500 45.07800
C  52.10100 51.75200 46.26000
N  48.56400 47.88800 43.22500
C  48.62700 49.10200 43.86700
C  47.42900 49.88100 43.56200
C  46.59900 49.00700 42.84600
C  47.31900 47.78200 42.64400
C  47.19600 51.28200 43.89700
C  45.29100 48.88800 42.21700
O  44.33300 49.65300 42.05800
C  45.29000 47.45100 41.54600
C  44.08200 46.68500 42.09500
O  44.15500 46.11000 43.22500
O  42.98900 46.80000 41.37700
C  41.72700 46.20300 41.84600
H  49.80400 42.04600 41.54000
H  54.24200 46.00900 43.96400
H  49.82500 50.34100 45.20700
H  45.36400 44.14400 41.38800
H  47.42400 42.63400 40.16200
H  47.01500 41.06700 41.73200
H  45.67000 42.11000 42.25300
H  47.30300 42.11900 43.09700
H  46.84700 44.23200 38.68500
H  46.23200 45.76500 39.40600
H  44.23400 45.28000 38.39600
H  44.03500 44.10900 39.63700
H  51.47600 40.92900 41.35000
H  52.31400 40.54100 42.80700
H  53.19500 41.07100 41.33200
H  56.57000 43.38000 44.14100
H  55.30900 44.44800 44.73000
H  55.84500 44.70000 43.07400
H  54.06800 48.75800 44.16600
H  51.83300 49.16700 46.26800
H  53.87700 48.30600 46.93000
H  55.26600 47.82200 45.94600
H  53.83800 46.69800 46.27600
H  51.98400 51.25500 44.19200
H  53.53400 50.96300 44.94400
H  51.58900 52.63900 45.88500
H  52.98200 52.09200 46.80400
H  51.44200 51.34000 47.02400
H  48.03700 51.73900 44.42000
H  46.25900 51.30100 44.45300
H  47.02600 51.90300 43.01800
H  45.16200 47.62900 40.47900
H  41.90600 45.37100 42.52600
H  41.18700 45.68500 41.05400
H  41.16900 46.98100 42.36700

