158

Mg 35.75000 48.96500 25.76000
C  36.29900 47.01500 28.67700
C  34.44500 51.40600 27.73800
C  34.65700 50.49700 22.96500
C  36.75200 46.24800 23.94500
N  35.40000 49.17200 28.01600
C  35.74800 48.24800 29.02400
C  35.45600 48.82500 30.45800
C  34.73400 50.20000 30.08900
C  34.87800 50.29200 28.52600
C  33.26100 50.27700 30.57300
C  36.74300 48.91900 31.31000
C  36.79800 48.24200 32.62400
H  37.04100 49.21500 33.73200
N  34.83000 50.86800 25.36200
C  34.47300 51.72000 26.33000
C  33.93300 52.88800 25.64300
C  33.85900 52.68200 24.25600
C  34.42700 51.29600 24.09200
C  33.33400 54.06800 26.43700
C  33.22400 53.53300 23.18000
O  33.20200 53.16000 21.99400
C  32.76300 54.92700 23.57600
N  35.77000 48.50700 23.75100
C  35.30700 49.28100 22.79700
C  35.56200 48.73600 21.41900
C  36.42600 47.41600 21.69800
C  36.38000 47.39900 23.28200
C  34.19600 48.38100 20.79800
C  37.98300 47.50700 21.16900
C  38.54500 46.36700 20.46000
N  36.46600 47.03400 26.16300
C  36.80300 46.02700 25.31900
C  37.15100 44.93700 26.08200
C  36.98000 45.23800 27.43700
C  36.57100 46.53100 27.40100
C  37.52800 43.59700 25.50600
C  37.03700 44.71600 28.80700
O  37.33600 43.65000 29.29400
C  36.50000 45.83900 29.62900
C  35.20100 45.29600 30.36300
O  34.05400 45.25400 29.94800
O  35.59500 45.19000 31.68400
C  34.63100 44.64200 32.62400
H  34.09000 52.24100 28.34400
H  34.47400 51.05700 22.04600
H  37.16200 45.43300 23.34400
H  34.84200 48.05800 30.93000
H  35.36000 50.99200 30.50000
H  33.12900 49.47800 31.30300
H  32.58700 50.07900 29.73900
H  33.12600 51.20000 31.13600
H  36.96700 49.98000 31.41800
H  37.52300 48.49100 30.68000
H  37.52800 47.43300 32.65700
H  35.89600 47.64800 32.76400
H  33.81100 55.04600 26.37200
H  33.26900 53.86400 27.50600
H  32.32500 54.17100 26.03900
H  33.53300 55.30400 24.24900
H  31.84200 54.91000 24.15800
H  32.53600 55.43200 22.63700
H  36.08800 49.51200 20.86300
H  35.94900 46.51700 21.30800
H  33.29200 48.43000 21.40600
H  34.22900 47.42500 20.27500
H  34.01500 49.04700 19.95400
H  38.60100 47.79900 22.01800
H  38.05600 48.44100 20.61200
H  37.85500 45.54400 20.26900
H  39.32900 45.97600 21.10800
H  38.88700 46.69600 19.47800
H  37.56800 42.82500 26.27400
H  38.53300 43.62000 25.08400
H  36.87400 43.29500 24.68700
H  37.18800 46.14200 30.41800
H  34.01300 45.43600 33.04400
H  35.10900 44.19900 33.49700
H  33.89800 43.99700 32.13800
Mg 17.15800 51.80400 26.01600
C  19.02900 50.41200 28.69200
C  14.74200 52.91100 28.33700
C  15.32700 52.63600 23.51000
C  19.35400 50.04400 23.85800
N  16.92000 51.60000 28.26000
C  17.92100 51.16500 29.10300
C  17.57100 51.54200 30.51700
C  16.11100 52.06100 30.42000
C  15.88400 52.19100 28.91500
C  15.04000 51.11900 31.01300
C  18.61100 52.56900 31.19700
C  18.71100 52.56100 32.80600
H  17.70200 51.72500 33.59800
N  15.21500 52.68100 25.94100
C  14.45500 53.10100 26.94200
C  13.25200 53.65600 26.38000
C  13.39200 53.63000 24.95600
C  14.68400 52.93500 24.73500
C  12.07200 54.14400 27.25900
C  12.38900 54.02500 23.89400
O  12.68600 54.06400 22.70600
C  11.10800 54.55600 24.29500
N  17.35400 51.42400 23.91700
C  16.51600 52.05900 23.02700
C  16.92500 51.74500 21.56400
C  18.30500 51.07200 21.79200
C  18.32900 50.79400 23.24300
C  15.89200 50.87400 20.72700
C  19.64600 51.81900 21.39500
C  19.57200 53.36300 21.55300
N  18.90900 50.54800 26.14000
C  19.68700 49.92800 25.22700
C  20.75200 49.20000 25.88100
C  20.54700 49.35500 27.24800
C  19.41700 50.21400 27.40700
C  21.70700 48.42800 25.07500
C  21.07400 48.99200 28.57700
O  21.96200 48.24800 28.85500
C  20.14800 49.74400 29.55100
C  19.53500 48.80600 30.66700
O  18.45500 48.20900 30.55200
O  20.44100 48.71800 31.72400
C  20.07500 47.98100 32.95200
H  13.98800 53.23900 29.05600
H  14.84700 53.02700 22.61100
H  20.11000 49.63300 23.18600
H  17.55200 50.60100 31.06600
H  16.04000 53.08100 30.79600
H  14.28800 51.72300 31.52200
H  15.46000 50.44100 31.75500
H  14.44900 50.47600 30.36000
H  18.29900 53.60700 31.07900
H  19.61000 52.43100 30.78400
H  18.62500 53.59500 33.14000
H  19.74100 52.32700 33.07600
H  11.26400 53.46300 26.99500
H  11.74800 55.15800 27.02200
H  12.03800 54.03000 28.34300
H  11.29400 55.55900 24.67900
H  10.57700 53.87200 24.95600
H  10.47900 54.55100 23.40500
H  16.94300 52.71800 21.07400
H  18.27500 50.09300 21.31200
H  14.92600 50.67400 21.19000
H  16.28400 49.89200 20.46200
H  15.83200 51.46000 19.81000
H  19.78700 51.60300 20.33600
H  20.46000 51.45100 22.02000
H  20.47900 53.66000 22.08000
H  18.73700 53.50400 22.24000
H  19.46100 53.95800 20.64600
H  22.30500 49.11900 24.48200
H  21.33400 47.81400 24.25600
H  22.29900 47.91100 25.83000
H  20.58600 50.52100 30.17700
H  18.99300 48.04600 33.07200
H  20.58600 48.45300 33.79100
H  20.37200 46.93500 33.03300

