158

Mg 8.70700 3.69700 27.30600
C  9.93800 2.26900 30.11900
C  6.53000 5.65700 29.17200
C  6.92900 4.62600 24.47100
C  10.27600 1.25800 25.33400
N  8.31000 3.89900 29.41100
C  9.02600 3.29600 30.38200
C  8.57200 3.96700 31.77000
C  7.31800 4.77600 31.33500
C  7.39100 4.80400 29.85600
C  5.99900 4.21200 31.86300
C  9.80000 4.78800 32.35200
C  9.55400 5.60300 33.66100
H  10.35800 5.06000 34.99300
N  7.03500 5.00600 26.92200
C  6.31300 5.67200 27.81600
C  5.25100 6.49000 27.14200
C  5.45400 6.31200 25.75600
C  6.47600 5.24600 25.64800
C  4.27400 7.20100 27.95300
C  4.74700 6.96800 24.57800
O  4.87100 6.64700 23.40000
C  3.79300 8.04800 24.87100
N  8.68400 3.11300 25.21700
C  7.89800 3.63900 24.23000
C  8.23700 3.06800 22.83100
C  9.14600 1.86000 23.13500
C  9.49200 2.12800 24.61500
C  7.01300 2.72300 21.83400
C  10.45300 1.81200 22.32800
C  10.87000 0.41500 21.87500
N  9.98900 2.15500 27.60700
C  10.57500 1.20500 26.72900
C  11.44300 0.25900 27.48400
C  11.27300 0.71900 28.80000
C  10.31500 1.79900 28.83600
C  12.28000 -0.93100 27.01900
C  11.71300 0.52100 30.18600
O  12.47700 -0.30000 30.63300
C  10.84800 1.52000 31.07400
C  10.06400 0.80800 32.17600
O  9.11100 0.06800 31.91900
O  10.47500 1.20900 33.41100
C  9.87500 0.54400 34.61400
H  5.80000 6.17900 29.79500
H  6.39700 4.82000 23.53700
H  10.64400 0.40600 24.75900
H  8.47500 3.23300 32.57100
H  7.34900 5.81900 31.64900
H  5.37300 5.02600 32.22800
H  6.04800 3.43300 32.62300
H  5.48700 3.71500 31.03900
H  10.36800 5.24700 31.54300
H  10.44800 3.95200 32.61600
H  8.48900 5.68800 33.87900
H  9.85600 6.64600 33.56600
H  3.39200 7.48800 27.38000
H  4.69800 7.94300 28.63000
H  3.94200 6.39400 28.60700
H  2.99700 7.56800 25.43900
H  3.37800 8.43700 23.94100
H  4.20400 8.85300 25.48000
H  8.87600 3.79900 22.33700
H  8.56300 0.94000 23.09400
H  6.08900 3.22300 22.12300
H  6.71000 1.68100 21.93600
H  7.35200 2.96900 20.82800
H  11.26800 2.20800 22.93300
H  10.33100 2.42100 21.43200
H  9.96100 -0.18600 21.87200
H  11.65100 -0.03900 22.48500
H  11.24800 0.34600 20.85500
H  12.07500 -1.08200 25.95900
H  11.86100 -1.79600 27.53300
H  13.35800 -0.90600 27.17300
H  11.50700 2.20000 31.61400
H  9.33400 -0.37200 34.37700
H  9.13500 1.19000 35.08800
H  10.55300 0.33000 35.44000
Mg -12.39500 37.92900 42.79700
C  -10.03400 35.46600 41.67400
C  -10.35100 40.26400 41.21100
C  -14.88600 40.00400 43.00900
C  -14.32300 35.22600 43.99100
N  -10.47700 37.80100 41.51000
C  -9.62000 36.71000 41.30200
C  -8.37200 37.04400 40.52200
C  -8.50700 38.60800 40.53200
C  -9.83000 38.94300 41.19400
C  -7.31500 39.26500 41.25700
C  -8.39000 36.32600 39.12500
C  -7.27400 35.30300 38.78100
H  -6.30600 35.56000 37.59000
N  -12.55400 39.91700 42.29400
C  -11.65000 40.75700 41.62800
C  -12.28400 42.13300 41.53800
C  -13.59200 42.02600 42.14000
C  -13.72700 40.60800 42.46200
C  -11.60500 43.34600 40.96400
C  -14.62300 43.13400 42.37300
O  -14.23000 44.27100 42.09400
C  -16.01200 43.03300 42.83500
N  -14.37800 37.60900 43.27300
C  -15.16700 38.66700 43.38000
C  -16.54900 38.16900 43.74100
C  -16.29400 36.78400 44.46300
C  -14.92500 36.45600 43.89300
C  -17.39200 39.14700 44.57600
C  -17.44700 35.73900 44.46200
C  -17.84500 35.40200 45.93100
N  -12.24000 35.75200 42.95000
C  -13.11200 34.81300 43.47600
C  -12.49800 33.47600 43.39500
C  -11.30800 33.69100 42.68400
C  -11.19900 35.09300 42.42000
C  -13.13000 32.20900 43.94300
C  -10.13800 33.01700 42.13200
O  -9.79800 31.88100 42.18900
C  -9.24600 34.15800 41.55200
C  -7.95300 34.17300 42.26200
O  -6.99300 33.52500 41.97200
O  -7.92300 35.14600 43.28700
C  -6.65500 35.59600 43.87300
H  -9.71000 40.97800 40.68800
H  -15.76200 40.65500 42.98200
H  -14.85900 34.38900 44.44200
H  -7.58600 36.63500 41.15700
H  -8.58600 38.92900 39.49400
H  -6.39300 38.69800 41.12600
H  -7.58900 39.35100 42.30800
H  -7.16500 40.19000 40.70000
H  -8.36400 37.08200 38.34000
H  -9.39600 35.90400 39.11900
H  -7.79300 34.36100 38.60500
H  -6.67900 35.17900 39.68600
H  -11.94600 43.71800 39.99800
H  -10.55000 43.10000 40.84200
H  -11.66000 44.10100 41.74800
H  -16.68500 42.64300 42.07200
H  -16.42100 44.02800 43.00800
H  -16.01900 42.52400 43.79900
H  -17.15500 37.86800 42.88700
H  -15.97000 36.95600 45.49000
H  -16.80700 40.05800 44.70400
H  -17.67900 38.69700 45.52600
H  -18.33700 39.46500 44.13500
H  -17.18900 34.79900 43.97300
H  -18.39100 36.18300 44.14800
H  -17.69100 34.35000 46.16900
H  -18.89800 35.43300 46.21300
H  -17.32900 36.04900 46.64000
H  -14.17200 32.41400 44.18700
H  -12.44900 31.86900 44.72300
H  -13.06000 31.40300 43.21200
H  -9.00800 33.91300 40.51700
H  -5.84300 34.87500 43.78600
H  -6.78000 35.85800 44.92400
H  -6.48700 36.56900 43.41100

