158

Mg 54.50600 24.32000 45.36400
C  51.98300 26.63900 44.55700
C  52.51800 21.92800 43.89900
C  57.13000 22.41900 45.28600
C  56.50100 27.06800 46.34400
N  52.44400 24.33600 44.50700
C  51.63300 25.33400 44.21600
C  50.26000 24.85200 43.73000
C  50.40600 23.39600 43.98100
C  51.91400 23.18400 44.07800
C  49.70300 22.76700 45.18300
C  50.05900 25.24000 42.20900
C  48.53800 25.28800 42.01000
H  48.09100 24.71600 40.72900
N  54.79900 22.36900 44.76600
C  53.82800 21.52800 44.26900
C  54.42500 20.28900 44.10300
C  55.83000 20.33800 44.37100
C  55.97600 21.73700 44.84100
C  53.59700 19.04600 43.76400
C  56.87000 19.26600 44.28900
O  56.44300 18.18100 43.85200
C  58.31100 19.35100 44.73300
N  56.50400 24.68200 45.70400
C  57.38800 23.68600 45.73400
C  58.82600 24.08500 46.26300
C  58.59700 25.54300 46.69600
C  57.11500 25.79200 46.21900
C  59.26000 23.17800 47.45600
C  59.65000 26.56200 46.11100
C  60.61900 26.90000 47.20400
N  54.27600 26.35700 45.55000
C  55.16500 27.32600 46.04600
C  54.39700 28.57200 46.28100
C  53.15400 28.33000 45.66000
C  53.17900 27.02300 45.14000
C  54.96400 29.76000 46.97500
C  51.85100 28.94800 45.31600
O  51.41100 30.07700 45.57000
C  51.08300 27.87200 44.55100
C  50.85300 28.30900 43.20600
O  51.74500 28.54000 42.40600
O  49.45200 28.36100 42.93200
C  49.01700 28.89000 41.66100
H  51.78500 21.17800 43.59700
H  57.96600 21.73100 45.43400
H  57.03200 27.89100 46.82700
H  49.56800 25.43500 44.33800
H  49.87700 22.77200 43.26100
H  50.39000 22.20400 45.81600
H  48.94800 22.08700 44.78900
H  49.22600 23.53700 45.78900
H  50.69800 24.51500 41.70500
H  50.43700 26.18900 41.82800
H  48.21200 26.31900 42.14500
H  47.98600 24.73700 42.77100
H  52.60700 19.12900 44.21300
H  54.00100 18.11400 44.16000
H  53.62500 19.04500 42.67400
H  58.73200 20.14800 44.12000
H  58.69900 18.35100 44.54200
H  58.33700 19.55300 45.80400
H  59.45500 24.08800 45.37200
H  58.66200 25.57500 47.78400
H  59.68200 23.78100 48.26000
H  60.05200 22.52900 47.08200
H  58.47300 22.48400 47.75200
H  59.05500 27.42300 45.80500
H  60.27400 26.06100 45.37100
H  60.62200 26.23800 48.07000
H  60.29200 27.90700 47.46100
H  61.62500 26.94000 46.78500
H  54.92700 29.50600 48.03500
H  54.30400 30.60500 46.78100
H  56.01000 29.90100 46.70200
H  50.15200 27.77600 45.11100
H  47.97600 28.57800 41.56600
H  49.66700 28.39900 40.93600
H  48.99700 29.97900 41.64300
Mg -10.73400 16.85500 41.08400
C  -7.27300 16.41400 41.24400
C  -10.23400 20.14600 40.47400
C  -13.95800 16.98300 39.95900
C  -11.06000 13.42900 41.76800
N  -8.89600 18.08900 40.72200
C  -7.60000 17.65200 40.80600
C  -6.62500 18.89700 40.60100
C  -7.54900 20.14300 40.81200
C  -8.97200 19.43800 40.63000
C  -7.41600 20.70400 42.21900
C  -5.96000 18.83400 39.13800
C  -4.35200 18.65900 39.04200
H  -3.90700 17.40400 38.35500
N  -11.95900 18.31400 40.40100
C  -11.55300 19.62200 40.22900
C  -12.59800 20.42900 39.71000
C  -13.68900 19.54500 39.50900
C  -13.22500 18.18000 39.93900
C  -12.34600 21.87100 39.30700
C  -15.04000 19.85200 38.90500
O  -15.13700 21.05100 38.59500
C  -16.14500 18.96300 38.58500
N  -12.30900 15.39200 40.80900
C  -13.58400 15.71200 40.50400
C  -14.53400 14.54700 40.66900
C  -13.59500 13.44900 41.22300
C  -12.18100 14.10200 41.25000
C  -15.70700 14.91100 41.58000
C  -13.72800 11.99000 40.62200
C  -13.16900 11.76200 39.19300
N  -9.49200 15.18300 41.47300
C  -9.78300 13.90000 41.78300
C  -8.51300 13.18800 42.08400
C  -7.51500 14.10800 41.89500
C  -8.16700 15.33300 41.56100
C  -8.33400 11.72600 42.45100
C  -6.11400 14.28700 41.92300
O  -5.20800 13.44400 42.16400
C  -5.84400 15.84500 41.46100
C  -5.10100 16.56600 42.51500
O  -5.57000 17.43000 43.23700
O  -3.75400 16.23300 42.44300
C  -2.96800 17.02700 43.35400
H  -9.91900 21.17400 40.28300
H  -14.96300 16.87900 39.54400
H  -11.31000 12.40900 42.06700
H  -5.80500 19.05300 41.30200
H  -7.43800 20.94200 40.07900
H  -7.44300 19.85000 42.89500
H  -8.14300 21.44500 42.55300
H  -6.48800 21.27600 42.19300
H  -6.27200 19.78100 38.69600
H  -6.46600 18.16900 38.43900
H  -3.79000 18.84900 39.95700
H  -4.10200 19.40000 38.28300
H  -12.88500 22.31400 38.47000
H  -11.29000 21.93800 39.04500
H  -12.57700 22.50400 40.16400
H  -16.73200 18.60100 39.42900
H  -15.74500 18.12200 38.02000
H  -16.83800 19.48500 37.92500
H  -14.91100 14.24700 39.69200
H  -13.90600 13.23900 42.24700
H  -15.70600 15.98700 41.75100
H  -15.54700 14.50700 42.57900
H  -16.57900 14.51100 41.06200
H  -14.81300 11.89500 40.58000
H  -13.38800 11.24600 41.34300
H  -13.89500 11.22300 38.58400
H  -12.24600 11.18300 39.22700
H  -12.89700 12.69100 38.69100
H  -7.26200 11.55200 42.36000
H  -8.86500 11.02700 41.80600
H  -8.62600 11.52200 43.48200
H  -5.22800 15.69600 40.57400
H  -1.93000 16.73500 43.19700
H  -3.24600 16.79400 44.38200
H  -2.94500 18.11300 43.26600

