158

Mg 54.79800 23.31800 44.44200
C  52.50900 25.71800 42.99200
C  52.74100 20.78800 43.33000
C  57.29100 21.13300 44.74300
C  56.97200 26.01200 45.06900
N  52.81700 23.36900 43.26300
C  52.11800 24.39600 42.75800
C  50.77900 23.87300 42.11500
C  50.85600 22.33700 42.37900
C  52.24000 22.10500 43.05400
C  49.67000 21.81100 43.14700
C  50.59500 24.20500 40.58900
C  49.16500 24.57000 40.16700
H  48.72000 24.17600 38.77800
N  54.88800 21.23700 44.26500
C  53.93600 20.36100 43.83700
C  54.34600 18.99800 43.90800
C  55.72600 19.06300 44.16700
C  56.05000 20.51700 44.43900
C  53.36900 17.86100 43.80300
C  56.60700 17.82700 44.34800
O  56.18100 16.72600 44.09800
C  57.93900 17.91700 44.82600
N  56.86300 23.53900 44.82200
C  57.66100 22.47900 44.86600
C  59.16400 22.90100 45.01500
C  59.02500 24.38600 45.62200
C  57.58100 24.74800 45.10700
C  60.13600 22.00900 45.85700
C  60.15100 25.38200 45.21200
C  61.24900 25.65600 46.28700
N  54.73000 25.41200 44.23900
C  55.68200 26.32300 44.56300
C  55.06200 27.69400 44.36600
C  53.86900 27.46400 43.71700
C  53.73700 26.07400 43.60400
C  55.76200 29.08800 44.83400
C  52.70100 28.10800 43.18300
O  52.39400 29.25900 43.18300
C  51.82000 27.03000 42.59300
C  51.81500 27.40100 41.10500
O  52.71100 27.09700 40.39200
O  50.61400 27.96300 40.74900
C  50.41200 28.16700 39.33800
H  52.10600 19.98300 42.95700
H  58.08700 20.38800 44.79800
H  57.57500 26.86500 45.38700
H  50.04600 24.34700 42.76700
H  50.81500 21.88300 41.38900
H  49.12600 21.22000 42.41100
H  49.01300 22.59200 43.53100
H  50.10900 21.18100 43.92000
H  50.75400 23.27700 40.04000
H  51.22400 24.99400 40.17500
H  49.00100 25.64200 40.27700
H  48.56900 24.05300 40.92000
H  53.49000 17.19000 42.95300
H  52.33900 18.20600 43.89400
H  53.62300 17.25600 44.67400
H  58.53600 18.43000 44.07100
H  58.45200 16.98900 45.07700
H  57.81300 18.56700 45.69200
H  59.49100 22.99600 43.97900
H  59.01600 24.33600 46.71100
H  60.67200 21.40400 45.12600
H  59.62300 21.30600 46.51400
H  60.81600 22.54400 46.51900
H  59.71000 26.37500 45.12600
H  60.59800 24.93000 44.32600
H  62.23100 25.76800 45.82700
H  61.39400 24.87800 47.03600
H  61.05600 26.60300 46.79200
H  55.40600 29.88800 44.18400
H  56.81900 29.15400 44.57600
H  55.53100 29.24100 45.88800
H  50.87200 27.06300 43.12900
H  50.73900 29.17200 39.07000
H  49.35600 28.00700 39.12100
H  50.83900 27.32300 38.79600
Mg -5.04200 26.71400 25.63000
C  -4.25300 28.13800 28.57700
C  -6.92500 24.32800 27.08400
C  -5.40500 25.19700 22.59400
C  -3.03400 29.08400 23.97100
N  -5.42200 26.22300 27.56700
C  -5.12800 27.03900 28.61900
C  -5.73500 26.45500 29.88700
C  -6.43400 25.17000 29.46600
C  -6.34300 25.26900 27.94500
C  -5.81800 23.82000 30.07600
C  -6.64800 27.50600 30.63400
C  -6.49300 27.57200 32.19400
H  -6.42900 26.27100 32.98200
N  -5.98700 24.93900 24.98500
C  -6.82000 24.17400 25.69100
C  -7.35100 23.11200 24.86800
C  -6.70900 23.27700 23.61300
C  -5.93200 24.47800 23.67500
C  -8.23200 22.03100 25.44800
C  -6.84200 22.47600 22.34100
O  -6.14300 22.79500 21.34400
C  -7.87200 21.37100 22.21000
N  -4.28100 27.05200 23.56600
C  -4.66700 26.32500 22.52300
C  -4.21300 26.91400 21.20200
C  -3.64600 28.32000 21.73000
C  -3.64300 28.15000 23.21000
C  -3.09600 25.96000 20.56000
C  -4.52700 29.60300 21.28800
C  -4.03500 30.48700 20.19000
N  -3.86100 28.34200 26.10600
C  -3.11900 29.22500 25.39300
C  -2.52500 30.19500 26.23800
C  -2.97000 29.80600 27.55700
C  -3.72900 28.67100 27.38000
C  -1.60200 31.27300 25.98800
C  -2.86100 30.05600 28.93000
O  -2.20900 30.88300 29.58200
C  -3.68200 28.98000 29.73300
C  -2.66300 28.26300 30.59800
O  -1.71600 27.63000 30.21500
O  -2.99000 28.40900 31.96300
C  -1.96900 27.69700 32.81300
H  -7.49400 23.50200 27.51600
H  -5.65200 24.96500 21.55600
H  -2.72500 30.01600 23.49300
H  -4.86300 26.13200 30.45500
H  -7.51900 25.17700 29.56200
H  -4.93900 23.95800 30.70600
H  -5.39200 23.27000 29.23700
H  -6.61000 23.23100 30.53800
H  -7.69800 27.32200 30.40800
H  -6.36500 28.49300 30.26900
H  -7.33200 28.11700 32.62800
H  -5.60000 28.16300 32.39300
H  -8.58200 21.32300 24.69600
H  -8.98500 22.39900 26.14400
H  -7.56200 21.39800 26.03100
H  -7.73300 20.57100 22.93700
H  -7.79600 21.00100 21.18700
H  -8.87700 21.79300 22.22400
H  -5.07100 27.04800 20.54300
H  -2.62200 28.25100 21.36300
H  -2.86700 25.00900 21.04100
H  -2.22800 26.57700 20.32700
H  -3.46800 25.52200 19.63400
H  -5.00600 30.17600 22.08300
H  -5.41800 29.22000 20.79100
H  -4.51700 30.24600 19.24200
H  -2.97200 30.24700 20.14800
H  -4.11900 31.53700 20.47000
H  -1.51200 31.54800 24.93600
H  -0.63200 30.94000 26.35700
H  -1.86300 32.18700 26.52100
H  -4.38700 29.53000 30.35700
H  -2.08300 26.63300 32.60700
H  -2.21100 28.07500 33.80700
H  -0.93500 27.82700 32.49500

