158

Mg 25.86300 0.67500 29.30200
C  27.91500 0.49900 32.26200
C  23.31500 1.53200 31.56700
C  23.71900 0.52800 26.75500
C  28.42900 -0.38300 27.27100
N  25.72500 1.17700 31.69200
C  26.70000 1.00100 32.65100
C  26.15500 1.33100 34.05300
C  24.62100 1.67300 33.76000
C  24.48200 1.36500 32.26800
C  23.52100 0.93000 34.59500
C  26.97300 2.51700 34.73400
C  27.57500 2.21600 36.11900
H  27.26900 3.25200 37.23900
N  23.80500 1.01700 29.19700
C  22.95100 1.38400 30.20900
C  21.59900 1.47700 29.65800
C  21.76200 1.33900 28.22200
C  23.13800 0.94500 27.99800
C  20.39100 1.74600 30.59400
C  20.64200 1.34500 27.17900
O  20.84000 1.24500 25.97700
C  19.16400 1.69500 27.59700
N  26.04500 0.40900 27.30700
C  25.03800 0.30700 26.41900
C  25.52900 -0.07200 24.98900
C  26.99800 -0.27600 25.17900
C  27.22600 -0.02600 26.65500
C  24.90700 -1.35300 24.38600
C  27.91100 0.58800 24.26100
C  28.13300 2.12600 24.65300
N  27.79300 0.19200 29.63600
C  28.74400 -0.27700 28.71700
C  29.97100 -0.53600 29.38500
C  29.62900 -0.31300 30.74500
C  28.32100 0.16000 30.90800
C  31.27600 -0.84300 28.86500
C  30.29400 -0.29600 32.06400
O  31.41600 -0.63400 32.39500
C  29.20300 0.31600 33.07700
C  29.15900 -0.57500 34.22700
O  28.53600 -1.65200 34.36500
O  29.73400 0.14900 35.21500
C  29.91400 -0.52400 36.51500
H  22.55600 1.88600 32.26700
H  23.09400 0.37800 25.87200
H  29.23100 -0.49600 26.53800
H  26.05900 0.48500 34.73400
H  24.43300 2.73300 33.93400
H  22.73200 1.54300 35.03000
H  23.92600 0.37400 35.44100
H  23.16500 0.08800 34.00200
H  26.25300 3.27600 35.04000
H  27.71200 2.89000 34.02500
H  28.64700 2.26200 35.93100
H  27.27100 1.22600 36.45700
H  20.67700 1.95800 31.62400
H  19.69800 0.90500 30.61300
H  19.80700 2.57900 30.20300
H  19.09000 2.73200 27.92500
H  18.94200 0.88500 28.29100
H  18.56300 1.45800 26.71900
H  25.36300 0.76300 24.30900
H  27.17000 -1.35100 25.12800
H  25.58500 -1.99400 23.82200
H  24.11200 -1.00200 23.72700
H  24.47600 -1.92400 25.20800
H  27.44700 0.49000 23.28000
H  28.88400 0.10200 24.18400
H  27.67400 2.32600 25.62100
H  27.65000 2.76200 23.91200
H  29.20700 2.30900 24.61300
H  32.04700 -0.82200 29.63600
H  31.59100 -0.15900 28.07700
H  31.36500 -1.82600 28.40400
H  29.58700 1.29100 33.37700
H  29.19700 -0.02300 37.16600
H  30.89800 -0.40100 36.96700
H  29.81300 -1.60800 36.56700
Mg -2.07700 35.37100 26.69500
C  -3.92600 34.07100 29.37400
C  -0.84600 37.76100 28.78100
C  -0.46000 36.71900 23.96900
C  -3.55300 32.98700 24.68100
N  -2.25900 35.82000 28.88400
C  -3.05600 35.15400 29.74500
C  -2.84800 35.64500 31.16900
C  -1.93600 36.88800 30.95900
C  -1.64800 36.89700 29.42500
C  -2.66500 38.28600 31.41200
C  -2.23800 34.48900 32.07300
C  -1.78100 34.98400 33.42900
H  -2.17600 34.11200 34.59100
N  -0.87400 37.08500 26.39700
C  -0.46800 37.95800 27.42100
C  0.43800 38.97100 26.94500
C  0.47300 38.72400 25.49300
C  -0.29900 37.44200 25.23400
C  1.06400 39.99700 27.79700
C  1.31100 39.43300 24.46500
O  1.34600 39.12700 23.28800
C  2.21000 40.54800 24.87000
N  -1.99100 34.94200 24.66400
C  -1.25900 35.58200 23.71100
C  -1.22200 34.77000 22.38000
C  -2.28200 33.68300 22.59700
C  -2.69300 33.83900 24.07900
C  -1.24200 35.66000 21.11500
C  -1.64300 32.27200 22.36100
C  -2.56400 31.18400 21.84700
N  -3.56400 33.89900 26.84200
C  -4.05400 32.97800 25.98400
C  -4.89000 31.99200 26.57700
C  -4.87500 32.39200 27.92300
C  -4.05200 33.54200 28.04800
C  -5.52900 30.72100 25.94000
C  -5.40600 32.05500 29.24800
O  -6.10600 31.14600 29.62000
C  -4.69400 33.09700 30.21200
C  -5.63700 33.75300 31.08400
O  -6.54300 34.50700 30.84300
O  -5.34700 33.36300 32.38300
C  -6.09600 33.97600 33.47800
H  -0.30900 38.37900 29.50300
H  0.11500 36.86500 23.05200
H  -3.86800 32.20000 23.99200
H  -3.80500 35.96800 31.57700
H  -0.97400 36.86900 31.46900
H  -2.63100 38.97900 30.57100
H  -2.07700 38.74500 32.20600
H  -3.68400 37.99800 31.67100
H  -1.46100 33.96100 31.51900
H  -2.93400 33.66600 32.23500
H  -2.10400 35.97800 33.74000
H  -0.70000 35.12100 33.45600
H  0.73800 40.08000 28.83400
H  0.91700 40.94800 27.28500
H  2.14400 39.84500 27.78000
H  3.04700 40.20800 25.48000
H  1.68200 41.31300 25.43900
H  2.59400 41.00100 23.95600
H  -0.25500 34.28000 22.27600
H  -3.19800 33.87700 22.03900
H  -1.39500 36.71600 21.33900
H  -1.99000 35.31800 20.39900
H  -0.25300 35.62500 20.65700
H  -1.35500 31.94200 23.35900
H  -0.72400 32.25700 21.77400
H  -3.54500 31.59100 21.60300
H  -2.60900 30.38300 22.58600
H  -2.19300 30.84900 20.87900
H  -6.55100 31.01400 25.70200
H  -5.59000 29.88300 26.63500
H  -5.03000 30.43600 25.01400
H  -3.93400 32.54600 30.76600
H  -5.44300 34.01600 34.35100
H  -7.02000 33.40800 33.58800
H  -6.35100 34.98900 33.16700

