158

Mg 36.33400 0.94900 29.07300
C  34.20400 1.89400 31.71200
C  39.00300 1.06700 31.22800
C  38.42400 0.83600 26.36800
C  33.66200 1.31400 26.83800
N  36.55700 1.41000 31.25600
C  35.48400 1.57300 32.18900
C  36.07200 1.57200 33.58300
C  37.59300 1.45600 33.35900
C  37.75300 1.28100 31.86700
C  38.47900 2.52400 33.97300
C  35.45700 0.46000 34.51500
C  34.97000 0.96300 35.89800
H  35.72600 2.06400 36.57000
N  38.40000 0.95700 28.85100
C  39.32000 0.93100 29.86700
C  40.64000 0.68300 29.33100
C  40.45800 0.64500 27.93000
C  39.04400 0.87600 27.67900
C  41.90500 0.44200 30.17600
C  41.60100 0.37100 26.89000
O  41.41200 0.30500 25.67200
C  43.04300 0.18100 27.18800
N  36.05700 1.04400 26.87900
C  37.07600 0.89100 25.98800
C  36.53400 0.59400 24.58300
C  34.93400 0.63500 24.72000
C  34.83900 1.01900 26.20900
C  37.11600 1.62500 23.56800
C  34.24000 -0.69600 24.37800
C  34.13000 -1.79100 25.51900
N  34.39700 1.39600 29.15300
C  33.43000 1.55400 28.21300
C  32.15800 2.01900 28.79700
C  32.45000 2.12000 30.13300
C  33.80500 1.77200 30.31900
C  30.91600 2.36200 27.98200
C  31.80500 2.47900 31.41800
O  30.70400 2.91700 31.66100
C  32.96800 2.29100 32.46300
C  33.04100 3.48500 33.27200
O  33.66100 4.51500 32.95300
O  32.22000 3.39100 34.37400
C  32.25700 4.41400 35.43100
H  39.81700 0.81200 31.90900
H  39.04900 0.53500 25.52500
H  32.77800 1.19200 26.20900
H  35.85900 2.55000 34.01500
H  37.98900 0.57100 33.85600
H  37.96300 3.00900 34.80200
H  38.62400 3.36200 33.29100
H  39.38600 2.17100 34.46200
H  36.22800 -0.30300 34.61400
H  34.61600 0.00600 33.99000
H  34.95900 0.16100 36.63500
H  33.92400 1.20600 35.70800
H  42.23400 -0.58400 30.01100
H  41.75000 0.47600 31.25400
H  42.57100 1.25900 29.89700
H  43.63600 0.21900 26.27400
H  43.13100 -0.87200 27.45900
H  43.31500 0.92100 27.94000
H  36.85400 -0.39000 24.23900
H  34.53700 1.51900 24.22000
H  37.65900 0.99000 22.86800
H  37.78300 2.42500 23.89000
H  36.24000 2.02500 23.05800
H  34.58000 -1.31600 23.54800
H  33.18800 -0.50300 24.16600
H  33.11100 -2.00400 25.84200
H  34.63500 -1.46000 26.42600
H  34.77600 -2.60500 25.18900
H  30.96400 3.30500 27.43800
H  30.05500 2.13200 28.61000
H  30.94800 1.47100 27.35500
H  32.70800 1.41100 33.05200
H  31.62900 5.23200 35.07900
H  33.31000 4.68400 35.50700
H  32.01000 3.90900 36.36400
Mg 47.10900 33.79900 27.53400
C  45.33600 32.50200 30.09400
C  47.65600 36.69800 29.37300
C  48.24500 35.37600 24.74600
C  46.36100 31.03600 25.57000
N  46.53000 34.42300 29.52700
C  45.94600 33.73700 30.48900
C  46.11900 34.34400 31.90000
C  46.55900 35.83300 31.45200
C  47.00800 35.60600 30.03600
C  45.45000 36.95700 31.42000
C  47.27100 33.53600 32.71000
C  47.23800 33.70300 34.26400
H  46.31400 34.71400 34.93600
N  47.81400 35.74500 27.08900
C  48.10100 36.75800 28.02400
C  48.84000 37.81200 27.40700
C  48.88100 37.54200 25.99100
C  48.23100 36.17500 25.87500
C  49.27200 39.15500 28.12100
C  49.57700 38.30900 24.89200
O  49.61900 37.96900 23.73100
C  50.43900 39.50500 25.34400
N  47.22300 33.33100 25.45100
C  47.70400 34.11600 24.52700
C  47.96800 33.41200 23.18800
C  47.54000 31.91700 23.51400
C  46.93600 32.08900 24.94900
C  47.18200 34.01700 21.96500
C  48.68100 30.93400 23.61200
C  48.42400 29.50700 23.15100
N  46.11000 32.07100 27.78900
C  45.99400 30.98800 26.95300
C  45.28400 29.88500 27.67000
C  45.02700 30.47900 28.92700
C  45.51000 31.82000 28.90400
C  44.73100 28.52500 27.04100
C  44.35500 30.30400 30.17100
O  43.77800 29.26500 30.51500
C  44.36300 31.66200 30.84400
C  44.56500 31.51600 32.33900
O  45.39700 30.78800 32.85700
O  43.51700 32.03300 33.07200
C  43.38000 31.57200 34.46700
H  47.85600 37.55500 30.01800
H  48.82700 35.72300 23.88900
H  45.98300 30.22100 24.94900
H  45.18000 34.46000 32.44100
H  47.41800 36.14100 32.04900
H  45.17800 37.22600 30.39900
H  45.83900 37.84800 31.91300
H  44.53500 36.58800 31.88200
H  48.25000 33.77600 32.29700
H  47.13800 32.46700 32.53900
H  48.24700 33.88600 34.63300
H  47.09500 32.77100 34.81000
H  50.35400 39.21800 28.23600
H  48.81100 39.15400 29.10800
H  48.93000 40.01800 27.55000
H  51.21600 39.25000 26.06500
H  49.82000 40.33700 25.67700
H  50.81800 39.96400 24.43100
H  49.03700 33.44900 22.98000
H  46.80800 31.55800 22.79100
H  46.58800 34.86200 22.31400
H  46.64900 33.21600 21.45300
H  47.95200 34.49100 21.35600
H  48.91000 30.79400 24.66900
H  49.60400 31.26600 23.13700
H  47.36100 29.33100 22.98700
H  48.75000 28.85800 23.96400
H  49.02100 29.18900 22.29600
H  44.61700 28.67400 25.96700
H  43.84600 28.07400 27.49100
H  45.54600 27.80200 27.05500
H  43.45200 32.25500 30.75800
H  43.81700 30.60600 34.72000
H  42.31200 31.37300 34.55900
H  43.78000 32.35600 35.11000

