158

Mg 54.16300 24.52100 45.41300
C  51.76400 26.77500 44.58100
C  52.08800 22.01100 44.47100
C  56.85700 22.41200 45.23700
C  56.31900 27.21300 46.04600
N  52.22100 24.43300 44.47000
C  51.37500 25.47300 44.31100
C  49.99900 24.94500 43.74000
C  50.00600 23.52400 44.33100
C  51.55000 23.26500 44.43500
C  49.26300 23.22400 45.66800
C  50.04800 25.06400 42.19800
C  48.60900 25.33900 41.62500
H  48.41400 25.63700 40.06900
N  54.44800 22.41800 45.00900
C  53.40100 21.60600 44.61300
C  53.94700 20.29900 44.38700
C  55.35700 20.31600 44.71900
C  55.61400 21.74400 45.00600
C  53.14400 19.18700 43.91500
C  56.24500 19.14000 44.73500
O  55.82600 18.02400 44.43800
C  57.68600 19.21700 45.10800
N  56.27700 24.83000 45.42000
C  57.13400 23.78600 45.37500
C  58.59600 24.24700 45.37200
C  58.47000 25.79300 45.81300
C  56.94700 26.00100 45.78500
C  59.56200 23.39400 46.32600
C  59.22900 26.86900 44.92600
C  60.33900 27.74500 45.53900
N  54.07100 26.61100 45.44500
C  54.91600 27.55300 45.87000
C  54.30000 28.87700 45.93800
C  53.02500 28.64200 45.44500
C  52.97000 27.25700 45.07800
C  54.86600 30.24300 46.46100
C  51.72400 29.19200 45.25200
O  51.32000 30.32300 45.46000
C  50.91300 28.07500 44.44900
C  50.68200 28.53300 43.08800
O  51.50100 28.50100 42.16600
O  49.38300 28.88000 42.88500
C  48.87800 29.35100 41.61400
H  51.33500 21.26200 44.21800
H  57.66900 21.71300 45.02800
H  56.80700 28.15900 46.28800
H  49.22700 25.61300 44.12200
H  49.72600 22.80500 43.56100
H  48.34700 22.72800 45.34800
H  49.03900 24.20300 46.09200
H  49.84500 22.67200 46.40500
H  50.33100 24.13600 41.70200
H  50.68900 25.82400 41.75000
H  48.11100 26.15700 42.14600
H  47.91400 24.56000 41.93600
H  53.11300 19.16100 42.82500
H  52.10700 19.26700 44.24000
H  53.50100 18.26500 44.37300
H  58.26800 19.65500 44.29600
H  58.12000 18.26200 45.40200
H  57.76700 19.92600 45.93200
H  58.97000 24.28100 44.34900
H  58.86500 25.89400 46.82400
H  59.64200 24.01500 47.21800
H  60.47400 23.38300 45.72900
H  59.18400 22.39800 46.55700
H  58.41400 27.44500 44.48600
H  59.74200 26.40700 44.08300
H  60.67000 27.33300 46.49200
H  59.97800 28.76800 45.63800
H  61.20500 27.78000 44.87800
H  55.23500 30.85000 45.63500
H  55.58500 30.16300 47.27700
H  54.00800 30.80900 46.82600
H  49.96000 27.86700 44.93600
H  47.83800 29.02800 41.57200
H  49.49600 28.96000 40.80500
H  48.94700 30.43800 41.65700
Mg 36.06000 48.41300 25.96800
C  35.89500 46.63000 29.07300
C  35.37900 51.25100 27.56800
C  35.79200 49.87800 23.00800
C  36.74000 45.40200 24.44200
N  35.71200 48.87600 28.11700
C  35.75300 48.09200 29.20000
C  35.55700 48.85400 30.54200
C  35.27300 50.32800 30.00500
C  35.40900 50.18100 28.46500
C  33.83300 50.76800 30.57400
C  36.83900 48.75900 31.46200
C  36.58600 48.08100 32.81400
H  35.51200 48.67900 33.84800
N  35.69700 50.28000 25.35700
C  35.47700 51.33800 26.19600
C  35.24300 52.50900 25.46400
C  35.18400 52.11000 24.08700
C  35.53400 50.67000 24.09800
C  35.06900 53.95100 26.17500
C  34.88900 52.91800 22.86800
O  34.84100 52.47000 21.73900
C  34.73100 54.33000 23.06800
N  36.15200 47.72700 24.03800
C  36.01800 48.51800 22.94200
C  36.42600 47.80900 21.66700
C  36.96200 46.44700 22.18000
C  36.63300 46.54200 23.63800
C  35.23700 47.74400 20.67100
C  38.49100 46.23900 22.00400
C  38.80800 45.06600 21.09600
N  36.39100 46.43200 26.57000
C  36.66100 45.28100 25.83300
C  36.78400 44.16600 26.71900
C  36.47100 44.68500 27.99000
C  36.17300 46.00100 27.82400
C  37.17700 42.76800 26.38300
C  36.48700 44.27400 29.38800
O  36.77100 43.27400 29.96000
C  35.99400 45.59400 30.16200
C  34.65900 45.29400 30.69000
O  33.75900 44.78300 30.01100
O  34.68000 45.38100 32.09300
C  33.52900 44.78700 32.81100
H  35.07700 52.16600 28.08200
H  35.68900 50.31900 22.01400
H  37.06500 44.46300 23.98800
H  34.81100 48.29300 31.10500
H  36.07800 50.97800 30.34900
H  33.87100 51.81100 30.89200
H  33.43900 50.10400 31.34300
H  33.13200 50.68800 29.74300
H  37.22300 49.76100 31.65400
H  37.53400 48.13300 30.90200
H  37.54500 48.03900 33.33100
H  36.44900 47.00500 32.70800
H  35.42600 54.84000 25.65500
H  35.54500 53.95600 27.15500
H  34.03100 54.25700 26.31400
H  34.67200 54.78900 22.08100
H  35.61200 54.72300 23.57500
H  33.79600 54.52600 23.59300
H  37.25200 48.30900 21.16200
H  36.30700 45.67500 21.77600
H  34.32200 47.74300 21.26400
H  35.30600 46.83800 20.06900
H  35.25800 48.54300 19.93000
H  38.86000 45.97900 22.99600
H  39.02100 47.14700 21.71500
H  38.02400 44.31500 20.99400
H  39.67600 44.60400 21.56700
H  39.17600 45.34300 20.10800
H  36.91900 42.31600 25.42500
H  36.84500 42.15100 27.21900
H  38.26600 42.73000 26.40300
H  36.65500 45.85100 30.98900
H  33.15300 43.94600 32.22900
H  32.69300 45.47700 32.93400
H  33.84100 44.39600 33.77900

