158

Mg 41.34700 40.56000 26.54700
C  40.98000 42.99600 29.02400
C  42.30800 38.30100 28.90500
C  42.28100 38.39000 24.14100
C  40.64900 43.00500 24.22600
N  41.65700 40.68600 28.66700
C  41.31000 41.72000 29.56000
C  41.40200 41.33300 31.06600
C  42.29400 39.99900 30.92500
C  42.10700 39.60300 29.39200
C  43.76700 40.22400 31.42900
C  40.03400 41.04300 31.62800
C  39.62600 41.84600 32.90300
H  39.06300 41.03700 34.06700
N  42.09000 38.50400 26.56700
C  42.36500 37.72900 27.62600
C  42.78400 36.38000 27.24000
C  42.87000 36.41100 25.85100
C  42.41600 37.81000 25.42700
C  43.17200 35.33800 28.24200
C  43.26700 35.31400 24.80900
O  43.38600 35.54800 23.62300
C  43.40100 33.91900 25.35200
N  41.63300 40.71900 24.43700
C  41.88800 39.66100 23.64900
C  41.68600 39.95500 22.17100
C  40.85300 41.35700 22.16800
C  41.08100 41.77100 23.67500
C  43.05900 40.00200 21.36200
C  39.36900 41.29300 21.74400
C  38.50200 40.07400 22.18000
N  40.88000 42.61300 26.56400
C  40.66100 43.49400 25.53600
C  40.36400 44.82900 25.99900
C  40.47100 44.70700 27.39000
C  40.80200 43.31100 27.65500
C  40.15700 46.04700 25.14700
C  40.29500 45.35000 28.65100
O  40.04200 46.47000 28.89300
C  40.64400 44.31800 29.74400
C  41.66500 44.92700 30.63200
O  42.82200 45.21800 30.34700
O  41.09700 45.17800 31.78500
C  41.88300 45.64900 32.87100
H  42.43000 37.56400 29.70100
H  42.55000 37.77400 23.28000
H  40.20500 43.67600 23.48700
H  41.86000 42.17400 31.58600
H  41.85600 39.15000 31.45100
H  44.52500 39.66700 30.87700
H  43.75100 39.85600 32.45500
H  44.11400 41.24600 31.58100
H  39.79700 39.99700 31.82300
H  39.30500 41.13800 30.82300
H  38.92600 42.62400 32.59800
H  40.38800 42.49900 33.32800
H  44.15900 34.97900 27.94800
H  42.53800 34.46300 28.09800
H  43.09800 35.65300 29.28300
H  42.39500 33.59700 25.62000
H  44.09000 34.00000 26.19300
H  43.70900 33.26600 24.53600
H  41.04900 39.19200 21.72600
H  41.26800 42.10700 21.49400
H  43.86700 39.95900 22.09200
H  43.13600 40.86400 20.69900
H  43.08100 39.12400 20.71600
H  39.27500 41.39600 20.66300
H  38.82000 42.11400 22.20400
H  37.62000 40.38500 22.73900
H  39.21300 39.46300 22.73600
H  38.12600 39.48700 21.34100
H  39.37900 45.74100 24.44700
H  41.03300 46.29900 24.54900
H  39.96300 47.00500 25.62900
H  39.73000 44.11200 30.30000
H  42.95500 45.47200 32.78100
H  41.50700 45.37700 33.85800
H  41.66600 46.71700 32.88200
Mg 36.37500 48.86100 25.05000
C  36.43600 46.86800 27.88900
C  35.50400 51.61400 27.12200
C  36.20200 50.68700 22.32100
C  36.80900 45.99900 23.12500
N  35.90000 49.17700 27.26200
C  36.14800 48.23500 28.17500
C  36.03000 48.72300 29.60600
C  35.59100 50.27000 29.29500
C  35.66100 50.41900 27.81600
C  34.15300 50.62800 29.82600
C  37.32500 48.56400 30.41400
C  37.29300 47.92900 31.84200
H  36.04500 48.30100 32.74200
N  35.99500 50.88000 24.81600
C  35.69900 51.85100 25.75000
C  35.78100 53.14400 25.15400
C  35.87900 52.91600 23.73400
C  35.98800 51.43300 23.52900
C  35.60100 54.47100 25.88300
C  35.86300 53.95000 22.68600
O  35.62300 53.56200 21.54100
C  36.28800 55.36200 23.03200
N  36.46000 48.45000 22.97400
C  36.25100 49.32000 22.00800
C  36.54200 48.78500 20.61300
C  37.09100 47.39600 21.02100
C  36.74500 47.26100 22.47800
C  35.26500 48.75700 19.74200
C  38.67600 47.45100 20.79200
C  39.28200 46.34500 20.01500
N  36.51300 46.77500 25.39000
C  36.75800 45.72500 24.47000
C  36.88100 44.46800 25.25200
C  36.74000 44.93500 26.57600
C  36.51800 46.31200 26.59600
C  37.11500 43.03200 24.68900
C  36.78500 44.52900 27.97100
O  36.96000 43.48500 28.51800
C  36.42200 45.71300 28.84800
C  35.02600 45.44300 29.27900
O  34.03800 45.49100 28.60000
O  35.06000 45.07700 30.61300
C  33.70500 44.68800 31.27600
H  35.07200 52.41200 27.73000
H  36.09900 51.27700 21.40800
H  36.97500 45.21900 22.37900
H  35.20500 48.23000 30.12100
H  36.12900 51.12200 29.71000
H  33.92200 49.91600 30.61900
H  33.51300 50.46900 28.95800
H  34.01600 51.63800 30.21400
H  37.86700 49.51000 30.42600
H  37.86700 47.89900 29.74200
H  38.15600 48.34800 32.35900
H  37.43900 46.85100 31.76800
H  34.65800 54.92400 25.57900
H  36.47200 55.08000 25.64100
H  35.63600 54.38600 26.96900
H  36.52400 55.91000 22.12000
H  37.18100 55.35100 23.65700
H  35.46900 55.84700 23.56400
H  37.20800 49.46700 20.08400
H  36.62400 46.63600 20.39600
H  34.92300 49.77900 19.57800
H  34.42100 48.21200 20.16300
H  35.40700 48.30400 18.76000
H  39.09400 47.34100 21.79300
H  39.01700 48.44000 20.48600
H  38.55100 45.89200 19.34500
H  39.67100 45.63000 20.74000
H  40.10400 46.74900 19.42200
H  36.31000 42.37400 25.01800
H  37.96800 42.61000 25.22200
H  37.19200 42.90700 23.60900
H  37.12100 45.69100 29.68400
H  33.28200 43.94300 30.60100
H  33.16800 45.63400 31.34800
H  33.72800 44.28900 32.29000

