158

Mg 47.06600 24.45400 27.58200
C  47.91100 26.94500 29.98000
C  45.98200 22.47100 30.05200
C  45.97000 22.34700 25.16200
C  48.39900 26.56400 25.19200
N  46.83800 24.75000 29.77500
C  47.29300 25.82000 30.51100
C  47.15600 25.45200 31.97200
C  46.58700 23.99800 31.99200
C  46.58400 23.65400 30.49400
C  47.40400 23.02100 32.86000
C  46.21700 26.50400 32.71000
C  45.72600 26.30800 34.10000
H  46.14800 27.39900 35.20200
N  46.11200 22.64400 27.60800
C  45.80100 21.98300 28.75000
C  45.25300 20.68600 28.39100
C  45.13700 20.64100 27.00300
C  45.78900 21.92300 26.49400
C  44.87400 19.73800 29.49000
C  44.54300 19.61900 26.14700
O  44.54100 19.68000 24.91300
C  43.96600 18.46300 26.79300
N  47.29800 24.30600 25.47400
C  46.69200 23.40400 24.66300
C  47.01600 23.73200 23.17600
C  47.51200 25.20300 23.13700
C  47.78500 25.34200 24.71300
C  47.91100 22.61700 22.66100
C  46.47300 26.26100 22.77600
C  46.04000 26.31600 21.33400
N  48.03200 26.32300 27.53000
C  48.53900 27.00900 26.44900
C  48.96600 28.34900 26.85100
C  48.82400 28.36500 28.28500
C  48.15900 27.11600 28.65500
C  49.55300 29.30100 25.98400
C  48.95500 29.17000 29.48400
O  49.33300 30.34100 29.58800
C  48.43900 28.26400 30.63800
C  49.61500 28.03100 31.59900
O  50.67700 27.48000 31.33400
O  49.34800 28.60900 32.79700
C  50.12300 28.01000 33.89100
H  45.56000 21.86500 30.85700
H  45.41300 21.75300 24.43400
H  48.61400 27.26800 24.38500
H  48.16000 25.49900 32.39400
H  45.53000 24.07700 32.24500
H  47.50200 22.03100 32.41500
H  46.90500 22.91800 33.82400
H  48.39400 23.42600 33.06900
H  45.32200 26.53100 32.08900
H  46.52400 27.55000 32.74500
H  46.11400 25.37600 34.50900
H  44.63700 26.35200 34.07100
H  44.99500 18.72000 29.12000
H  43.92700 19.99700 29.96500
H  45.50200 19.93700 30.35800
H  43.19500 18.83600 27.46800
H  44.76200 17.90500 27.28600
H  43.47800 17.80900 26.07000
H  46.09600 23.60400 22.60600
H  48.37600 25.26700 22.47500
H  48.66700 23.02000 21.98600
H  47.34400 21.85800 22.12200
H  48.55400 22.16100 23.41400
H  47.03600 27.17900 22.94200
H  45.58200 26.20800 23.40100
H  44.96200 26.18300 21.24900
H  46.55000 25.56100 20.73600
H  46.04000 27.33700 20.95200
H  49.15900 29.36200 24.97000
H  50.59300 28.99800 25.86300
H  49.42200 30.26200 26.48300
H  47.67700 28.81100 31.19400
H  50.95900 28.70800 33.94400
H  50.28300 26.96900 33.61300
H  49.53700 27.99900 34.81000
Mg -1.98400 35.82800 27.09600
C  -4.05000 34.03300 29.29600
C  -1.38700 38.09000 29.68200
C  0.05800 37.60300 25.18100
C  -3.33600 34.13100 24.39300
N  -2.63200 36.01900 29.24700
C  -3.36800 35.11100 29.91700
C  -3.37700 35.40000 31.43300
C  -2.70100 36.83000 31.45800
C  -2.20300 37.01600 30.05100
C  -3.63200 37.96800 32.01200
C  -2.81100 34.27400 32.32700
C  -2.10700 34.69400 33.69300
H  -2.43900 33.77800 34.94200
N  -0.82200 37.62000 27.43200
C  -0.63500 38.31400 28.56500
C  0.33500 39.39400 28.37300
C  0.75700 39.25200 27.01500
C  -0.01600 38.14400 26.45300
C  0.80100 40.37600 29.43700
C  1.72000 40.12100 26.20000
O  1.93800 39.91000 25.04900
C  2.68800 41.14000 26.86500
N  -1.80800 35.93800 24.97500
C  -0.76800 36.65300 24.45100
C  -0.63200 36.34600 22.97600
C  -1.49200 35.03600 22.78300
C  -2.30200 35.01800 24.10200
C  -1.03800 37.67600 22.11000
C  -0.70500 33.75200 22.71100
C  -1.39700 32.69300 21.73200
N  -3.45700 34.40300 26.86200
C  -3.91500 33.83700 25.70500
C  -4.91400 32.85400 26.04600
C  -4.98300 32.93700 27.41300
C  -4.07500 33.83200 27.84500
C  -5.53700 31.74800 25.24400
C  -5.58400 32.25900 28.66100
O  -6.27700 31.23200 28.82300
C  -5.05800 33.08800 29.89000
C  -6.22700 33.77200 30.43400
O  -7.03700 34.52500 29.84000
O  -6.40800 33.52600 31.77400
C  -7.51300 34.09300 32.62300
H  -1.29500 38.80600 30.50100
H  0.94100 37.90800 24.61600
H  -3.84000 33.66600 23.54200
H  -4.39700 35.57000 31.77700
H  -1.81200 36.80100 32.08800
H  -3.00100 38.85700 32.02200
H  -3.98500 37.79300 33.02800
H  -4.53000 38.02800 31.39700
H  -2.17500 33.63800 31.71200
H  -3.68300 33.65800 32.54500
H  -2.44800 35.71400 33.87100
H  -1.04400 34.62400 33.46400
H  1.69600 39.98000 29.91800
H  -0.04300 40.60200 30.08900
H  0.93600 41.32600 28.92000
H  3.50200 41.48900 26.22800
H  3.18000 40.78600 27.77100
H  2.18600 42.07400 27.11500
H  0.40600 36.11400 22.73700
H  -2.10900 35.20400 21.90000
H  -1.77000 37.52500 21.31600
H  -0.06700 38.02900 21.76300
H  -1.46600 38.45600 22.73900
H  -0.45700 33.35100 23.69400
H  0.29500 33.97000 22.33600
H  -0.80400 32.46000 20.84800
H  -2.25300 33.15600 21.24000
H  -1.59200 31.72500 22.19400
H  -4.75200 31.41500 24.56500
H  -6.35600 32.17600 24.66600
H  -5.82200 30.96100 25.94200
H  -4.57800 32.44800 30.63100
H  -8.47000 33.67900 32.30700
H  -7.55700 35.18200 32.63800
H  -7.34200 33.90400 33.68200

