158

Mg 8.94600 2.85300 27.91100
C  10.17800 1.14300 30.71100
C  7.15400 4.78200 29.95800
C  7.82700 4.43600 25.16500
C  10.44200 0.48500 25.87300
N  8.64200 2.84700 30.14900
C  9.26800 2.14200 31.09000
C  8.95500 2.73000 32.49200
C  8.07000 3.89100 32.17600
C  7.83500 3.81700 30.67000
C  6.81400 4.03300 33.02300
C  10.31400 3.24100 33.11600
C  10.17500 4.05900 34.46100
H  10.96300 3.69300 35.68200
N  7.55100 4.33200 27.57900
C  6.93800 5.02700 28.56800
C  6.28200 6.21000 28.03500
C  6.58100 6.19600 26.65800
C  7.33800 4.93600 26.40100
C  5.45300 7.21700 28.86900
C  6.12700 7.26700 25.60000
O  6.35300 7.04200 24.40300
C  5.29800 8.39300 26.04500
N  9.15300 2.52500 25.82900
C  8.57100 3.28300 24.91900
C  8.75000 2.85400 23.44200
C  9.67800 1.64000 23.60700
C  9.79300 1.51900 25.19800
C  7.43100 2.74900 22.59700
C  11.06200 1.72700 22.80300
C  11.16100 0.69900 21.66700
N  10.07800 1.15600 28.24200
C  10.62500 0.33400 27.27000
C  11.34200 -0.71100 27.98400
C  11.23200 -0.35700 29.30100
C  10.46800 0.78500 29.39500
C  12.11500 -1.87400 27.43100
C  11.69400 -0.77200 30.57500
O  12.24600 -1.74000 30.97600
C  11.08000 0.30600 31.54000
C  10.49200 -0.34600 32.76400
O  9.38500 -0.89200 32.85700
O  11.44700 -0.28200 33.84500
C  11.08200 -0.82300 35.15700
H  6.63600 5.46400 30.63600
H  7.60100 4.93200 24.21900
H  10.86300 -0.27700 25.21300
H  8.52100 2.06000 33.23500
H  8.58500 4.80000 32.48900
H  6.87500 5.08000 33.31900
H  6.65200 3.28200 33.79600
H  5.91800 3.92100 32.41200
H  10.80700 3.86900 32.37400
H  10.89600 2.37100 33.42200
H  9.12200 3.87500 34.67500
H  10.36200 5.12200 34.30700
H  4.44400 7.45200 28.52900
H  5.98300 8.14700 29.07300
H  5.30400 6.86100 29.88800
H  5.75600 8.83500 26.93000
H  4.32200 7.93700 26.20900
H  5.18600 9.12600 25.24600
H  9.41300 3.60400 23.01100
H  9.10800 0.81300 23.18300
H  7.28600 3.69000 22.06500
H  6.54600 2.68600 23.23000
H  7.48500 1.82200 22.02600
H  11.86000 1.48700 23.50600
H  11.22400 2.75500 22.48000
H  11.69800 1.15000 20.83400
H  10.14900 0.40500 21.38600
H  11.74000 -0.17700 21.96000
H  12.13900 -2.48400 28.33500
H  13.09800 -1.61600 27.03700
H  11.52100 -2.44800 26.72000
H  11.92000 0.90100 31.89800
H  12.03100 -1.20800 35.53000
H  10.32100 -1.60200 35.20200
H  10.80500 -0.03000 35.85300
Mg 16.11200 52.45300 25.46600
C  18.28400 51.51500 27.92500
C  13.79200 53.31300 27.73900
C  13.92200 53.42500 22.94600
C  18.35500 51.40600 23.07700
N  16.08600 52.44500 27.63500
C  17.10500 51.99500 28.44500
C  16.70800 52.25200 29.99500
C  15.19000 52.69900 29.85600
C  15.02100 52.86600 28.34700
C  14.15200 51.72100 30.43700
C  17.57700 53.35600 30.70300
C  17.61500 53.38400 32.26300
H  16.67200 52.57800 33.18100
N  14.17300 53.43000 25.35200
C  13.32500 53.63500 26.41100
C  12.13000 54.25400 25.97200
C  12.21000 54.34200 24.54400
C  13.52100 53.82000 24.19400
C  10.93400 54.66900 26.90300
C  11.11400 54.71000 23.51100
O  11.27900 54.67700 22.28100
C  9.68500 55.03200 24.00200
N  16.16600 52.59600 23.30900
C  15.14100 52.89000 22.56200
C  15.48700 52.55800 21.06200
C  16.88200 52.03400 21.11900
C  17.17900 51.99100 22.60100
C  14.44500 51.62200 20.31700
C  17.97700 52.81400 20.30100
C  18.65500 51.99300 19.18000
N  17.97700 51.72800 25.40500
C  18.78200 51.41300 24.35500
C  19.94100 50.77100 24.86900
C  19.84500 50.85400 26.22000
C  18.62800 51.46500 26.52400
C  21.00600 50.02600 24.10200
C  20.44500 50.36100 27.46100
O  21.42000 49.63800 27.64400
C  19.54400 50.92700 28.60500
C  19.22100 49.83600 29.56900
O  18.68700 48.79400 29.42000
O  19.70800 50.16000 30.76600
C  19.42400 49.29900 31.94800
H  13.12800 53.58200 28.56400
H  13.42300 53.86800 22.08200
H  18.73700 50.82500 22.23500
H  16.81800 51.29900 30.51300
H  15.06900 53.67600 30.32400
H  14.67900 50.81500 30.73500
H  13.52300 51.38800 29.61200
H  13.61800 52.04200 31.33100
H  17.17800 54.31800 30.38200
H  18.61800 53.31100 30.38300
H  17.70200 54.39000 32.67200
H  18.56500 52.85100 32.29600
H  10.05800 54.02100 26.90200
H  10.54700 55.67900 26.77000
H  11.39800 54.64100 27.88900
H  9.06400 54.95800 23.10900
H  9.83400 56.04700 24.36900
H  9.32900 54.36700 24.78900
H  15.42500 53.52900 20.57200
H  16.94300 50.99500 20.79400
H  14.85400 50.76800 19.77600
H  13.83900 52.14000 19.57400
H  13.81900 51.19900 21.10300
H  18.76100 53.15300 20.97800
H  17.49800 53.71800 19.92600
H  18.79000 52.51500 18.23200
H  18.06800 51.11700 18.90100
H  19.64400 51.66700 19.50000
H  21.46800 50.81100 23.50300
H  20.53300 49.34100 23.39800
H  21.69900 49.52700 24.77900
H  20.11700 51.75100 29.02900
H  18.34400 49.18100 32.04400
H  19.96500 49.74200 32.78400
H  19.82500 48.28900 31.86700

