158

Mg -2.59500 16.93400 26.67000
C  -2.92400 14.80600 29.34200
C  -2.53800 19.56300 28.79000
C  -2.57900 18.91400 23.98300
C  -2.65100 14.22400 24.56000
N  -2.85300 17.13500 28.80500
C  -2.94500 16.16000 29.72300
C  -2.83700 16.66500 31.18800
C  -3.01300 18.22600 30.91500
C  -2.69500 18.34100 29.38800
C  -4.43300 18.71300 31.30600
C  -1.58100 16.12000 31.83600
C  -0.77900 16.93400 32.86300
H  -0.36200 16.29100 34.17600
N  -2.58800 18.96500 26.44300
C  -2.57800 19.86400 27.44000
C  -2.66200 21.20400 26.83600
C  -2.55200 21.05800 25.44300
C  -2.55100 19.59800 25.22400
C  -2.67600 22.48300 27.64000
C  -2.39400 22.16700 24.36600
O  -2.31800 21.91100 23.15200
C  -2.30900 23.55100 24.78600
N  -2.83400 16.64100 24.58400
C  -2.72500 17.55500 23.64700
C  -2.80900 17.09800 22.19900
C  -2.58100 15.57100 22.43100
C  -2.69600 15.46800 23.94800
C  -4.15100 17.38600 21.57500
C  -1.19800 15.07800 21.96700
C  -1.13300 13.87300 21.02200
N  -2.94000 14.91300 26.88600
C  -2.86900 13.91500 25.92000
C  -2.86800 12.60300 26.50700
C  -2.95800 12.91100 27.80100
C  -2.94300 14.30800 28.06500
C  -2.86500 11.24600 25.92700
C  -3.01400 12.33100 29.10500
O  -3.06900 11.14700 29.36300
C  -2.91500 13.54700 30.16300
C  -1.74200 13.23700 30.91300
O  -0.63800 13.39000 30.49800
O  -2.18500 12.76900 32.13100
C  -1.21200 12.40300 33.11600
H  -2.48500 20.41100 29.47500
H  -2.55000 19.55800 23.10200
H  -2.45600 13.36100 23.92100
H  -3.64100 16.17900 31.74200
H  -2.24300 18.78500 31.44700
H  -5.04900 18.89800 30.42600
H  -4.29700 19.59500 31.93300
H  -4.99600 17.96900 31.87000
H  -0.94900 15.87200 30.98400
H  -1.78800 15.23800 32.44200
H  -1.36400 17.82100 33.10800
H  0.09900 17.33700 32.35700
H  -2.89300 22.26500 28.68600
H  -3.52900 23.11600 27.39500
H  -1.78200 23.09600 27.52600
H  -3.30300 23.89000 25.07800
H  -1.98000 24.08200 23.89300
H  -1.56200 23.86600 25.51400
H  -1.98900 17.47400 21.58800
H  -3.29000 14.89000 21.96000
H  -4.88600 17.79400 22.26900
H  -4.59000 16.49900 21.11700
H  -4.17600 18.13900 20.78700
H  -0.54600 14.90600 22.82300
H  -0.61000 15.80300 21.40400
H  -0.41300 13.08000 21.22900
H  -0.98000 14.25300 20.01200
H  -2.06300 13.30700 20.96700
H  -3.86900 10.82300 25.87700
H  -2.24100 10.51900 26.44700
H  -2.58400 11.25100 24.87400
H  -3.84200 13.54200 30.73600
H  -1.37600 11.34400 33.31100
H  -1.30400 12.98600 34.03200
H  -0.17400 12.54600 32.81600
Mg 1.19100 41.97100 24.79800
C  3.32100 41.65600 27.60000
C  -1.47800 41.44500 26.85300
C  -0.59900 41.77300 22.08600
C  4.18800 42.31500 22.74800
N  0.98100 41.52000 26.91400
C  2.00000 41.56200 27.95500
C  1.46300 41.56100 29.33100
C  -0.05100 41.44700 29.04100
C  -0.25400 41.49300 27.48200
C  -0.90600 40.30500 29.72600
C  1.83700 42.85000 30.17900
C  2.12300 42.58200 31.69200
H  1.72400 41.15100 32.34500
N  -0.73900 41.66800 24.53000
C  -1.71800 41.47900 25.46300
C  -3.00500 41.26000 24.83300
C  -2.78400 41.25500 23.43600
C  -1.32300 41.63800 23.29500
C  -4.29600 40.93600 25.68400
C  -3.79800 40.93700 22.33100
O  -3.41600 41.09000 21.18200
C  -5.18600 40.63800 22.62300
N  1.71100 42.11900 22.70900
C  0.75200 42.05300 21.72200
C  1.28800 42.18400 20.32900
C  2.74300 42.64000 20.56300
C  2.89900 42.27500 22.09900
C  1.26500 40.90300 19.40200
C  2.97700 44.19900 20.37400
C  3.24500 44.60300 18.97100
N  3.35600 41.95100 25.00900
C  4.41300 42.10900 24.09000
C  5.65800 42.03000 24.84500
C  5.30700 41.81300 26.18300
C  3.88100 41.76700 26.26600
C  7.05500 41.96700 24.27200
C  5.81400 41.71800 27.54700
O  6.91000 41.72100 28.03000
C  4.46500 41.65300 28.43600
C  4.63000 40.49300 29.45500
O  4.12000 39.40900 29.37100
O  5.30000 41.04900 30.52300
C  5.38700 40.38900 31.78200
H  -2.38300 41.38100 27.46000
H  -1.27300 41.86800 21.23200
H  5.11700 42.53300 22.21700
H  1.87100 40.64000 29.74700
H  -0.47000 42.42900 29.25800
H  -1.53100 40.75300 30.49800
H  -0.16500 39.71400 30.26300
H  -1.58300 39.80800 29.03100
H  0.98200 43.52500 30.21800
H  2.61500 43.41200 29.66200
H  1.51600 43.28600 32.26100
H  3.16600 42.77900 31.94000
H  -4.78500 40.01800 25.35800
H  -5.05200 41.71900 25.72400
H  -4.09600 40.74000 26.73800
H  -5.18100 39.77800 23.29300
H  -5.75700 40.54700 21.70000
H  -5.60900 41.46700 23.19100
H  0.83400 42.97000 19.72600
H  3.50400 42.01800 20.09400
H  2.18200 40.70000 18.84900
H  0.55000 41.14100 18.61400
H  1.00600 40.12500 20.12100
H  3.76000 44.58400 21.02800
H  2.01300 44.64800 20.61100
H  4.21200 45.10200 19.03600
H  2.61600 45.37800 18.53400
H  3.34300 43.78200 18.26100
H  7.18000 41.29200 23.42600
H  7.77000 41.79500 25.07600
H  7.07000 42.98800 23.89000
H  4.52300 42.58500 29.00000
H  4.95800 41.10000 32.48800
H  6.43800 40.16200 31.96000
H  5.00000 39.37000 31.80500

