158

Mg 50.10300 47.05700 42.61700
C  46.76900 46.93500 41.41200
C  50.70100 44.12500 40.83900
C  53.40100 47.58500 42.88900
C  49.43800 50.37400 43.51200
N  48.85900 45.87800 41.00800
C  47.47400 45.92800 40.79300
C  47.06600 44.77600 39.91100
C  48.34400 43.87100 39.72700
C  49.43600 44.66200 40.58700
C  48.15500 42.37300 40.07800
C  46.35700 45.24200 38.56300
C  44.94900 44.57000 38.12300
H  45.00400 43.77700 36.88600
N  51.74500 45.91400 42.19100
C  51.80500 44.73400 41.40200
C  53.13600 44.24800 41.37700
C  53.91100 45.13200 42.16000
C  53.00100 46.31600 42.48300
C  53.51500 42.97800 40.68000
C  55.37700 44.99200 42.59400
O  56.14200 44.13400 42.06200
C  55.96500 45.74200 43.66600
N  51.27700 48.65300 43.17900
C  52.56500 48.61300 43.30100
C  53.13000 49.97300 43.68100
C  51.89100 50.80600 44.04800
C  50.72900 49.90500 43.57100
C  54.20300 49.89900 44.77300
C  51.80800 52.27300 43.38800
C  51.52100 52.47400 41.83800
N  48.40100 48.31000 42.68000
C  48.32000 49.66400 43.08800
C  46.88500 50.08100 42.99600
C  46.25900 48.98300 42.41500
C  47.20700 47.97200 42.18800
C  46.23400 51.38600 43.44200
C  44.96200 48.52100 41.90900
O  43.86000 49.08300 41.90400
C  45.23300 47.14700 41.25800
C  44.38500 46.05500 41.80000
O  44.80100 45.34600 42.69800
O  43.08500 46.01200 41.26200
C  42.10400 45.29000 42.13600
H  50.84400 43.15100 40.36800
H  54.45200 47.86000 42.78100
H  49.21100 51.29000 44.06100
H  46.25500 44.34000 40.49300
H  48.75700 44.02400 38.72900
H  48.33900 41.71300 39.23100
H  47.21300 42.00100 40.48300
H  48.92600 42.13900 40.81100
H  47.03000 45.09200 37.71900
H  46.26100 46.32600 38.63000
H  44.13300 45.29200 38.11900
H  44.70400 43.87300 38.92400
H  53.70800 42.22800 41.44700
H  54.49100 43.05300 40.20100
H  52.63400 42.60800 40.15700
H  55.16400 46.05000 44.33800
H  56.50200 46.57100 43.20500
H  56.61200 45.06400 44.22100
H  53.53900 50.45400 42.79200
H  51.84600 50.97100 45.12500
H  54.56200 48.93500 45.13500
H  53.76000 50.43600 45.61200
H  55.03700 50.46500 44.35800
H  52.78700 52.72500 43.54500
H  51.05300 52.86600 43.90200
H  50.95200 51.62700 41.45500
H  52.39000 52.79200 41.26200
H  50.88200 53.35300 41.75700
H  46.19600 52.20100 42.71900
H  46.85400 51.70600 44.27900
H  45.20200 51.14300 43.69400
H  44.87900 47.12100 40.22700
H  41.20800 44.94200 41.62200
H  41.87300 45.95200 42.97100
H  42.44700 44.37600 42.62100
Mg 17.24000 50.92400 25.90400
C  18.95000 49.78300 28.64000
C  14.95500 52.48600 28.02100
C  15.74300 52.11000 23.18100
C  19.71600 49.53400 23.80900
N  17.13400 51.30600 28.11600
C  17.87500 50.60200 29.04000
C  17.37400 50.82300 30.44700
C  16.04300 51.62000 30.23200
C  16.03800 51.83900 28.72400
C  14.83500 50.89600 30.80500
C  18.47300 51.50400 31.35500
C  18.20400 51.58600 32.87600
H  17.21600 50.64000 33.56900
N  15.51100 52.08500 25.58600
C  14.71300 52.59900 26.57600
C  13.66900 53.30700 25.93700
C  14.05300 53.47800 24.51200
C  15.09800 52.48100 24.37500
C  12.67700 54.06600 26.69700
C  13.58500 54.49000 23.44200
O  14.06000 54.55300 22.30800
C  12.58700 55.53400 23.93800
N  17.64000 50.90000 23.86000
C  16.92300 51.38700 22.86800
C  17.16100 50.85800 21.45900
C  18.59600 50.39700 21.69900
C  18.69500 50.30900 23.17500
C  16.15500 49.70000 21.19600
C  19.67100 51.36200 21.09900
C  20.56100 50.90000 19.94600
N  18.97300 49.94000 26.11300
C  19.81200 49.34600 25.19000
C  20.85200 48.62100 25.85700
C  20.50100 48.65800 27.21700
C  19.35400 49.51200 27.32700
C  22.03200 47.98500 25.30100
C  20.95000 48.31200 28.59200
O  22.00600 47.69400 28.93800
C  19.91500 48.99400 29.55400
C  19.35900 47.96000 30.41500
O  18.51000 47.16900 30.00300
O  19.99100 47.97600 31.65700
C  19.57600 46.94600 32.60300
H  14.20600 52.89100 28.70500
H  15.21300 52.47600 22.30000
H  20.41400 48.98300 23.17500
H  17.12600 49.91000 30.98800
H  16.03900 52.62500 30.65300
H  14.03500 50.74200 30.08100
H  14.48400 51.52800 31.62100
H  15.05400 49.93300 31.26600
H  18.44500 52.55100 31.05500
H  19.46100 51.10400 31.12600
H  17.89000 52.62600 32.96300
H  19.16900 51.41700 33.35300
H  12.99100 55.08800 26.91000
H  12.49600 53.53300 27.63100
H  11.72300 54.05200 26.16900
H  13.01200 56.17000 24.71400
H  11.59400 55.19500 24.23100
H  12.57700 56.27900 23.14200
H  17.15200 51.62200 20.68200
H  18.88100 49.42500 21.29800
H  15.87300 49.93200 20.17000
H  15.25500 49.60100 21.80300
H  16.54800 48.68400 21.16000
H  20.37100 51.42600 21.93100
H  19.36600 52.39600 20.93600
H  20.21600 49.90400 19.66900
H  21.59500 50.80700 20.27800
H  20.49300 51.54100 19.06700
H  22.31800 48.55600 24.41800
H  21.70900 47.03600 24.87200
H  22.82200 47.76000 26.01800
H  20.56900 49.69400 30.07200
H  20.15400 47.06600 33.51900
H  19.69300 45.94300 32.19400
H  18.56600 47.12200 32.97400

