158

Mg 16.95500 51.73400 26.37200
C  18.92500 50.58100 29.08400
C  14.59100 52.49800 28.61700
C  15.38600 52.84700 23.88000
C  19.37400 50.20400 24.19700
N  16.85800 51.62400 28.58600
C  17.67800 51.02100 29.43100
C  17.06800 50.85300 30.85100
C  15.52900 51.12900 30.61300
C  15.62200 51.75100 29.18900
C  14.64100 49.88600 30.60700
C  17.69800 51.76400 31.91400
C  18.00400 51.23300 33.36400
H  17.13000 51.94900 34.34700
N  15.17100 52.63000 26.29900
C  14.38300 53.05300 27.30800
C  13.45700 54.01300 26.81700
C  13.65000 54.15900 25.44400
C  14.73600 53.15700 25.12300
C  12.43100 54.67500 27.74800
C  12.90700 55.05900 24.46600
O  13.25300 55.05900 23.29100
C  11.92600 55.98700 24.91700
N  17.18100 51.38800 24.32400
C  16.36800 51.93900 23.48600
C  16.76100 51.76500 22.01700
C  18.19700 51.09800 22.11800
C  18.27200 50.87400 23.60800
C  15.84500 51.09900 20.99500
C  19.35700 51.82700 21.53700
C  20.27800 51.20600 20.40600
N  18.77700 50.64000 26.56900
C  19.59700 50.04700 25.58800
C  20.74000 49.39700 26.24700
C  20.57000 49.60000 27.58200
C  19.27800 50.29900 27.75000
C  21.96000 48.72600 25.66100
C  21.12500 49.40700 28.87000
O  22.27500 49.04000 29.19800
C  20.05800 49.98100 29.89100
C  19.74300 48.70500 30.57200
O  19.12700 47.75900 30.14500
O  20.29000 48.76000 31.83800
C  20.10800 47.51800 32.58700
H  13.66300 52.54100 29.19100
H  14.90000 53.30600 23.01600
H  20.18500 49.89700 23.53300
H  17.18100 49.84500 31.25000
H  15.13200 51.79000 31.38300
H  14.92000 49.15300 29.85000
H  13.65000 50.23500 30.31500
H  14.61000 49.56000 31.64700
H  16.99500 52.58200 32.06900
H  18.51500 52.34500 31.48600
H  19.07800 51.33400 33.51800
H  17.82700 50.16600 33.23100
H  12.66900 55.72800 27.59800
H  12.35900 54.23100 28.74100
H  11.40000 54.56500 27.41400
H  11.21400 55.40300 25.50000
H  11.46200 56.26000 23.96900
H  12.31300 56.84500 25.46600
H  16.79400 52.80700 21.69900
H  18.08800 50.11200 21.66600
H  16.42200 50.41800 20.37000
H  15.13000 51.77500 20.52300
H  15.26600 50.40800 21.60800
H  20.00800 52.12100 22.36100
H  18.90900 52.69900 21.06100
H  21.31700 51.43300 20.64200
H  19.99900 51.65300 19.45200
H  20.19000 50.12900 20.26200
H  22.64600 48.28000 26.38200
H  22.44900 49.44100 25.00000
H  21.60800 47.87000 25.08600
H  20.40200 50.70000 30.63500
H  20.70800 47.75000 33.46700
H  20.35800 46.66900 31.95100
H  19.03400 47.48100 32.76700
Mg 9.71000 47.97200 25.46200
C  7.58200 48.10000 28.09700
C  12.32100 49.09700 27.46400
C  11.66900 47.73500 22.89600
C  6.88300 47.78500 23.31500
N  9.90600 48.44800 27.54500
C  8.93400 48.40600 28.46500
C  9.54200 48.61000 29.88900
C  10.78900 49.39600 29.51600
C  11.07000 48.90300 28.08700
C  10.68900 50.90000 29.74300
C  9.54800 47.28400 30.72600
C  10.68300 47.08600 31.61000
H  10.41000 46.10600 32.88100
N  11.70300 48.41200 25.21100
C  12.64300 48.78600 26.15000
C  13.93600 48.82700 25.55100
C  13.78200 48.26900 24.24800
C  12.36100 48.14100 24.03100
C  15.15300 49.32900 26.26900
C  14.83700 47.91700 23.23100
O  14.61600 47.29500 22.20800
C  16.26600 48.03700 23.58700
N  9.28400 48.06900 23.31600
C  10.34100 47.75500 22.54500
C  9.89700 47.61600 21.07300
C  8.37700 47.28300 21.31100
C  8.14900 47.76300 22.69300
C  10.25800 48.91500 20.21400
C  7.85200 45.79600 21.11600
C  8.09400 44.74800 22.19900
N  7.63600 47.87200 25.63100
C  6.61500 47.76400 24.69100
C  5.30800 47.65800 25.35300
C  5.66600 47.71300 26.71100
C  7.06200 47.96800 26.80100
C  3.96700 47.39900 24.80900
C  5.18700 47.54800 28.06200
O  4.08500 47.28500 28.53100
C  6.40800 47.88000 28.96600
C  6.56400 46.73000 29.92400
O  6.87500 45.63200 29.62500
O  5.92500 47.09600 31.04400
C  5.34300 46.07700 31.90400
H  13.12200 49.48100 28.10000
H  12.24800 47.51900 21.99600
H  6.04600 47.66100 22.62400
H  8.93500 49.35800 30.39900
H  11.69500 49.14900 30.07000
H  11.27700 51.45200 29.01000
H  11.09200 51.11900 30.73200
H  9.68100 51.25100 29.52300
H  9.49900 46.42000 30.06200
H  8.69400 47.32900 31.40100
H  11.13700 48.05200 31.83100
H  11.53000 46.69800 31.04300
H  16.03300 48.69300 26.17100
H  14.94700 49.62100 27.29800
H  15.55100 50.23000 25.80300
H  16.90100 47.82300 22.72700
H  16.56100 47.35500 24.38400
H  16.43000 49.07600 23.87200
H  10.44800 46.76600 20.67200
H  7.73000 47.88900 20.67800
H  10.46200 49.72900 20.91000
H  9.45600 49.20900 19.53700
H  11.16000 48.71900 19.63300
H  8.34500 45.48200 20.19600
H  6.79400 45.83600 20.85800
H  9.12800 45.00500 22.43000
H  8.02500 43.78400 21.69600
H  7.42700 44.90100 23.04700
H  3.68900 48.05400 23.98300
H  3.24900 47.57800 25.60900
H  3.88900 46.38600 24.41300
H  6.11200 48.72700 29.58500
H  4.44100 46.55300 32.28900
H  6.05600 45.89700 32.71000
H  5.12200 45.04800 31.62000

