158

Mg 53.50800 24.92800 44.37300
C  50.90900 27.23600 43.63700
C  51.56000 22.47900 43.01100
C  56.22400 22.96600 44.56500
C  55.59100 27.73000 44.89100
N  51.46400 24.93600 43.33100
C  50.57400 25.96200 43.18000
C  49.25800 25.35700 42.57200
C  49.38700 23.86100 42.78900
C  50.94700 23.71800 42.98500
C  48.61000 23.24400 43.97500
C  48.75200 25.71100 41.14700
C  49.69300 25.99300 40.02700
H  49.49800 25.26000 38.73700
N  53.77500 22.99300 43.93600
C  52.90500 22.17400 43.28600
C  53.55700 20.89400 43.11200
C  54.82400 20.91600 43.84400
C  54.97000 22.34300 44.20500
C  52.89600 19.64000 42.52400
C  55.73700 19.73900 44.09400
O  55.45900 18.60700 43.62400
C  56.79900 19.75700 45.10600
N  55.73300 25.34600 44.50100
C  56.59200 24.31900 44.67700
C  58.03900 24.82900 44.76100
C  57.78800 26.39300 44.91900
C  56.26000 26.51000 44.71200
C  58.91000 24.07700 45.80700
C  58.66200 27.30800 44.15000
C  59.38300 28.41500 44.93900
N  53.33300 27.00800 44.27700
C  54.23100 27.98400 44.75300
C  53.57700 29.22900 45.04000
C  52.24100 28.95800 44.64200
C  52.20300 27.61600 44.09800
C  54.18700 30.48700 45.55000
C  50.92500 29.60200 44.38000
O  50.46500 30.74600 44.64700
C  50.03800 28.49700 43.70100
C  49.60400 28.94400 42.28300
O  50.46100 29.08200 41.40400
O  48.29200 29.21900 42.20000
C  47.86700 29.65300 40.83000
H  50.95700 21.66800 42.59700
H  57.07800 22.28600 44.59500
H  56.28400 28.48900 45.26200
H  48.44900 25.73800 43.19500
H  49.17100 23.26200 41.90400
H  47.80400 23.87800 44.34500
H  49.32000 22.92000 44.73500
H  48.07900 22.35300 43.63700
H  48.07100 26.53900 41.33900
H  48.09100 24.96400 40.70600
H  50.71100 25.77400 40.34900
H  49.58900 27.04300 39.75500
H  53.58600 19.30500 41.75000
H  51.86100 19.80600 42.22600
H  52.82500 18.80600 43.22200
H  56.76400 18.80700 45.63900
H  56.51800 20.61200 45.72200
H  57.78700 19.98400 44.70500
H  58.56800 24.66400 43.82200
H  57.96200 26.67300 45.95800
H  58.44500 23.21000 46.27700
H  59.11500 24.72600 46.65900
H  59.84300 23.70800 45.38200
H  58.07200 27.84100 43.40500
H  59.38200 26.74500 43.55500
H  59.58100 29.20600 44.21600
H  60.24500 27.95000 45.41800
H  58.67400 28.87400 45.62800
H  55.25600 30.44600 45.75800
H  53.80300 30.74800 46.53600
H  54.00000 31.39300 44.97400
H  49.12800 28.21500 44.23200
H  48.56600 29.37000 40.04300
H  47.60800 30.70200 40.68500
H  47.04300 28.95600 40.68100
Mg 26.46500 49.36800 26.21300
C  24.44700 50.44100 28.99100
C  28.83500 48.52400 28.47600
C  28.29500 48.65700 23.54700
C  24.07000 50.85200 24.10500
N  26.58500 49.51900 28.52500
C  25.67200 49.94000 29.43400
C  26.16900 49.64800 30.89200
C  27.64600 49.09400 30.71700
C  27.72900 49.14600 29.13000
C  28.75600 49.93200 31.36400
C  25.27600 48.57600 31.68900
C  24.76600 49.19500 32.97800
H  25.71900 49.86000 33.93700
N  28.31700 48.66600 25.97800
C  29.12300 48.32300 27.06300
C  30.28600 47.61900 26.48900
C  30.20500 47.70800 25.02700
C  28.88000 48.39900 24.79100
C  31.46600 47.13800 27.44800
C  31.04200 47.11800 23.95300
O  30.87400 47.40100 22.77700
C  32.24000 46.32100 24.24800
N  26.24200 49.75700 24.17400
C  27.17300 49.26900 23.27100
C  26.62500 49.34700 21.88500
C  25.24900 50.11200 22.00800
C  25.19100 50.21300 23.54300
C  27.52300 49.93700 20.78400
C  24.13900 49.24900 21.40700
C  23.58900 49.68700 20.06900
N  24.62600 50.32400 26.48000
C  23.78500 50.89100 25.52800
C  22.66500 51.43100 26.17100
C  22.82700 51.23400 27.56300
C  24.07400 50.60300 27.68900
C  21.54300 52.05600 25.49000
C  22.22900 51.53700 28.88200
O  21.15900 52.02200 29.24900
C  23.25800 50.98100 29.89500
C  23.60900 52.14000 30.78100
O  24.48300 52.94400 30.54800
O  22.86900 52.15100 31.92000
C  23.31700 53.10300 32.91700
H  29.49100 48.06700 29.22000
H  28.84400 48.37200 22.64700
H  23.35200 51.31500 23.42600
H  26.19000 50.58400 31.45100
H  27.70100 48.08500 31.12600
H  29.19900 50.50100 30.54700
H  29.44800 49.19400 31.77000
H  28.41500 50.63400 32.12500
H  25.73000 47.61300 31.92400
H  24.30800 48.50400 31.19300
H  24.36900 48.29800 33.45400
H  23.98500 49.91800 32.74600
H  31.48800 47.66400 28.40200
H  32.39600 47.42800 26.95900
H  31.44200 46.04900 27.49600
H  32.51300 45.56500 23.51200
H  31.92200 45.73300 25.10800
H  32.95200 47.06300 24.61100
H  26.44700 48.30100 21.63400
H  25.28900 51.09300 21.53500
H  28.39100 50.47200 21.16700
H  26.90500 50.66400 20.25800
H  27.84300 49.15200 20.09900
H  23.21100 49.19800 21.97700
H  24.42200 48.20800 21.24600
H  24.19000 50.57500 19.87400
H  22.53200 49.95600 20.07900
H  23.91400 48.96400 19.32100
H  21.38200 51.47100 24.58400
H  21.87400 53.08900 25.39200
H  20.67600 52.06700 26.15000
H  22.98400 50.18200 30.58400
H  23.43100 54.11200 32.52000
H  24.34400 52.83600 33.16600
H  22.64800 53.00300 33.77100

