158

Mg -2.45900 17.45400 25.75400
C  -2.75500 15.24300 28.59900
C  -3.18900 19.99600 27.85200
C  -2.00600 19.45500 23.09400
C  -1.87400 14.65000 23.76900
N  -2.94700 17.56500 27.97300
C  -2.89500 16.60700 28.97500
C  -3.20800 17.16100 30.36600
C  -3.88000 18.55600 29.88400
C  -3.27200 18.76100 28.50400
C  -5.46000 18.50700 29.81900
C  -1.96700 17.38400 31.22200
C  -2.28400 18.07500 32.53200
H  -1.86000 17.26700 33.77100
N  -2.45500 19.43600 25.58100
C  -2.72300 20.35800 26.57900
C  -2.66600 21.71700 25.96900
C  -2.38400 21.52300 24.57000
C  -2.26300 20.07900 24.38300
C  -2.95700 23.00100 26.82100
C  -2.39300 22.60400 23.49900
O  -2.50300 22.38000 22.29000
C  -2.44700 24.07900 23.88600
N  -2.08800 17.01900 23.67400
C  -1.96200 18.07800 22.77100
C  -1.59000 17.52600 21.33700
C  -1.51100 15.98200 21.63300
C  -1.86100 15.80300 23.11800
C  -2.71900 17.89600 20.34000
C  0.00400 15.56000 21.28200
C  1.21200 16.07300 22.14900
N  -2.48700 15.34200 26.06700
C  -2.15700 14.32000 25.14300
C  -2.20800 13.11900 25.78000
C  -2.28900 13.41000 27.23200
C  -2.51700 14.76200 27.33600
C  -2.11200 11.78400 25.17100
C  -2.35300 12.84200 28.51100
O  -2.12200 11.70600 28.83300
C  -2.72800 13.99400 29.50700
C  -1.58900 13.99900 30.44100
O  -0.42400 14.38400 30.24900
O  -1.95400 13.31800 31.54100
C  -0.85200 12.63800 32.32800
H  -3.40500 20.83400 28.51800
H  -1.88400 20.11900 22.23500
H  -1.61500 13.74100 23.22200
H  -3.98500 16.57200 30.85400
H  -3.50300 19.46100 30.36100
H  -5.87400 19.25300 30.49700
H  -5.78600 17.48900 30.03600
H  -5.78500 18.66100 28.79000
H  -1.42000 18.04500 30.54900
H  -1.39700 16.46200 31.33000
H  -3.35400 18.27400 32.59700
H  -1.81700 19.05900 32.47000
H  -3.18700 22.84500 27.87500
H  -3.83100 23.52500 26.43300
H  -2.11100 23.66100 26.63000
H  -2.51000 24.60400 22.93200
H  -1.61300 24.40700 24.50600
H  -3.42800 24.25400 24.32700
H  -0.64400 18.03400 21.14900
H  -2.10800 15.27200 21.06100
H  -3.50900 18.36200 20.92900
H  -3.25800 17.08900 19.84300
H  -2.25700 18.47400 19.54100
H  0.16600 15.98800 20.29300
H  -0.01100 14.50300 21.01900
H  1.77000 16.82700 21.59500
H  1.79100 15.17900 22.38400
H  0.90200 16.64500 23.02300
H  -1.44200 11.65900 24.32100
H  -3.14100 11.43800 25.07000
H  -1.61300 11.13200 25.88800
H  -3.57900 13.58000 30.04900
H  -0.08700 13.33700 32.66700
H  -0.37200 11.94700 31.63500
H  -1.26700 12.02800 33.13000
Mg 41.26500 7.29100 29.36500
C  43.14800 8.46500 32.06800
C  39.04800 5.98400 31.61100
C  39.45100 6.21300 26.77300
C  43.96400 7.97700 27.24800
N  41.11600 7.19700 31.59700
C  41.86400 7.88700 32.46500
C  41.22500 7.97100 33.82700
C  40.22200 6.77200 33.73600
C  40.13900 6.58200 32.24200
C  40.67900 5.42400 34.42400
C  40.68000 9.31200 34.14300
C  40.58700 9.68000 35.59800
H  41.53300 10.72200 36.30200
N  39.52200 6.27100 29.22400
C  38.71500 5.83400 30.21600
C  37.55600 5.18400 29.57700
C  37.54800 5.39100 28.20900
C  38.91600 5.95600 28.02200
C  36.55300 4.42200 30.50200
C  36.49800 5.06700 27.24400
O  36.58800 5.04100 26.04200
C  35.11000 4.85400 27.81400
N  41.71800 6.91600 27.33500
C  40.72100 6.62600 26.48800
C  41.10500 6.79700 24.98400
C  42.49600 7.45800 25.08200
C  42.84400 7.38500 26.66800
C  40.98300 5.55200 24.07400
C  42.58400 8.94600 24.48500
C  42.13600 10.12800 25.42100
N  43.18100 8.12800 29.55800
C  44.15600 8.29900 28.62700
C  45.26000 9.01700 29.21400
C  44.87600 9.14300 30.57900
C  43.63400 8.55300 30.76700
C  46.40100 9.64500 28.51800
C  45.29600 9.74100 31.84200
O  46.27000 10.39400 32.16000
C  44.10300 9.33800 32.80000
C  44.61700 8.66000 34.00300
O  44.44700 7.44400 34.28400
O  45.44200 9.48800 34.78800
C  45.88500 8.82300 36.01600
H  38.28800 5.58000 32.28300
H  38.73100 5.96900 25.98900
H  44.66800 8.19300 26.44200
H  42.05600 7.79700 34.51000
H  39.26400 7.06700 34.16400
H  40.11900 5.16700 35.32300
H  41.75000 5.56000 34.57700
H  40.60400 4.56800 33.75500
H  39.68900 9.45800 33.71400
H  41.30400 9.99300 33.56400
H  40.56500 8.77700 36.20800
H  39.58200 10.09900 35.66200
H  37.09300 4.06200 31.37800
H  36.08400 3.55700 30.03300
H  35.78500 5.13000 30.81500
H  35.16800 3.83200 28.18700
H  34.39300 5.06600 27.02100
H  34.97200 5.53400 28.65600
H  40.42400 7.50600 24.51200
H  43.30000 6.90200 24.59900
H  40.22400 4.83300 24.38100
H  41.96300 5.07500 24.07000
H  40.73200 5.89300 23.06900
H  41.97700 8.85800 23.58400
H  43.49400 9.15500 23.92400
H  41.85000 9.84400 26.43400
H  41.30400 10.56400 24.86700
H  42.91100 10.89500 25.44200
H  46.26600 10.14300 27.55800
H  47.18900 8.89300 28.48200
H  46.90900 10.38500 29.13700
H  43.68600 10.28800 33.13500
H  45.05300 8.63900 36.69600
H  46.56600 9.52600 36.49700
H  46.46900 7.92400 35.82200

