158

Mg 1.43500 -1.55400 44.17400
C  4.87700 -0.97600 43.51000
C  0.68500 1.23900 42.41100
C  -1.72300 -2.56800 44.40000
C  2.40400 -4.68400 45.70400
N  2.61500 -0.10100 43.05900
C  3.96300 -0.07000 42.86100
C  4.39000 1.15600 42.03600
C  3.06200 1.91900 41.85200
C  2.04600 0.98200 42.43800
C  3.13000 3.24700 42.60200
C  5.00500 0.63200 40.73900
C  6.46000 1.10000 40.55200
H  6.63700 2.22800 39.53400
N  -0.30300 -0.75400 43.53500
C  -0.40800 0.46200 42.89400
C  -1.81200 0.79300 42.69800
C  -2.61000 -0.28300 43.37500
C  -1.54100 -1.24100 43.79300
C  -2.21600 2.09300 42.08300
C  -4.10200 -0.24900 43.42600
O  -4.69000 0.67000 42.86200
C  -5.06600 -1.34000 44.02900
N  0.45900 -3.47200 44.91200
C  -0.85200 -3.58700 44.83100
C  -1.35300 -4.95300 45.38400
C  -0.03900 -5.60300 45.89400
C  1.02100 -4.53200 45.43500
C  -2.40700 -4.81800 46.48100
C  0.28700 -7.03800 45.37000
C  0.25200 -8.25600 46.25800
N  3.24300 -2.62800 44.60800
C  3.45200 -3.82800 45.22000
C  4.90000 -4.08500 45.26100
C  5.48800 -2.94700 44.69900
C  4.47700 -2.11500 44.20900
C  5.59800 -5.24900 45.98400
C  6.86400 -2.34900 44.43500
O  7.97600 -2.63300 44.70400
C  6.42000 -1.03400 43.56800
C  6.94300 0.09500 44.36800
O  6.49200 0.52700 45.37600
O  7.99500 0.73800 43.71200
C  8.59300 1.95900 44.30000
H  0.33000 2.13100 41.89100
H  -2.78600 -2.79700 44.49100
H  2.81200 -5.59700 46.14100
H  5.14200 1.72700 42.58100
H  2.77700 2.18400 40.83400
H  4.12600 3.58200 42.89100
H  2.54700 3.19100 43.52100
H  2.59500 3.93800 41.95100
H  4.30600 0.80200 39.92000
H  4.98900 -0.45500 40.66200
H  7.13600 0.30400 40.23900
H  6.99500 1.47800 41.42300
H  -3.19800 1.92400 41.64200
H  -1.58200 2.41500 41.25700
H  -2.37400 2.87400 42.82600
H  -4.64600 -1.85000 44.89600
H  -5.30900 -2.10300 43.28900
H  -5.86900 -0.71700 44.42100
H  -1.69100 -5.64100 44.61000
H  -0.10800 -5.63200 46.98200
H  -2.81500 -3.81200 46.56600
H  -2.04600 -5.06500 47.47900
H  -3.24800 -5.50400 46.38000
H  1.17400 -7.08800 44.73900
H  -0.51500 -7.18900 44.64800
H  -0.39800 -8.95100 45.72600
H  -0.16800 -7.98400 47.22700
H  1.27300 -8.63500 46.29700
H  6.59600 -5.24300 45.54600
H  5.10900 -6.19300 45.74100
H  5.63300 -5.18200 47.07100
H  6.86700 -1.04800 42.57400
H  8.86200 1.88200 45.35400
H  7.92300 2.80500 44.14400
H  9.50900 2.06800 43.72000
Mg 0.86900 7.96300 26.13700
C  1.56400 9.84300 29.06900
C  0.86300 5.17800 27.96600
C  0.42000 6.34500 23.31000
C  1.02400 11.02000 24.38000
N  1.20500 7.62500 28.33100
C  1.36700 8.47300 29.35500
C  1.31700 7.80100 30.76700
C  1.21700 6.29000 30.34800
C  1.10900 6.38200 28.76400
C  2.29700 5.41800 30.94700
C  0.25900 8.44000 31.84600
C  0.79100 8.44500 33.28300
H  1.73600 7.38600 33.75000
N  0.56200 6.04400 25.70800
C  0.68600 4.95800 26.55800
C  0.42900 3.71200 25.93300
C  0.26500 4.08200 24.53600
C  0.43800 5.54300 24.49600
C  0.66000 2.37400 26.65200
C  -0.10800 3.16100 23.40500
O  -0.22700 3.59500 22.28600
C  -0.51000 1.76400 23.58200
N  0.85800 8.60600 24.12900
C  0.75500 7.67500 23.16800
C  1.17500 8.35500 21.81300
C  0.93200 9.87800 22.12000
C  0.90800 9.87300 23.62300
C  2.73600 8.16500 21.56900
C  -0.39900 10.35800 21.50100
C  -1.78800 9.77400 22.08500
N  1.19700 10.03700 26.58100
C  1.26500 11.14100 25.75300
C  1.66000 12.25800 26.44400
C  1.71800 11.87300 27.79100
C  1.51700 10.47800 27.82000
C  2.10000 13.61800 25.91700
C  1.91300 12.31700 29.13100
O  2.30300 13.46800 29.43100
C  1.66300 11.08300 30.04800
C  2.73800 10.94600 31.00200
O  3.76600 10.28600 30.82500
O  2.49000 11.77400 32.04800
C  3.46800 11.99700 33.04800
H  0.85300 4.25300 28.54700
H  0.27200 5.78600 22.38400
H  0.97100 11.99100 23.88400
H  2.36100 7.81500 31.07900
H  0.23300 5.93300 30.65200
H  1.85200 4.42800 31.04900
H  2.64600 5.71200 31.93700
H  3.16100 5.41700 30.28200
H  -0.59000 7.75600 31.87400
H  -0.03500 9.41100 31.44800
H  -0.01100 8.18300 33.97200
H  1.05400 9.47700 33.51500
H  0.80500 1.64800 25.85200
H  -0.16100 2.01200 27.27000
H  1.49600 2.42400 27.35000
H  -1.22900 1.77000 24.40100
H  0.36500 1.13200 23.73600
H  -1.04700 1.37900 22.71500
H  0.59700 8.03100 20.94700
H  1.74400 10.57000 21.89700
H  3.16400 7.32100 22.11000
H  3.37900 9.02800 21.74000
H  2.79400 7.95200 20.50200
H  -0.47700 10.25200 20.41900
H  -0.42000 11.42800 21.70400
H  -2.63000 9.60600 21.41300
H  -2.14400 10.47200 22.84300
H  -1.61200 8.90500 22.71900
H  1.24000 14.28400 25.98500
H  2.34400 13.64400 24.85500
H  2.87400 14.02200 26.57000
H  0.71200 11.29800 30.53500
H  4.39500 12.45900 32.70700
H  3.74700 11.01500 33.43100
H  3.05200 12.52600 33.90500

