158

Mg -10.14500 40.06000 43.56000
C  -8.94600 36.98100 42.41500
C  -7.35600 41.50700 42.11500
C  -11.50600 43.18900 43.97400
C  -13.24800 38.52900 44.31000
N  -8.35300 39.29400 42.47400
C  -7.99000 37.95600 42.20100
C  -6.67200 37.84900 41.46900
C  -6.05600 39.26400 41.73500
C  -7.28400 40.11600 42.13000
C  -4.84300 39.26300 42.79500
C  -6.84600 37.47700 39.98000
C  -5.82400 36.42600 39.35000
H  -4.76700 36.94300 38.26700
N  -9.43300 42.05100 43.16100
C  -8.28300 42.42200 42.56500
C  -8.14300 43.83300 42.39700
C  -9.33900 44.37800 43.02900
C  -10.21300 43.23300 43.42000
C  -6.96700 44.50600 41.74900
C  -9.61700 45.87100 43.12600
O  -8.83800 46.71000 42.65200
C  -10.90600 46.43300 43.73600
N  -12.00300 40.73200 44.26600
C  -12.33700 42.06200 44.29900
C  -13.88500 42.17200 44.56700
C  -14.24500 40.76000 45.09100
C  -13.12500 39.94000 44.49900
C  -14.20000 43.31700 45.53300
C  -15.66500 40.36400 44.59300
C  -15.82200 39.95600 43.09700
N  -10.94600 38.13200 43.55100
C  -12.22600 37.66300 43.79700
C  -12.32700 36.23800 43.50300
C  -11.05700 35.99200 43.01000
C  -10.25100 37.14400 42.97700
C  -13.57100 35.42600 43.53400
C  -10.26800 34.94400 42.49700
O  -10.60700 33.68900 42.37600
C  -8.85400 35.53700 41.99700
C  -7.71300 34.75600 42.53900
O  -7.33800 34.57400 43.71800
O  -7.05200 34.16200 41.56200
C  -6.29300 33.00600 41.94500
H  -6.38900 41.97300 41.91500
H  -12.04600 44.13800 43.95000
H  -14.14800 37.97700 44.59000
H  -5.96400 37.09600 41.81400
H  -5.63100 39.57600 40.78200
H  -5.10800 38.53400 43.56000
H  -4.83300 40.25700 43.24300
H  -3.91900 39.06900 42.24800
H  -6.73400 38.42800 39.45900
H  -7.85900 37.10900 39.81900
H  -6.51300 35.70600 38.90900
H  -5.17300 35.87400 40.02800
H  -7.10100 45.52900 41.39800
H  -6.54500 44.07100 40.84300
H  -6.11800 44.62300 42.42300
H  -11.81600 46.19600 43.18500
H  -10.90900 47.51300 43.87700
H  -10.97700 46.12000 44.77800
H  -14.26100 42.37100 43.56400
H  -14.08800 40.60400 46.15800
H  -13.33300 43.91500 45.81400
H  -14.73600 42.89700 46.38500
H  -14.88200 44.03000 45.07100
H  -16.37400 41.13600 44.89300
H  -16.07200 39.47900 45.08100
H  -16.01400 40.89300 42.57500
H  -16.49200 39.09600 43.06800
H  -14.88000 39.52500 42.75800
H  -13.39700 34.35400 43.43700
H  -14.15100 35.70000 42.65300
H  -14.12500 35.48200 44.47100
H  -8.76900 35.52400 40.91100
H  -6.93400 32.44100 42.62200
H  -5.36500 33.23100 42.46900
H  -6.08100 32.48500 41.01200
Mg -4.94000 25.57100 25.81300
C  -3.21900 27.11700 28.46100
C  -5.93000 23.10600 28.24900
C  -6.40800 23.90000 23.31800
C  -3.36300 27.58400 23.56400
N  -4.61600 25.22400 28.02300
C  -4.00600 26.07700 28.86400
C  -4.41900 25.68700 30.32700
C  -4.74100 24.15100 30.14900
C  -5.07500 24.15700 28.74300
C  -3.57100 23.15600 30.63200
C  -5.55500 26.66700 30.84000
C  -5.37600 26.97500 32.34200
H  -4.85200 25.88000 33.29300
N  -6.17600 23.92000 25.86100
C  -6.45500 23.03500 26.90700
C  -7.40900 22.06000 26.36900
C  -7.68900 22.38000 24.95400
C  -6.70800 23.41900 24.61400
C  -8.12400 21.07500 27.23100
C  -8.69700 21.63700 23.99000
O  -8.76500 21.89700 22.80000
C  -9.50600 20.49300 24.48900
N  -4.64700 25.54500 23.72400
C  -5.45400 24.82600 22.93800
C  -5.21400 25.09900 21.44700
C  -4.36300 26.38100 21.58700
C  -4.01800 26.47800 23.01600
C  -4.70000 23.88800 20.43900
C  -5.00700 27.64500 20.87400
C  -4.00900 28.44900 20.02500
N  -3.60500 27.07200 25.93500
C  -3.16500 27.87800 24.91000
C  -2.37400 28.98700 25.54500
C  -2.33400 28.72300 26.91700
C  -3.06500 27.50500 27.07600
C  -1.62900 30.01900 24.78500
C  -1.89700 29.14500 28.23600
O  -1.23800 30.07500 28.60100
C  -2.56600 28.15800 29.26400
C  -1.44500 27.76400 30.15300
O  -0.28200 27.62100 29.82000
O  -1.94700 27.82000 31.42200
C  -1.07000 27.68900 32.59000
H  -6.29000 22.37400 28.97400
H  -7.11400 23.39100 22.65900
H  -2.90700 28.10500 22.72000
H  -3.49400 25.80800 30.89200
H  -5.62900 23.97400 30.75600
H  -2.60300 23.65700 30.64800
H  -3.56900 22.36600 29.88100
H  -3.83100 22.74400 31.60700
H  -6.50600 26.15200 30.70400
H  -5.55200 27.62900 30.32700
H  -6.40300 27.19200 32.63700
H  -4.78500 27.88800 32.40500
H  -9.19800 21.11300 27.05100
H  -8.08200 21.37500 28.27800
H  -7.76100 20.06700 27.03100
H  -10.33000 20.62300 25.19100
H  -8.71500 19.83800 24.85500
H  -9.83900 19.86300 23.66400
H  -6.19700 25.38300 21.07200
H  -3.40300 26.27700 21.08000
H  -5.45400 23.68900 19.67700
H  -4.39400 23.04300 21.05600
H  -3.81300 24.21700 19.89700
H  -5.37700 28.30800 21.65600
H  -5.87800 27.38900 20.27000
H  -3.91000 29.43200 20.48300
H  -4.22600 28.55600 18.96200
H  -2.97700 28.09900 19.98000
H  -2.19800 30.28000 23.89200
H  -0.61800 29.65300 24.60600
H  -1.51000 30.92800 25.37400
H  -3.21400 28.81200 29.84800
H  0.01900 27.65700 32.57300
H  -1.38500 26.87700 33.24400
H  -1.21700 28.65700 33.06900

