158

Mg 1.58700 8.56200 27.68800
C  2.00100 10.89100 30.37500
C  1.28700 6.02200 30.19900
C  0.94600 6.57600 25.27200
C  1.38400 11.29600 25.58100
N  1.84500 8.50800 30.01200
C  1.89900 9.57900 30.96800
C  1.68200 9.10100 32.37900
C  1.77400 7.51500 32.25500
C  1.57200 7.32000 30.73000
C  3.03200 6.81300 32.71100
C  0.29500 9.76600 32.87800
C  0.01700 9.60100 34.42900
H  1.05000 8.92700 35.23500
N  1.31100 6.56400 27.67900
C  1.17700 5.70700 28.82000
C  0.83200 4.35500 28.29100
C  0.74100 4.46300 26.89100
C  0.98400 5.91100 26.50900
C  0.71900 3.12000 29.18000
C  0.51300 3.29100 25.87300
O  0.67300 3.49200 24.65000
C  0.09900 2.00200 26.26400
N  1.30100 8.91200 25.68100
C  1.03500 7.87500 24.87300
C  1.04000 8.29600 23.38300
C  0.77900 9.84600 23.54500
C  1.18900 10.03500 24.98900
C  2.32400 7.89500 22.59100
C  -0.65300 10.29700 23.27900
C  -0.80600 11.45000 22.32900
N  1.88000 10.64800 27.85900
C  1.75500 11.62200 26.88500
C  2.05700 12.92300 27.41200
C  2.13700 12.67200 28.80700
C  2.01800 11.23500 29.02300
C  1.80000 14.22700 26.72200
C  2.32700 13.34100 30.02800
O  2.57700 14.48700 30.32000
C  2.05400 12.20700 31.13300
C  3.01900 12.21700 32.27700
O  4.21100 11.98500 32.27200
O  2.38500 12.52700 33.38300
C  3.19600 12.40600 34.62200
H  1.20900 5.21000 30.92500
H  0.83400 5.91900 24.40700
H  1.20700 12.21000 25.01200
H  2.63000 9.50700 32.73100
H  0.89100 7.04500 32.68800
H  2.96000 5.95400 33.37900
H  3.65600 7.42300 33.36500
H  3.67900 6.42800 31.92300
H  -0.58400 9.38100 32.36200
H  0.27500 10.84000 32.69000
H  -0.90200 9.01600 34.47100
H  -0.26800 10.60200 34.75200
H  1.10100 3.32600 30.18000
H  1.28000 2.21900 28.93600
H  -0.30600 2.74900 29.19300
H  0.97500 1.36900 26.40600
H  -0.40700 1.63500 25.37200
H  -0.63100 1.96800 27.07200
H  0.22800 7.85400 22.80500
H  1.46500 10.29900 22.82900
H  2.54600 8.71100 21.90500
H  2.16500 6.94500 22.08100
H  3.11300 7.76300 23.33200
H  -0.95500 10.60300 24.28100
H  -1.35400 9.53300 22.94300
H  -1.06400 11.09700 21.33000
H  0.08700 12.07300 22.30000
H  -1.69800 11.94800 22.71000
H  0.96800 14.24900 26.01800
H  2.72100 14.43800 26.17800
H  1.56000 14.92200 27.52600
H  1.05900 12.41600 31.52500
H  3.83600 13.28700 34.67600
H  3.83100 11.52900 34.74300
H  2.45400 12.46100 35.41900
Mg 47.47900 16.01900 27.54600
C  45.52200 15.62600 30.57400
C  49.75000 17.64300 29.31200
C  49.11800 16.41300 24.66300
C  44.88800 14.49500 25.86800
N  47.61500 16.51800 29.77800
C  46.78400 16.25400 30.80300
C  47.23100 16.93200 32.12100
C  48.57700 17.61600 31.65500
C  48.71300 17.27700 30.18700
C  48.56200 19.19700 31.78900
C  47.41800 15.91300 33.20800
C  46.59200 16.09300 34.48700
H  46.38800 17.44300 35.05000
N  49.22300 16.97300 27.06400
C  50.09900 17.53900 27.94800
C  51.37400 17.72900 27.27800
C  51.22900 17.29300 25.91500
C  49.78600 16.84700 25.81200
C  52.58500 18.25600 28.02300
C  52.27800 17.30500 24.79100
O  52.05600 16.75700 23.69800
C  53.60100 17.95800 25.05100
N  47.19200 15.37000 25.59800
C  47.95400 15.70100 24.53900
C  47.35000 15.36600 23.16900
C  46.02900 14.64000 23.54500
C  46.01200 14.80500 25.12900
C  47.10300 16.59900 22.17000
C  45.92600 13.11700 23.18400
C  44.65900 12.70800 22.50200
N  45.66400 15.04300 28.09500
C  44.70500 14.62800 27.26700
C  43.59600 14.11200 28.02900
C  43.88200 14.53700 29.35400
C  45.16400 15.11300 29.34100
C  42.38900 13.39300 27.56700
C  43.35900 14.56700 30.72800
O  42.26200 14.18800 31.17900
C  44.42400 15.35800 31.56200
C  43.80300 16.48700 32.30400
O  43.78500 17.65700 32.10200
O  43.18800 15.90600 33.37500
C  42.29400 16.77400 34.15600
H  50.51200 18.11900 29.93300
H  49.72900 16.59500 23.77600
H  44.09700 14.00900 25.29300
H  46.51900 17.68100 32.46800
H  49.44300 17.34200 32.25900
H  47.73900 19.51100 32.43100
H  48.42900 19.73900 30.85300
H  49.48900 19.40900 32.32300
H  48.44300 15.83900 33.57100
H  47.04500 14.95800 32.83700
H  46.99800 15.47200 35.28600
H  45.55500 15.75800 34.53300
H  53.20800 17.38300 28.21600
H  52.50000 18.72100 29.00500
H  53.16800 18.96400 27.43500
H  53.47500 19.01400 25.29100
H  54.26300 17.93300 24.18500
H  54.00200 17.35400 25.86500
H  48.01800 14.68800 22.63700
H  45.12700 15.11800 23.16300
H  47.87300 16.58800 21.39800
H  47.26900 17.55400 22.66900
H  46.12100 16.60000 21.69600
H  46.10900 12.52700 24.08200
H  46.70400 12.91600 22.44800
H  44.65900 12.79000 21.41500
H  43.87400 13.32600 22.93700
H  44.53500 11.64400 22.70400
H  42.70300 12.43300 27.15600
H  41.98400 13.85900 26.66900
H  41.68900 13.20300 28.38100
H  44.90400 14.70700 32.29300
H  41.75700 17.48100 33.52300
H  42.83400 17.38100 34.88200
H  41.68400 16.03500 34.67500

