158

Mg 8.94500 3.73200 27.07100
C  10.25700 2.16500 29.92700
C  7.00500 5.74300 29.07900
C  7.67200 5.29600 24.30600
C  10.43000 1.40500 25.09400
N  8.55700 3.80500 29.24900
C  9.34300 3.20700 30.24400
C  9.04600 3.74700 31.66300
C  8.11100 4.86600 31.35500
C  7.98000 4.92100 29.78700
C  6.68800 4.87000 32.09800
C  10.31500 4.22500 32.45400
C  9.96800 4.72900 33.85300
H  11.05100 4.47400 34.91600
N  7.46700 5.18500 26.73300
C  6.86200 5.92300 27.68600
C  5.96700 6.94900 27.07900
C  6.24800 6.93100 25.74200
C  7.16100 5.80400 25.48900
C  5.13800 7.94500 27.82200
C  5.81900 7.85600 24.61800
O  6.27000 7.74400 23.46500
C  4.90100 9.08200 24.92100
N  8.97400 3.36900 24.91000
C  8.46400 4.16600 24.01700
C  8.86400 3.74200 22.53900
C  9.61400 2.35300 22.86300
C  9.68200 2.37700 24.37700
C  7.87700 3.65100 21.34400
C  10.95500 2.14100 22.11900
C  10.84300 1.38000 20.76100
N  10.12400 2.15800 27.36100
C  10.67300 1.27500 26.47300
C  11.49200 0.30700 27.15300
C  11.45900 0.69000 28.50300
C  10.53200 1.75800 28.61500
C  12.10700 -0.86000 26.50300
C  11.92400 0.37000 29.86100
O  12.71100 -0.49300 30.24000
C  11.19500 1.30700 30.84300
C  10.50400 0.57100 31.85700
O  9.51700 -0.15000 31.74300
O  11.15900 0.84300 33.05700
C  10.53000 0.22100 34.25000
H  6.43800 6.41000 29.73300
H  7.46300 5.85800 23.39300
H  10.70000 0.54100 24.48400
H  8.58600 3.00600 32.31700
H  8.55900 5.81500 31.65300
H  5.95800 4.50500 31.37600
H  6.54600 5.89100 32.45100
H  6.52300 4.17400 32.92100
H  10.78300 5.00800 31.85700
H  11.09500 3.47000 32.36100
H  9.03000 4.26600 34.16100
H  9.75700 5.78300 33.67300
H  5.69500 8.88200 27.79600
H  4.96900 7.85000 28.89500
H  4.26400 8.14000 27.20100
H  5.28300 9.82300 25.62400
H  3.89400 8.80100 25.22700
H  4.87900 9.63200 23.98100
H  9.60200 4.47700 22.21700
H  8.90100 1.54500 22.70000
H  7.88800 2.61100 21.01600
H  8.17800 4.38300 20.59400
H  6.85700 3.92300 21.61500
H  11.67900 1.71300 22.81300
H  11.32800 3.15000 21.94300
H  11.59800 0.62900 20.52900
H  10.91300 2.18200 20.02600
H  9.82500 1.00200 20.67300
H  12.39500 -0.72300 25.46100
H  11.39200 -1.67800 26.41100
H  12.96700 -1.20600 27.07600
H  11.96300 1.95300 31.26800
H  9.49000 0.53100 34.35000
H  10.89700 0.75400 35.12700
H  10.66600 -0.84600 34.42300
Mg 6.60000 53.61000 41.81800
C  6.02400 50.14800 41.44800
C  9.58300 53.17900 40.26100
C  6.87700 56.96000 41.80900
C  3.27500 53.84700 43.16700
N  7.51300 51.93800 40.74400
C  7.24600 50.62000 40.87200
C  8.27300 49.70700 40.11300
C  9.53000 50.53900 40.08200
C  8.86900 52.02200 40.36600
C  10.69600 50.22000 41.18500
C  7.86700 49.31500 38.62100
C  6.89600 50.18800 37.92600
H  6.24300 49.51000 36.72500
N  8.08200 54.89000 41.11700
C  9.24900 54.52900 40.45100
C  10.00800 55.79100 40.16200
C  9.22200 56.89400 40.54300
C  8.00800 56.27500 41.22700
C  11.39900 55.74800 39.60400
C  9.52400 58.35600 40.36000
O  10.54800 58.71800 39.83400
C  8.68100 59.46600 40.92000
N  5.30700 55.15800 42.43100
C  5.71700 56.47300 42.43700
C  4.54700 57.31000 42.94300
C  3.53700 56.35600 43.51400
C  4.02200 55.00900 43.00000
C  4.92900 58.58200 43.79700
C  2.11200 56.65200 43.18900
C  1.02400 56.48200 44.29400
N  5.00000 52.37200 42.37900
C  3.72900 52.58900 42.91600
C  3.00200 51.32200 43.11100
C  3.96000 50.34100 42.66500
C  5.08200 50.99600 42.14200
C  1.61100 51.09400 43.52700
C  4.06200 48.92900 42.45900
O  3.30600 48.01300 42.85000
C  5.40100 48.68200 41.62400
C  5.04700 48.03200 40.39200
O  4.40600 48.53600 39.45500
O  5.43900 46.67400 40.42200
C  5.33300 45.90500 39.14000
H  10.63900 53.00200 40.04600
H  6.96000 58.02700 42.02600
H  2.35000 53.86600 43.74700
H  8.41200 48.82300 40.73600
H  10.14900 50.46600 39.18700
H  10.53200 50.90000 42.02100
H  11.58900 50.49000 40.62100
H  10.80100 49.16100 41.41900
H  7.38000 48.35200 38.77600
H  8.76300 49.28400 38.00200
H  7.33100 51.16500 37.71400
H  6.15600 50.41500 38.69300
H  11.55300 56.32200 38.69100
H  11.73900 54.71400 39.54300
H  12.01300 56.23300 40.36300
H  7.73700 59.39200 40.38000
H  9.21100 60.41500 40.83800
H  8.53500 59.35500 41.99400
H  4.13500 57.66000 41.99600
H  3.75100 56.21500 44.57400
H  4.33400 58.48000 44.70400
H  4.65200 59.51800 43.31100
H  5.95700 58.66400 44.15200
H  1.75900 56.16900 42.27700
H  2.14900 57.73800 43.10000
H  1.44700 56.31600 45.28500
H  0.34000 55.64000 44.19300
H  0.47800 57.41800 44.41000
H  1.32700 51.99400 44.07300
H  1.51800 50.21300 44.16200
H  1.09000 51.01300 42.57300
H  6.05900 48.03300 42.20200
H  5.72800 44.90300 39.30600
H  5.99300 46.31700 38.37600
H  4.31500 45.89000 38.75100

