158

Mg 36.54900 0.43400 30.51100
C  34.24700 1.69400 32.97500
C  38.89500 0.33700 32.99200
C  38.59200 -0.41000 28.05700
C  33.99000 0.91000 28.20700
N  36.51700 0.90800 32.72100
C  35.51600 1.35400 33.48800
C  35.90500 1.52300 34.86200
C  37.46900 1.43000 34.80300
C  37.68300 0.81200 33.42200
C  38.22900 2.80000 35.00200
C  35.26600 0.32900 35.70500
C  34.98700 0.63500 37.21400
H  35.61900 1.93200 37.80200
N  38.50400 -0.10900 30.53300
C  39.33600 -0.08700 31.64000
C  40.66400 -0.41400 31.25400
C  40.63600 -0.63000 29.81000
C  39.18700 -0.34900 29.37500
C  41.83700 -0.59600 32.19100
C  41.64800 -1.13000 28.96000
O  41.43700 -1.28300 27.75900
C  42.95100 -1.63500 29.48600
N  36.32400 0.20800 28.48400
C  37.29300 -0.12400 27.63000
C  36.87300 -0.21000 26.18800
C  35.32100 0.02100 26.32800
C  35.14100 0.29600 27.79300
C  37.58900 0.79400 25.29800
C  34.40300 -1.19800 25.89900
C  33.74200 -1.09500 24.51100
N  34.50900 1.13200 30.48500
C  33.57100 1.20600 29.43000
C  32.36700 1.66000 29.95800
C  32.54500 1.91800 31.30300
C  33.92500 1.57500 31.62200
C  31.13400 1.80600 29.04400
C  31.91400 2.27500 32.53800
O  30.73500 2.48100 32.75200
C  32.98200 2.19900 33.64600
C  33.09500 3.50400 34.29100
O  33.84200 4.38200 33.90200
O  32.43800 3.55600 35.51800
C  32.82300 4.60800 36.52300
H  39.58100 0.31800 33.84100
H  39.29000 -0.47200 27.21900
H  33.24000 0.82100 27.41800
H  35.50100 2.47100 35.21800
H  37.85900 0.73500 35.54700
H  37.62200 3.67700 34.77700
H  39.11800 2.83400 34.37200
H  38.46100 2.66500 36.05900
H  35.82800 -0.60500 35.72800
H  34.35300 -0.04700 35.24300
H  35.16200 -0.29000 37.76300
H  33.91700 0.82300 37.28900
H  42.83900 -0.38000 31.81900
H  41.75800 -1.61300 32.57300
H  41.73000 0.08900 33.03200
H  43.57400 -0.80700 29.82600
H  43.54400 -2.35800 28.92600
H  42.69100 -2.26500 30.33700
H  37.04000 -1.20500 25.77600
H  35.08700 0.92100 25.75900
H  36.85600 1.32900 24.69500
H  38.26000 0.28600 24.60500
H  38.23200 1.48000 25.85000
H  33.66000 -1.47900 26.64600
H  35.10700 -2.03000 25.89700
H  32.72200 -0.71200 24.55700
H  33.85700 -2.06400 24.02600
H  34.24900 -0.44100 23.80200
H  30.59800 2.70900 29.33500
H  30.52200 0.90500 29.09200
H  31.48100 1.85600 28.01200
H  32.59500 1.59200 34.46400
H  33.62300 5.23400 36.12900
H  33.22500 4.21700 37.45700
H  31.93000 5.19100 36.74700
Mg -11.88300 16.62300 42.38500
C  -8.52800 17.68600 42.67500
C  -12.83400 19.95800 42.19700
C  -14.87200 15.67800 41.46100
C  -10.68500 13.29800 42.17500
N  -10.85000 18.53400 42.40200
C  -9.41600 18.72400 42.49700
C  -9.13500 20.14800 42.26700
C  -10.39000 20.90500 42.60400
C  -11.46800 19.72800 42.46300
C  -10.46600 21.59000 44.03600
C  -8.59300 20.36300 40.77300
C  -7.20900 21.10100 40.58000
H  -6.13600 20.35200 39.84000
N  -13.65500 17.67700 42.01700
C  -13.82000 19.00300 41.94600
C  -15.17600 19.30200 41.39500
C  -15.82900 18.05300 41.17900
C  -14.74900 17.06300 41.50600
C  -15.71900 20.73300 41.26200
C  -17.29800 17.77100 40.84600
O  -18.04100 18.65400 40.51700
C  -17.84400 16.36300 40.85300
N  -12.60800 14.72300 41.52900
C  -13.99000 14.67300 41.66100
C  -14.44200 13.23500 41.83400
C  -13.07900 12.48300 41.81500
C  -12.04300 13.55000 41.89100
C  -15.24100 12.96800 43.08800
C  -12.84500 11.72300 40.48800
C  -13.48600 10.37100 40.51200
N  -10.07100 15.64800 42.56200
C  -9.71500 14.30000 42.44000
C  -8.26400 14.15800 42.60500
C  -7.81700 15.51800 42.71900
C  -8.94800 16.30900 42.74900
C  -7.51000 12.95600 42.47100
C  -6.57600 16.34600 42.73800
O  -5.42500 16.04800 42.66400
C  -7.03500 17.76400 42.76200
C  -6.57400 18.45200 43.91800
O  -6.53600 17.94500 45.02500
O  -6.16500 19.70900 43.61900
C  -5.61300 20.52100 44.76300
H  -13.18100 20.99400 42.18500
H  -15.81500 15.18200 41.22100
H  -10.44300 12.23800 42.27000
H  -8.31300 20.45500 42.91400
H  -10.53700 21.63700 41.81000
H  -10.68900 22.64500 43.87600
H  -9.49000 21.51700 44.51700
H  -11.17900 21.08800 44.69000
H  -9.25500 20.94800 40.13400
H  -8.50600 19.36500 40.34400
H  -6.88000 21.39800 41.57500
H  -7.48900 22.00500 40.03800
H  -16.21800 21.02100 42.18700
H  -16.53100 20.80000 40.53800
H  -14.96400 21.41600 40.87000
H  -18.91500 16.52400 40.72600
H  -17.82700 15.94300 41.85800
H  -17.34600 15.75500 40.09700
H  -14.99800 12.97900 40.93200
H  -12.74000 11.78000 42.57600
H  -16.30800 12.83200 42.91100
H  -15.09300 13.70600 43.87700
H  -14.91800 12.05500 43.58700
H  -11.78000 11.57200 40.30800
H  -13.28100 12.27900 39.65900
H  -14.09800 10.05900 41.35900
H  -12.67800 9.63900 40.52300
H  -13.98700 10.10100 39.58300
H  -6.49900 13.03400 42.86800
H  -7.36900 12.85500 41.39400
H  -7.98300 12.04400 42.83500
H  -6.55700 18.19200 41.88200
H  -6.04300 20.36300 45.75200
H  -5.87400 21.52200 44.42100
H  -4.52700 20.50200 44.67600

