158

Mg 42.27900 41.43700 26.38500
C  41.16300 43.76800 28.77200
C  42.81900 39.18200 28.90200
C  43.52500 39.34500 24.12600
C  42.01100 43.95800 23.89300
N  42.07500 41.55200 28.54100
C  41.58400 42.59300 29.28100
C  41.62800 42.23500 30.71800
C  42.25200 40.81300 30.81500
C  42.45500 40.49600 29.32600
C  43.52800 40.50600 31.68500
C  40.20000 42.51000 31.44100
C  39.79500 41.56600 32.58700
H  39.35800 42.26800 33.80800
N  43.04600 39.54100 26.47100
C  43.17100 38.75200 27.57400
C  43.53200 37.41900 27.15100
C  43.79400 37.44100 25.77700
C  43.33000 38.79900 25.41600
C  43.82500 36.30200 28.15600
C  44.40600 36.38300 24.95000
O  44.59900 36.50300 23.72900
C  44.77900 34.99600 25.57500
N  42.89700 41.67200 24.33300
C  43.32500 40.54400 23.59600
C  43.23200 40.81000 22.10100
C  42.70800 42.30100 21.99400
C  42.43900 42.66300 23.45300
C  44.52000 40.45600 21.28500
C  41.57000 42.60500 20.97000
C  40.18300 42.41600 21.57700
N  41.72000 43.45700 26.28800
C  41.66400 44.31300 25.21600
C  40.99800 45.49900 25.56600
C  40.77200 45.39200 26.99800
C  41.29400 44.10400 27.36100
C  40.66200 46.75700 24.70500
C  40.37900 46.05800 28.29000
O  39.91400 47.17300 28.43700
C  40.70300 45.05500 29.49200
C  41.84500 45.65300 30.19000
O  42.97200 45.68900 29.68600
O  41.45100 45.88100 31.47500
C  42.58600 46.41900 32.19300
H  42.82100 38.39900 29.66300
H  43.82800 38.57000 23.41900
H  41.85100 44.64600 23.06000
H  42.35900 42.80100 31.29500
H  41.46700 40.09400 31.05200
H  43.67000 41.25800 32.46000
H  44.41500 40.44900 31.05500
H  43.50200 39.55500 32.21700
H  39.34500 42.51100 30.76600
H  40.17000 43.49900 31.89800
H  40.69600 41.01900 32.86600
H  38.98000 40.90600 32.29200
H  43.25400 35.41300 27.88700
H  43.48200 36.37900 29.18800
H  44.86700 35.99600 28.25400
H  45.49200 35.03000 26.39900
H  45.29800 34.32600 24.88900
H  43.93300 34.49400 26.04300
H  42.36300 40.26100 21.73800
H  43.56200 42.93900 21.76500
H  45.34100 40.17000 21.94300
H  44.83300 41.34100 20.73100
H  44.35900 39.69300 20.52300
H  41.54400 41.88300 20.15400
H  41.72800 43.56300 20.47700
H  40.15100 41.92400 22.54900
H  39.57100 41.84100 20.88200
H  39.74900 43.40600 21.71300
H  41.59200 47.31400 24.60100
H  40.01000 47.33900 25.35600
H  40.35100 46.45200 23.70600
H  39.81700 44.82000 30.08100
H  42.67200 47.45900 31.87600
H  43.53900 45.92000 32.02100
H  42.46500 46.24900 33.26300
Mg 16.58500 51.60200 25.94500
C  18.78400 50.61700 28.63300
C  14.55300 52.92800 28.29300
C  14.61700 52.44200 23.47500
C  19.02200 50.44400 23.71100
N  16.74100 51.85600 28.11300
C  17.62100 51.22100 29.03800
C  17.26600 51.54000 30.53500
C  15.83600 52.15400 30.39800
C  15.66200 52.30400 28.84700
C  14.75700 51.28900 31.13400
C  18.30100 52.49500 31.16100
C  18.59500 52.26500 32.66200
H  17.62300 51.40000 33.53600
N  14.76800 52.47600 25.93000
C  14.08500 53.01700 26.97200
C  12.82200 53.49000 26.50600
C  12.79500 53.21400 25.11400
C  14.12300 52.70300 24.75000
C  11.82400 54.17000 27.46600
C  11.63500 53.49400 24.15300
O  11.67200 53.44300 22.91700
C  10.40400 53.99500 24.79400
N  16.83300 51.50100 23.76900
C  15.81500 51.92100 22.99800
C  16.06500 51.41400 21.56800
C  17.60900 50.91300 21.62200
C  17.86700 50.98700 23.10000
C  14.99700 50.35100 21.04300
C  18.54700 51.88900 20.81200
C  19.95100 51.41500 20.43500
N  18.55100 50.76100 26.06900
C  19.34400 50.32600 25.06000
C  20.44000 49.54400 25.61400
C  20.30500 49.58300 26.98600
C  19.10600 50.35200 27.26500
C  21.53500 48.88900 24.74500
C  20.86700 49.13200 28.23100
O  21.83700 48.45300 28.63000
C  19.87800 49.76100 29.34600
C  19.49300 48.69400 30.32800
O  18.66500 47.83300 30.11300
O  20.17500 48.86200 31.50400
C  19.77900 47.92800 32.54500
H  13.78200 53.14800 29.03400
H  13.98400 52.68500 22.61900
H  19.76100 50.15800 22.96000
H  17.38400 50.56700 31.01200
H  15.94700 53.14200 30.84600
H  14.05400 52.02000 31.53300
H  15.23200 50.58400 31.81600
H  14.31900 50.71000 30.32100
H  17.99900 53.53600 31.05100
H  19.25600 52.43300 30.63800
H  18.76200 53.23200 33.13500
H  19.46800 51.62000 32.76500
H  11.32100 55.06400 27.09700
H  12.45300 54.59200 28.25000
H  11.02100 53.53500 27.84000
H  10.07000 53.38800 25.63600
H  9.68300 54.11600 23.98600
H  10.53000 55.01400 25.15800
H  15.97900 52.27700 20.90700
H  17.76100 49.95500 21.12400
H  15.37000 49.35500 20.80600
H  14.48500 50.82500 20.20500
H  14.22700 50.16000 21.79100
H  18.59500 52.75900 21.46700
H  18.07100 52.10900 19.85700
H  20.84000 51.86400 20.87800
H  20.19500 51.43500 19.37200
H  19.86400 50.34500 20.62000
H  22.48600 49.04000 25.25600
H  21.60400 49.41400 23.79200
H  21.21600 47.84700 24.69800
H  20.44000 50.37900 30.04600
H  19.92900 48.61100 33.38100
H  20.44000 47.07100 32.67100
H  18.72000 47.67400 32.48900

