158

Mg 46.44600 23.94700 28.19700
C  47.05400 26.12100 30.78100
C  45.86300 21.40300 30.42900
C  46.25300 21.88800 25.56400
C  47.19800 26.61900 26.03800
N  46.47000 23.78800 30.26700
C  46.69500 24.84000 31.21300
C  46.46700 24.33700 32.64300
C  46.32800 22.76000 32.44900
C  46.13800 22.65600 30.96700
C  47.64600 22.00000 32.86000
C  45.22900 25.03100 33.26700
C  45.61700 25.68700 34.68400
H  44.49700 25.89400 35.76700
N  46.08300 21.93600 28.02200
C  45.82100 21.04300 29.04000
C  45.44300 19.78900 28.47500
C  45.51500 19.90500 27.02500
C  45.95600 21.28300 26.82600
C  45.21300 18.58700 29.38400
C  45.27400 18.86700 25.98600
O  45.35800 19.20100 24.78200
C  45.02000 17.43300 26.32900
N  46.62200 24.19500 26.13900
C  46.48400 23.27000 25.27500
C  46.62000 23.72700 23.80300
C  46.47900 25.27400 23.97000
C  46.76400 25.38200 25.44800
C  47.93700 23.27000 23.11700
C  45.18100 25.91000 23.48700
C  43.99800 25.74800 24.34800
N  47.01500 25.97600 28.30900
C  47.38200 26.93000 27.39200
C  47.90800 28.11700 27.94200
C  47.80300 27.83200 29.31400
C  47.24500 26.54200 29.46900
C  48.40700 29.39300 27.25800
C  48.14500 28.40300 30.60400
O  48.65900 29.49500 30.89500
C  47.56300 27.30500 31.62100
C  48.65300 26.98100 32.63900
O  49.50500 26.09500 32.46700
O  48.47000 27.75100 33.77200
C  49.60100 27.52800 34.76000
H  45.79400 20.64100 31.20800
H  46.31400 21.23800 24.68900
H  47.44600 27.46100 25.38900
H  47.38000 24.57700 33.18700
H  45.45300 22.38300 32.97800
H  48.55200 22.59800 32.76500
H  47.76200 21.06200 32.31700
H  47.66600 21.67000 33.89800
H  44.41800 24.35200 33.52700
H  44.98000 25.75400 32.49000
H  46.09300 26.60800 34.34800
H  46.51600 25.23600 35.10400
H  44.23400 18.12500 29.25500
H  45.22800 18.73900 30.46300
H  45.97800 17.84200 29.16300
H  45.94100 16.95000 26.65500
H  44.87300 17.04000 25.32300
H  44.14600 17.27600 26.96000
H  45.79100 23.33800 23.21200
H  47.34900 25.71200 23.48200
H  48.77100 23.93200 23.34800
H  47.83200 23.01800 22.06200
H  48.35800 22.41900 23.65300
H  45.18800 25.53100 22.46500
H  45.55600 26.93200 23.43400
H  44.01800 26.59400 25.03500
H  44.06700 24.81200 24.90200
H  43.17000 25.82500 23.64400
H  48.35400 30.32600 27.81700
H  47.94400 29.58100 26.28900
H  49.41000 29.15300 26.90400
H  46.68500 27.69300 32.13700
H  49.72600 26.48100 35.03600
H  49.28100 27.98300 35.69700
H  50.53900 27.94100 34.38800
Mg 15.92300 52.92300 25.82700
C  17.79500 52.18100 28.82500
C  13.46300 54.27500 27.78900
C  14.08500 53.42400 23.01600
C  18.27900 51.24100 24.05600
N  15.63700 53.08200 28.05900
C  16.50000 52.77400 29.12600
C  15.83700 53.10000 30.47500
C  14.42500 53.70100 30.08600
C  14.47200 53.60800 28.53400
C  13.17400 52.95500 30.63800
C  16.78900 54.04400 31.38500
C  17.15100 53.42600 32.75000
H  16.10900 52.53900 33.43800
N  14.06900 53.88800 25.44600
C  13.21700 54.31800 26.40200
C  12.01200 54.88900 25.76700
C  12.28600 54.77900 24.36200
C  13.52900 54.04800 24.23200
C  10.86600 55.49700 26.46100
C  11.35000 55.15500 23.20300
O  11.71000 55.03500 22.05100
C  10.03000 55.79800 23.38900
N  16.17100 52.40200 23.83200
C  15.21400 52.61600 22.88900
C  15.64000 52.00500 21.54300
C  17.12300 51.52100 21.87200
C  17.26300 51.77100 23.28800
C  14.71000 50.88100 20.94100
C  18.22600 52.29100 21.16600
C  19.39100 51.44400 20.61600
N  17.72400 51.89300 26.28700
C  18.64900 51.25900 25.42600
C  19.69200 50.66300 26.16800
C  19.39400 51.01800 27.52000
C  18.16300 51.76600 27.54300
C  20.85200 49.98300 25.65100
C  19.85100 50.87100 28.86900
O  20.79700 50.27600 29.36300
C  18.75500 51.67300 29.86000
C  18.23700 50.59000 30.78400
O  17.14400 50.05900 30.70400
O  19.20900 50.37200 31.69600
C  18.90000 49.23200 32.60300
H  12.75400 54.71900 28.49100
H  13.61300 53.57300 22.04300
H  18.98800 50.70700 23.42000
H  15.77700 52.16100 31.02500
H  14.31100 54.74700 30.37000
H  12.40500 53.68600 30.89000
H  13.45200 52.16700 31.33800
H  12.73300 52.40900 29.80500
H  16.44500 55.07800 31.42900
H  17.75800 53.90500 30.90500
H  17.39300 54.19700 33.48100
H  18.11500 52.92000 32.78500
H  11.03600 56.57300 26.48800
H  10.78700 55.20500 27.50800
H  9.89900 55.21100 26.05000
H  10.19800 56.83400 23.68100
H  9.38500 55.19200 24.02600
H  9.59600 55.79000 22.39000
H  15.63800 52.73200 20.73000
H  17.13000 50.45400 21.65000
H  13.81500 50.92900 21.56100
H  15.05600 49.84800 20.91800
H  14.36900 51.13200 19.93600
H  18.68800 53.07300 21.76800
H  17.73400 52.87100 20.38500
H  19.23200 50.37200 20.73800
H  20.30600 51.68900 21.15400
H  19.42300 51.66200 19.54800
H  21.19200 49.33400 26.45900
H  21.76300 50.56800 25.52200
H  20.54700 49.44200 24.75500
H  19.21400 52.49800 30.40500
H  19.85900 48.94400 33.03300
H  18.74100 48.33800 32.00000
H  18.02800 49.29300 33.25400

