158

Mg 17.20100 -2.25900 27.47900
C  16.54900 -0.00500 30.19100
C  19.13500 -4.09600 29.54400
C  18.51800 -3.77100 24.71700
C  15.70700 0.19900 25.36400
N  17.83600 -2.00700 29.58000
C  17.37200 -1.12000 30.58800
C  17.97400 -1.38000 31.98700
C  18.94900 -2.60200 31.64000
C  18.66200 -2.91200 30.16500
C  20.53700 -2.47600 31.88600
C  16.93100 -1.65400 33.07500
C  17.38200 -1.29500 34.47500
H  18.90200 -1.44700 34.81900
N  18.51200 -3.84200 27.16900
C  19.17500 -4.53800 28.16400
C  19.98900 -5.53900 27.57500
C  19.72600 -5.53000 26.16300
C  18.86400 -4.37700 25.96200
C  20.82100 -6.48100 28.43400
C  20.08400 -6.48700 25.06500
O  19.94700 -6.26500 23.85600
C  20.84500 -7.68100 25.37900
N  16.99200 -1.92100 25.44200
C  17.68700 -2.63600 24.46700
C  17.48100 -2.02300 23.01000
C  16.38900 -0.94800 23.32800
C  16.25700 -0.92500 24.79400
C  18.79000 -1.53600 22.28500
C  15.05300 -1.19700 22.67100
C  14.42800 0.02300 21.99800
N  16.28000 -0.34400 27.64200
C  15.64600 0.51700 26.71900
C  15.04100 1.65200 27.38900
C  15.30600 1.48700 28.73200
C  16.11500 0.28200 28.86100
C  14.03100 2.60700 26.70100
C  15.06600 2.02200 30.01200
O  14.31800 2.95900 30.35600
C  15.86500 1.04500 31.02500
C  16.75600 1.83800 31.93900
O  17.90400 2.17500 31.67600
O  16.09300 2.07600 33.14700
C  16.79700 2.96900 34.08900
H  19.72400 -4.70900 30.22900
H  19.13800 -4.11700 23.88700
H  15.16900 0.88000 24.70100
H  18.55100 -0.49400 32.25300
H  18.64200 -3.39500 32.32200
H  21.05600 -3.39700 32.15000
H  20.72300 -1.69600 32.62500
H  20.90100 -2.18500 30.90000
H  16.76000 -2.73000 33.03900
H  15.95700 -1.21400 32.86400
H  16.90600 -2.06900 35.07800
H  16.97000 -0.36500 34.86700
H  21.27900 -5.89300 29.23000
H  21.63100 -7.00900 27.93100
H  20.25800 -7.18300 29.05000
H  20.24300 -8.24600 26.09100
H  21.76700 -7.28400 25.80300
H  21.16900 -8.39300 24.62000
H  17.04500 -2.80300 22.38500
H  16.69400 0.04600 23.00100
H  18.57800 -0.56600 21.83500
H  18.98900 -2.25000 21.48500
H  19.67300 -1.43100 22.91500
H  14.31800 -1.50600 23.41400
H  15.00300 -1.99400 21.93000
H  13.72300 -0.32400 21.24200
H  15.18900 0.62800 21.50400
H  13.91800 0.65500 22.72500
H  14.36300 2.97000 25.72900
H  14.10000 3.47300 27.36000
H  13.03700 2.17300 26.58800
H  15.10400 0.60200 31.66800
H  17.70000 2.58700 34.56400
H  16.07700 3.17200 34.88200
H  16.96700 3.88600 33.52400
Mg 25.78600 0.86900 29.07600
C  27.60300 0.30500 32.06900
C  22.86200 1.12100 31.09000
C  24.09100 0.70100 26.37600
C  28.75600 0.02100 27.28000
N  25.29100 0.61600 31.37700
C  26.22900 0.48900 32.35900
C  25.55000 0.63400 33.74300
C  24.02600 0.73900 33.40900
C  24.02700 0.87100 31.90100
C  23.04700 -0.27500 34.03100
C  26.24600 1.69900 34.63300
C  25.39200 2.31800 35.77700
H  26.20600 2.73000 36.99000
N  23.78400 1.00600 28.71100
C  22.76400 1.09400 29.65500
C  21.52800 1.16200 28.88600
C  21.85200 0.99900 27.44500
C  23.30900 0.89000 27.46000
C  20.24200 1.09000 29.65400
C  20.95200 0.99300 26.19700
O  21.30500 0.93800 24.99900
C  19.45100 1.00700 26.39100
N  26.43100 0.53800 27.11500
C  25.44600 0.64800 26.18700
C  25.95600 0.50800 24.77600
C  27.50600 0.38800 25.02000
C  27.57800 0.28200 26.51600
C  25.32000 -0.63200 23.88400
C  28.37600 1.62500 24.54900
C  29.80200 1.27700 24.10900
N  27.82700 0.37600 29.52600
C  28.89400 0.06100 28.69100
C  30.12100 -0.18600 29.47700
C  29.59800 -0.14300 30.81900
C  28.21800 0.16000 30.77100
C  31.49200 -0.36800 28.95800
C  29.98800 -0.23900 32.22100
O  31.09100 -0.55100 32.68200
C  28.73000 0.07200 33.08000
C  28.40800 -0.96500 34.08300
O  27.86100 -2.05900 33.93800
O  28.98900 -0.65000 35.32100
C  28.86800 -1.63200 36.40600
H  21.99800 1.48600 31.64900
H  23.58000 0.63400 25.41300
H  29.62800 -0.06300 26.62900
H  25.75700 -0.29300 34.27700
H  23.75000 1.73300 33.76000
H  22.27100 -0.53900 33.31300
H  22.58000 0.19200 34.89800
H  23.53900 -1.18600 34.37300
H  26.55100 2.49700 33.95500
H  27.12300 1.31500 35.15400
H  24.68200 1.57600 36.14400
H  24.86700 3.16100 35.32700
H  19.62700 1.94300 29.36700
H  20.45100 0.91300 30.70900
H  19.85200 0.15300 29.25600
H  19.27400 0.75500 27.43700
H  19.07100 0.16800 25.80800
H  19.01300 1.98100 26.17500
H  25.75100 1.48500 24.33800
H  27.77200 -0.59600 24.63500
H  24.65100 -1.31700 24.40500
H  25.99600 -1.28200 23.32900
H  24.75600 -0.08400 23.12900
H  28.49600 2.34500 25.35900
H  27.78400 2.23400 23.86700
H  30.60700 1.66300 24.73500
H  29.93300 1.79000 23.15600
H  29.81900 0.19700 23.95900
H  31.61800 0.01000 27.94300
H  31.77800 -1.41800 29.02500
H  32.11500 0.14900 29.68800
H  28.81100 1.09900 33.43600
H  29.43700 -2.55500 36.29600
H  27.85100 -2.01600 36.48000
H  29.14300 -1.20800 37.37200

