158

Mg 16.54900 -2.19100 27.10600
C  15.46900 -0.32000 29.94600
C  18.41300 -4.14200 29.27600
C  17.36900 -4.04900 24.53500
C  14.58000 -0.07500 25.13800
N  16.88200 -2.16300 29.40600
C  16.32300 -1.37200 30.32800
C  16.79800 -1.76200 31.72000
C  17.75900 -3.01800 31.47600
C  17.75300 -3.05200 29.95900
C  19.17800 -2.85600 32.02600
C  15.68500 -2.05200 32.82100
C  16.06800 -1.71700 34.23200
H  17.58000 -1.33200 34.58100
N  17.76200 -3.75300 26.90200
C  18.42200 -4.44900 27.90300
C  19.09000 -5.64700 27.33800
C  18.67400 -5.68100 26.03000
C  17.89300 -4.44500 25.73800
C  19.96300 -6.69500 28.19300
C  19.06600 -6.69200 24.97300
O  18.57800 -6.68900 23.85600
C  19.98900 -7.83100 25.38500
N  16.10600 -2.03100 25.13000
C  16.62600 -2.92100 24.23600
C  16.36500 -2.49600 22.80700
C  15.31900 -1.34900 23.00300
C  15.23800 -1.16000 24.50000
C  17.61400 -2.05700 22.01500
C  13.92900 -1.59400 22.32800
C  12.85200 -2.35100 22.98700
N  15.30100 -0.55600 27.39300
C  14.59000 0.23300 26.51800
C  13.88600 1.29600 27.13600
C  14.14800 1.07800 28.55000
C  15.07300 -0.00400 28.66300
C  12.98100 2.28700 26.45100
C  13.75700 1.55200 29.89500
O  13.05300 2.38100 30.35700
C  14.71400 0.65800 30.85600
C  15.56100 1.62000 31.54400
O  16.23600 2.49600 31.08000
O  15.32200 1.58400 32.88500
C  15.92000 2.61200 33.81400
H  19.02000 -4.80100 29.90100
H  17.57000 -4.66200 23.65400
H  14.01900 0.60900 24.49700
H  17.42400 -0.92000 32.01200
H  17.33700 -3.95100 31.84800
H  19.30200 -3.66300 32.74800
H  19.32100 -1.92100 32.56900
H  19.95100 -2.85800 31.25800
H  15.51400 -3.12800 32.79500
H  14.69200 -1.63800 32.65300
H  15.65200 -2.53900 34.81400
H  15.47400 -0.83500 34.47200
H  20.23000 -6.42600 29.21500
H  20.91700 -6.84800 27.68900
H  19.40700 -7.63200 28.17900
H  19.51000 -8.56000 26.03900
H  20.92200 -7.36000 25.69300
H  20.20800 -8.35000 24.45200
H  15.87900 -3.33700 22.31200
H  15.67100 -0.37700 22.65800
H  17.72500 -2.47600 21.01500
H  18.46600 -2.48600 22.54400
H  17.80600 -0.98700 21.93700
H  14.03900 -2.03800 21.33900
H  13.50300 -0.60800 22.14100
H  12.13900 -1.81200 23.61100
H  13.34500 -3.01800 23.69400
H  12.30700 -3.03300 22.33400
H  12.29600 1.68700 25.85100
H  13.63400 2.92600 25.85800
H  12.27900 2.82600 27.08800
H  14.03800 0.11400 31.51600
H  16.83600 2.19500 34.23200
H  15.15600 2.85800 34.55100
H  16.16100 3.49300 33.21900
Mg 1.62600 42.04200 26.01900
C  3.19000 42.26300 29.14500
C  -0.99300 40.73700 27.48500
C  0.68700 41.27400 22.96900
C  4.80400 43.11300 24.66300
N  1.17100 41.74200 28.13900
C  1.89500 41.94000 29.26900
C  1.05300 41.64300 30.56400
C  -0.36600 41.37000 29.87100
C  -0.05400 41.23800 28.42900
C  -1.18100 40.25600 30.52900
C  1.13000 42.83100 31.48100
C  -0.07600 43.28100 32.41600
H  -0.38900 42.55300 33.71400
N  0.03700 41.11200 25.35600
C  -0.95200 40.67800 26.12400
C  -1.88700 39.97900 25.34600
C  -1.39600 40.16600 23.94500
C  -0.17500 40.90900 24.04700
C  -3.09800 39.28000 25.82300
C  -2.00000 39.61200 22.69200
O  -1.50500 39.85600 21.57900
C  -3.28400 38.76800 22.70200
N  2.59700 42.22800 24.14200
C  1.93100 41.89100 22.99700
C  2.73900 42.26800 21.71400
C  3.83600 43.17500 22.34200
C  3.80600 42.72100 23.77500
C  3.29300 41.05300 20.98300
C  3.69200 44.73300 22.26300
C  4.25600 45.29300 20.97900
N  3.54500 42.57700 26.66500
C  4.75900 42.98000 26.04000
C  5.83500 43.14600 26.97600
C  5.25100 42.84500 28.21200
C  3.89800 42.48500 27.97800
C  7.26500 43.52500 26.68300
C  5.54300 42.70000 29.58100
O  6.62900 42.88400 30.20400
C  4.22500 42.40600 30.25800
C  4.37600 41.11900 31.00100
O  4.32400 40.02100 30.48800
O  4.24500 41.23100 32.32900
C  4.29800 39.99800 33.21500
H  -1.86400 40.24600 27.92400
H  0.44100 41.22300 21.90600
H  5.75200 43.40900 24.20900
H  1.39500 40.77900 31.13400
H  -0.96400 42.26400 30.05100
H  -0.70200 40.00400 31.47500
H  -1.32300 39.39400 29.87700
H  -2.19300 40.62500 30.69800
H  1.50800 43.75400 31.04200
H  1.84200 42.57900 32.26700
H  -1.00600 43.40900 31.86100
H  0.09000 44.28100 32.81700
H  -3.94500 39.76000 25.33100
H  -3.35100 39.45000 26.86900
H  -3.04900 38.20500 25.65300
H  -3.22700 37.84300 23.27500
H  -3.45600 38.34200 21.71400
H  -4.15700 39.28200 23.10500
H  2.09500 42.79100 21.00600
H  4.85000 42.92700 22.02900
H  2.71000 40.22900 21.39500
H  4.35800 40.85600 21.10300
H  2.98700 41.19600 19.94700
H  4.34200 45.01000 23.09300
H  2.66900 45.08300 22.40000
H  5.09300 45.95200 21.21000
H  3.45900 45.89900 20.55000
H  4.63100 44.47200 20.36700
H  7.28100 44.03500 25.72000
H  7.77400 42.56100 26.67500
H  7.53900 44.13300 27.54500
H  4.02400 43.23400 30.93800
H  3.58500 39.28100 32.80900
H  4.19100 40.19300 34.28200
H  5.25100 39.48500 33.08200

