158

Mg 2.32800 -1.45200 43.89200
C  5.72400 -0.83200 43.38700
C  1.68300 1.49300 42.23200
C  -0.80200 -2.45000 44.05100
C  3.33800 -4.81600 45.00600
N  3.57300 0.20200 43.07800
C  4.92100 0.21100 42.95300
C  5.39600 1.57800 42.44100
C  4.05200 2.44000 42.40100
C  3.05100 1.25000 42.44600
C  3.84400 3.49600 43.58600
C  6.07300 1.59700 40.98300
C  5.45100 0.70200 39.90400
H  5.03400 1.48300 38.68800
N  0.71000 -0.63400 43.15000
C  0.57200 0.58600 42.51800
C  -0.81300 0.68900 42.07200
C  -1.57200 -0.22000 42.85800
C  -0.55700 -1.17300 43.41200
C  -1.41000 1.87000 41.26500
C  -3.01000 -0.29000 42.88000
O  -3.69500 0.52500 42.30300
C  -3.79400 -1.34000 43.54000
N  1.41000 -3.38800 44.46300
C  0.06000 -3.44500 44.39500
C  -0.39600 -4.86800 44.77500
C  0.93400 -5.66800 45.01500
C  1.94100 -4.54500 44.81500
C  -1.35300 -4.87300 46.04200
C  1.08500 -6.97300 44.17200
C  1.52400 -8.17500 44.98000
N  4.13500 -2.65300 44.21800
C  4.34300 -3.89700 44.73700
C  5.77600 -3.98900 44.88100
C  6.31500 -2.88300 44.23700
C  5.29500 -2.05800 43.90500
C  6.46300 -5.24300 45.44700
C  7.58000 -2.31000 43.77400
O  8.71700 -2.68600 43.80500
C  7.27800 -0.92400 43.19800
C  7.94100 0.11000 44.03200
O  8.73900 0.91100 43.56600
O  7.29800 0.28800 45.24700
C  7.39700 1.68800 45.81400
H  1.36900 2.36200 41.65100
H  -1.79800 -2.84600 44.26100
H  3.79500 -5.70200 45.45200
H  6.12400 2.16200 43.00400
H  3.94800 3.00800 41.47700
H  3.11900 3.05400 44.27000
H  3.22800 4.34200 43.28100
H  4.79900 3.69700 44.07000
H  7.10200 1.26100 41.10800
H  6.09500 2.62300 40.61600
H  4.63600 0.14900 40.37100
H  6.19400 -0.07000 39.70100
H  -1.88800 1.41100 40.39900
H  -0.62200 2.47900 40.82200
H  -2.06500 2.52700 41.83700
H  -3.37000 -1.47800 44.53400
H  -3.69200 -2.25200 42.95200
H  -4.84300 -1.04900 43.59900
H  -0.92200 -5.24100 43.89600
H  0.96000 -5.99000 46.05600
H  -1.41600 -5.81300 46.59200
H  -2.34700 -4.50000 45.79900
H  -0.90400 -4.10300 46.66900
H  1.85800 -6.92900 43.40500
H  0.11900 -7.29900 43.78700
H  1.01900 -9.09300 44.67900
H  1.38600 -8.14600 46.06100
H  2.59800 -8.27400 44.82500
H  7.35100 -4.92400 45.99300
H  6.77600 -5.86400 44.60800
H  5.77400 -5.65600 46.18400
H  7.63700 -0.96700 42.17000
H  7.96900 1.72600 46.74100
H  6.34300 1.83800 46.05100
H  7.71500 2.41100 45.06400
Mg 46.51900 34.87000 27.77600
C  44.81000 32.94400 30.25600
C  46.70300 37.43500 30.00800
C  47.74900 36.55900 25.32200
C  46.02500 32.16100 25.57100
N  45.99600 35.12000 29.91600
C  45.37000 34.18300 30.71200
C  45.46800 34.62800 32.18100
C  45.60800 36.14900 32.07700
C  46.15100 36.28900 30.60300
C  44.34800 36.96500 32.31100
C  46.62000 33.85000 32.92400
C  46.37600 33.67700 34.45000
H  45.52400 34.76400 35.21200
N  47.16100 36.78500 27.66400
C  47.19900 37.71200 28.69100
C  47.81400 38.91800 28.22000
C  47.98000 38.70500 26.79800
C  47.64100 37.30500 26.54800
C  47.92300 40.12000 29.12500
C  48.51600 39.64100 25.64900
O  48.39500 39.38900 24.45800
C  49.16500 40.88500 26.06500
N  46.81400 34.41500 25.72900
C  47.34800 35.28400 24.95500
C  47.50100 34.81700 23.51600
C  46.97400 33.34700 23.55400
C  46.60700 33.27900 25.04300
C  47.00300 35.70800 22.37300
C  47.90500 32.12200 23.20300
C  49.07900 31.78600 24.15700
N  45.80400 32.91000 27.92200
C  45.66400 32.02900 26.95500
C  45.16500 30.79200 27.52200
C  44.80500 31.10300 28.79100
C  45.11400 32.46500 29.03500
C  44.90200 29.51100 26.84800
C  44.12000 30.59500 29.93700
O  43.66900 29.48400 30.17400
C  43.90900 31.87200 30.87800
C  44.07300 31.55700 32.29100
O  44.99700 31.06300 32.86500
O  42.87300 32.01300 32.83800
C  42.64900 31.67100 34.26600
H  46.79900 38.27600 30.69900
H  48.07600 37.14200 24.45900
H  45.87300 31.30500 24.91100
H  44.51500 34.46300 32.68300
H  46.40800 36.42000 32.76700
H  44.41000 37.52100 33.24700
H  43.43700 36.38900 32.47000
H  44.17100 37.57200 31.42400
H  47.47600 34.50100 32.74600
H  46.89200 32.96100 32.35400
H  47.29700 33.82200 35.01500
H  45.99600 32.67200 34.63300
H  48.68000 40.81900 28.76900
H  48.35600 39.84800 30.08700
H  46.96200 40.60300 29.30100
H  48.33700 41.51100 26.39800
H  49.81700 41.17800 25.24200
H  49.63200 40.57700 27.00100
H  48.57500 34.66700 23.40100
H  46.16300 33.24600 22.83200
H  46.35100 35.29200 21.60500
H  47.84100 36.27400 21.96700
H  46.37600 36.37200 22.96900
H  48.44900 32.22500 22.26400
H  47.14400 31.34300 23.15200
H  50.05900 32.05300 23.76000
H  49.03000 30.73500 24.44100
H  49.01900 32.39100 25.06200
H  45.69000 29.32700 26.11800
H  43.95500 29.39000 26.32300
H  45.08900 28.73400 27.58900
H  42.89400 32.24000 30.72500
H  42.80800 32.59400 34.82300
H  43.42800 31.00300 34.63400
H  41.62600 31.32600 34.41300

