158

Mg 35.25300 2.71000 29.15200
C  33.06400 3.69600 31.76500
C  37.97200 2.78300 31.34100
C  37.31300 1.95300 26.61400
C  32.61600 3.12600 27.01700
N  35.41000 3.11300 31.26600
C  34.42400 3.41000 32.11500
C  34.86400 3.36900 33.57600
C  36.43900 3.27400 33.38000
C  36.67300 3.06100 31.90100
C  37.29100 4.40000 34.09100
C  34.28900 2.10900 34.34800
C  34.11900 2.16100 35.81600
H  34.64200 3.28400 36.60900
N  37.36800 2.28600 29.02800
C  38.25400 2.40900 30.00700
C  39.60300 2.06700 29.50000
C  39.47900 1.95000 28.17300
C  38.00600 2.07000 27.83700
C  40.78200 1.88200 30.43800
C  40.53800 1.74000 27.12800
O  40.26300 1.86900 25.92700
C  41.96100 1.61600 27.50100
N  35.02600 2.49200 27.15200
C  35.96600 2.16000 26.24000
C  35.38000 1.82600 24.91000
C  33.87600 1.95100 25.02000
C  33.79600 2.54600 26.46600
C  35.92700 2.66800 23.64800
C  33.13900 0.64800 24.97300
C  33.33800 -0.26900 23.69200
N  33.25000 3.43300 29.25900
C  32.29200 3.48400 28.32500
C  31.06400 3.96100 28.83700
C  31.27200 4.07200 30.21500
C  32.61100 3.63000 30.42300
C  29.83700 4.20700 28.04900
C  30.77100 4.52800 31.41200
O  29.69000 5.12600 31.65000
C  31.80900 4.04600 32.56700
C  32.03900 5.21900 33.59800
O  32.90000 6.13200 33.46100
O  31.14600 5.02700 34.66500
C  31.40600 5.98800 35.71700
H  38.81000 2.72400 32.03900
H  37.92300 1.62600 25.77000
H  31.79500 3.14100 26.29700
H  34.61300 4.32900 34.02700
H  36.81600 2.40400 33.91700
H  37.50100 4.00000 35.08300
H  36.69500 5.30700 34.18400
H  38.22200 4.51300 33.53500
H  35.01200 1.37100 34.00100
H  33.39200 1.88400 33.77100
H  34.55900 1.21900 36.14200
H  33.08800 1.97500 36.11500
H  40.79700 0.79200 30.39500
H  40.58700 2.20100 31.46200
H  41.63100 2.32600 29.92100
H  42.58300 1.26700 26.67600
H  41.94900 0.91000 28.33200
H  42.28600 2.61700 27.78200
H  35.58800 0.76900 24.74400
H  33.46000 2.52000 24.18800
H  36.86700 3.03900 24.05700
H  35.30600 3.54200 23.45100
H  36.08100 2.05200 22.76200
H  32.06500 0.72600 25.14500
H  33.55600 0.02900 25.76700
H  33.49900 -1.30100 24.00300
H  34.22200 0.02100 23.12300
H  32.39500 -0.28700 23.14600
H  29.50700 3.20000 27.79600
H  30.01600 4.73600 27.11300
H  29.07900 4.55200 28.75100
H  31.43400 3.17500 33.10400
H  31.92500 6.91100 35.45600
H  31.84000 5.62600 36.64800
H  30.41400 6.27000 36.06900
Mg 47.22100 34.08000 26.61500
C  45.06500 33.08200 29.13100
C  48.24600 36.70500 28.60000
C  48.72800 35.20200 23.86500
C  46.21100 31.23600 24.57500
N  46.66300 34.80000 28.61300
C  45.81800 34.26500 29.50700
C  45.99100 34.81900 30.86800
C  46.65400 36.14000 30.51100
C  47.26500 35.93000 29.17100
C  45.74700 37.41500 30.57800
C  46.89300 33.85300 31.80600
C  46.84300 33.93900 33.32300
H  46.12300 35.09600 33.95500
N  48.21400 35.79200 26.20300
C  48.59800 36.75000 27.17500
C  49.42700 37.69000 26.57000
C  49.55700 37.34800 25.16900
C  48.79700 36.03400 24.98800
C  50.16200 38.80000 27.36200
C  50.07600 38.13500 23.94800
O  50.19400 37.61900 22.76500
C  50.51400 39.53900 24.21200
N  47.56800 33.22300 24.66200
C  48.14100 33.94800 23.72800
C  48.18900 33.23900 22.28200
C  47.72500 31.80800 22.63500
C  47.18000 32.03000 24.05600
C  47.30400 33.92300 21.22000
C  48.82100 30.67300 22.58700
C  49.70500 30.40800 23.79900
N  45.89900 32.42300 26.77900
C  45.56800 31.40300 25.86900
C  44.69700 30.46800 26.59700
C  44.40900 31.16700 27.82700
C  45.11500 32.35800 27.85000
C  44.32700 29.01300 26.17300
C  43.74000 30.93800 29.10000
O  43.02500 30.07300 29.52900
C  44.00500 32.33300 29.87700
C  44.22600 31.87200 31.23300
O  45.11500 31.10000 31.59800
O  43.17900 32.27000 31.99000
C  43.38100 32.05500 33.41800
H  48.64300 37.48000 29.26000
H  49.11800 35.46200 22.87900
H  45.85800 30.36600 24.01700
H  44.99800 34.85900 31.31600
H  47.58400 36.38400 31.02500
H  45.92800 38.06900 31.43000
H  44.67500 37.22300 30.61700
H  45.92100 37.94700 29.64200
H  47.85400 34.27200 31.50600
H  46.87700 32.81000 31.49100
H  47.86000 33.94200 33.71500
H  46.36000 33.04900 33.72500
H  50.78300 38.39100 28.15900
H  49.40400 39.39900 27.86600
H  50.88200 39.34800 26.75400
H  50.53500 39.99900 23.22400
H  51.51500 39.63800 24.63300
H  49.84100 40.04600 24.90400
H  49.15500 33.06900 21.80800
H  46.91500 31.52500 21.96200
H  46.91900 34.91700 21.44500
H  46.45100 33.25300 21.11900
H  47.83800 33.94400 20.27000
H  49.51900 30.97500 21.80600
H  48.34200 29.73500 22.30600
H  49.30200 30.96300 24.64600
H  50.68300 30.77800 23.49000
H  49.67300 29.37200 24.13600
H  44.50300 28.27300 26.95400
H  44.95200 28.75400 25.31900
H  43.27000 29.09400 25.92000
H  43.12000 32.96700 29.93400
H  44.09900 32.74800 33.85700
H  43.52300 30.99600 33.63200
H  42.48800 32.33500 33.97700

