158

Mg 47.26900 25.21100 28.60900
C  48.34200 27.23600 31.07800
C  46.39100 22.83900 31.04500
C  46.42500 23.07900 26.14800
C  48.34600 27.49600 26.25000
N  47.30300 25.07400 30.74600
C  47.68800 26.08300 31.63200
C  47.38100 25.82600 33.08600
C  46.85500 24.36100 33.06900
C  46.88200 24.00500 31.56800
C  47.65700 23.28900 33.87600
C  46.36200 26.83200 33.67100
C  46.72000 27.61500 34.97800
H  45.95100 27.46300 36.26800
N  46.58300 23.24100 28.54400
C  46.31300 22.42100 29.66600
C  45.95100 21.11900 29.24800
C  45.82000 21.17000 27.77900
C  46.30900 22.53300 27.45300
C  45.64900 19.96300 30.15300
C  45.31200 20.07400 26.77900
O  45.40100 20.16500 25.54300
C  44.69000 18.79800 27.27300
N  47.39000 25.21300 26.45000
C  47.00900 24.24200 25.68900
C  47.05700 24.68400 24.22700
C  47.88500 25.96700 24.27800
C  47.84000 26.30800 25.72300
C  47.73000 23.65200 23.25900
C  47.29100 27.08200 23.33300
C  48.34000 27.69100 22.41200
N  48.09900 27.03400 28.61000
C  48.54100 27.88000 27.60000
C  49.20800 29.03100 28.17400
C  49.15700 28.90400 29.58100
C  48.51200 27.64800 29.77600
C  49.90400 30.03500 27.29200
C  49.41900 29.47100 30.87700
O  50.05700 30.48700 31.16500
C  48.99200 28.35000 31.90600
C  50.05300 27.98400 32.87600
O  50.76300 26.96500 32.79300
O  50.02800 28.94100 33.89600
C  50.92500 28.61600 34.99800
H  46.15400 22.12200 31.83300
H  46.16500 22.54200 25.23300
H  48.67100 28.23100 25.51100
H  48.34300 25.91900 33.58900
H  45.82900 24.28800 33.43000
H  47.97200 22.42200 33.29500
H  47.21500 22.88800 34.78800
H  48.63600 23.74100 34.03100
H  45.43400 26.28600 33.83900
H  46.04300 27.54900 32.91400
H  46.64700 28.67600 34.73800
H  47.74300 27.28000 35.15100
H  44.57400 19.78100 30.15700
H  46.07000 20.08700 31.15000
H  46.16900 19.13400 29.67200
H  44.18600 18.92900 28.23100
H  45.59400 18.20000 27.39000
H  44.11900 18.20100 26.56100
H  46.03800 24.82500 23.86900
H  48.93700 25.84100 24.02100
H  48.31200 22.92100 23.82100
H  48.34700 24.24600 22.58600
H  47.05400 23.29600 22.48200
H  46.73900 27.82700 23.90700
H  46.62800 26.64400 22.58800
H  48.46500 27.38900 21.37200
H  49.33700 27.36600 22.70900
H  48.26000 28.75900 22.61500
H  49.62900 29.88900 26.24800
H  50.98900 29.92600 27.28100
H  49.65900 31.05300 27.59700
H  48.14400 28.76400 32.45200
H  50.96800 27.55900 35.25700
H  50.75500 29.21600 35.89200
H  51.93200 28.89300 34.68600
Mg 27.26200 50.46800 25.55400
C  25.25800 51.82700 28.13800
C  29.47500 49.41800 28.05600
C  28.92500 49.07300 23.22600
C  24.90300 51.72300 23.23200
N  27.28100 50.56600 27.85900
C  26.34400 51.16700 28.64900
C  26.75300 50.95400 30.15300
C  28.16700 50.39800 30.13500
C  28.32300 50.11800 28.60500
C  29.24500 51.46500 30.58000
C  25.79800 49.99400 30.99800
C  25.01400 50.67100 32.16300
H  25.80200 51.03000 33.52200
N  29.04100 49.49500 25.60100
C  29.79300 49.12300 26.69800
C  30.94700 48.39300 26.16200
C  30.75700 48.11300 24.78600
C  29.57000 48.94100 24.46300
C  32.02900 47.81300 27.03800
C  31.40600 47.07800 23.87600
O  31.05200 46.91900 22.70100
C  32.36000 46.11400 24.40500
N  27.01500 50.46100 23.52700
C  27.78700 49.84300 22.68200
C  27.35800 49.86500 21.24300
C  25.86800 50.30600 21.32700
C  25.89900 50.88500 22.79100
C  28.22400 50.93600 20.46200
C  24.74200 49.26900 21.22100
C  25.11900 47.77100 21.05200
N  25.48400 51.59000 25.59100
C  24.65700 52.06500 24.59700
C  23.65400 52.90300 25.12400
C  23.78700 52.81900 26.49300
C  24.91700 51.97700 26.78100
C  22.60900 53.67100 24.43300
C  23.19400 53.20400 27.73500
O  22.19800 53.79800 28.03600
C  24.17600 52.63300 28.88200
C  24.73000 53.77000 29.69100
O  25.66000 54.50300 29.28400
O  24.00800 53.92400 30.81200
C  24.42800 54.97900 31.73500
H  30.23500 49.20000 28.81000
H  29.45900 48.73100 22.33600
H  24.14600 51.92100 22.47100
H  26.63600 51.91400 30.65400
H  28.42500 49.50100 30.69700
H  28.82400 52.38900 30.97800
H  29.78400 51.83600 29.70800
H  29.93100 50.99500 31.28400
H  26.29600 49.13500 31.44900
H  25.14900 49.53300 30.25300
H  24.27400 49.91900 32.43700
H  24.44000 51.56400 31.91600
H  33.00800 47.88000 26.56400
H  31.99700 46.73500 27.19900
H  32.11400 48.21200 28.04800
H  32.71300 45.53600 23.55100
H  31.70300 45.50300 25.02500
H  33.28400 46.49700 24.83700
H  27.45400 48.92500 20.70000
H  25.62500 51.17400 20.71300
H  27.70200 51.32100 19.58600
H  29.21200 50.59600 20.15300
H  28.24800 51.77700 21.15600
H  24.05200 49.48400 20.40500
H  24.11700 49.38900 22.10600
H  25.57700 47.55300 22.01600
H  25.78900 47.41500 20.27000
H  24.16500 47.24300 21.05400
H  21.96500 53.14100 23.73100
H  23.04600 54.56200 23.98200
H  22.02700 54.06500 25.26700
H  23.62000 52.14300 29.68200
H  25.39900 54.66200 32.11500
H  23.70100 55.13900 32.53100
H  24.71600 55.89500 31.21800

