158

Mg 35.15200 2.13000 29.52300
C  32.94500 3.28800 31.98800
C  37.74000 2.37800 31.81000
C  37.26400 1.40800 26.97700
C  32.53400 2.50300 27.05300
N  35.26100 2.91500 31.67700
C  34.22400 3.02200 32.47300
C  34.67900 3.20400 33.91900
C  36.25200 3.18100 33.83700
C  36.45800 2.79900 32.31200
C  36.93600 4.49400 34.24800
C  34.03100 2.05500 34.76300
C  33.25800 2.51900 35.95500
H  33.97500 3.55800 36.84800
N  37.17200 1.86800 29.42300
C  38.07000 1.97300 30.50600
C  39.37700 1.74800 30.07400
C  39.29000 1.48800 28.61700
C  37.84900 1.52500 28.28500
C  40.60800 1.75100 30.96100
C  40.34000 1.30200 27.57700
O  40.07800 1.03800 26.43500
C  41.76900 1.22600 27.96200
N  34.95200 2.11400 27.31600
C  35.94200 1.66100 26.53500
C  35.39100 1.29000 25.10600
C  33.91600 1.30700 25.21400
C  33.79700 2.03000 26.60500
C  35.89000 2.27600 24.05000
C  33.21000 -0.04900 25.13000
C  33.42000 -0.91500 23.88400
N  33.14300 2.74800 29.49800
C  32.22400 2.87200 28.42200
C  31.02400 3.41500 28.96600
C  31.25900 3.69500 30.29600
C  32.56800 3.20600 30.58800
C  29.79100 3.59900 28.18900
C  30.67500 4.16500 31.56800
O  29.51400 4.53600 31.72700
C  31.73700 3.93200 32.68400
C  32.03200 5.35400 33.07000
O  32.93600 6.07800 32.59300
O  31.15900 5.76600 33.97700
C  31.40100 7.02300 34.56500
H  38.53800 2.36200 32.55600
H  37.83900 0.88000 26.21300
H  31.77100 2.36800 26.28300
H  34.28200 4.17700 34.20800
H  36.66000 2.42600 34.51000
H  37.81700 4.73000 33.65100
H  37.29800 4.51200 35.27600
H  36.15100 5.24600 34.17100
H  34.84000 1.41100 35.10800
H  33.37400 1.48900 34.10300
H  33.07900 1.68600 36.63400
H  32.30100 2.92700 35.63100
H  41.36500 1.10500 30.51800
H  40.47200 1.33200 31.95800
H  40.77400 2.82800 30.98100
H  41.84400 0.22200 28.37800
H  42.13500 1.91600 28.72300
H  42.39600 1.34200 27.07800
H  35.82800 0.32400 24.85800
H  33.48000 1.97700 24.47400
H  36.19700 3.19800 24.54400
H  35.13600 2.49300 23.29400
H  36.75000 1.96400 23.45800
H  32.15200 0.21100 25.13500
H  33.48900 -0.59500 26.03100
H  33.68700 -1.90500 24.25600
H  34.21800 -0.74800 23.16100
H  32.47600 -0.95200 23.34000
H  29.99700 3.27400 27.17000
H  29.40000 4.61500 28.24400
H  28.97600 2.93800 28.48300
H  31.19900 3.35600 33.43600
H  31.43900 7.86900 33.87900
H  32.41100 6.95800 34.96800
H  30.78000 7.31900 35.41000
Mg -5.74500 25.35000 25.67600
C  -4.29700 26.70500 28.47800
C  -7.51500 23.21900 27.91700
C  -7.17000 24.02300 23.05000
C  -3.81900 27.45700 23.67600
N  -5.89700 25.03700 27.92200
C  -5.25300 25.78200 28.83000
C  -5.72200 25.50500 30.27200
C  -6.55500 24.22900 30.03000
C  -6.77500 24.15300 28.56400
C  -5.86600 22.97500 30.64300
C  -6.52800 26.65800 30.97600
C  -6.10900 26.90800 32.43300
H  -6.01000 25.70300 33.38700
N  -7.07800 23.75300 25.53300
C  -7.65800 23.00100 26.50800
C  -8.54200 22.04000 25.84700
C  -8.53900 22.32400 24.42600
C  -7.60400 23.41000 24.28800
C  -9.42900 21.07900 26.64500
C  -9.18500 21.51200 23.25400
O  -9.11400 21.83700 22.07600
C  -10.00900 20.27000 23.47000
N  -5.37800 25.56300 23.68800
C  -6.22400 24.99500 22.73600
C  -6.02600 25.53600 21.39900
C  -5.09300 26.76800 21.63300
C  -4.79300 26.65300 23.12600
C  -5.45900 24.45100 20.38100
C  -5.70300 28.13700 21.17200
C  -4.86400 28.88700 20.13600
N  -4.30900 26.77600 25.98000
C  -3.57100 27.57800 25.06800
C  -2.56500 28.39300 25.78500
C  -2.88300 28.08600 27.12700
C  -3.94000 27.10700 27.15000
C  -1.61400 29.41700 25.28500
C  -2.59500 28.49300 28.48500
O  -1.69100 29.20300 28.91400
C  -3.46700 27.58900 29.39100
C  -2.58400 26.87400 30.26600
O  -1.83600 25.94500 30.00800
O  -2.62700 27.45200 31.51300
C  -1.73900 26.79500 32.54500
H  -8.14000 22.56600 28.52900
H  -7.75900 23.71300 22.18400
H  -3.41900 28.22600 23.01200
H  -4.82400 25.23800 30.82900
H  -7.56500 24.27500 30.43600
H  -4.99600 23.28600 31.22200
H  -5.65500 22.31900 29.79800
H  -6.59100 22.52200 31.32000
H  -7.60900 26.52400 30.94100
H  -6.38000 27.61500 30.47600
H  -6.87900 27.63200 32.70000
H  -5.15700 27.43500 32.36300
H  -10.47800 21.34800 26.52300
H  -9.28300 21.20800 27.71800
H  -9.16500 20.06200 26.35800
H  -9.43800 19.39600 23.78400
H  -10.23500 20.03300 22.43100
H  -10.82000 20.36100 24.19200
H  -7.02600 25.81700 21.06800
H  -4.08100 26.67100 21.24100
H  -5.98100 24.47200 19.42400
H  -5.31300 23.43000 20.73200
H  -4.45600 24.78400 20.11400
H  -5.79900 28.72700 22.08300
H  -6.70400 28.04100 20.75300
H  -4.91000 29.97000 20.25400
H  -5.34300 28.68300 19.17800
H  -3.82700 28.56200 20.05700
H  -2.04000 30.41900 25.25100
H  -1.38900 29.04300 24.28500
H  -0.76500 29.38900 25.96800
H  -4.12400 28.22200 29.98700
H  -1.90600 27.32100 33.48500
H  -0.66500 26.89600 32.38300
H  -2.09500 25.76500 32.56200

