158

Mg 48.78500 45.22400 43.29100
C  45.30800 45.34900 42.64000
C  48.69700 41.75300 42.54300
C  52.08700 45.23300 43.04900
C  48.67300 48.66700 43.76500
N  47.13900 43.87200 42.60600
C  45.85900 44.04600 42.48600
C  45.09000 42.74600 42.07600
C  46.13900 41.61000 42.34800
C  47.43700 42.44100 42.42600
C  45.85400 40.71000 43.58900
C  44.35900 42.72100 40.65200
C  45.03200 43.26200 39.42500
H  45.05200 42.41700 38.08000
N  50.19600 43.64500 42.88300
C  49.98400 42.33400 42.62300
C  51.22200 41.70400 42.40500
C  52.25400 42.70400 42.53100
C  51.49100 43.92500 42.87600
C  51.44700 40.25300 42.13100
C  53.75400 42.47200 42.15200
O  54.13700 41.35000 41.88200
C  54.71600 43.66100 41.80600
N  50.21700 46.70300 43.32100
C  51.53400 46.50200 43.19300
C  52.30500 47.83700 43.23200
C  51.20500 48.96800 43.44700
C  49.91800 48.04400 43.54100
C  53.43700 47.83800 44.35600
C  50.94100 50.02500 42.24700
C  51.52600 51.38600 42.59500
N  47.32900 46.72700 43.34900
C  47.41600 48.06800 43.59300
C  46.15700 48.63900 43.56200
C  45.28600 47.61400 43.24500
C  46.06600 46.48900 43.05500
C  45.90600 50.04400 43.52600
C  43.87400 47.28800 42.82100
O  42.86600 47.93700 42.69000
C  43.88900 45.77500 42.41400
C  42.81000 44.98100 43.18200
O  41.99400 44.23900 42.62600
O  42.77000 45.35900 44.46800
C  41.68300 44.82700 45.29200
H  48.64300 40.66700 42.44500
H  53.17700 45.17800 43.09500
H  48.54300 49.75200 43.77900
H  44.24600 42.58900 42.74700
H  46.19800 41.00300 41.44500
H  45.50000 39.82000 43.06900
H  45.11100 41.18500 44.23000
H  46.74400 40.54500 44.19700
H  43.38600 43.20300 40.74700
H  44.13900 41.65500 40.59100
H  46.04800 43.57800 39.65700
H  44.42600 44.11000 39.10700
H  51.97800 40.20600 41.18000
H  50.51400 39.69600 42.04800
H  52.03900 39.84800 42.95200
H  55.08900 44.19400 42.68100
H  54.09000 44.31600 41.19900
H  55.50200 43.13400 41.26600
H  52.74800 48.02400 42.25400
H  51.33900 49.39100 44.44200
H  53.20400 48.52500 45.17000
H  54.36700 48.11700 43.86100
H  53.56300 46.83400 44.76000
H  49.90600 50.19900 41.95300
H  51.32300 49.74500 41.26500
H  50.84500 52.20100 42.34900
H  52.34600 51.55900 41.89700
H  51.77400 51.45800 43.65400
H  45.25500 50.35800 44.34100
H  45.44000 50.33500 42.58400
H  46.81800 50.63900 43.57200
H  43.62800 45.78300 41.35600
H  41.58900 43.74900 45.16400
H  40.68600 45.17500 45.02300
H  41.75800 45.03400 46.36000
Mg 42.47800 41.63200 25.61900
C  41.65800 44.17900 27.92500
C  43.80500 39.85600 28.22800
C  43.20900 39.25200 23.44600
C  41.60400 43.76800 23.14300
N  42.85700 42.11900 27.88300
C  42.20400 43.06600 28.54600
C  42.14400 42.66600 30.07700
C  42.97400 41.40900 30.21300
C  43.22900 41.07700 28.68400
C  44.32700 41.51700 31.04200
C  40.74600 42.52400 30.74400
C  40.47400 43.10400 32.18100
H  41.41800 43.12300 33.34900
N  43.23000 39.76400 25.83900
C  43.68300 39.16400 26.98700
C  44.10900 37.76300 26.68400
C  43.92800 37.60200 25.33500
C  43.54500 38.91500 24.80700
C  44.68600 36.83200 27.70500
C  44.05200 36.34400 24.39600
O  43.92900 36.44700 23.20900
C  44.54600 35.08200 24.92700
N  42.40900 41.51600 23.64500
C  42.68400 40.41700 22.93000
C  42.51200 40.65500 21.36700
C  41.79500 42.01000 21.29400
C  41.89200 42.45000 22.77000
C  43.89700 40.66900 20.62400
C  40.26600 42.02800 20.76600
C  39.14200 41.48600 21.66100
N  41.96100 43.67900 25.45000
C  41.71700 44.44600 24.39700
C  41.33300 45.77500 24.79700
C  41.21200 45.68700 26.20200
C  41.61700 44.38600 26.58700
C  40.91900 46.97400 24.00700
C  40.80700 46.37000 27.43200
O  40.20100 47.43000 27.63200
C  41.08700 45.34900 28.61100
C  41.86700 46.05100 29.74500
O  43.03300 46.44000 29.59400
O  41.18700 46.09700 30.96000
C  41.99900 46.52100 32.10300
H  44.16700 39.27400 29.07800
H  43.28600 38.53500 22.62600
H  41.38900 44.28700 22.20700
H  42.72300 43.42000 30.61000
H  42.34400 40.60500 30.59600
H  44.33900 42.41300 31.66200
H  45.20200 41.54300 30.39200
H  44.40100 40.67500 31.72900
H  40.61500 41.44400 30.80900
H  39.94100 42.84500 30.08300
H  39.50800 42.61300 32.30100
H  40.23700 44.14800 31.97600
H  44.84300 37.32800 28.66300
H  45.68100 36.45800 27.46600
H  44.03600 36.01100 28.00800
H  43.83100 34.70700 25.65900
H  45.42800 35.29600 25.53000
H  44.90300 34.36700 24.18600
H  41.82600 39.91700 20.94900
H  42.38100 42.72000 20.70900
H  44.11500 41.60200 20.10400
H  43.93300 39.84900 19.90700
H  44.73700 40.52200 21.30400
H  40.25000 41.55900 19.78200
H  40.17000 43.11200 20.69700
H  39.70500 41.18300 22.54400
H  38.63000 40.65600 21.17500
H  38.31200 42.10100 22.00800
H  40.24700 47.59800 24.59700
H  40.48600 46.59000 23.08400
H  41.76000 47.63000 23.78500
H  40.12400 44.99100 28.97600
H  42.56200 47.44100 31.94800
H  42.71400 45.70900 32.23800
H  41.54900 46.47800 33.09500

