158

Mg 42.04400 41.64700 26.27300
C  41.06000 44.05700 28.56900
C  42.76400 39.42000 28.91800
C  43.29500 39.39000 24.01000
C  42.08600 44.05200 23.77300
N  42.04400 41.77500 28.51700
C  41.40900 42.79300 29.18300
C  41.35000 42.51300 30.66400
C  41.89500 41.01300 30.80900
C  42.25800 40.67200 29.31300
C  43.15700 40.81800 31.69100
C  39.88200 42.72600 31.35300
C  39.68900 41.92600 32.69100
H  38.87200 42.61500 33.80800
N  42.80600 39.63400 26.40100
C  43.05800 38.95600 27.58800
C  43.68300 37.68500 27.26100
C  43.78000 37.63200 25.84900
C  43.36200 38.91600 25.36200
C  44.03600 36.61600 28.28600
C  44.17200 36.47200 24.94500
O  44.32500 36.54400 23.72400
C  44.50900 35.11700 25.48600
N  42.67500 41.67900 24.19900
C  43.08400 40.60700 23.48000
C  43.29800 40.97300 21.98200
C  42.81900 42.50700 21.95100
C  42.48600 42.80200 23.40000
C  44.79600 40.72500 21.48600
C  41.58400 42.64100 20.91900
C  41.51000 44.04100 20.20300
N  41.63800 43.67100 26.13800
C  41.60900 44.43200 25.01900
C  40.91700 45.72500 25.39600
C  40.78900 45.61800 26.80000
C  41.15500 44.34000 27.19900
C  40.51600 46.70700 24.41400
C  40.30400 46.31600 27.99000
O  39.77300 47.39100 28.05800
C  40.50500 45.30700 29.21000
C  41.43300 45.94000 30.15700
O  42.62900 46.14100 29.90200
O  40.80400 46.13000 31.36900
C  41.55700 46.73100 32.49400
H  42.76900 38.64700 29.68900
H  43.55400 38.60600 23.29500
H  42.05100 44.83800 23.01600
H  42.07300 43.17400 31.14200
H  41.14200 40.25500 31.02300
H  43.95700 41.25100 31.09000
H  43.28500 39.74900 31.85900
H  43.04100 41.40200 32.60400
H  39.13400 42.48500 30.59800
H  39.70600 43.76900 31.61600
H  40.60500 41.81300 33.27100
H  39.19800 41.00300 32.38200
H  44.07300 36.99200 29.30800
H  45.05700 36.34100 28.02200
H  43.33700 35.78200 28.22400
H  43.63100 34.92500 26.10300
H  45.43500 35.21300 26.05300
H  44.68700 34.35500 24.72700
H  42.62700 40.27400 21.48100
H  43.63500 43.19100 21.71600
H  45.47900 40.60800 22.32800
H  45.26800 41.52700 20.91700
H  44.89400 39.96500 20.71200
H  40.65900 42.47800 21.47200
H  41.67800 41.86900 20.15500
H  40.46900 44.36500 20.21700
H  41.96800 43.99800 19.21500
H  42.15700 44.70300 20.77700
H  39.60700 47.23500 24.70000
H  40.11200 46.24600 23.51300
H  41.34900 47.38600 24.23000
H  39.54500 45.07600 29.67200
H  42.59300 47.06500 32.43500
H  41.61400 45.98800 33.28800
H  40.86500 47.43900 32.95000
Mg -0.96600 34.29900 27.92900
C  -2.44200 31.99000 30.12500
C  0.34300 35.85000 30.56700
C  -0.03200 36.50900 25.78200
C  -2.64600 32.49000 25.23900
N  -1.19500 34.07200 30.10100
C  -1.73500 33.01300 30.82000
C  -1.78100 33.35900 32.33300
C  -0.95300 34.71900 32.40000
C  -0.59000 34.88000 30.90300
C  -1.77200 35.95000 33.01800
C  -1.12900 32.20800 33.21600
C  -1.95300 31.77700 34.43500
H  -1.32300 31.72100 35.83100
N  0.10200 35.89000 28.18200
C  0.65900 36.33700 29.29100
C  1.46600 37.47400 29.00200
C  1.42700 37.59700 27.56200
C  0.53500 36.57600 27.08500
C  2.15100 38.21800 30.04400
C  2.20700 38.53800 26.71600
O  2.08300 38.55500 25.53800
C  3.09400 39.52600 27.31600
N  -1.68500 34.68400 25.87300
C  -1.00800 35.63600 25.28500
C  -1.20700 35.53600 23.72900
C  -1.77900 34.15300 23.51800
C  -2.06500 33.73100 24.97700
C  -2.10600 36.67600 23.25800
C  -0.91200 33.22000 22.62600
C  0.16800 32.30000 23.40800
N  -2.28200 32.52600 27.69800
C  -2.81600 31.94900 26.54500
C  -3.64600 30.81300 26.94500
C  -3.61500 30.80500 28.35600
C  -2.80100 31.89200 28.73700
C  -4.42500 29.84100 26.14600
C  -3.95300 30.09200 29.52300
O  -4.65400 29.08400 29.66100
C  -3.30300 30.89900 30.75000
C  -4.45100 31.41400 31.60800
O  -5.24900 32.19800 31.19800
O  -4.54300 30.69600 32.74800
C  -5.52100 31.10000 33.77000
H  0.94000 36.17800 31.42100
H  0.34900 37.25600 25.08300
H  -2.87100 31.85400 24.38000
H  -2.78200 33.58400 32.70300
H  -0.10900 34.70800 33.09000
H  -1.14100 36.51800 33.70200
H  -2.67000 35.60600 33.53300
H  -2.16200 36.72200 32.35400
H  -0.15400 32.50300 33.60600
H  -0.98200 31.26700 32.68600
H  -2.36500 30.77800 34.29600
H  -2.78600 32.47300 34.52600
H  3.21100 38.11000 29.81600
H  1.98000 37.81000 31.04000
H  2.00100 39.29700 29.98700
H  2.70100 40.19100 28.08500
H  3.41000 40.10000 26.44500
H  3.97300 39.04400 27.74300
H  -0.23100 35.64200 23.25600
H  -2.76700 34.20900 23.06100
H  -3.14100 36.37600 23.42600
H  -1.88900 36.94900 22.22500
H  -1.96400 37.44800 24.01400
H  -0.39800 33.70500 21.79600
H  -1.61300 32.61400 22.05000
H  0.19100 32.59300 24.45800
H  1.16100 32.60300 23.07800
H  -0.14900 31.25900 23.34800
H  -3.94100 29.87200 25.17100
H  -5.42200 30.27000 26.04300
H  -4.44900 28.90900 26.71100
H  -2.62600 30.23900 31.29300
H  -5.96000 30.16400 34.11500
H  -6.37100 31.68200 33.41300
H  -4.97900 31.43400 34.65500

