158

Mg 42.90800 42.19400 25.77300
C  42.19200 44.43400 28.36500
C  44.13800 40.11900 28.26500
C  44.02200 40.27400 23.39700
C  42.41400 44.81300 23.52700
N  43.04000 42.29600 28.10200
C  42.66300 43.31100 28.91200
C  42.91000 42.92100 30.43500
C  43.82600 41.68100 30.29600
C  43.60100 41.28900 28.79400
C  45.35300 41.84300 30.62500
C  41.57100 42.69100 31.16700
C  41.83700 42.11600 32.63800
H  41.13100 42.81800 33.86400
N  43.82300 40.31700 25.81400
C  44.20400 39.57700 26.93800
C  44.75400 38.29900 26.49600
C  44.56500 38.36000 25.07400
C  44.12200 39.64900 24.69300
C  45.20000 37.26800 27.45100
C  44.81100 37.19300 24.10100
O  44.69800 37.27800 22.88400
C  45.28800 35.88800 24.64300
N  43.22400 42.50600 23.74500
C  43.72900 41.61400 22.97900
C  43.58500 41.96500 21.49200
C  42.84500 43.31200 21.55900
C  42.81200 43.55700 23.05400
C  44.89000 41.88100 20.62000
C  41.42700 43.44600 20.86600
C  40.07300 43.17800 21.49500
N  42.32200 44.19000 25.85900
C  42.16800 45.09500 24.83500
C  41.58000 46.35200 25.37000
C  41.41800 46.02800 26.74400
C  42.04500 44.76100 26.98700
C  41.35800 47.66400 24.66700
C  41.23400 46.67500 28.07500
O  40.96500 47.85600 28.30700
C  41.69600 45.64500 29.13100
C  42.77200 46.20000 30.02000
O  43.96900 46.11800 29.75300
O  42.17900 46.69800 31.16100
C  43.12900 47.23600 32.16300
H  44.50200 39.43100 29.03000
H  44.23500 39.61100 22.55600
H  42.23800 45.61100 22.80400
H  43.38800 43.78600 30.89300
H  43.50300 40.85200 30.92500
H  45.66700 42.87100 30.80700
H  45.95300 41.44500 29.80700
H  45.53100 41.38600 31.59800
H  40.95500 42.04500 30.54200
H  41.21700 43.72100 31.12600
H  42.88100 41.97100 32.91400
H  41.45800 41.09400 32.62100
H  45.39500 37.64800 28.45400
H  46.05600 36.67200 27.13600
H  44.35100 36.58500 27.48600
H  45.42300 35.12800 23.87300
H  44.63400 35.44900 25.39700
H  46.28000 36.04300 25.06700
H  42.94900 41.17400 21.09600
H  43.40700 44.14400 21.13400
H  45.13900 42.91700 20.39000
H  44.65900 41.44900 19.64600
H  45.75200 41.39800 21.08200
H  41.36400 42.76100 20.02000
H  41.42300 44.48400 20.53300
H  39.53500 42.45000 20.88800
H  39.47500 44.07200 21.67200
H  40.05200 42.69400 22.47200
H  42.19600 48.35600 24.74900
H  40.48700 48.14200 25.11400
H  41.16800 47.45300 23.61400
H  40.77300 45.42000 29.66600
H  44.02400 47.65800 31.70500
H  43.35000 46.46300 32.90000
H  42.60300 48.11600 32.53300
Mg 1.96300 42.72000 26.41100
C  3.43500 42.61400 29.49400
C  -1.06700 41.69500 28.28200
C  0.39900 42.10600 23.57700
C  4.92000 42.95600 24.79100
N  1.31700 42.32100 28.67900
C  2.06100 42.46500 29.67700
C  1.35500 42.38900 31.10700
C  -0.09600 41.97100 30.60900
C  0.03500 42.07900 29.05700
C  -0.55100 40.56700 31.06900
C  1.39500 43.76900 31.73800
C  1.90800 43.80500 33.22300
H  1.49500 42.69600 34.21900
N  -0.09900 42.22900 25.93700
C  -1.13100 41.79900 26.83300
C  -2.33000 41.47200 26.07800
C  -1.96500 41.63700 24.73200
C  -0.53500 41.98700 24.66800
C  -3.62200 40.97200 26.70000
C  -2.76200 41.35100 23.42400
O  -2.31600 41.45100 22.25200
C  -4.08100 40.82500 23.51900
N  2.60500 42.72400 24.33700
C  1.77400 42.43700 23.33900
C  2.51700 42.43300 21.95100
C  3.96600 42.71500 22.42900
C  3.85400 42.84800 23.91600
C  2.29400 41.12300 21.17700
C  4.44800 44.00500 21.75900
C  3.90300 45.33600 22.37700
N  3.77700 42.85300 26.90300
C  4.94800 42.93100 26.22200
C  6.05400 43.00800 27.06500
C  5.50600 42.96600 28.38600
C  4.10500 42.85000 28.20000
C  7.45400 43.18000 26.62100
C  5.87300 42.95100 29.84100
O  6.98500 43.02200 30.39800
C  4.50100 42.71200 30.55600
C  4.76700 41.47100 31.36900
O  4.59300 40.33700 30.98500
O  5.21800 41.86600 32.57600
C  5.52600 40.76100 33.46300
H  -2.04900 41.51000 28.72100
H  -0.02900 41.87000 22.60100
H  5.86800 43.07700 24.26100
H  1.76400 41.70100 31.84700
H  -0.87700 42.60500 31.02800
H  -1.24700 40.64500 31.90500
H  0.35200 40.08900 31.45100
H  -0.94800 40.01300 30.21800
H  0.44400 44.24200 31.49300
H  2.13500 44.43700 31.29700
H  1.47000 44.77400 33.46200
H  2.97900 43.98300 33.32500
H  -4.42400 41.71000 26.70700
H  -3.47300 40.37900 27.60300
H  -4.00100 40.24000 25.98700
H  -4.63700 41.01700 22.60200
H  -4.56800 41.50700 24.21600
H  -4.03500 39.79200 23.86600
H  2.10800 43.27700 21.39600
H  4.67400 41.89300 22.31700
H  1.85200 41.36000 20.20900
H  1.68300 40.41200 21.73300
H  3.22900 40.59900 20.97900
H  4.23000 44.00100 20.69100
H  5.53600 43.98000 21.69200
H  3.47100 45.96100 21.59500
H  4.82000 45.78000 22.76400
H  3.16900 45.29300 23.18200
H  7.53100 42.96000 25.55600
H  8.16800 42.59100 27.19700
H  7.70400 44.23800 26.69400
H  4.33600 43.59200 31.17800
H  5.99900 41.19200 34.34500
H  6.33600 40.20200 32.99500
H  4.65000 40.12300 33.58300

