158

Mg -0.85900 7.93200 27.06900
C  0.13900 9.96700 29.83800
C  -1.10200 5.29300 29.17300
C  -1.44500 6.05300 24.33000
C  -0.47600 10.78800 25.09500
N  -0.37600 7.67700 29.31500
C  -0.20300 8.65500 30.28000
C  -0.48500 8.06100 31.66700
C  -0.74400 6.53100 31.41100
C  -0.79000 6.51300 29.87300
C  0.17600 5.45100 32.02700
C  -1.71800 8.77400 32.25500
C  -1.88600 8.80900 33.81200
H  -1.03200 7.93900 34.72600
N  -1.13000 5.90800 26.84300
C  -1.17900 4.93500 27.79200
C  -1.51800 3.66100 27.19800
C  -1.74900 3.89900 25.80100
C  -1.45200 5.33700 25.57700
C  -1.44400 2.40800 28.09600
C  -2.15500 2.96300 24.69600
O  -2.17300 3.18600 23.53700
C  -2.54000 1.50300 25.16800
N  -0.92800 8.34800 24.99100
C  -1.20200 7.45200 24.02700
C  -1.29000 8.07200 22.68000
C  -1.37400 9.59000 23.00000
C  -0.90300 9.61600 24.46400
C  -0.13200 7.67600 21.67700
C  -2.81700 10.25300 22.88400
C  -3.43600 10.47500 21.52500
N  -0.33900 9.96300 27.36400
C  -0.15100 10.98800 26.44200
C  0.33200 12.14400 27.07100
C  0.51000 11.81800 28.38900
C  0.12800 10.48600 28.47300
C  0.77400 13.33400 26.32600
C  0.98100 12.24400 29.63100
O  1.61400 13.25700 29.92300
C  0.57600 11.13200 30.65300
C  1.66300 10.71400 31.51300
O  2.58300 9.93900 31.29100
O  1.48300 11.49900 32.71700
C  2.63400 11.59100 33.61700
H  -1.38800 4.51900 29.88900
H  -1.81300 5.59400 23.41000
H  -0.32200 11.65000 24.44300
H  0.33900 8.31400 32.33400
H  -1.74500 6.32200 31.78600
H  -0.33300 4.62900 32.53200
H  0.81300 5.97400 32.74000
H  0.92700 5.05800 31.34100
H  -2.62400 8.24900 31.95400
H  -1.85000 9.79100 31.88700
H  -2.91900 8.53500 34.03100
H  -1.77500 9.85400 34.10000
H  -2.46200 2.12200 28.36300
H  -0.89800 2.63800 29.01000
H  -0.98800 1.61900 27.49800
H  -3.13400 1.70800 26.05800
H  -1.57800 1.05600 25.41900
H  -3.03700 0.94500 24.37400
H  -2.28100 7.81900 22.30200
H  -0.56600 10.17800 22.56300
H  -0.01500 8.42700 20.89600
H  -0.44300 6.71800 21.25900
H  0.79100 7.62600 22.25500
H  -2.52200 11.25600 23.19500
H  -3.50700 9.82200 23.60800
H  -3.22300 11.47500 21.14700
H  -4.51000 10.31400 21.43200
H  -3.01500 9.84400 20.74200
H  1.04100 12.99500 25.32500
H  1.63600 13.75100 26.84700
H  -0.04800 14.00500 26.07700
H  -0.26200 11.53600 31.22100
H  2.65100 12.58300 34.06900
H  3.53700 11.36200 33.05100
H  2.47500 10.91800 34.46000
Mg 16.71200 -1.17400 28.09200
C  15.46000 0.65200 30.92800
C  19.02300 -2.48400 30.16300
C  18.25700 -2.38100 25.36700
C  14.42000 0.70400 26.12900
N  17.12000 -0.91600 30.25500
C  16.50200 -0.21500 31.26600
C  17.07500 -0.54800 32.63900
C  18.44100 -1.39200 32.22600
C  18.15400 -1.64200 30.76500
C  19.79600 -0.68700 32.56100
C  16.09900 -1.30800 33.61900
C  15.74300 -0.65900 34.97300
H  16.87500 0.13800 35.71300
N  18.33800 -2.41100 27.78200
C  19.10300 -2.89000 28.78100
C  20.08400 -3.82000 28.23500
C  19.91400 -3.74700 26.81900
C  18.76000 -2.89800 26.56600
C  21.02800 -4.50700 29.04100
C  20.67000 -4.44300 25.64800
O  20.22400 -4.63200 24.52400
C  22.07300 -4.92500 25.88000
N  16.46500 -0.82700 26.14700
C  17.14600 -1.51500 25.14900
C  16.71600 -1.04600 23.76300
C  15.42800 -0.20600 23.98900
C  15.40700 -0.09900 25.48800
C  17.91600 -0.35300 23.02100
C  14.10700 -0.74400 23.35900
C  13.24200 0.02100 22.33300
N  15.17100 0.35700 28.44700
C  14.32700 1.04000 27.52400
C  13.41800 1.96400 28.22800
C  13.79000 1.77700 29.61700
C  14.91600 0.89600 29.66500
C  12.22200 2.74000 27.66100
C  13.49600 2.17900 31.00500
O  12.74700 3.01200 31.45300
C  14.56600 1.38500 31.93600
C  15.29400 2.38700 32.75500
O  16.44400 2.82900 32.53900
O  14.48100 2.82600 33.76700
C  15.10300 3.97900 34.40300
H  19.75000 -2.81400 30.90800
H  18.70200 -2.78000 24.45300
H  13.72800 1.14400 25.40800
H  17.41300 0.38300 33.09300
H  18.52400 -2.39300 32.65000
H  20.57900 -0.92100 31.84000
H  20.11200 -1.05300 33.53800
H  19.64900 0.39100 32.62500
H  16.52400 -2.29800 33.78300
H  15.31500 -1.66200 32.94900
H  15.47000 -1.43700 35.68500
H  14.91700 0.04700 34.87400
H  22.03100 -4.22700 28.71800
H  20.89700 -5.56700 28.82400
H  20.96000 -4.38300 30.12200
H  22.57100 -4.11600 26.41500
H  22.39700 -5.07400 24.85000
H  21.95500 -5.85700 26.43300
H  16.50300 -2.00300 23.28600
H  15.59300 0.82100 23.66500
H  18.89200 -0.27700 23.50100
H  17.68100 0.61100 22.56800
H  18.12300 -1.05900 22.21700
H  13.36900 -0.89800 24.14700
H  14.36400 -1.75200 23.03600
H  12.20300 -0.09300 22.64100
H  13.20600 -0.42100 21.33800
H  13.57900 1.05500 22.26400
H  11.38800 2.43800 28.29500
H  12.06000 2.47400 26.61700
H  12.48500 3.79700 27.68700
H  14.19900 0.71400 32.71300
H  15.31200 4.77900 33.69400
H  16.01800 3.73000 34.94200
H  14.34300 4.30000 35.11500

