158

Mg -10.28100 40.15200 41.91700
C  -9.21100 37.09900 40.63600
C  -7.35400 41.62000 40.54800
C  -11.63200 43.24200 42.29200
C  -13.30900 38.73200 42.82100
N  -8.49100 39.40000 40.69400
C  -8.31500 38.13200 40.34100
C  -7.05700 37.98100 39.47600
C  -6.37400 39.37000 39.64300
C  -7.44800 40.21300 40.39000
C  -4.94000 39.36700 40.03600
C  -7.45300 37.55400 38.01400
C  -6.75900 36.28900 37.46400
H  -5.46400 36.76500 36.66800
N  -9.57800 42.18500 41.47000
C  -8.32900 42.55100 41.03300
C  -8.21500 44.04800 41.18200
C  -9.38100 44.48800 41.73800
C  -10.34300 43.29400 41.75000
C  -7.01800 44.73300 40.70800
C  -9.71000 45.92700 42.09700
O  -8.88000 46.77200 41.76200
C  -11.04300 46.43600 42.72300
N  -12.27000 40.87100 42.25100
C  -12.55800 42.20000 42.53100
C  -14.01800 42.34200 42.93000
C  -14.39700 40.93800 43.50100
C  -13.28600 40.09900 42.80300
C  -14.31200 43.37500 43.97100
C  -15.88700 40.57800 43.10900
C  -16.72300 39.84300 44.25400
N  -11.03300 38.23500 41.98900
C  -12.27200 37.78600 42.30500
C  -12.45100 36.36100 42.05800
C  -11.25600 36.05100 41.35500
C  -10.47300 37.24100 41.35000
C  -13.66000 35.60200 42.22000
C  -10.48100 35.02000 40.65900
O  -10.70900 33.80200 40.57000
C  -9.12200 35.69800 40.21900
C  -8.01800 34.89600 40.91000
O  -7.47800 35.15000 41.99800
O  -7.69000 33.81200 40.14900
C  -7.03500 32.78600 40.88500
H  -6.39100 42.01500 40.21800
H  -12.13500 44.18900 42.49800
H  -14.24300 38.32900 43.21900
H  -6.23000 37.37000 39.83800
H  -6.31800 39.93600 38.71300
H  -4.63700 40.24000 40.61400
H  -4.28200 39.22300 39.17900
H  -4.86300 38.47200 40.65300
H  -7.12800 38.41800 37.43500
H  -8.52600 37.50200 37.82600
H  -7.37900 35.77700 36.72800
H  -6.51600 35.59900 38.27200
H  -6.69000 45.47100 41.44000
H  -7.42500 45.10400 39.76800
H  -6.21900 44.05100 40.41600
H  -11.80000 46.25900 41.95900
H  -10.96500 47.49700 42.96100
H  -11.24900 45.92500 43.66400
H  -14.59000 42.47600 42.01200
H  -14.19100 40.94000 44.57100
H  -14.51900 44.31100 43.45200
H  -13.41200 43.63000 44.53000
H  -15.21700 43.10300 44.51500
H  -15.94600 39.83500 42.31300
H  -16.45500 41.44300 42.76500
H  -16.77200 38.77300 44.05700
H  -17.72600 40.26500 44.31900
H  -16.25600 40.01100 45.22500
H  -14.49800 36.15300 41.79400
H  -13.69100 35.34700 43.27900
H  -13.63100 34.65200 41.68500
H  -9.11100 35.51600 39.14400
H  -7.20900 31.88700 40.29300
H  -7.41900 32.57000 41.88200
H  -5.98100 32.99100 41.07400
Mg -9.94600 17.25300 42.49200
C  -6.51400 17.39600 42.59800
C  -9.89300 20.66700 41.60200
C  -13.18100 17.12000 41.71100
C  -9.69500 13.87800 42.56100
N  -8.43000 18.84800 42.05600
C  -7.09000 18.63700 42.32400
C  -6.29400 19.92900 42.29600
C  -7.43100 20.95000 41.95600
C  -8.68600 20.13900 41.92100
C  -7.55000 22.21800 42.80200
C  -5.03400 19.92300 41.26600
C  -4.55700 21.32100 40.87700
H  -4.40000 21.65500 39.41300
N  -11.32800 18.66200 41.77200
C  -11.12200 19.99800 41.58700
C  -12.31900 20.61500 41.14200
C  -13.36900 19.71900 41.29800
C  -12.68600 18.45800 41.60600
C  -12.38100 22.14100 40.81100
C  -14.90000 20.05400 41.16900
O  -15.27300 21.21100 40.93500
C  -15.87200 18.98100 41.47400
N  -11.22100 15.67400 41.92300
C  -12.56900 15.88900 41.91700
C  -13.38200 14.53900 42.07200
C  -12.24800 13.55200 42.32600
C  -10.96900 14.41300 42.24400
C  -14.50300 14.61400 43.16000
C  -12.26300 12.17700 41.54100
C  -12.14500 10.95500 42.46800
N  -8.55500 15.89500 42.62000
C  -8.51500 14.51800 42.71400
C  -7.19600 13.98400 42.89300
C  -6.45100 15.15300 42.96700
C  -7.27700 16.23000 42.70200
C  -6.79200 12.55900 43.04900
C  -5.10500 15.51300 43.11600
O  -4.12300 14.86700 43.43000
C  -5.05900 17.04200 42.90400
C  -4.67200 17.54000 44.22500
O  -5.46100 17.81400 45.14400
O  -3.30100 17.52800 44.40400
C  -2.99400 17.83800 45.79600
H  -9.82100 21.72700 41.35000
H  -14.26800 17.02700 41.74200
H  -9.71300 12.83400 42.88200
H  -5.89500 19.99900 43.30800
H  -7.33200 21.22800 40.90700
H  -6.90400 22.33300 43.67200
H  -8.54100 22.32800 43.24100
H  -7.26200 23.02400 42.12700
H  -5.24000 19.19700 40.47900
H  -4.17200 19.61800 41.85900
H  -3.52700 21.42300 41.21700
H  -5.00200 22.07800 41.52200
H  -11.97400 22.58300 41.72100
H  -13.39800 22.46100 40.58400
H  -11.83600 22.38200 39.89900
H  -15.79100 18.08600 40.85700
H  -16.82800 19.44600 41.23500
H  -15.75500 18.56700 42.47500
H  -13.80600 14.40200 41.07800
H  -12.29400 13.26900 43.37800
H  -14.49500 13.61400 43.59400
H  -15.40200 14.70700 42.55000
H  -14.48400 15.37400 43.94100
H  -11.33200 12.17200 40.97500
H  -13.16300 12.10300 40.93100
H  -13.10600 10.46700 42.62500
H  -11.68800 11.29000 43.40000
H  -11.43500 10.25700 42.02500
H  -6.03400 12.16900 42.37000
H  -7.57300 11.82300 42.85900
H  -6.42300 12.39500 44.06200
H  -4.36100 17.23200 42.08800
H  -3.42300 17.03100 46.39000
H  -3.54700 18.73900 46.06200
H  -1.91600 17.84200 45.95600

