158

Mg 44.39800 4.72400 46.47800
C  42.02900 7.18500 46.02000
C  41.89900 2.35400 46.21600
C  46.73200 2.23700 46.35600
C  46.95100 7.15500 46.07100
N  42.19700 4.77300 46.04000
C  41.46400 5.93800 45.97700
C  39.98400 5.56300 45.97300
C  39.96600 4.06300 46.11400
C  41.44300 3.68400 46.09200
C  39.20200 3.70500 47.46500
C  39.27500 6.08900 44.76300
C  40.10000 6.02200 43.41100
H  39.18900 5.84000 42.17200
N  44.38400 2.58500 46.39300
C  43.21600 1.83000 46.33800
C  43.55000 0.41500 46.29300
C  44.96100 0.37300 46.54100
C  45.43900 1.79000 46.47600
C  42.50100 -0.72900 46.19600
C  45.76300 -0.91800 46.85100
O  45.23800 -1.98800 47.04800
C  47.21600 -0.94200 46.84600
N  46.55000 4.69000 46.01700
C  47.26200 3.55600 46.26600
C  48.72900 3.87500 46.12900
C  48.81200 5.39200 46.07900
C  47.35300 5.82300 45.92300
C  49.53900 3.25500 47.37100
C  49.68300 5.94400 44.89300
C  51.19600 5.85600 45.03300
N  44.55000 6.76800 46.22900
C  45.59900 7.62200 46.16400
C  45.12500 8.96600 46.18800
C  43.73100 8.85700 46.10700
C  43.46100 7.47700 46.16400
C  45.86800 10.24100 46.12800
C  42.48600 9.58800 45.91600
O  42.30400 10.77000 45.88800
C  41.35700 8.55700 45.94100
C  40.53200 8.86500 47.09500
O  40.78400 8.41400 48.20400
O  39.38100 9.51100 46.76800
C  38.47800 9.81100 47.92400
H  41.06200 1.66000 46.31500
H  47.52700 1.49000 46.39700
H  47.82800 7.79200 46.20200
H  39.48700 5.97600 46.85100
H  39.41800 3.61500 45.28500
H  38.47900 4.48500 47.70300
H  39.79500 3.73200 48.37900
H  38.70100 2.75100 47.29800
H  38.80100 7.03900 45.00800
H  38.38600 5.49300 44.55700
H  40.86300 5.24700 43.34900
H  40.65300 6.95800 43.32500
H  41.46500 -0.39400 46.14100
H  42.49300 -1.41100 47.04600
H  42.62900 -1.24400 45.24300
H  47.64900 -0.29300 47.60800
H  47.54900 -0.71700 45.83300
H  47.61700 -1.90100 47.17500
H  49.12900 3.30400 45.29100
H  49.11300 5.99300 46.93700
H  48.78300 2.96700 48.10300
H  50.03900 4.14200 47.75900
H  50.18500 2.42700 47.08000
H  49.58700 7.02600 44.80500
H  49.50400 5.20100 44.11600
H  51.55300 6.88500 44.99300
H  51.65100 5.26100 44.24100
H  51.48500 5.44200 45.99900
H  46.64800 10.10000 45.37900
H  46.24500 10.68500 47.04900
H  45.27500 11.03800 45.68000
H  40.75000 8.64200 45.03900
H  38.29900 8.84800 48.40200
H  37.55400 10.26800 47.56900
H  39.05800 10.46400 48.57600
Mg 39.73500 10.23200 30.62300
C  42.25400 11.77700 32.53100
C  38.10200 9.58800 33.48600
C  37.48900 8.78200 28.56200
C  41.95500 10.65300 27.83400
N  40.26600 10.39600 32.77800
C  41.22800 11.25900 33.25400
C  40.93000 11.46400 34.75000
C  39.73200 10.56100 35.09000
C  39.30700 10.23500 33.69200
C  39.84200 9.36100 36.07100
C  40.79000 12.94300 35.20200
C  41.44500 13.36300 36.53000
H  40.56300 14.02000 37.50000
N  38.07000 9.21300 30.99700
C  37.45300 9.14000 32.22100
C  36.30000 8.30500 32.07300
C  36.02400 8.13900 30.65900
C  37.24400 8.71300 30.01100
C  35.42900 7.90500 33.22200
C  34.80200 7.56600 29.91200
O  34.70600 7.62000 28.71300
C  33.80500 6.87400 30.68900
N  39.76100 9.74900 28.49400
C  38.62800 9.20200 27.94700
C  38.73900 9.35700 26.40700
C  40.21200 9.91000 26.14000
C  40.63100 10.22500 27.51200
C  38.44300 8.03100 25.56900
C  40.41800 11.04800 25.06300
C  41.75500 10.98500 24.21500
N  41.64000 11.09600 30.18200
C  42.36700 11.17600 29.03600
C  43.58500 11.83900 29.28800
C  43.61500 12.11600 30.63400
C  42.40100 11.61200 31.12700
C  44.66800 12.29000 28.26000
C  44.37000 12.71100 31.68400
O  45.48100 13.28100 31.61100
C  43.49800 12.53700 32.94400
C  44.20800 11.88300 34.04600
O  44.35600 10.72800 34.39000
O  44.63000 12.98500 34.85600
C  45.17200 12.54400 36.12500
H  37.49800 9.42000 34.38000
H  36.72800 8.38800 27.88400
H  42.62700 10.74300 26.97800
H  41.77800 10.99900 35.25300
H  38.96600 11.19400 35.53800
H  39.35400 9.50400 37.03500
H  40.91400 9.16800 36.07300
H  39.43300 8.48000 35.57600
H  39.77000 13.28500 35.37800
H  41.04800 13.51600 34.31200
H  42.40600 13.87400 36.46200
H  41.72000 12.39100 36.94000
H  35.80800 8.16600 34.21000
H  35.19700 6.84200 33.28800
H  34.52600 8.50700 33.11600
H  33.20700 7.63300 31.19200
H  34.27600 6.16100 31.36600
H  33.13400 6.45600 29.94000
H  38.06100 10.15300 26.09900
H  40.83200 9.08100 25.80000
H  39.34600 7.75700 25.02400
H  37.69600 8.23900 24.80300
H  38.19600 7.23200 26.26800
H  40.19700 11.93000 25.66400
H  39.60400 10.89400 24.35500
H  42.42900 11.77300 24.55100
H  41.51900 10.97100 23.15100
H  42.43500 10.13400 24.27500
H  45.36700 13.02400 28.66000
H  44.09200 12.75100 27.45800
H  45.24300 11.42200 27.93500
H  43.14800 13.49300 33.33200
H  46.04700 11.89400 36.11900
H  44.38300 11.95700 36.59400
H  45.46600 13.36400 36.78100

