158

Mg 40.89500 9.36400 29.91100
C  42.82200 10.61500 32.51700
C  38.52900 8.43400 32.02200
C  39.31000 8.07800 27.14700
C  43.57200 10.36200 27.71700
N  40.72300 9.50500 31.98200
C  41.57400 10.14800 32.90000
C  41.04100 10.00200 34.37300
C  39.66000 9.33600 34.17800
C  39.61200 9.05800 32.65800
C  39.39300 8.03400 35.03200
C  40.98400 11.44200 35.06900
C  40.07700 11.55000 36.30400
H  40.64900 12.49000 37.40500
N  39.16500 8.33000 29.64000
C  38.27300 8.14200 30.60500
C  37.07800 7.54200 30.04100
C  37.26800 7.54600 28.64800
C  38.63000 7.97500 28.44400
C  35.84000 7.21300 30.88900
C  36.36000 7.05600 27.51800
O  36.58500 7.14500 26.34700
C  35.00300 6.57600 27.77400
N  41.43600 8.98000 27.74700
C  40.61900 8.53000 26.85600
C  41.29200 8.40100 25.48400
C  42.50900 9.43300 25.65500
C  42.56300 9.55000 27.14500
C  41.60700 6.96300 25.00900
C  42.23500 10.76100 24.88400
C  41.76200 12.03700 25.71900
N  42.89300 10.25300 30.04900
C  43.80600 10.65000 29.07100
C  44.93500 11.31500 29.67800
C  44.54500 11.34700 31.01600
C  43.28000 10.65200 31.18600
C  46.09700 11.81500 28.91700
C  44.94200 11.95000 32.31900
O  45.78300 12.72300 32.62700
C  43.89800 11.38000 33.30900
C  44.67500 10.51500 34.21700
O  45.63500 9.83600 33.86200
O  44.11200 10.46000 35.41700
C  44.50500 9.48900 36.49000
H  37.66400 8.42500 32.68900
H  38.80200 7.52600 26.35300
H  44.34400 10.78300 27.06900
H  41.69200 9.31900 34.91900
H  38.88100 10.03500 34.48300
H  40.24500 7.81300 35.67600
H  39.47400 7.25300 34.27600
H  38.44900 8.07500 35.57500
H  40.51100 12.00000 34.26100
H  41.98000 11.81300 35.31100
H  39.93600 10.54800 36.70800
H  39.15900 11.98900 35.91300
H  35.88500 7.56700 31.91900
H  35.79500 6.12500 30.94400
H  34.89900 7.60000 30.49800
H  34.46200 7.43100 28.17700
H  35.27900 5.80500 28.49400
H  34.76300 6.14500 26.80200
H  40.42800 8.76800 24.93000
H  43.45300 9.04100 25.27700
H  42.64700 6.99900 24.68400
H  40.93700 6.59700 24.23100
H  41.50800 6.33100 25.89200
H  41.37800 10.52200 24.25500
H  43.14500 11.02400 24.34300
H  41.86200 11.96200 26.80200
H  40.71300 12.16600 25.45200
H  42.39700 12.84700 25.35900
H  46.85100 12.12900 29.63800
H  45.90800 12.67900 28.28000
H  46.60200 11.06800 28.30500
H  43.44200 12.24200 33.79600
H  43.64500 8.90300 36.81400
H  44.86900 10.03400 37.36100
H  45.12900 8.68000 36.11000
Mg 42.76800 41.57500 26.90200
C  41.77700 43.71000 29.53100
C  43.76000 39.32300 29.29800
C  43.83600 39.49700 24.47000
C  41.98700 44.05300 24.60800
N  42.76500 41.51900 29.11800
C  42.11000 42.46100 29.97700
C  42.18200 41.98100 31.43800
C  42.93300 40.60000 31.29100
C  43.17300 40.47100 29.84900
C  44.33600 40.45700 32.08300
C  40.79700 41.87300 32.11200
C  40.58200 42.63900 33.51600
H  40.23400 41.88100 34.76600
N  43.68900 39.68700 26.88500
C  44.00000 38.95900 27.95000
C  44.67700 37.79300 27.55100
C  44.55300 37.74200 26.13800
C  43.97100 39.00800 25.75300
C  45.25800 36.73800 28.54400
C  44.90400 36.62200 25.15000
O  44.60400 36.60600 23.92000
C  45.43200 35.40100 25.68500
N  43.15500 41.81200 24.85900
C  43.46200 40.79600 24.09200
C  43.31200 41.15800 22.56900
C  42.62000 42.59900 22.59300
C  42.57700 42.84200 24.09000
C  44.67000 41.04700 21.75100
C  41.28700 42.49800 21.86900
C  40.70100 43.74600 21.29700
N  42.12400 43.55800 26.97100
C  41.85700 44.45000 25.97000
C  41.42600 45.68000 26.53400
C  41.44300 45.39000 27.94100
C  41.73000 44.07800 28.12700
C  41.02500 46.92500 25.74800
C  41.07000 46.02900 29.22400
O  40.62900 47.13700 29.40100
C  41.32700 44.98500 30.30900
C  42.24400 45.47200 31.36600
O  43.43700 45.65200 31.21100
O  41.58900 45.68800 32.56400
C  42.45500 45.97400 33.71000
H  43.98900 38.54100 30.02500
H  44.10200 38.85500 23.62700
H  41.71200 44.85500 23.92000
H  42.75500 42.69100 32.03400
H  42.36100 39.73000 31.61400
H  45.20200 40.29900 31.44000
H  44.23200 39.59800 32.74700
H  44.55000 41.17300 32.87600
H  40.40100 40.86100 32.19800
H  40.05200 42.37600 31.49500
H  39.73100 43.32000 33.54900
H  41.44000 43.22400 33.85000
H  44.71700 35.79300 28.58600
H  45.39300 37.10100 29.56300
H  46.27300 36.54800 28.19400
H  44.65600 35.17100 26.41400
H  46.38500 35.58700 26.18100
H  45.52500 34.55000 25.01000
H  42.52600 40.47600 22.24600
H  43.26600 43.32300 22.09800
H  44.51200 40.18900 21.09800
H  45.52700 40.88800 22.40500
H  44.96100 41.91400 21.15800
H  40.55300 42.23600 22.63200
H  41.26600 41.71700 21.10900
H  39.83500 44.12500 21.83900
H  40.41400 43.51400 20.27200
H  41.47600 44.50200 21.16600
H  41.82000 47.66600 25.83400
H  40.23200 47.40900 26.31900
H  40.61300 46.66400 24.77300
H  40.39500 44.82400 30.85100
H  43.41300 46.49300 33.66700
H  42.63500 45.07800 34.30500
H  41.99800 46.69300 34.39000

