158

Mg -2.14300 17.19200 27.55400
C  -2.22900 15.15000 30.26500
C  -2.60500 19.94800 29.52400
C  -2.41200 19.21800 24.71000
C  -2.12100 14.42900 25.41400
N  -2.40500 17.47400 29.63300
C  -2.29300 16.50300 30.60200
C  -2.36300 17.21000 32.00200
C  -2.72500 18.68900 31.73100
C  -2.57700 18.71000 30.22100
C  -3.86900 19.26400 32.46800
C  -0.91400 17.09100 32.78500
C  -0.58200 18.03000 34.02000
H  0.32400 17.52000 35.11300
N  -2.29700 19.33500 27.19700
C  -2.48100 20.26400 28.13500
C  -2.40400 21.60000 27.53200
C  -2.32800 21.38300 26.12300
C  -2.35600 19.95100 25.94500
C  -2.40200 22.88600 28.28600
C  -2.21800 22.49100 25.00000
O  -2.34200 22.20800 23.81300
C  -2.14900 23.99300 25.40600
N  -2.38400 16.82200 25.49900
C  -2.51700 17.79300 24.51200
C  -2.58800 17.20500 23.03400
C  -1.95400 15.81000 23.30900
C  -2.12300 15.66800 24.84800
C  -3.92800 17.23200 22.24800
C  -0.49500 15.76700 22.81100
C  0.59500 16.67200 23.33600
N  -2.14900 15.18500 27.74000
C  -2.17600 14.15700 26.81800
C  -2.35100 12.88100 27.47700
C  -2.32100 13.19000 28.85900
C  -2.19300 14.57500 28.92500
C  -2.40500 11.51000 26.79700
C  -2.31600 12.69400 30.19800
O  -2.39000 11.53500 30.56900
C  -2.23700 13.89600 31.11000
C  -1.13200 13.79600 32.09700
O  0.06700 14.04500 31.94300
O  -1.57500 13.32600 33.28000
C  -0.67200 13.27600 34.45400
H  -2.58900 20.86300 30.12000
H  -2.41600 19.83300 23.80700
H  -2.21500 13.57100 24.74400
H  -3.19700 16.84800 32.60200
H  -1.94200 19.39600 32.00300
H  -3.55800 20.09800 33.09800
H  -4.23100 18.50500 33.16100
H  -4.59000 19.61700 31.73100
H  -0.18500 17.32700 32.01000
H  -0.69100 16.07900 33.12300
H  -1.51100 18.33300 34.50300
H  -0.06900 18.93100 33.68100
H  -2.42600 22.74200 29.36600
H  -3.33800 23.32900 27.94600
H  -1.53100 23.50600 28.07200
H  -2.25000 24.57800 24.49200
H  -1.20100 24.17800 25.91000
H  -3.03900 24.31600 25.94600
H  -1.83700 17.72900 22.44400
H  -2.49000 15.00400 22.80900
H  -4.64900 17.91600 22.69600
H  -4.34200 16.22700 22.16000
H  -3.76000 17.73100 21.29400
H  -0.67300 15.93700 21.74900
H  -0.21800 14.74300 23.06000
H  1.19800 16.10200 24.04200
H  0.18400 17.56000 23.81500
H  1.26900 17.09800 22.59300
H  -1.54400 11.44200 26.13300
H  -3.33700 11.45500 26.23400
H  -2.52800 10.84100 27.64900
H  -3.11000 13.94600 31.76100
H  -0.42700 14.26100 34.85100
H  0.24900 12.83400 34.07400
H  -1.11100 12.65900 35.23800
Mg 6.70100 56.63600 40.98300
C  5.50400 53.53900 40.96900
C  9.60400 55.59600 39.41100
C  7.54600 59.90700 40.25500
C  3.64700 57.78200 42.39900
N  7.50900 54.79000 40.42500
C  6.81700 53.57600 40.45200
C  7.61600 52.45600 39.86400
C  9.04600 53.06700 39.84900
C  8.73100 54.58200 39.86600
C  10.01700 52.72100 41.14200
C  7.04600 52.09500 38.41900
C  7.43400 50.66100 38.06400
H  7.61600 50.31500 36.52800
N  8.34200 57.61000 39.98600
C  9.48600 56.99700 39.46800
C  10.32900 57.94700 38.85400
C  9.80900 59.25100 39.17400
C  8.49300 58.95200 39.80300
C  11.62300 57.62300 38.19100
C  10.47900 60.63900 39.01500
O  11.53600 60.74400 38.40900
C  9.89500 61.88500 39.52200
N  5.57600 58.50200 41.09100
C  6.27300 59.73500 40.87200
C  5.45300 60.95300 41.27500
C  4.18500 60.25800 41.94900
C  4.46100 58.75400 41.79600
C  6.17700 62.07100 42.10800
C  2.84000 60.79600 41.46300
C  1.76800 60.94900 42.67200
N  4.93600 55.79800 41.71800
C  3.82500 56.37400 42.23400
C  2.89600 55.38300 42.63900
C  3.56600 54.20200 42.24000
C  4.70000 54.54400 41.53700
C  1.50300 55.63300 43.19000
C  3.48200 52.72400 42.11800
O  2.57800 51.94100 42.47000
C  4.68800 52.25100 41.26200
C  4.18700 51.64600 40.04900
O  3.40000 52.18500 39.34200
O  4.64800 50.40300 39.89300
C  4.09700 49.82500 38.68200
H  10.47900 55.11900 38.96400
H  7.77900 60.95500 40.05200
H  2.76800 58.22900 42.86700
H  7.48200 51.53500 40.43100
H  9.53800 52.80700 38.91100
H  9.59000 51.85900 41.65500
H  10.15000 53.58800 41.78800
H  11.00800 52.57600 40.71300
H  7.45600 52.73600 37.63800
H  5.95900 52.17300 38.41000
H  6.64800 49.99400 38.41900
H  8.32200 50.31100 38.59000
H  12.48900 58.16200 38.57500
H  11.55600 58.01400 37.17600
H  11.77200 56.55200 38.06200
H  9.54800 61.79800 40.55100
H  9.07100 62.14900 38.85800
H  10.65300 62.66800 39.48900
H  5.16500 61.40700 40.32700
H  4.36100 60.38600 43.01700
H  7.22800 61.89500 42.33500
H  5.62700 62.24500 43.03400
H  6.10800 63.05800 41.65100
H  2.47000 60.14900 40.66800
H  2.83200 61.80900 41.06000
H  1.42300 61.95500 42.91000
H  2.18200 60.51600 43.58300
H  0.92900 60.27300 42.50600
H  1.00500 56.42500 42.63000
H  1.52100 55.97600 44.22400
H  0.91000 54.71800 43.18200
H  5.35600 51.49600 41.67600
H  4.64300 48.89400 38.52800
H  4.17500 50.43000 37.77900
H  3.05000 49.60000 38.88500

