158

Mg 41.75900 9.11100 29.63600
C  43.77600 10.17400 32.27600
C  39.50200 7.83100 32.01000
C  39.98700 7.74200 27.06800
C  44.30900 9.91000 27.41900
N  41.75200 8.76600 31.94000
C  42.51600 9.61600 32.73800
C  41.98000 9.65600 34.21400
C  40.84200 8.52500 34.16000
C  40.62800 8.37900 32.66100
C  41.22500 7.24900 34.95900
C  41.67400 11.18100 34.67800
C  40.92400 11.33300 35.99600
H  41.61700 11.91400 37.23200
N  39.92100 8.05600 29.52800
C  39.16700 7.57000 30.62200
C  38.09900 6.78700 30.08500
C  38.08600 7.01600 28.64200
C  39.36300 7.68500 28.34300
C  37.18200 5.91800 30.97500
C  37.03500 6.72600 27.71100
O  37.12500 6.83200 26.48400
C  35.69100 6.27600 28.16500
N  42.18800 8.76300 27.61700
C  41.28000 8.15800 26.78500
C  41.78900 8.02200 25.28900
C  43.15200 8.77900 25.34400
C  43.23800 9.15800 26.88500
C  41.90100 6.46900 24.83800
C  43.31200 9.98900 24.37800
C  42.54400 11.30700 24.52600
N  43.65500 9.89400 29.77400
C  44.51200 10.25200 28.74500
C  45.67400 10.87200 29.35100
C  45.39000 10.90900 30.74500
C  44.14400 10.26200 30.96900
C  46.95400 11.26800 28.67000
C  45.86800 11.44500 32.04600
O  46.85200 12.11600 32.37300
C  44.78500 10.97800 33.07900
C  45.33900 10.22200 34.21000
O  45.91600 9.15600 34.19400
O  45.28600 10.97200 35.35600
C  46.01600 10.50500 36.49000
H  38.64300 7.60200 32.64400
H  39.38700 7.24400 26.30300
H  45.11100 10.19400 26.73400
H  42.70500 9.21900 34.90000
H  39.92200 9.00200 34.49700
H  42.08100 7.43800 35.60800
H  41.57800 6.38900 34.39000
H  40.39400 6.87000 35.55300
H  41.05300 11.52600 33.85200
H  42.53000 11.85300 34.72200
H  40.50600 10.36300 36.26700
H  40.04300 11.92900 35.75700
H  37.75300 5.45700 31.78100
H  36.77300 5.12100 30.35500
H  36.31400 6.35900 31.46600
H  35.39700 6.79800 29.07500
H  35.78600 5.22800 28.45200
H  34.98900 6.44000 27.34700
H  41.11600 8.49800 24.57700
H  43.95800 8.08600 25.10100
H  42.93800 6.17000 24.68800
H  41.20400 6.35100 24.00800
H  41.57200 5.74200 25.58200
H  42.88000 9.54600 23.48000
H  44.34500 10.32100 24.28100
H  41.92300 11.31200 25.42200
H  41.87100 11.44800 23.68000
H  43.21700 12.15900 24.62000
H  47.75200 10.74000 29.19200
H  47.19600 12.32100 28.81400
H  47.10900 10.87600 27.66400
H  44.33900 11.87500 33.50800
H  46.97200 10.04600 36.23800
H  45.40100 9.84100 37.09600
H  46.07000 11.44200 37.04400
Mg 16.85100 52.74000 26.97100
C  18.98200 51.25000 29.32400
C  14.61300 53.38000 29.65500
C  14.83600 54.24200 24.89200
C  18.98300 51.85200 24.50400
N  16.79300 52.32900 29.22800
C  17.82200 51.76700 29.94500
C  17.57600 51.91800 31.46700
C  16.01700 52.12100 31.43000
C  15.73200 52.63900 30.03800
C  15.11200 50.87900 31.74100
C  18.30100 53.07800 32.08800
C  18.78700 52.81600 33.51200
H  17.74300 52.24900 34.48300
N  15.01900 53.74400 27.23700
C  14.30900 53.93100 28.44300
C  13.19900 54.81400 28.16200
C  13.30200 55.23100 26.79300
C  14.39500 54.37000 26.24000
C  12.22300 55.20600 29.24000
C  12.60400 56.40900 26.00500
O  12.69900 56.66800 24.79400
C  11.59500 57.20000 26.67900
N  16.81600 52.81700 24.90700
C  15.88500 53.52800 24.27500
C  16.03600 53.27500 22.68200
C  17.46900 52.70400 22.58800
C  17.76300 52.34600 24.06900
C  14.86000 52.39900 22.05700
C  18.45500 53.80300 22.04000
C  18.78800 54.99600 22.91500
N  18.68100 51.61800 26.87400
C  19.42600 51.34000 25.78800
C  20.61700 50.66100 26.16600
C  20.52400 50.61500 27.60500
C  19.31700 51.21200 27.95500
C  21.73900 50.07400 25.25700
C  21.12000 50.15100 28.83500
O  22.16700 49.56000 29.09600
C  20.18200 50.64700 29.98300
C  19.84100 49.50400 30.85300
O  19.09900 48.60000 30.62200
O  20.56200 49.63500 32.02700
C  20.48700 48.48800 33.01800
H  13.95600 53.48600 30.52000
H  14.08900 54.69100 24.23400
H  19.56700 51.59200 23.61900
H  17.72700 50.96300 31.97000
H  15.68600 52.91800 32.09600
H  14.55200 50.87200 32.67700
H  15.61000 49.91100 31.79600
H  14.40100 50.69400 30.93600
H  17.59700 53.91000 32.10200
H  19.09700 53.30900 31.38000
H  19.17900 53.67800 34.05100
H  19.57800 52.08400 33.34400
H  11.31100 54.98100 28.68700
H  12.23600 56.25300 29.54300
H  12.30800 54.47900 30.04700
H  10.92400 57.77000 26.03600
H  12.17900 57.84700 27.33400
H  10.99700 56.54800 27.31500
H  16.12200 54.26200 22.22600
H  17.47200 51.78800 21.99800
H  14.42500 52.83500 21.15800
H  14.15700 52.21800 22.87000
H  15.22500 51.43100 21.71400
H  17.97800 54.25200 21.16800
H  19.35900 53.38700 21.59500
H  19.34400 55.69400 22.28900
H  19.47000 54.64700 23.69000
H  17.95600 55.49600 23.41200
H  22.63700 49.82400 25.82300
H  22.03000 50.92200 24.63700
H  21.45200 49.29700 24.54900
H  20.78100 51.29100 30.62600
H  21.34500 48.59300 33.68100
H  20.46000 47.53400 32.49200
H  19.57800 48.49200 33.62000

