158

Mg 46.96800 44.75700 41.72600
C  43.63500 43.83100 42.49400
C  47.66200 41.35300 41.53800
C  49.85000 45.48300 40.28500
C  45.92300 48.18700 41.51600
N  45.79600 42.85200 42.09000
C  44.45900 42.78300 42.27700
C  43.93700 41.37400 42.24200
C  45.28500 40.50800 42.24200
C  46.35200 41.62900 41.94700
C  45.52100 39.78600 43.58700
C  43.03800 40.88800 41.04900
C  43.00800 41.71100 39.71700
H  42.89200 40.91700 38.43200
N  48.55600 43.54500 40.95800
C  48.67400 42.22400 41.04000
C  50.03600 41.85900 40.71500
C  50.61100 43.03900 40.19200
C  49.62200 44.07300 40.40900
C  50.62800 40.54700 40.75000
C  51.96400 43.14300 39.50400
O  52.71900 42.17000 39.29000
C  52.41500 44.38200 38.81400
N  47.71700 46.50900 40.93500
C  49.00100 46.58700 40.55300
C  49.56800 47.97800 40.52800
C  48.22900 48.87800 40.62200
C  47.23300 47.83300 41.12900
C  50.64100 48.20400 41.63800
C  47.85800 49.57000 39.34500
C  48.43000 50.96900 38.98000
N  45.17600 45.88200 42.11600
C  44.92000 47.21800 41.93600
C  43.47700 47.43200 42.35500
C  42.92900 46.13200 42.50700
C  43.97400 45.22600 42.46300
C  42.79400 48.73800 42.43800
C  41.66200 45.39000 42.65900
O  40.47300 45.83400 42.72200
C  42.09100 43.81900 42.81300
C  41.75400 43.35600 44.18600
O  42.13400 43.79800 45.23800
O  40.91100 42.24300 44.02300
C  40.48400 41.72100 45.29300
H  47.95200 40.30000 41.54100
H  50.83100 45.86900 40.00300
H  45.65000 49.24300 41.44800
H  43.48400 41.20900 43.22000
H  45.43900 39.79700 41.43000
H  46.37300 39.12300 43.43300
H  44.63600 39.22800 43.89200
H  45.90800 40.41500 44.38900
H  42.03300 40.71700 41.43300
H  43.28700 39.93300 40.58700
H  43.84100 42.40600 39.61300
H  42.09600 42.30900 39.74000
H  50.57300 40.03700 39.78900
H  50.16100 39.85900 41.45500
H  51.64700 40.64000 41.12800
H  51.67500 44.90900 38.21200
H  53.17300 44.19800 38.05300
H  52.73700 45.01500 39.64200
H  49.95600 48.13100 39.52200
H  48.24500 49.63500 41.40700
H  50.89200 47.23800 42.07700
H  50.24100 48.85800 42.41200
H  51.57800 48.67000 41.33400
H  46.77200 49.66200 39.34200
H  48.06000 48.92100 38.49300
H  49.02800 51.29600 39.83100
H  47.54200 51.59600 39.06000
H  49.04300 50.90000 38.08200
H  41.99500 48.81900 41.70100
H  43.46300 49.55200 42.15700
H  42.41800 48.89400 43.44900
H  41.46400 43.26300 42.11600
H  40.13800 42.50500 45.96600
H  41.29800 41.09700 45.66200
H  39.61700 41.06400 45.23500
Mg -11.57800 16.94300 42.56700
C  -8.17400 17.26200 42.60100
C  -11.77000 20.39200 41.92300
C  -14.87000 16.65800 41.95600
C  -11.14200 13.43900 42.35600
N  -10.07800 18.66200 42.32400
C  -8.76000 18.50900 42.43500
C  -8.11300 19.93400 42.23700
C  -9.26500 20.86800 42.27700
C  -10.48400 19.95300 42.21700
C  -9.35900 21.83000 43.49200
C  -7.25000 19.93200 40.96100
C  -5.90100 20.64100 41.10000
H  -5.40400 21.44000 39.88100
N  -13.05200 18.32000 42.18000
C  -12.94000 19.68400 42.02500
C  -14.26300 20.28900 41.82400
C  -15.18000 19.22400 41.87000
C  -14.38100 17.99500 42.05400
C  -14.58800 21.75800 41.78000
C  -16.70500 19.41500 41.85300
O  -17.26200 20.48300 41.63100
C  -17.57400 18.21900 41.95300
N  -12.81700 15.22100 42.20300
C  -14.16900 15.41500 42.08800
C  -14.87800 14.07100 42.13100
C  -13.67000 13.09400 41.95900
C  -12.44800 13.96400 42.22200
C  -16.00400 13.86200 43.29100
C  -13.57700 12.43900 40.50700
C  -13.73500 10.88700 40.48100
N  -10.05700 15.60100 42.56400
C  -10.03600 14.20900 42.50200
C  -8.62100 13.73300 42.70200
C  -7.90900 14.97900 42.73900
C  -8.83300 16.00600 42.66700
C  -8.21000 12.35300 42.62400
C  -6.53100 15.43200 42.87000
O  -5.44500 14.88600 43.02000
C  -6.71000 17.01400 42.95100
C  -6.33800 17.49200 44.35600
O  -6.98900 17.32100 45.38500
O  -5.08100 18.17100 44.27000
C  -4.61800 18.91100 45.44300
H  -11.89500 21.44900 41.67800
H  -15.89900 16.53400 41.61200
H  -10.90700 12.37300 42.37600
H  -7.38500 20.00700 43.04500
H  -9.27500 21.50500 41.39300
H  -9.95500 22.69500 43.20000
H  -8.35300 22.11600 43.79900
H  -9.95600 21.39000 44.29100
H  -7.88500 20.33000 40.17000
H  -6.94100 18.89700 40.81700
H  -5.10800 19.92800 41.32400
H  -5.81500 21.38900 41.88900
H  -15.22200 21.94900 40.91400
H  -13.72900 22.34800 41.46300
H  -14.94700 22.10700 42.74800
H  -18.59400 18.60200 41.93400
H  -17.43800 17.72000 42.91300
H  -17.52700 17.60300 41.05500
H  -15.53800 14.09600 41.26400
H  -13.59200 12.31400 42.71600
H  -16.31700 14.84400 43.64600
H  -15.61900 13.26800 44.12000
H  -16.84600 13.26900 42.93400
H  -12.60700 12.79400 40.16000
H  -14.40700 12.84000 39.92500
H  -14.28700 10.43200 41.30200
H  -12.88500 10.24800 40.23800
H  -14.33900 10.58400 39.62600
H  -8.80100 11.79100 41.90100
H  -8.21700 11.84100 43.58600
H  -7.22900 12.38000 42.15100
H  -5.94700 17.34500 42.24800
H  -5.11400 18.42500 46.28300
H  -4.76000 19.99100 45.46100
H  -3.55300 18.79000 45.64000

