158

Mg 26.01900 0.15100 29.48900
C  27.65500 -0.15500 32.54200
C  23.07100 0.48400 31.43200
C  24.08100 -0.04600 26.67300
C  28.85500 -0.58100 27.81100
N  25.47200 0.31400 31.71000
C  26.32400 0.12600 32.77800
C  25.64200 0.50700 34.14600
C  24.11600 0.59000 33.79000
C  24.18300 0.55000 32.22200
C  23.12500 -0.42000 34.39500
C  26.25200 1.78800 34.73200
C  27.03400 1.63500 36.14100
H  26.54600 2.60700 37.24800
N  23.83500 0.33400 29.09200
C  22.85400 0.51000 30.03300
C  21.54900 0.55000 29.29700
C  21.81600 0.47000 27.85200
C  23.25300 0.24300 27.79700
C  20.24100 0.68000 30.02200
C  20.89600 0.58900 26.64700
O  21.33000 0.38100 25.53700
C  19.50400 1.02300 26.84800
N  26.37300 -0.22000 27.56800
C  25.50600 -0.20100 26.53100
C  26.22900 -0.11100 25.20100
C  27.75900 -0.26800 25.66400
C  27.71100 -0.25200 27.13800
C  25.74600 -1.14300 24.11500
C  28.68600 0.77500 25.01200
C  29.50800 0.24400 23.96800
N  27.93600 -0.26000 30.01600
C  29.02600 -0.63100 29.22500
C  30.18100 -0.75400 30.09600
C  29.64900 -0.55100 31.39600
C  28.30200 -0.27200 31.28800
C  31.64500 -1.18300 29.67800
C  29.99600 -0.52400 32.84300
O  31.04800 -0.62300 33.46500
C  28.71900 -0.23500 33.64200
C  28.62400 -1.45200 34.62400
O  28.34100 -2.57600 34.29900
O  28.94400 -1.03900 35.88100
C  29.47400 -2.02700 36.86300
H  22.17700 0.70000 32.02000
H  23.62700 -0.13800 25.68500
H  29.80100 -0.77400 27.30100
H  25.83500 -0.24400 34.91100
H  23.71900 1.56800 34.06000
H  22.35000 0.01200 35.02800
H  23.75600 -1.13000 34.92900
H  22.67800 -1.12200 33.69100
H  25.43800 2.50100 34.86300
H  26.92700 2.27900 34.03100
H  28.11300 1.76400 36.06000
H  26.96200 0.58900 36.43800
H  20.32100 0.29000 31.03700
H  19.46000 0.12600 29.50100
H  19.98100 1.73300 30.13500
H  19.10500 1.45700 25.93200
H  19.46700 1.76100 27.64900
H  18.95600 0.11600 27.10200
H  26.14400 0.95100 24.96800
H  27.95500 -1.30500 25.39000
H  26.44600 -1.96600 23.97100
H  25.52900 -0.75800 23.11800
H  24.75700 -1.44400 24.46000
H  29.27500 1.28300 25.77500
H  28.03500 1.49600 24.51900
H  29.49300 0.72600 22.99100
H  29.29700 -0.77700 23.65100
H  30.54200 0.24300 24.31400
H  32.33200 -0.50600 30.18600
H  31.79800 -0.91300 28.63300
H  31.82500 -2.23800 29.88100
H  28.80200 0.74100 34.11800
H  29.05000 -1.83300 37.84800
H  30.54700 -1.93100 37.02900
H  29.21000 -3.03100 36.53300
Mg 46.72000 25.06300 28.27600
C  47.42100 27.26400 30.83400
C  45.77900 22.68000 30.73500
C  46.14000 22.87100 25.87600
C  48.30400 27.23000 26.00200
N  46.81800 24.89000 30.49800
C  46.98000 26.06500 31.32800
C  46.63000 25.71000 32.78300
C  46.35500 24.14100 32.77200
C  46.31900 23.85000 31.21500
C  47.37000 23.20200 33.48400
C  45.59800 26.64500 33.35700
C  45.96300 27.40100 34.61200
H  46.62300 26.61300 35.76500
N  46.03700 22.97200 28.27900
C  45.72400 22.21100 29.36900
C  45.37900 20.90000 28.92400
C  45.34300 20.93000 27.48900
C  45.78900 22.28200 27.10700
C  44.97500 19.83800 29.86300
C  44.96200 19.95600 26.49900
O  44.92300 20.19000 25.29100
C  44.57300 18.59600 27.00400
N  47.12300 25.02100 26.20300
C  46.71500 24.03400 25.43200
C  47.22100 24.16700 23.99300
C  47.76400 25.60300 23.95400
C  47.83300 25.96800 25.49800
C  48.25300 23.08100 23.52800
C  46.86700 26.68900 23.26500
C  47.47400 27.93900 22.59900
N  47.65600 26.87200 28.30100
C  48.23600 27.66600 27.31700
C  48.62700 28.96100 27.86700
C  48.27500 28.85900 29.25200
C  47.69900 27.56200 29.47200
C  49.30100 30.07300 27.10500
C  48.31200 29.62000 30.48100
O  48.84500 30.65700 30.83200
C  47.88000 28.57700 31.54300
C  48.95800 28.31400 32.52800
O  49.90800 27.56600 32.28500
O  48.79800 29.15500 33.58400
C  49.85000 28.97400 34.57700
H  45.54700 22.01300 31.56800
H  46.09600 22.15800 25.05000
H  48.89300 27.86400 25.33600
H  47.54700 25.88400 33.34600
H  45.38300 24.06100 33.25900
H  46.74400 22.55100 34.09600
H  48.00300 23.77600 34.16000
H  47.91500 22.54000 32.81100
H  44.65800 26.13800 33.57400
H  45.35700 27.44600 32.65900
H  44.95800 27.61000 34.97900
H  46.49700 28.33800 34.45500
H  45.02500 19.91400 30.94900
H  45.55500 18.93100 29.69300
H  43.92800 19.68300 29.59900
H  43.57600 18.48200 27.43000
H  45.35900 18.28700 27.69300
H  44.60400 17.91700 26.15200
H  46.37200 24.05500 23.31800
H  48.73400 25.69300 23.46400
H  48.52300 22.46700 24.38700
H  49.20100 23.44800 23.13400
H  47.75900 22.52200 22.73300
H  46.10800 26.92800 24.01000
H  46.27600 26.21400 22.48300
H  47.10500 27.84300 21.57800
H  48.56100 27.87100 22.65900
H  47.15600 28.82900 23.14200
H  50.34600 29.98900 27.40100
H  48.91900 31.07800 27.28800
H  49.23100 29.89700 26.03200
H  47.00800 29.04900 31.99600
H  50.83800 28.77000 34.16400
H  49.55400 28.08500 35.13400
H  49.78700 29.68600 35.40000

