158

Mg -9.55400 39.30700 42.11900
C  -8.96700 35.87800 41.74800
C  -6.55700 39.92000 40.71800
C  -10.58900 42.51600 41.71000
C  -12.79700 38.60100 43.48100
N  -8.08400 38.06100 41.25800
C  -7.94100 36.66900 41.22900
C  -6.70400 36.17800 40.48200
C  -5.84500 37.41400 40.65900
C  -6.90100 38.61000 40.93200
C  -4.89700 37.44000 41.90500
C  -7.00900 35.71800 39.01000
C  -5.77600 35.18800 38.28000
H  -4.99500 36.02500 37.29200
N  -8.73700 40.98300 41.24200
C  -7.46700 41.06000 40.75800
C  -7.20600 42.41500 40.53400
C  -8.43000 43.08900 40.54800
C  -9.31600 42.17100 41.21900
C  -5.81600 42.88300 40.12800
C  -8.70100 44.50000 40.00300
O  -7.78200 45.08600 39.51100
C  -10.10500 45.12100 39.80300
N  -11.46200 40.40400 42.54200
C  -11.54500 41.75800 42.30100
C  -12.88100 42.33500 42.77300
C  -13.65500 41.00800 43.16200
C  -12.53900 39.94300 43.16100
C  -12.90900 43.34400 44.01000
C  -14.75300 40.65000 42.13100
C  -16.18400 40.77100 42.63000
N  -10.71200 37.63200 42.58900
C  -11.96100 37.50900 43.17200
C  -12.25900 36.09700 43.19600
C  -11.09700 35.42300 42.70400
C  -10.16300 36.41600 42.30700
C  -13.49500 35.44300 43.60900
C  -10.50500 34.13700 42.45600
O  -10.90200 33.03900 42.67900
C  -9.12300 34.38300 41.79200
C  -8.11500 33.65400 42.58600
O  -8.16400 33.29900 43.76300
O  -7.06700 33.32100 41.74800
C  -5.87300 32.68500 42.33300
H  -5.58500 40.09100 40.25100
H  -10.90800 43.55800 41.77600
H  -13.79400 38.45800 43.90300
H  -6.18300 35.42000 41.06700
H  -5.30600 37.74100 39.77100
H  -5.35600 37.87200 42.79400
H  -4.09400 38.11900 41.61900
H  -4.59600 36.40200 42.04800
H  -7.48000 36.51100 38.43100
H  -7.69000 34.87000 38.92300
H  -6.05400 34.25300 37.79400
H  -5.02800 35.00700 39.05200
H  -5.60600 42.61400 39.09300
H  -5.00700 42.64400 40.81800
H  -5.73200 43.96600 40.03700
H  -10.45000 45.55700 40.74000
H  -10.84600 44.36400 39.54600
H  -10.10300 45.95400 39.10000
H  -13.35600 42.89600 41.96800
H  -14.10400 41.07400 44.15300
H  -13.14500 42.72100 44.87300
H  -13.75700 44.01900 43.89700
H  -11.87900 43.70000 43.99500
H  -14.55000 39.64700 41.75300
H  -14.53700 41.28600 41.27300
H  -16.65100 41.66800 42.22400
H  -16.32900 40.80500 43.71000
H  -16.65700 39.88400 42.21000
H  -13.67900 35.76300 44.63400
H  -13.34600 34.36400 43.57000
H  -14.35800 35.78600 43.03800
H  -9.06600 34.14700 40.72900
H  -5.23200 32.21400 41.58800
H  -6.14100 31.91700 43.05900
H  -5.40700 33.49000 42.90100
Mg -1.93400 34.90000 26.85400
C  -3.20400 32.92600 29.50800
C  -0.53300 36.94200 29.17100
C  -1.08900 36.92100 24.29700
C  -3.37800 32.63400 24.62300
N  -2.02600 34.95900 29.11800
C  -2.51700 34.03300 30.02000
C  -2.23200 34.43600 31.52400
C  -1.42000 35.79400 31.33800
C  -1.23100 35.88300 29.78700
C  -1.99800 37.08300 31.89500
C  -1.44400 33.33100 32.37600
C  -2.18300 32.98100 33.66700
H  -1.27700 32.96600 34.90600
N  -1.03300 36.75200 26.75500
C  -0.52200 37.43100 27.81000
C  0.18200 38.61700 27.35100
C  -0.06100 38.68700 25.90500
C  -0.73000 37.39000 25.60500
C  0.75800 39.64400 28.31100
C  0.25900 39.80200 24.90100
O  -0.16600 39.78300 23.76000
C  0.97400 40.99600 25.42100
N  -2.19800 34.69500 24.75100
C  -1.77000 35.73000 23.89300
C  -2.12800 35.29300 22.41800
C  -2.44100 33.81300 22.55300
C  -2.73400 33.68700 24.01700
C  -3.29500 36.12800 21.71200
C  -1.29500 32.80500 22.09400
C  -0.04800 32.76200 22.96500
N  -3.08500 33.19800 26.98900
C  -3.60700 32.38600 25.99100
C  -4.36100 31.33500 26.58000
C  -4.18600 31.51700 27.97400
C  -3.33400 32.58400 28.12400
C  -5.44500 30.54000 25.93500
C  -4.61100 31.01300 29.26600
O  -5.37800 30.11200 29.50900
C  -3.86700 31.87400 30.35100
C  -4.82600 32.56600 31.28800
O  -5.60100 33.42800 30.97200
O  -4.79600 31.93700 32.47800
C  -5.76200 32.26200 33.47900
H  -0.11800 37.63000 29.91100
H  -0.77900 37.56100 23.46800
H  -3.69700 31.81900 23.97000
H  -3.20100 34.72300 31.93300
H  -0.41800 35.67300 31.74900
H  -2.90800 36.98700 32.48800
H  -2.29200 37.72800 31.06800
H  -1.23300 37.61900 32.45700
H  -0.42300 33.64600 32.59200
H  -1.48700 32.42000 31.77900
H  -2.78100 32.08300 33.51800
H  -2.93600 33.75700 33.80700
H  0.09900 40.51200 28.32100
H  1.73900 40.04800 28.06100
H  0.93000 39.23900 29.30800
H  1.00800 41.69700 24.58700
H  2.00900 40.76900 25.67400
H  0.36800 41.33800 26.26100
H  -1.24100 35.34500 21.78600
H  -3.26600 33.56600 21.88400
H  -3.46900 37.01900 22.31500
H  -4.29000 35.70600 21.57900
H  -2.82100 36.38200 20.76300
H  -1.03900 33.11200 21.08000
H  -1.71800 31.80400 22.17300
H  0.83600 33.01900 22.38200
H  0.13600 31.77200 23.38200
H  -0.22100 33.45800 23.78600
H  -5.00600 29.79500 25.27100
H  -6.09700 31.11700 25.27900
H  -6.03300 30.07700 26.72700
H  -3.09700 31.27800 30.84100
H  -6.61000 32.83600 33.10700
H  -5.44300 32.79100 34.37600
H  -6.10200 31.31900 33.90600

