158

Mg 26.63300 0.39900 30.06400
C  28.77600 -0.04200 32.81100
C  24.09100 0.85500 32.04500
C  24.59300 0.48200 27.23300
C  29.35800 -0.59400 28.10100
N  26.43500 0.37700 32.13300
C  27.42900 0.33600 33.07600
C  26.83000 0.73300 34.48300
C  25.26700 0.84600 34.27700
C  25.22000 0.59900 32.70800
C  24.36200 -0.03900 35.08100
C  27.52600 2.04300 35.08700
C  27.63300 1.85900 36.62500
H  27.25900 3.04300 37.52700
N  24.60200 0.76100 29.65200
C  23.72000 0.93200 30.64800
C  22.37100 1.10300 30.06300
C  22.51300 1.06200 28.62400
C  23.96800 0.76000 28.46100
C  21.12300 1.37100 30.87900
C  21.52700 1.39400 27.47400
O  21.84200 1.45200 26.29900
C  20.18300 1.85100 27.89400
N  26.92400 -0.03200 28.03700
C  25.96000 0.07000 27.03200
C  26.47600 -0.38200 25.67100
C  28.09000 -0.11500 25.88100
C  28.14600 -0.27600 27.42800
C  26.18900 -1.88500 25.39300
C  28.77800 1.13800 25.25900
C  30.30700 0.96000 24.89600
N  28.60600 -0.32100 30.30000
C  29.55000 -0.68700 29.44600
C  30.71000 -1.08300 30.13000
C  30.54100 -0.74800 31.46900
C  29.18200 -0.35100 31.51200
C  32.01900 -1.71000 29.51000
C  31.17100 -0.66500 32.75000
O  32.33100 -0.84700 33.11200
C  30.00300 -0.19600 33.73600
C  29.82300 -1.10300 34.95000
O  29.27200 -2.22500 34.89100
O  30.43400 -0.55000 36.05000
C  30.18400 -1.35000 37.24700
H  23.31100 1.06200 32.78100
H  23.91500 0.36600 26.38500
H  30.20700 -0.89600 27.48400
H  27.05100 -0.14200 35.09500
H  24.91800 1.87800 34.32000
H  23.68600 -0.72600 34.57200
H  23.76900 0.62600 35.70900
H  24.81400 -0.69200 35.82800
H  26.83400 2.87600 34.96200
H  28.48100 2.10000 34.56500
H  28.67800 1.71400 36.89800
H  27.02100 1.02300 36.96300
H  20.72200 2.34200 30.58900
H  21.45800 1.46500 31.91200
H  20.35500 0.64200 30.62100
H  19.79600 1.07600 28.55500
H  19.49400 1.93200 27.05300
H  20.27300 2.73300 28.52900
H  26.06800 0.19700 24.84300
H  28.71200 -0.97000 25.61600
H  25.54700 -2.06400 24.53000
H  25.65100 -2.15500 26.30100
H  27.13000 -2.42700 25.30300
H  28.55200 1.89100 26.01400
H  28.26200 1.49100 24.36600
H  30.60700 1.61300 24.07600
H  30.53600 -0.07800 24.65500
H  30.91900 1.37800 25.69500
H  32.03500 -1.71900 28.42100
H  32.04700 -2.73000 29.89300
H  32.91200 -1.22700 29.90800
H  30.26500 0.76900 34.17000
H  29.13700 -1.32200 37.55100
H  30.93700 -0.97200 37.93900
H  30.48200 -2.39400 37.15300
Mg 8.72700 48.95500 26.36900
C  6.36700 49.26000 28.93900
C  11.17000 49.87200 28.47200
C  10.89200 48.75800 23.79500
C  6.01600 48.63400 24.04700
N  8.73600 49.42700 28.48200
C  7.69700 49.49300 29.39000
C  8.15900 49.92700 30.76800
C  9.65100 50.39000 30.51400
C  9.92600 49.85000 29.08500
C  9.89600 51.88900 30.51700
C  8.02500 48.70400 31.74400
C  8.78400 48.73100 33.07800
H  8.35700 47.82100 34.19500
N  10.82900 49.13400 26.18100
C  11.62000 49.55200 27.17700
C  12.98000 49.51000 26.70700
C  12.94300 49.07100 25.30900
C  11.52900 48.96000 25.05300
C  14.23200 49.86800 27.56000
C  14.16300 48.77000 24.38100
O  14.07300 48.38200 23.21500
C  15.53500 48.93500 24.90400
N  8.43400 48.75700 24.28300
C  9.54200 48.53100 23.45300
C  9.18700 48.46000 21.97800
C  7.65300 48.19500 22.05000
C  7.30300 48.49300 23.54000
C  9.61900 49.79500 21.19100
C  7.19200 46.85300 21.48400
C  6.36300 46.82700 20.16000
N  6.62100 48.97300 26.36600
C  5.63900 48.86200 25.40800
C  4.36400 48.72900 26.05000
C  4.50500 49.00300 27.39200
C  5.97300 49.04500 27.58200
C  3.12200 48.37000 25.39900
C  3.79900 49.05500 28.65100
O  2.63800 49.01400 28.89500
C  5.00200 49.18600 29.68900
C  4.93200 47.94300 30.57100
O  5.17400 46.87800 30.12300
O  4.47400 48.27200 31.84900
C  4.22500 47.04200 32.66400
H  11.98100 50.20300 29.12400
H  11.61700 48.59300 22.99500
H  5.28100 48.35000 23.29100
H  7.53300 50.75600 31.09900
H  10.29500 49.93100 31.26500
H  9.05700 52.37800 31.01400
H  10.07900 52.31500 29.53100
H  10.74000 52.21800 31.12300
H  8.21500 47.72200 31.31100
H  6.99100 48.82700 32.06600
H  8.68800 49.75100 33.44800
H  9.85000 48.52700 32.98000
H  13.99600 49.98100 28.61800
H  14.61700 50.78500 27.11400
H  15.08000 49.18500 27.50400
H  16.15400 48.87700 24.01000
H  15.82300 48.09500 25.53600
H  15.79600 49.89200 25.35700
H  9.84400 47.65000 21.66200
H  7.17800 48.92800 21.39700
H  10.03200 49.79900 20.18200
H  10.29600 50.45300 21.73500
H  8.78900 50.43700 20.89500
H  6.54800 46.37300 22.22000
H  8.04000 46.21900 21.22500
H  5.81500 47.76500 20.07500
H  5.56900 46.08600 20.26200
H  6.87200 46.53800 19.24100
H  3.32700 47.45700 24.83900
H  2.84000 49.12200 24.66300
H  2.49400 48.07200 26.23900
H  4.90900 50.06400 30.32700
H  3.16300 47.12200 32.89700
H  4.68400 47.16000 33.64500
H  4.51000 46.05900 32.28900

