158

Mg -10.47700 17.22800 42.08900
C  -6.95400 16.81300 42.32300
C  -9.75200 20.61800 41.24600
C  -13.59500 17.55100 41.00100
C  -10.70400 13.73300 41.78500
N  -8.56200 18.54800 41.74600
C  -7.30400 18.07900 41.84700
C  -6.31400 19.20100 41.35900
C  -7.18400 20.47300 41.57800
C  -8.59300 19.87300 41.52500
C  -6.95600 21.11800 42.96700
C  -5.93400 18.85400 39.82800
C  -4.48200 18.35400 39.53300
H  -4.26700 17.03700 38.80100
N  -11.53100 18.93800 41.46400
C  -11.05900 20.20800 41.15600
C  -12.24600 21.03300 40.86300
C  -13.35800 20.17400 40.81700
C  -12.91100 18.79800 41.11800
C  -12.17300 22.58300 40.68200
C  -14.73700 20.58000 40.35800
O  -14.80100 21.66700 39.80900
C  -15.96400 19.69800 40.48800
N  -11.93400 15.85900 41.46800
C  -13.16900 16.21300 41.19400
C  -14.11700 15.00000 41.08800
C  -13.06300 13.81200 40.94500
C  -11.81700 14.48600 41.54500
C  -15.28700 14.82100 42.14200
C  -12.81100 13.13700 39.50400
C  -13.75600 11.89000 39.28400
N  -9.17400 15.58000 42.30800
C  -9.38600 14.20100 42.20300
C  -8.14400 13.47600 42.45700
C  -7.14000 14.43300 42.49000
C  -7.78600 15.69200 42.36200
C  -7.92900 12.03800 42.61100
C  -5.73900 14.73800 42.68400
O  -4.83000 14.00200 42.92400
C  -5.53000 16.32000 42.46900
C  -4.85600 16.99900 43.64000
O  -5.15200 16.89400 44.81200
O  -3.77100 17.69100 43.26400
C  -2.98000 18.50200 44.24800
H  -9.73200 21.70900 41.21100
H  -14.57200 17.61600 40.51800
H  -10.73500 12.67300 41.52500
H  -5.36100 19.26500 41.88500
H  -6.86300 21.18700 40.82000
H  -7.78900 21.15500 43.66800
H  -6.60700 22.13800 42.80300
H  -6.20100 20.59000 43.55000
H  -6.07300 19.74400 39.21400
H  -6.61000 18.14500 39.35000
H  -3.89000 18.35800 40.44900
H  -3.99200 19.10700 38.91600
H  -12.53200 22.88900 39.69900
H  -11.19700 23.06800 40.68600
H  -12.81100 22.95800 41.48300
H  -16.74100 20.46300 40.46400
H  -15.74700 19.28700 41.47400
H  -16.11500 19.06700 39.61200
H  -14.47500 15.19600 40.07700
H  -13.48300 13.05200 41.60400
H  -14.96700 15.41300 43.00000
H  -15.59400 13.79500 42.34400
H  -16.16900 15.37500 41.82100
H  -11.77100 12.81600 39.44500
H  -12.89300 13.97400 38.81100
H  -14.30200 11.53300 40.15700
H  -13.20900 11.11000 38.75400
H  -14.61100 12.00400 38.61700
H  -7.06600 11.73600 42.01700
H  -8.78800 11.36700 42.62100
H  -7.55100 11.86300 43.61800
H  -4.90000 16.56700 41.61500
H  -1.97500 18.11400 44.41600
H  -3.40700 18.62800 45.24300
H  -2.84700 19.49500 43.81800
Mg -5.19600 25.78400 26.98000
C  -3.66400 27.08200 29.88100
C  -6.70100 23.29400 28.74800
C  -5.86400 24.29500 24.05500
C  -2.82000 27.89600 25.09800
N  -5.01400 25.24800 29.04400
C  -4.54400 26.04700 30.11200
C  -5.11300 25.47200 31.43900
C  -6.04500 24.31800 31.04100
C  -5.82500 24.20800 29.47400
C  -5.85100 23.04300 31.83000
C  -5.60200 26.61900 32.41000
C  -6.72300 26.27700 33.44200
H  -6.39300 25.36400 34.69500
N  -6.25200 24.08600 26.44800
C  -6.87500 23.23300 27.34400
C  -7.70400 22.31200 26.63200
C  -7.49100 22.49900 25.21900
C  -6.51800 23.67700 25.19900
C  -8.76400 21.53200 27.34200
C  -8.03400 21.78900 24.05100
O  -7.78000 22.11200 22.86800
C  -9.07700 20.73600 24.05400
N  -4.50000 26.06200 24.92400
C  -4.97600 25.31800 23.89400
C  -4.57200 25.79700 22.52300
C  -3.50300 26.87000 22.93400
C  -3.61200 26.97400 24.38900
C  -4.01000 24.65500 21.56300
C  -3.70000 28.21400 22.18800
C  -3.68100 28.31900 20.66500
N  -3.61500 27.27200 27.36100
C  -2.76900 27.97900 26.51300
C  -2.09100 28.90900 27.31400
C  -2.27800 28.50500 28.65400
C  -3.28600 27.56900 28.60100
C  -1.12700 30.01300 26.82600
C  -1.91500 28.86100 29.97800
O  -1.10300 29.60600 30.48500
C  -2.81100 28.02600 30.86500
C  -2.00800 27.21900 31.85600
O  -1.21000 26.36200 31.56600
O  -2.14600 27.74100 33.13300
C  -1.10100 27.37500 34.06800
H  -7.11800 22.46500 29.32300
H  -6.16000 23.77800 23.14000
H  -2.16300 28.59100 24.57100
H  -4.37000 24.96600 32.05600
H  -7.09300 24.61700 31.01900
H  -6.71500 22.85500 32.46800
H  -5.02200 23.02300 32.53700
H  -5.64400 22.18900 31.18600
H  -5.99600 27.35900 31.71300
H  -4.86800 27.15400 33.01200
H  -7.54400 25.87400 32.84800
H  -7.11300 27.18700 33.89800
H  -8.83400 20.52700 26.92600
H  -9.70700 22.02500 27.10500
H  -8.61400 21.56400 28.42100
H  -8.55700 19.78300 24.14700
H  -9.77300 20.81500 23.21900
H  -9.63400 20.98000 24.95900
H  -5.46500 26.17400 22.02400
H  -2.59200 26.42000 22.54000
H  -4.71300 24.34700 20.78800
H  -3.86600 23.75600 22.16100
H  -3.06000 24.91900 21.09900
H  -2.91800 28.88900 22.53700
H  -4.68800 28.61500 22.41700
H  -4.70900 28.33000 20.30400
H  -3.30800 27.34200 20.35800
H  -3.11500 29.16400 20.27300
H  -0.27100 29.90600 27.49100
H  -1.70700 30.93600 26.84100
H  -0.77800 29.78900 25.81800
H  -3.36300 28.81500 31.37600
H  -1.17500 26.28700 34.09800
H  -1.23200 27.86800 35.03100
H  -0.19600 27.78800 33.62200

