158

Mg 35.40100 2.44100 30.31900
C  32.74000 3.17400 32.46800
C  37.62800 2.53600 32.90900
C  37.95500 1.97500 28.10300
C  33.19200 2.70600 27.64800
N  35.19900 2.75600 32.39500
C  33.96800 2.98700 33.10500
C  34.24900 3.10700 34.63700
C  35.77400 3.19300 34.68400
C  36.26600 2.74100 33.24200
C  36.37000 4.55800 35.20800
C  33.70300 1.92500 35.50200
C  33.16400 2.19000 36.91800
H  33.91600 3.23100 37.82500
N  37.49100 2.10300 30.53000
C  38.17900 2.20300 31.70500
C  39.52500 1.73400 31.42100
C  39.65400 1.40200 30.09200
C  38.37400 1.85800 29.48800
C  40.64100 1.58100 32.42900
C  40.74200 0.76000 29.29600
O  40.63400 0.61200 28.05700
C  41.97800 0.23100 29.86100
N  35.59200 2.59200 28.16400
C  36.72400 2.32600 27.54300
C  36.55300 2.28200 26.00500
C  34.96300 2.42600 25.87000
C  34.54400 2.61000 27.30700
C  37.40500 3.44000 25.34200
C  34.22900 1.19000 25.31600
C  32.92800 1.32200 24.44300
N  33.37800 2.78400 30.06400
C  32.58300 2.82600 28.85500
C  31.20300 3.05000 29.24200
C  31.21400 3.35400 30.62500
C  32.56500 3.12100 31.09500
C  30.16200 3.23600 28.28200
C  30.43600 3.78000 31.77400
O  29.27900 4.20700 31.89700
C  31.42700 3.62100 32.98500
C  31.63700 4.94300 33.64200
O  32.00400 6.03100 33.14200
O  31.48900 4.78000 34.95000
C  31.61300 5.94900 35.91100
H  38.21100 2.58800 33.83100
H  38.73900 1.74000 27.38000
H  32.51000 2.78300 26.79800
H  33.83600 4.01500 35.07700
H  36.28600 2.37500 35.19100
H  35.75000 5.15800 35.87400
H  36.50300 5.20200 34.33800
H  37.33400 4.34500 35.67000
H  34.48100 1.16200 35.51800
H  32.83100 1.54900 34.96600
H  33.35300 1.21700 37.37200
H  32.08400 2.33200 36.92300
H  41.55600 1.81200 31.88300
H  40.63300 0.53800 32.74500
H  40.68100 2.23600 33.30000
H  42.50500 -0.40400 29.14900
H  41.70700 -0.29500 30.77700
H  42.60800 1.09100 30.08600
H  36.90500 1.38700 25.49200
H  34.70100 3.24300 25.19700
H  36.82100 3.92400 24.55900
H  38.32400 3.09200 24.86900
H  37.67200 4.19600 26.08100
H  33.89800 0.61000 26.17700
H  34.91200 0.57400 24.73100
H  32.68500 2.33000 24.10700
H  32.05800 0.95000 24.98500
H  33.16300 0.72600 23.56200
H  30.44500 3.53500 27.27300
H  29.41200 3.93700 28.64900
H  29.69200 2.26300 28.14300
H  30.89200 3.03000 33.72800
H  30.93100 5.90500 36.76000
H  31.36500 6.88600 35.41200
H  32.64100 5.99700 36.27000
Mg 41.69100 41.36800 26.16000
C  41.14500 43.64300 28.70000
C  42.65300 39.10800 28.60900
C  42.22400 39.12600 23.71100
C  41.49900 43.95200 23.89600
N  41.95400 41.41400 28.34800
C  41.58000 42.41300 29.21000
C  41.84900 42.12700 30.68600
C  42.51300 40.67600 30.63500
C  42.36400 40.37400 29.13400
C  44.00100 40.56300 31.06000
C  40.55000 42.12000 31.57300
C  40.47600 43.01100 32.78400
H  39.99800 42.26800 34.05400
N  42.40500 39.33500 26.20200
C  42.69300 38.60300 27.29900
C  43.04300 37.22100 26.88200
C  42.93500 37.21700 25.45400
C  42.50500 38.59900 25.02800
C  43.28500 36.09200 27.80800
C  43.16800 36.07800 24.49100
O  42.95000 36.24500 23.29400
C  43.69800 34.80400 24.98000
N  42.02100 41.53200 24.10200
C  42.06800 40.48600 23.22600
C  42.07500 40.85500 21.77300
C  42.00100 42.45200 21.82800
C  41.70500 42.67900 23.31600
C  43.25300 40.30800 21.00400
C  40.94400 43.05500 20.81200
C  41.37000 44.35200 20.14800
N  41.28600 43.32000 26.26500
C  41.13600 44.24000 25.22700
C  40.74800 45.52800 25.75400
C  40.69600 45.28600 27.13100
C  41.04900 43.96300 27.39900
C  40.66400 46.82200 25.00000
C  40.52100 46.04700 28.33300
O  40.23100 47.24200 28.51200
C  40.80000 44.97700 29.44400
C  41.93800 45.52400 30.19200
O  43.15100 45.56700 29.81600
O  41.48100 46.03200 31.36200
C  42.49700 46.53600 32.25100
H  43.19400 38.48700 29.32600
H  42.18200 38.44700 22.85700
H  41.43600 44.68700 23.09200
H  42.60900 42.79900 31.08500
H  41.97100 39.95100 31.24200
H  44.09400 40.06500 32.02500
H  44.38400 41.57300 31.20500
H  44.63200 40.11200 30.29400
H  40.27100 41.12600 31.92400
H  39.80600 42.52600 30.88800
H  39.77200 43.82900 32.63400
H  41.44300 43.49700 32.91400
H  44.33500 35.80800 27.74500
H  42.68600 35.25800 27.44200
H  43.10700 36.49600 28.80500
H  43.79800 34.03500 24.21500
H  42.92600 34.35600 25.60600
H  44.66800 34.97400 25.44800
H  41.17200 40.34800 21.43300
H  43.02800 42.76000 21.62900
H  43.99600 39.75500 21.57900
H  43.78700 41.15500 20.57400
H  42.88100 39.60500 20.25900
H  40.02300 43.20100 21.37700
H  40.69900 42.28700 20.07900
H  41.24700 44.02800 19.11400
H  42.45000 44.43400 20.26300
H  40.80500 45.25600 20.37400
H  39.68700 46.91500 24.52400
H  41.37000 46.75200 24.17300
H  40.73300 47.64400 25.71300
H  39.96100 44.95300 30.14000
H  42.83600 45.75300 32.92800
H  41.98000 47.31600 32.81000
H  43.30900 47.04900 31.73500

