158

Mg 23.96300 -6.77000 46.29900
C  26.39700 -4.60700 45.16400
C  21.63800 -5.19400 44.36500
C  21.92000 -9.55300 46.55900
C  26.55000 -8.65600 47.90100
N  24.11600 -5.22400 44.85800
C  25.15100 -4.42700 44.58000
C  24.76800 -3.32200 43.53600
C  23.19800 -3.39600 43.59400
C  22.96500 -4.66300 44.29700
C  22.43100 -2.24500 44.27000
C  25.46500 -3.67500 42.13500
C  26.01400 -2.43300 41.34100
H  25.85400 -2.38800 39.84800
N  21.97400 -7.20200 45.72000
C  21.20600 -6.40700 44.95600
C  19.96800 -7.13400 44.69300
C  20.06600 -8.39600 45.33300
C  21.35500 -8.37600 45.96600
C  19.00000 -6.61800 43.60200
C  18.85600 -9.40200 45.37200
O  17.86300 -9.26200 44.64000
C  18.85300 -10.59900 46.24000
N  24.18100 -8.73100 47.20700
C  23.17300 -9.71100 47.15500
C  23.57200 -10.95000 47.99900
C  25.04700 -10.57500 48.53500
C  25.28500 -9.26900 47.86800
C  22.53600 -11.52700 48.99100
C  26.11500 -11.66800 48.26500
C  26.68200 -12.31800 49.50500
N  26.01200 -6.60600 46.61000
C  26.90200 -7.39900 47.30400
C  28.24500 -6.75200 47.42900
C  28.12900 -5.68000 46.49800
C  26.75800 -5.66200 46.05500
C  29.42200 -7.32700 48.17200
C  28.72200 -4.52700 45.85400
O  29.85000 -4.14300 45.81600
C  27.63500 -3.81500 44.99600
C  27.48000 -2.51700 45.67200
O  26.70800 -2.27300 46.61800
O  28.32900 -1.63200 45.14500
C  28.33600 -0.33800 45.92800
H  20.84700 -4.61800 43.88000
H  21.20700 -10.35900 46.74100
H  27.35400 -9.06900 48.51500
H  25.14600 -2.36300 43.89100
H  22.73500 -3.56000 42.62100
H  23.01500 -1.32500 44.24700
H  22.09500 -2.51500 45.27100
H  21.48200 -2.10100 43.75300
H  24.86200 -4.12600 41.34700
H  26.37400 -4.17600 42.46800
H  26.98800 -2.08500 41.68400
H  25.36400 -1.65400 41.73900
H  18.40900 -7.46700 43.25900
H  19.59200 -6.31200 42.73900
H  18.41200 -5.74300 43.88100
H  19.12700 -10.33000 47.26000
H  19.53500 -11.36200 45.86400
H  17.83800 -10.99500 46.26600
H  23.74100 -11.68600 47.21300
H  24.96400 -10.38300 49.60400
H  22.98500 -11.63700 49.97800
H  22.35000 -12.53000 48.60800
H  21.68900 -10.84000 49.00800
H  26.92800 -11.33400 47.62000
H  25.60800 -12.51300 47.79800
H  26.14700 -13.25100 49.68400
H  26.66300 -11.67800 50.38700
H  27.71900 -12.54100 49.25700
H  29.80000 -8.25500 47.74300
H  29.23100 -7.53200 49.22600
H  30.20500 -6.57700 48.06700
H  27.85900 -3.61100 43.94900
H  28.48200 -0.60800 46.97400
H  27.48100 0.28000 45.65700
H  29.20100 0.06300 45.40100
Mg -0.66600 42.67400 26.05300
C  1.98800 42.60100 28.32400
C  -2.82700 42.38300 28.69000
C  -3.15100 42.90800 23.86300
C  1.64700 43.31300 23.48400
N  -0.42100 42.40400 28.29100
C  0.74000 42.54900 28.96500
C  0.53600 42.68500 30.40900
C  -1.00900 42.41600 30.55800
C  -1.44700 42.37300 29.06800
C  -1.30800 41.18200 31.47400
C  0.93600 44.08500 30.93600
C  0.55000 44.46300 32.41600
H  0.49100 43.29000 33.42400
N  -2.66800 42.55400 26.25000
C  -3.38900 42.35800 27.41900
C  -4.76300 42.34600 27.07900
C  -4.95300 42.58200 25.72900
C  -3.56300 42.66400 25.19300
C  -5.80100 42.26100 28.09800
C  -6.25800 42.78700 24.91000
O  -6.26800 43.01000 23.66800
C  -7.67300 42.62400 25.55800
N  -0.71000 42.96900 23.91400
C  -1.89400 43.05400 23.27500
C  -1.80000 43.41900 21.79400
C  -0.18000 43.50200 21.66300
C  0.26100 43.30400 23.09800
C  -2.50300 42.43200 20.72700
C  0.30600 44.81300 20.93800
C  0.75400 45.98200 21.84200
N  1.42400 42.80000 25.87900
C  2.19600 43.09100 24.81000
C  3.54500 43.00100 25.17900
C  3.53300 42.73000 26.53100
C  2.18700 42.70600 26.91000
C  4.73000 43.17700 24.29700
C  4.34700 42.54400 27.70200
O  5.56600 42.48300 27.74500
C  3.35900 42.52700 28.95400
C  3.67600 41.44000 29.80800
O  3.61300 40.24700 29.49600
O  3.93600 41.88400 31.06000
C  4.08500 40.85900 32.12400
H  -3.50800 42.43300 29.54200
H  -3.99800 42.98600 23.17700
H  2.36000 43.56400 22.69500
H  1.13000 41.88700 30.85400
H  -1.52400 43.24900 31.03600
H  -2.11500 41.63000 32.05400
H  -0.49800 40.84400 32.11900
H  -1.70400 40.32900 30.92200
H  0.72400 44.89300 30.23600
H  2.01600 44.05400 31.08400
H  -0.36300 45.05500 32.36200
H  1.29300 45.21100 32.69000
H  -6.33100 43.21300 28.06100
H  -5.47300 42.04000 29.11400
H  -6.63600 41.60100 27.86200
H  -7.72900 41.59300 25.90600
H  -8.40800 42.90100 24.80200
H  -7.87100 43.27000 26.41400
H  -2.22400 44.42300 21.78900
H  0.17100 42.66500 21.05900
H  -1.86800 42.11300 19.90000
H  -3.37500 42.85900 20.23200
H  -2.83200 41.51500 21.21600
H  -0.56200 45.07100 20.33100
H  1.16900 44.49100 20.35700
H  0.53900 45.91700 22.90900
H  0.36600 46.93400 21.48000
H  1.81900 46.16600 21.69900
H  5.20300 44.06100 24.72400
H  4.50400 43.12200 23.23200
H  5.31000 42.26000 24.40100
H  3.53400 43.45200 29.50300
H  4.96400 40.22000 32.04300
H  3.16700 40.27600 32.20400
H  4.12500 41.51100 32.99700

