158

Mg 40.50500 9.67500 30.62600
C  42.48200 11.06800 33.19700
C  38.40200 8.38400 33.00500
C  38.82300 8.31100 28.10100
C  43.09900 10.67900 28.33500
N  40.42700 9.80300 32.76100
C  41.30700 10.41500 33.63600
C  40.80800 10.33800 35.10100
C  39.46600 9.55600 35.04400
C  39.42000 9.21900 33.54000
C  39.50600 8.31600 36.02200
C  40.55000 11.75300 35.82300
C  41.18600 11.82800 37.24100
H  40.51000 12.54100 38.35200
N  38.85100 8.59200 30.53700
C  38.11000 8.15500 31.64700
C  36.97600 7.36600 31.17300
C  36.97700 7.48900 29.73800
C  38.30700 8.13800 29.41800
C  36.07300 6.67900 32.14600
C  35.95500 6.95400 28.75500
O  36.04600 6.94300 27.50000
C  34.62800 6.40900 29.31000
N  40.98700 9.34700 28.57400
C  40.04000 8.87000 27.66600
C  40.52700 9.07100 26.20800
C  41.89100 9.84700 26.31700
C  42.02200 9.95200 27.83500
C  40.50000 7.85500 25.29500
C  41.99400 11.06900 25.49300
C  41.06600 12.18200 25.89200
N  42.40700 10.62600 30.65100
C  43.32100 10.89200 29.68000
C  44.44300 11.60800 30.31100
C  44.20700 11.66300 31.64500
C  42.90900 11.09600 31.79500
C  45.56200 12.33000 29.71200
C  44.60600 12.21200 32.98900
O  45.57400 12.90100 33.31500
C  43.53600 11.78500 33.98100
C  44.17100 10.99900 34.99500
O  44.36000 9.82300 35.03100
O  44.52400 11.78900 36.03100
C  45.38500 11.22800 37.02000
H  37.63200 8.08500 33.72000
H  38.19300 7.81500 27.36000
H  43.76800 11.23700 27.67600
H  41.57900 9.75200 35.60100
H  38.68600 10.27000 35.30900
H  39.66700 7.37300 35.50000
H  38.56900 8.34100 36.57800
H  40.36800 8.39000 36.68500
H  39.51700 12.02300 36.04400
H  41.00000 12.51400 35.18500
H  42.21300 12.16000 37.08900
H  41.34000 10.85000 37.69600
H  35.48700 5.85800 31.73300
H  35.40100 7.41000 32.59600
H  36.74700 6.26400 32.89600
H  33.86500 6.35400 28.53300
H  34.39300 7.26400 29.94500
H  34.74200 5.53200 29.94800
H  39.87100 9.74300 25.65600
H  42.65000 9.14900 25.96400
H  40.14200 6.94600 25.77900
H  41.45800 7.58500 24.85100
H  39.75600 8.10100 24.53700
H  41.89000 10.92200 24.41800
H  43.04100 11.37100 25.53000
H  40.45700 11.73900 26.67900
H  40.26400 12.25400 25.15800
H  41.39300 13.17600 26.19600
H  46.45600 11.97600 30.22600
H  45.36500 13.39600 29.82700
H  45.73900 12.13600 28.65400
H  43.00800 12.60900 34.46100
H  44.86700 10.40200 37.50800
H  45.60000 12.05000 37.70300
H  46.35200 11.00800 36.56800
Mg 49.59200 35.52200 27.78700
C  47.31400 34.18900 30.32000
C  50.13000 38.20300 29.84600
C  51.30200 36.96900 25.29300
C  48.61300 32.96700 25.74100
N  48.80900 36.11300 29.87200
C  47.90100 35.44600 30.70300
C  47.63900 36.27400 31.95000
C  48.51800 37.55500 31.71700
C  49.18000 37.28400 30.44000
C  47.73900 38.93300 31.80200
C  47.99600 35.61300 33.30800
C  49.25000 34.69600 33.32300
H  50.55300 35.17700 33.96800
N  50.81100 37.22300 27.72300
C  50.92900 38.18700 28.67300
C  51.99200 39.16300 28.23600
C  52.38400 38.67800 26.99900
C  51.52100 37.52200 26.61600
C  52.47400 40.21700 29.23500
C  53.46800 39.29900 26.13400
O  53.75700 38.76500 25.08900
C  54.07300 40.71300 26.48500
N  49.98200 35.01300 25.76500
C  50.66100 35.78100 24.86600
C  50.85300 35.07900 23.48900
C  49.94500 33.81100 23.64000
C  49.46700 33.90700 25.12800
C  50.59900 36.00700 22.23700
C  50.60100 32.42700 23.29500
C  49.62500 31.61700 22.49900
N  48.26300 33.94600 27.97300
C  48.04800 32.88400 27.04700
C  47.11500 31.89200 27.55600
C  46.77100 32.40200 28.83200
C  47.50700 33.61500 29.08100
C  46.68300 30.63600 26.86700
C  45.90900 32.13600 29.96100
O  45.09400 31.24200 30.15400
C  46.07800 33.33000 30.88100
C  46.26600 32.88500 32.26300
O  47.18300 32.22300 32.70600
O  45.26600 33.34200 33.08700
C  45.21500 32.87600 34.47300
H  50.26300 39.13200 30.40500
H  51.73000 37.47400 24.42400
H  48.52800 32.04600 25.16100
H  46.57300 36.49500 31.89800
H  49.24200 37.63100 32.52800
H  47.52900 39.53200 30.91600
H  48.36800 39.58700 32.40500
H  46.81300 38.94500 32.37800
H  47.11700 35.07100 33.65600
H  48.10500 36.30800 34.14100
H  49.61500 34.29900 32.37600
H  49.08100 33.84100 33.97800
H  53.20700 39.69600 29.85100
H  51.61500 40.57200 29.80400
H  52.83400 41.10300 28.71000
H  53.30600 41.48400 26.41400
H  54.77500 40.92300 25.67700
H  54.54800 40.62500 27.46200
H  51.90200 34.80900 23.37100
H  49.05800 33.97200 23.02700
H  50.46200 37.07500 22.40500
H  49.74000 35.58600 21.71500
H  51.54800 35.97400 21.70200
H  50.82800 31.84300 24.18800
H  51.55200 32.51100 22.77000
H  48.71300 32.08800 22.13100
H  49.27900 30.65300 22.87100
H  50.08000 31.53400 21.51100
H  45.90500 30.86800 26.13900
H  46.31600 29.91500 27.59700
H  47.58000 30.23000 26.40000
H  45.22300 34.00300 30.81900
H  44.78600 31.87500 34.52000
H  44.73600 33.58600 35.14700
H  46.22100 32.74500 34.87100

