158

Mg 0.53700 43.94500 25.84400
C  2.88200 43.46900 28.59400
C  -1.86300 42.59800 27.88700
C  -1.45000 43.77200 23.19000
C  3.33500 44.88700 23.93300
N  0.66300 43.08700 27.92600
C  1.62100 43.06400 28.90200
C  1.00400 42.88500 30.27600
C  -0.43600 42.44000 29.93600
C  -0.57600 42.72200 28.47900
C  -0.75700 40.96200 30.21000
C  1.02400 44.16900 31.21300
C  1.35400 43.81700 32.71300
H  0.80500 42.59500 33.41000
N  -1.40700 43.33100 25.62100
C  -2.24800 42.76300 26.50600
C  -3.56600 42.57700 25.89800
C  -3.43800 42.88100 24.50200
C  -2.08000 43.32100 24.38500
C  -4.72300 42.08600 26.72800
C  -4.49100 42.85000 23.49300
O  -4.27600 42.99600 22.31000
C  -5.86100 42.56200 23.93100
N  0.83800 44.23500 23.89100
C  -0.17100 44.27200 22.99000
C  0.26900 45.05900 21.70100
C  1.67200 45.58200 22.19700
C  2.02900 44.80600 23.42900
C  0.37100 44.24300 20.40400
C  1.60000 47.04500 22.52700
C  1.26900 47.90300 21.20000
N  2.68500 44.22800 26.13200
C  3.64700 44.65500 25.22800
C  4.97800 44.60500 25.91700
C  4.66600 44.29900 27.24200
C  3.31700 44.01000 27.32700
C  6.35500 44.81900 25.23000
C  5.30000 44.06800 28.55200
O  6.46000 44.03700 28.88600
C  4.07900 43.72500 29.54400
C  4.48100 42.52600 30.31000
O  4.99400 41.49900 29.83300
O  4.53300 42.80300 31.66400
C  5.22100 41.84100 32.57100
H  -2.64200 42.19800 28.54000
H  -2.02500 43.93500 22.27600
H  4.14500 45.26000 23.30300
H  1.46300 42.03700 30.78300
H  -1.10900 43.01800 30.56900
H  -1.53600 40.96900 30.97300
H  0.10400 40.38000 30.53800
H  -1.19500 40.48000 29.33600
H  0.07100 44.69500 31.26900
H  1.74400 44.90200 30.85000
H  0.99400 44.65300 33.31200
H  2.44000 43.91200 32.69600
H  -5.54400 42.80300 26.76100
H  -4.38000 42.03200 27.76100
H  -4.90900 41.08500 26.33900
H  -6.06800 41.64400 24.48000
H  -6.51500 42.64700 23.06300
H  -6.22700 43.40200 24.52100
H  -0.53500 45.77600 21.53200
H  2.46500 45.39600 21.47200
H  0.85500 44.91600 19.69500
H  -0.56700 43.92900 19.94500
H  0.91400 43.35300 20.72000
H  2.58600 47.35400 22.87600
H  0.88800 47.27400 23.32000
H  0.24800 48.24900 21.36100
H  1.18000 47.27000 20.31700
H  1.94200 48.75000 21.07200
H  6.20400 45.16900 24.20900
H  7.07500 44.03200 25.45000
H  6.80700 45.70200 25.68200
H  3.91100 44.64200 30.10900
H  5.51400 42.35700 33.48500
H  6.06700 41.42800 32.02200
H  4.59100 40.98100 32.79700
Mg -12.06200 15.74600 42.47800
C  -8.55600 16.57300 42.78300
C  -12.52600 19.23100 41.95300
C  -15.07400 15.04200 41.70100
C  -11.08700 12.32200 42.96600
N  -10.58500 17.62600 42.19600
C  -9.25400 17.67900 42.36100
C  -8.73800 19.11900 42.22400
C  -10.04200 19.96100 42.54100
C  -11.16000 18.87900 42.15100
C  -10.05400 20.38900 44.02500
C  -8.07900 19.45800 40.83400
C  -6.56400 19.84900 40.85800
H  -5.78300 18.85700 39.97900
N  -13.60700 16.96900 41.92500
C  -13.61000 18.36000 41.81500
C  -14.92600 18.73900 41.46700
C  -15.74300 17.57000 41.48000
C  -14.83400 16.44700 41.74600
C  -15.25800 20.14100 41.02500
C  -17.22400 17.52600 41.22300
O  -17.85400 18.48800 40.84200
C  -18.06700 16.26900 41.36400
N  -12.86100 13.96400 42.33600
C  -14.21800 13.94000 42.13100
C  -14.69700 12.44700 41.97300
C  -13.41200 11.62100 42.26900
C  -12.38100 12.70300 42.55400
C  -15.98300 12.08600 42.87500
C  -13.03600 10.61100 41.10100
C  -12.87900 9.08100 41.48700
N  -10.18600 14.66500 42.73500
C  -10.01700 13.26000 43.02300
C  -8.63900 12.99000 43.08100
C  -8.03600 14.26300 43.04200
C  -9.00900 15.23800 42.91200
C  -7.94800 11.68100 43.14400
C  -6.73900 14.93500 43.14100
O  -5.59600 14.48500 43.28700
C  -7.05700 16.47600 42.96400
C  -6.71900 17.15500 44.19800
O  -7.22500 16.96700 45.26700
O  -5.64800 17.99900 43.98500
C  -5.06800 18.59400 45.17200
H  -12.72000 20.30500 41.98600
H  -16.10500 14.70500 41.57400
H  -10.75700 11.28600 43.06500
H  -7.99400 19.37600 42.97800
H  -10.04500 20.86600 41.93300
H  -9.49000 19.66300 44.61000
H  -11.08600 20.31100 44.36700
H  -9.72000 21.42000 44.13800
H  -8.60100 20.29800 40.37600
H  -8.16000 18.51500 40.29300
H  -6.17700 19.72000 41.86900
H  -6.38000 20.84100 40.44700
H  -15.39100 20.20500 39.94500
H  -14.59100 20.95400 41.31300
H  -16.22700 20.39800 41.45300
H  -19.11300 16.57500 41.38600
H  -17.79200 15.83500 42.32500
H  -17.92300 15.62400 40.49700
H  -15.09300 12.34400 40.96300
H  -13.38600 11.10900 43.23100
H  -16.84400 11.79600 42.27300
H  -16.28900 12.91200 43.51700
H  -15.82900 11.28800 43.60200
H  -12.13000 10.83500 40.53700
H  -13.86400 10.56700 40.39300
H  -13.38500 8.46100 40.74700
H  -13.38600 8.91000 42.43600
H  -11.87900 8.74200 41.75900
H  -7.27300 11.34700 42.35700
H  -8.64100 10.85300 43.28900
H  -7.37900 11.65600 44.07400
H  -6.44500 16.84800 42.14200
H  -5.06800 17.80900 45.92800
H  -5.66400 19.46000 45.46000
H  -4.04200 18.90400 44.97800

