158

Mg 1.58000 8.83500 27.05200
C  2.23500 10.86000 29.68800
C  1.47800 6.08500 29.24600
C  1.19500 6.65100 24.41100
C  1.80900 11.44100 24.94200
N  1.82900 8.52700 29.25600
C  2.10000 9.49600 30.11900
C  1.88100 9.04200 31.51600
C  1.74500 7.42900 31.34300
C  1.61000 7.30700 29.81100
C  2.91500 6.61800 31.90100
C  0.59700 9.73600 32.13100
C  0.02400 9.15100 33.41300
H  0.91800 8.64700 34.50500
N  1.41100 6.67900 26.78800
C  1.37600 5.76300 27.85300
C  1.27300 4.44000 27.36200
C  1.37900 4.57600 25.95000
C  1.29000 6.03600 25.65900
C  1.41400 3.12300 28.15900
C  1.48300 3.51300 24.86500
O  1.51900 3.76300 23.66000
C  1.66100 2.03600 25.21600
N  1.45400 8.95600 24.98700
C  1.27700 8.01600 24.09700
C  1.14900 8.52400 22.75700
C  0.90800 10.07400 22.98700
C  1.44200 10.19300 24.42700
C  2.37700 8.33100 21.85400
C  -0.56700 10.45600 22.80900
C  -0.94200 11.67600 21.91000
N  2.08600 10.77900 27.25200
C  2.18500 11.72100 26.29500
C  2.38600 12.99400 26.92400
C  2.43700 12.65200 28.23400
C  2.22500 11.30400 28.37400
C  2.31600 14.31700 26.28800
C  2.61100 13.23300 29.56400
O  2.61800 14.40300 29.94400
C  2.33200 12.10500 30.53200
C  3.31700 12.13800 31.60900
O  4.39000 11.56400 31.71400
O  2.65000 12.70600 32.68100
C  3.06700 12.41000 34.09900
H  1.44700 5.29400 29.99800
H  1.01300 6.01300 23.54400
H  1.62800 12.26600 24.25100
H  2.78400 9.26100 32.08700
H  0.83300 7.09500 31.83900
H  3.43800 6.08500 31.10800
H  2.56500 5.82500 32.56200
H  3.54800 7.26500 32.50900
H  -0.25000 9.73300 31.44500
H  0.84100 10.74100 32.47400
H  -0.54700 8.28200 33.08700
H  -0.73500 9.80000 33.84900
H  2.35700 2.67900 27.83900
H  0.59800 2.40500 28.08100
H  1.32000 3.17300 29.24400
H  2.57000 1.93700 25.81000
H  1.86700 1.61000 24.23300
H  0.75600 1.58000 25.61700
H  0.30100 8.06100 22.25100
H  1.54900 10.67600 22.34300
H  2.14800 7.50900 21.17500
H  3.24000 8.00600 22.43500
H  2.68600 9.19700 21.26800
H  -0.95700 10.69700 23.79800
H  -1.09300 9.55600 22.49200
H  -1.40600 12.42000 22.55800
H  -1.72400 11.31800 21.24000
H  -0.09300 12.16400 21.43000
H  1.34100 14.68200 26.61000
H  2.17400 14.21400 25.21200
H  3.13700 14.95500 26.61400
H  1.31700 12.23300 30.90800
H  3.54100 11.43300 34.19200
H  2.32100 12.54500 34.88100
H  3.92200 13.04200 34.33700
Mg -4.97400 25.83500 26.31600
C  -3.62300 27.69500 28.98500
C  -6.70900 23.91000 28.58600
C  -6.10700 24.00800 23.69600
C  -3.22600 27.82000 24.10500
N  -4.96700 25.72200 28.53000
C  -4.55500 26.70500 29.42400
C  -5.17200 26.44500 30.81700
C  -5.79400 24.98400 30.73200
C  -5.84100 24.86700 29.19100
C  -4.94300 23.86100 31.32000
C  -6.26100 27.48000 31.12100
C  -6.61200 27.56400 32.64300
H  -6.18600 26.49600 33.62900
N  -6.28700 24.26900 26.13600
C  -6.95700 23.67900 27.20000
C  -7.83000 22.65700 26.64900
C  -7.74500 22.71200 25.21400
C  -6.65900 23.68700 24.93800
C  -8.93100 22.04600 27.49800
C  -8.56800 21.90100 24.15800
O  -8.53500 22.15800 22.95900
C  -9.57000 20.80000 24.61800
N  -4.76100 25.89800 24.19200
C  -5.22000 25.02000 23.31500
C  -4.66700 25.22100 21.94300
C  -4.08200 26.64900 22.02600
C  -4.02000 26.82300 23.56600
C  -3.71000 24.11900 21.29000
C  -4.98300 27.87200 21.47800
C  -4.41600 28.50200 20.19700
N  -3.66500 27.35700 26.46100
C  -3.05900 28.13700 25.44600
C  -2.11300 29.10000 26.02800
C  -2.28700 28.97600 27.41500
C  -3.25300 27.92200 27.61100
C  -1.30400 30.12600 25.24200
C  -1.88900 29.52700 28.80000
O  -1.04300 30.28900 29.13200
C  -2.85700 28.75200 29.78200
C  -2.16300 28.07200 30.98800
O  -1.43100 27.06200 30.94600
O  -2.56600 28.74200 32.14500
C  -2.02200 28.05500 33.35600
H  -7.13900 23.26900 29.35900
H  -6.43500 23.36800 22.87400
H  -2.72800 28.55500 23.46800
H  -4.27500 26.48300 31.43400
H  -6.76000 24.89500 31.22900
H  -3.91900 24.23500 31.29700
H  -4.91200 22.95300 30.71900
H  -5.26600 23.56400 32.31700
H  -7.15400 27.12600 30.60500
H  -6.01100 28.39700 30.58700
H  -7.69100 27.64500 32.77200
H  -6.12200 28.49700 32.92400
H  -9.85300 22.53500 27.18200
H  -8.71600 22.19600 28.55600
H  -8.96800 20.97200 27.31600
H  -9.13500 20.10900 25.34100
H  -9.91600 20.24900 23.74300
H  -10.34500 21.34900 25.15200
H  -5.59700 25.39200 21.40100
H  -3.05300 26.76200 21.68300
H  -3.78800 23.14100 21.76500
H  -2.66700 24.39400 21.44700
H  -3.94900 24.11100 20.22700
H  -5.15100 28.66900 22.20300
H  -5.89900 27.47100 21.04400
H  -3.95900 27.68200 19.64300
H  -3.64800 29.22400 20.47100
H  -5.24300 29.05200 19.74900
H  -0.49400 29.59900 24.73800
H  -0.86800 31.01100 25.70400
H  -1.92600 30.39900 24.38900
H  -3.55600 29.41100 30.29600
H  -2.69100 28.36500 34.15900
H  -1.04100 28.46500 33.59300
H  -1.95500 26.96800 33.41500

