158

Mg 4.03900 53.96300 41.45200
C  4.37600 50.66800 40.57500
C  7.18900 54.63600 40.11100
C  3.47800 57.27700 42.02700
C  0.70200 53.23400 42.65800
N  5.50500 52.78100 40.40900
C  5.51900 51.41600 40.23600
C  6.88900 50.88500 39.75100
C  7.70900 52.18400 39.75800
C  6.74200 53.27700 40.16300
C  9.12000 52.13500 40.38400
C  6.87300 50.21900 38.45900
C  5.89200 50.62000 37.31400
H  6.44500 51.32000 36.05000
N  5.13300 55.75500 40.94900
C  6.44300 55.79900 40.51900
C  6.84700 57.16800 40.43200
C  5.79000 57.97600 40.95200
C  4.75500 57.01700 41.35500
C  8.11400 57.63800 39.81800
C  5.81800 59.46800 41.05800
O  6.82900 60.13100 40.71800
C  4.56800 60.18600 41.34300
N  2.33900 55.07800 42.17600
C  2.42000 56.40400 42.41600
C  1.04800 56.91700 42.98800
C  0.10500 55.67500 42.94200
C  1.09100 54.59000 42.59000
C  1.25800 57.45300 44.49900
C  -1.10700 55.71700 41.99800
C  -2.33500 54.98400 42.61800
N  2.83200 52.30100 41.77700
C  1.51000 52.11400 42.27800
C  1.27600 50.68900 42.40800
C  2.39500 50.05500 41.72500
C  3.24500 51.10400 41.29900
C  -0.02000 50.06100 42.97100
C  2.95800 48.81400 41.46100
O  2.47100 47.74600 41.64100
C  4.24100 49.12600 40.62400
C  3.97800 48.50700 39.30200
O  3.06900 48.84100 38.50100
O  4.90300 47.53400 39.11400
C  4.75700 46.52800 38.05600
H  8.27800 54.71500 40.08500
H  3.25100 58.30900 42.30300
H  -0.29600 53.02400 43.05000
H  7.30900 50.14300 40.43000
H  7.85400 52.41600 38.70300
H  9.76700 51.43900 39.85100
H  9.01700 51.86600 41.43500
H  9.64300 53.08200 40.24800
H  6.78200 49.14300 38.60900
H  7.92700 50.29000 38.19000
H  5.05100 51.17900 37.72500
H  5.44600 49.66800 37.02500
H  8.48900 56.78300 39.25400
H  8.81800 57.83600 40.62500
H  8.00200 58.59700 39.31300
H  4.27700 60.12100 42.39200
H  3.78900 59.72100 40.73900
H  4.61700 61.26300 41.18800
H  0.57400 57.64300 42.32700
H  -0.18800 55.41500 43.95900
H  2.24700 57.89200 44.63000
H  1.03100 56.66800 45.22100
H  0.46000 58.16200 44.71500
H  -0.85500 55.45800 40.97000
H  -1.43400 56.75500 41.93600
H  -3.18900 55.65800 42.68300
H  -2.18300 54.60400 43.62800
H  -2.55500 54.12200 41.98700
H  0.11500 48.98100 43.04400
H  -0.85700 50.16600 42.28000
H  -0.14700 50.57200 43.92500
H  5.19000 48.72800 40.98300
H  5.03800 46.85800 37.05600
H  3.79200 46.03700 38.18200
H  5.46200 45.73700 38.31400
Mg -12.16900 15.14500 42.76600
C  -8.82400 13.95800 42.37500
C  -11.18400 17.75600 40.72300
C  -15.32300 15.92500 42.51000
C  -12.98400 12.11100 44.27800
N  -10.22100 15.73800 41.62200
C  -8.96600 15.20600 41.70200
C  -7.98600 15.95300 40.89700
C  -8.71800 17.33700 40.72300
C  -10.17900 16.92200 41.03600
C  -8.10600 18.54100 41.46100
C  -7.56500 15.25400 39.56300
C  -6.09100 14.91700 39.37900
H  -5.38400 15.52400 38.18700
N  -13.10700 16.72400 41.77100
C  -12.55200 17.68300 41.04800
C  -13.55300 18.65300 40.70600
C  -14.86500 18.05800 41.08200
C  -14.46200 16.88000 41.85500
C  -13.30600 20.01500 39.97300
C  -16.26200 18.64700 40.80100
O  -16.35300 19.76000 40.17800
C  -17.57100 18.04700 41.35600
N  -13.85800 14.23500 43.42500
C  -15.08100 14.72700 43.19000
C  -16.24900 13.88700 43.87000
C  -15.48800 12.62700 44.44600
C  -14.03000 12.96300 44.00700
C  -16.96600 14.80800 44.99000
C  -15.86600 11.25700 43.73300
C  -17.03900 10.61700 44.47000
N  -11.11900 13.44600 43.30800
C  -11.57200 12.24600 43.89600
C  -10.47900 11.31200 44.09700
C  -9.40600 11.95100 43.45400
C  -9.85100 13.25800 43.04100
C  -10.54500 9.99400 44.76200
C  -7.99300 11.71300 43.09300
O  -7.21500 10.78100 43.31100
C  -7.61200 13.00100 42.34200
C  -6.36300 13.54000 42.84900
O  -6.28000 14.31200 43.84100
O  -5.27300 13.19800 42.12000
C  -4.00600 13.81100 42.61500
H  -10.85900 18.60900 40.12300
H  -16.36800 16.20000 42.35000
H  -13.20600 11.18900 44.81900
H  -7.17900 16.05800 41.62200
H  -8.74200 17.66100 39.68300
H  -8.06900 19.46500 40.88400
H  -7.13300 18.30000 41.89100
H  -8.72100 18.62400 42.35700
H  -7.89700 15.89900 38.74900
H  -8.22200 14.39100 39.45500
H  -5.95700 13.83900 39.29100
H  -5.58000 15.23900 40.28700
H  -13.78800 20.84900 40.48200
H  -13.47900 19.93800 38.90000
H  -12.23000 20.11500 40.12000
H  -17.47800 18.03600 42.44200
H  -17.62400 17.11900 40.78600
H  -18.45800 18.65700 41.19100
H  -16.90200 13.61800 43.04000
H  -15.61700 12.61000 45.52800
H  -16.93300 14.33900 45.97400
H  -18.03900 14.88700 44.81800
H  -16.60300 15.83300 45.05300
H  -15.07400 10.52000 43.60100
H  -16.17600 11.43400 42.70300
H  -17.76500 10.37300 43.69400
H  -17.49700 11.22900 45.24800
H  -16.70900 9.61900 44.75700
H  -11.52900 9.69000 45.12000
H  -9.75700 9.94000 45.51300
H  -10.29700 9.20600 44.05100
H  -7.52600 12.76000 41.28200
H  -3.58400 13.09900 43.32500
H  -4.14300 14.81400 43.01700
H  -3.24200 13.96300 41.85200

