158

Mg 1.82000 -2.12200 44.63000
C  5.18600 -1.67200 44.46600
C  1.41300 0.42100 42.33200
C  -1.41600 -2.77800 44.65700
C  2.50600 -5.12100 46.49400
N  3.17100 -0.69600 43.58800
C  4.49100 -0.72800 43.73800
C  5.17000 0.16400 42.70900
C  3.95700 0.99300 42.04000
C  2.76600 0.23400 42.71700
C  3.89300 2.50600 42.36700
C  5.92400 -0.68400 41.56900
C  7.37000 -0.20600 41.37900
H  7.87200 0.23300 39.98200
N  0.19900 -1.19500 43.70500
C  0.19800 -0.20500 42.80600
C  -1.15400 0.13600 42.42800
C  -2.00700 -0.74500 43.13900
C  -1.06100 -1.66500 43.89200
C  -1.57200 1.27900 41.52700
C  -3.48600 -0.79600 42.98700
O  -4.09600 -0.06300 42.16400
C  -4.35900 -1.64800 43.92600
N  0.68300 -3.70600 45.42400
C  -0.72500 -3.69800 45.38200
C  -1.30300 -4.96700 46.16100
C  0.03100 -5.57100 46.77700
C  1.15200 -4.75900 46.24800
C  -2.32300 -4.46600 47.20600
C  0.15200 -7.03400 46.51000
C  0.55400 -7.84200 47.74300
N  3.47200 -3.18500 45.40300
C  3.61800 -4.36000 46.11700
C  4.97600 -4.62900 46.35000
C  5.71000 -3.56800 45.75400
C  4.73600 -2.77600 45.19000
C  5.56000 -5.81900 47.10100
C  6.96800 -2.95500 45.54500
O  8.12800 -3.31900 45.82100
C  6.67600 -1.70800 44.67300
C  7.15600 -0.45900 45.39500
O  6.63000 -0.01500 46.39100
O  8.22600 0.07500 44.81500
C  8.59700 1.46000 45.17800
H  1.23400 1.15900 41.54800
H  -2.48300 -3.00700 44.61200
H  2.72100 -6.00200 47.10200
H  5.76000 0.92700 43.21800
H  3.99300 0.94900 40.95200
H  4.47300 2.75700 43.25500
H  2.88600 2.73700 42.71600
H  4.23300 3.09700 41.51700
H  5.41000 -0.52300 40.62100
H  5.88300 -1.76200 41.72200
H  7.87300 -1.10600 41.73100
H  7.54300 0.60500 42.08600
H  -2.13700 0.87400 40.68900
H  -0.70300 1.79700 41.12000
H  -2.31400 1.90100 42.02800
H  -3.94200 -1.57400 44.93000
H  -4.37700 -2.68100 43.57800
H  -5.38300 -1.28100 43.99100
H  -1.79400 -5.68600 45.50500
H  -0.00500 -5.25100 47.81900
H  -2.79600 -3.52800 46.91700
H  -1.90000 -4.48400 48.21100
H  -3.08800 -5.22500 47.04000
H  0.86200 -7.27800 45.71900
H  -0.74400 -7.52900 46.13500
H  -0.02000 -8.76800 47.79100
H  0.53400 -7.22900 48.64500
H  1.57100 -8.21800 47.63300
H  6.57500 -5.59900 47.43100
H  5.46900 -6.69300 46.45700
H  5.07000 -6.00600 48.05700
H  7.22400 -1.97600 43.76900
H  8.06200 2.13700 44.51300
H  9.65000 1.69600 45.03000
H  8.36800 1.67100 46.22300
Mg 10.17700 47.60800 26.34400
C  8.44800 47.75100 29.48400
C  12.63200 49.43000 27.89800
C  11.72800 47.77800 23.42300
C  7.10600 46.99800 24.77900
N  10.54900 48.37800 28.40800
C  9.71200 48.28600 29.52600
C  10.38500 48.67400 30.85600
C  11.61400 49.52600 30.30500
C  11.58600 49.18200 28.78200
C  11.39800 51.04500 30.46300
C  10.85400 47.40000 31.69300
C  10.27300 47.45500 33.17500
H  10.39300 46.23400 34.06200
N  12.03900 48.23400 25.77700
C  12.90800 48.93500 26.58700
C  14.14000 48.99200 25.92000
C  13.92000 48.56300 24.58400
C  12.49200 48.20400 24.51700
C  15.45800 49.49900 26.50900
C  14.83500 48.19200 23.47400
O  14.52600 47.52200 22.47700
C  16.34600 48.52700 23.56200
N  9.54400 47.42700 24.33300
C  10.34000 47.37700 23.30100
C  9.57700 47.09800 21.95500
C  8.14300 46.75900 22.46200
C  8.23700 47.06500 23.98000
C  9.72100 48.21000 20.93100
C  7.41800 45.44000 22.15000
C  7.97600 44.15700 22.93800
N  8.21200 47.37700 27.02500
C  7.07600 47.04500 26.28600
C  5.95600 46.69400 27.13400
C  6.45700 46.94900 28.43100
C  7.77500 47.41100 28.30400
C  4.64400 46.10700 26.62400
C  6.11800 46.89200 29.75500
O  4.99800 46.68600 30.23600
C  7.42500 47.36000 30.58800
C  7.75500 46.16400 31.38600
O  8.43900 45.22000 31.09400
O  7.01900 46.23800 32.54300
C  6.80800 45.01800 33.39500
H  13.47000 50.00900 28.29000
H  12.21400 47.87300 22.44900
H  6.13900 46.95000 24.27400
H  9.71300 49.24400 31.49800
H  12.55200 49.38100 30.84100
H  10.71100 51.34100 31.25600
H  10.88500 51.48700 29.60900
H  12.34300 51.57800 30.57100
H  11.94200 47.37900 31.63500
H  10.57900 46.51900 31.11200
H  9.22800 47.69600 32.97900
H  10.82100 48.20700 33.74300
H  15.41900 49.76800 27.56500
H  15.76300 50.35800 25.91000
H  16.27300 48.81700 26.26600
H  16.78100 48.38600 22.57300
H  16.81300 47.90500 24.32700
H  16.35000 49.58300 23.82900
H  10.04600 46.16800 21.63500
H  7.50100 47.49100 21.97200
H  10.78000 48.43900 20.80700
H  9.27900 49.10500 21.36700
H  9.19100 47.91900 20.02400
H  7.59800 45.31100 21.08300
H  6.33100 45.39000 22.21900
H  8.52400 44.46300 23.83000
H  8.55200 43.57200 22.22100
H  7.09800 43.55700 23.17500
H  4.75200 45.34700 25.85100
H  4.07900 46.92500 26.17600
H  3.92300 45.79500 27.38000
H  7.20000 48.14200 31.31300
H  5.77100 44.72200 33.24200
H  6.93700 45.31800 34.43500
H  7.52800 44.22700 33.18400

