158

Mg 41.05900 7.80700 29.81800
C  42.96300 9.42300 32.29200
C  39.06500 6.30700 32.16700
C  39.44300 6.20700 27.30900
C  43.62200 8.77200 27.49300
N  41.20500 7.69600 32.02400
C  41.87800 8.64500 32.82100
C  41.35600 8.51900 34.29000
C  40.19800 7.48900 34.25500
C  40.15800 7.05700 32.72100
C  40.45100 6.32100 35.17900
C  40.95200 9.93100 34.70400
C  40.63200 9.99400 36.24400
H  41.34100 11.10300 37.06000
N  39.48600 6.55200 29.73900
C  38.71000 6.09000 30.82100
C  37.66700 5.28200 30.29600
C  37.61700 5.41200 28.89700
C  38.87200 6.12600 28.60700
C  36.71900 4.35200 31.11200
C  36.63300 4.81600 27.91400
O  36.78600 4.94100 26.71700
C  35.40200 4.21600 28.37300
N  41.47800 7.40900 27.73500
C  40.65400 6.74900 26.95000
C  41.29000 6.60400 25.54900
C  42.61700 7.33200 25.62200
C  42.54100 7.94200 27.00600
C  41.39900 5.13600 25.06300
C  42.96800 8.26400 24.40300
C  42.29900 9.60500 24.46100
N  42.99200 8.95700 29.81400
C  43.88600 9.22000 28.81700
C  44.96500 9.93600 29.34900
C  44.64800 10.13900 30.69600
C  43.46100 9.44300 30.96000
C  46.28000 10.35800 28.69400
C  45.03000 10.67100 32.02500
O  46.05300 11.27500 32.28100
C  43.83800 10.38700 33.03400
C  44.35000 9.81100 34.30500
O  44.57900 8.64500 34.52300
O  44.60900 10.83200 35.20800
C  45.12700 10.34100 36.48500
H  38.35500 5.98200 32.92900
H  38.97100 5.74500 26.44000
H  44.35600 9.11000 26.75900
H  42.18800 8.22000 34.92800
H  39.28300 8.02900 34.50000
H  39.95400 5.36400 35.02100
H  40.08400 6.58900 36.17000
H  41.50800 6.17400 35.40500
H  40.10800 10.30500 34.12400
H  41.75600 10.64400 34.51900
H  40.76200 9.04800 36.77000
H  39.54800 10.10200 36.27100
H  36.88100 3.32500 30.78400
H  35.66000 4.61100 31.11200
H  37.07400 4.39200 32.14200
H  34.66800 4.37500 27.58300
H  35.06400 4.92900 29.12500
H  35.58700 3.19200 28.69700
H  40.60000 7.10500 24.87000
H  43.40000 6.57500 25.65500
H  40.77900 5.01200 24.17500
H  40.98200 4.46900 25.81800
H  42.41200 4.82700 24.80400
H  42.59600 7.84500 23.46900
H  44.05000 8.32100 24.27800
H  41.51000 9.71500 23.71800
H  43.07200 10.37300 24.42500
H  41.77200 9.80100 25.39400
H  46.10100 10.29200 27.62000
H  47.17900 9.82100 28.99800
H  46.41600 11.41300 28.93100
H  43.21800 11.25700 33.25200
H  46.16200 10.00100 36.51600
H  44.54100 9.56100 36.97100
H  45.18800 11.22000 37.12700
Mg -1.42600 34.92600 27.38500
C  -2.80600 32.99200 29.97600
C  -0.17200 37.01000 29.58000
C  -0.90900 37.08700 24.73000
C  -2.94100 32.74800 25.16700
N  -1.66800 35.04100 29.57300
C  -2.13500 34.13000 30.46200
C  -1.66300 34.41500 31.87900
C  -0.71100 35.72400 31.70900
C  -0.86400 35.93300 30.16500
C  -1.27700 36.94400 32.54100
C  -0.78800 33.22700 32.45900
C  -1.18900 32.35800 33.62200
H  -0.54200 32.61200 34.96800
N  -0.66600 36.85400 27.18600
C  -0.11000 37.49200 28.21200
C  0.54900 38.68300 27.79200
C  0.30200 38.76300 26.38600
C  -0.48100 37.55400 26.05100
C  1.23600 39.51100 28.76700
C  0.80100 39.78000 25.40300
O  0.49700 39.67500 24.19200
C  1.84200 40.76500 25.70700
N  -1.65300 34.82900 25.21600
C  -1.51700 35.86500 24.36600
C  -1.90200 35.48300 22.92000
C  -2.18800 33.96800 23.05000
C  -2.29200 33.82700 24.60800
C  -3.01700 36.21000 22.21300
C  -1.18700 32.90500 22.45300
C  0.29500 33.20400 22.50800
N  -2.59500 33.20600 27.48900
C  -3.13400 32.45200 26.50700
C  -3.82600 31.27800 27.02700
C  -3.75100 31.45500 28.41400
C  -3.01400 32.64800 28.60000
C  -4.57200 30.26300 26.24400
C  -4.11100 30.93800 29.67800
O  -4.75300 29.95400 30.04500
C  -3.47300 31.84500 30.75900
C  -4.60100 32.42100 31.62100
O  -5.52000 33.10800 31.21300
O  -4.44200 32.04200 32.99000
C  -5.51000 32.42200 33.89100
H  0.47000 37.58400 30.25200
H  -0.66100 37.70500 23.86500
H  -3.40300 32.10100 24.41800
H  -2.37400 34.70800 32.65100
H  0.30200 35.53100 32.06300
H  -1.34400 37.82600 31.90500
H  -0.52600 37.10300 33.31500
H  -2.18800 36.69000 33.08300
H  0.17800 33.68200 32.67600
H  -0.60200 32.62500 31.56900
H  -1.29700 31.29100 33.42400
H  -2.20500 32.67200 33.86000
H  1.77500 40.34500 28.31800
H  1.99800 39.09400 29.42500
H  0.43700 39.98300 29.33900
H  2.18700 41.33400 24.84300
H  2.69700 40.12000 25.90600
H  1.55200 41.47700 26.48000
H  -0.97500 35.70200 22.39000
H  -3.13600 33.64500 22.62100
H  -3.49100 36.96500 22.84100
H  -3.78600 35.52600 21.85500
H  -2.68700 36.72400 21.31100
H  -1.42600 32.64200 21.42300
H  -1.43800 31.95200 22.91800
H  0.79500 32.37700 23.01300
H  0.47500 34.10500 23.09500
H  0.69600 33.16300 21.49500
H  -4.81600 29.39200 26.85300
H  -4.02200 30.00200 25.34000
H  -5.49100 30.81200 26.04000
H  -2.82000 31.16000 31.30100
H  -5.14900 33.10700 34.65800
H  -6.02400 31.60000 34.39100
H  -6.29800 32.81100 33.24700

