158

Mg 0.75700 7.96200 27.40500
C  1.44000 10.28300 29.92500
C  0.80100 5.40300 29.67900
C  0.11200 5.69300 24.95600
C  1.08500 10.51300 25.10900
N  1.08500 7.87000 29.52400
C  1.17400 8.92100 30.38200
C  1.15600 8.40700 31.84800
C  1.10600 6.82700 31.70800
C  1.08200 6.66500 30.19400
C  2.35700 6.05700 32.22800
C  -0.03400 9.06300 32.62300
C  -0.14900 8.82300 34.14100
H  0.96400 8.19400 34.96700
N  0.46500 5.92200 27.34000
C  0.61600 4.97000 28.38200
C  0.36000 3.62400 27.89600
C  0.06000 3.70400 26.54100
C  0.16800 5.17000 26.21000
C  0.28100 2.42300 28.83600
C  -0.30800 2.58300 25.50600
O  -0.74500 2.79400 24.40700
C  -0.29600 1.16500 25.86300
N  0.67400 8.12800 25.32900
C  0.31100 7.05600 24.55600
C  0.07300 7.46800 23.08500
C  0.42800 8.99300 23.14000
C  0.75200 9.26700 24.64600
C  0.97600 6.62400 22.08200
C  -0.57600 10.02700 22.50500
C  0.01800 10.98200 21.46900
N  1.35100 9.93600 27.41800
C  1.41100 10.86000 26.40900
C  1.83100 12.16300 26.94100
C  1.92400 11.95000 28.30300
C  1.53900 10.60600 28.58300
C  2.13300 13.41700 26.16000
C  2.34200 12.59900 29.59900
O  2.71800 13.76000 29.77800
C  2.00900 11.44600 30.69100
C  3.23600 11.14700 31.48100
O  4.20800 10.44800 31.12400
O  3.14600 11.70300 32.69200
C  4.21100 11.52400 33.65000
H  0.63400 4.63900 30.44000
H  -0.02800 4.91600 24.20100
H  1.00300 11.35700 24.42000
H  2.14400 8.70800 32.19900
H  0.18900 6.35900 32.06600
H  2.43900 5.07400 31.76600
H  2.22000 5.98700 33.30700
H  3.26400 6.64900 32.10900
H  -0.93500 8.71800 32.11500
H  -0.17000 10.10600 32.33300
H  -1.08100 8.30700 34.37300
H  -0.12300 9.82600 34.56900
H  -0.72500 2.00400 28.83100
H  0.40100 2.72500 29.87700
H  0.92900 1.57200 28.62500
H  0.55400 0.88900 26.48800
H  -0.05900 0.66400 24.92400
H  -1.22200 0.79700 26.30500
H  -0.99800 7.33600 22.93300
H  1.38000 9.06700 22.61500
H  1.18600 7.17100 21.16300
H  0.22800 5.84500 21.93400
H  1.92900 6.24900 22.45600
H  -0.86600 10.60700 23.38200
H  -1.48400 9.62400 22.05700
H  -0.75900 11.29900 20.77300
H  0.94900 10.58900 21.06300
H  0.41200 11.91500 21.87200
H  1.15900 13.71500 25.76900
H  2.83200 13.34300 25.32700
H  2.47700 14.23700 26.79100
H  1.23600 11.73600 31.40400
H  5.00700 10.80600 33.45000
H  3.63300 11.19700 34.51500
H  4.67200 12.48600 33.87200
Mg 26.25400 49.85000 26.48800
C  24.27900 51.12500 29.00200
C  28.57800 48.87200 28.77100
C  28.34200 49.21700 23.95700
C  24.14700 51.55300 24.13800
N  26.35200 49.92500 28.63800
C  25.39000 50.36300 29.49200
C  25.65600 49.97100 30.97700
C  27.19200 49.46900 30.83700
C  27.38200 49.45200 29.32900
C  28.13400 50.45800 31.68200
C  24.63600 48.93400 31.53800
C  23.92400 49.31400 32.82700
H  24.74900 49.98300 34.04400
N  28.17800 49.07300 26.40600
C  28.99600 48.67600 27.44800
C  30.18000 48.11700 26.94200
C  30.04600 48.08900 25.51900
C  28.86900 48.84000 25.22000
C  31.26000 47.54500 27.84100
C  31.00800 47.53800 24.49200
O  30.86400 47.58100 23.25400
C  32.16500 46.79900 24.93200
N  26.28200 50.32300 24.45600
C  27.19400 49.81400 23.56300
C  26.88900 49.92800 21.98600
C  25.48800 50.68200 22.19300
C  25.25200 50.81500 23.68300
C  27.92300 50.66500 21.07300
C  24.30700 49.84800 21.41300
C  23.94600 50.21400 19.91900
N  24.49100 50.98600 26.47200
C  23.80100 51.69100 25.46800
C  22.63100 52.34000 26.05900
C  22.83500 52.13400 27.39500
C  23.97400 51.35400 27.63100
C  21.53800 53.23000 25.37800
C  22.30400 52.48600 28.70800
O  21.29600 53.04500 29.04000
C  23.14200 51.68900 29.84400
C  23.50400 52.65000 30.91000
O  24.53100 53.26300 30.95400
O  22.58800 52.71000 31.94700
C  22.80500 53.73000 33.00400
H  29.23000 48.49400 29.56100
H  28.96100 48.77000 23.17700
H  23.51600 51.89200 23.31400
H  25.54600 50.86400 31.59200
H  27.35300 48.45000 31.18900
H  27.87100 51.49300 31.46400
H  29.07500 50.18000 31.20600
H  28.06200 50.16200 32.72900
H  25.19200 48.01500 31.72200
H  23.92800 48.75000 30.72900
H  23.45600 48.37400 33.11800
H  23.09700 49.99700 32.63100
H  32.25900 47.78600 27.47700
H  31.25100 46.46300 27.96800
H  31.17100 47.98400 28.83500
H  32.97600 47.41900 25.31400
H  32.51600 46.27100 24.04600
H  31.86800 46.03700 25.65400
H  26.89300 48.89900 21.62400
H  25.53300 51.64000 21.67400
H  28.51400 51.30300 21.73100
H  27.50800 51.38100 20.36300
H  28.58300 50.01100 20.50300
H  23.43600 50.02800 22.04200
H  24.50700 48.78200 21.51900
H  24.52900 49.51200 19.32300
H  24.27700 51.22600 19.68900
H  22.86800 50.14200 19.77100
H  21.38400 52.82400 24.37800
H  21.58700 54.31300 25.49400
H  20.57200 52.92100 25.77900
H  22.68800 50.79900 30.28000
H  23.73300 53.63000 33.56700
H  22.03100 53.74800 33.77200
H  22.76900 54.72500 32.56200

