158

Mg 47.43700 24.61400 28.94900
C  48.10200 26.79700 31.52900
C  46.38700 22.25600 31.14500
C  47.90300 22.19300 26.59100
C  49.18200 26.87700 26.85200
N  47.11600 24.60000 31.01000
C  47.57000 25.57200 31.91700
C  47.47200 25.13800 33.40400
C  47.06300 23.64600 33.25500
C  46.73700 23.47400 31.67800
C  48.17600 22.50400 33.75900
C  46.47500 26.03800 34.20800
C  46.72300 25.91000 35.75200
H  45.58800 26.46500 36.65800
N  46.82200 22.52900 28.82100
C  46.36300 21.79700 29.83200
C  45.96700 20.50900 29.28300
C  46.37800 20.49800 27.96600
C  47.07500 21.74300 27.70900
C  45.16600 19.42400 30.04600
C  46.32500 19.37800 26.92300
O  46.75600 19.64700 25.82300
C  45.76800 18.03100 27.26900
N  48.53100 24.57400 27.12700
C  48.47300 23.45100 26.31800
C  49.39900 23.62300 25.15300
C  49.43900 25.21300 25.02200
C  48.97200 25.63700 26.35400
C  50.77700 22.93600 25.22600
C  48.67100 25.92400 23.89200
C  47.18200 26.35700 24.19600
N  48.21800 26.54400 29.10000
C  48.79300 27.32000 28.13300
C  49.02100 28.66300 28.63700
C  48.82100 28.44600 30.03600
C  48.41800 27.17800 30.24400
C  49.40800 29.87000 27.75300
C  49.02600 29.04800 31.38300
O  49.34300 30.17500 31.71600
C  48.57900 27.97700 32.38400
C  49.71200 27.65800 33.32000
O  50.60500 26.83300 33.08000
O  49.55500 28.39700 34.47500
C  50.57500 28.03700 35.48600
H  46.07700 21.46800 31.83500
H  48.07800 21.47800 25.78400
H  49.61700 27.56400 26.12300
H  48.46600 25.01600 33.83500
H  46.24400 23.46400 33.95100
H  47.79300 21.69400 34.38000
H  49.06700 22.99500 34.15100
H  48.52200 22.12000 32.80000
H  45.50200 25.59200 33.99900
H  46.46200 27.06500 33.84300
H  47.65800 26.38400 36.05000
H  46.76800 24.85300 36.01500
H  44.91700 19.75700 31.05300
H  45.77300 18.51900 30.00300
H  44.27300 19.20800 29.46000
H  44.70700 18.17900 27.47300
H  46.36300 17.71500 28.12600
H  45.94000 17.39800 26.39900
H  48.86900 23.22400 24.28800
H  50.43400 25.64300 24.90300
H  51.59600 23.58500 25.53500
H  51.01200 22.41100 24.30000
H  50.78800 22.18300 26.01400
H  48.76000 25.36000 22.96300
H  49.13300 26.90800 23.82300
H  46.63300 26.16800 23.27300
H  47.02000 27.39500 24.48700
H  46.65500 25.79700 24.96800
H  48.94800 29.66900 26.78500
H  50.49100 29.83900 27.63200
H  49.06800 30.86000 28.05700
H  47.84200 28.57500 32.91900
H  50.67000 28.89700 36.14900
H  51.51400 27.63400 35.10600
H  50.13300 27.26900 36.12100
Mg -0.66600 42.67400 26.05300
C  1.98800 42.60100 28.32400
C  -2.82700 42.38300 28.69000
C  -3.15100 42.90800 23.86300
C  1.64700 43.31300 23.48400
N  -0.42100 42.40400 28.29100
C  0.74000 42.54900 28.96500
C  0.53600 42.68500 30.40900
C  -1.00900 42.41600 30.55800
C  -1.44700 42.37300 29.06800
C  -1.30800 41.18200 31.47400
C  0.93600 44.08500 30.93600
C  0.55000 44.46300 32.41600
H  0.49100 43.29000 33.42400
N  -2.66800 42.55400 26.25000
C  -3.38900 42.35800 27.41900
C  -4.76300 42.34600 27.07900
C  -4.95300 42.58200 25.72900
C  -3.56300 42.66400 25.19300
C  -5.80100 42.26100 28.09800
C  -6.25800 42.78700 24.91000
O  -6.26800 43.01000 23.66800
C  -7.67300 42.62400 25.55800
N  -0.71000 42.96900 23.91400
C  -1.89400 43.05400 23.27500
C  -1.80000 43.41900 21.79400
C  -0.18000 43.50200 21.66300
C  0.26100 43.30400 23.09800
C  -2.50300 42.43200 20.72700
C  0.30600 44.81300 20.93800
C  0.75400 45.98200 21.84200
N  1.42400 42.80000 25.87900
C  2.19600 43.09100 24.81000
C  3.54500 43.00100 25.17900
C  3.53300 42.73000 26.53100
C  2.18700 42.70600 26.91000
C  4.73000 43.17700 24.29700
C  4.34700 42.54400 27.70200
O  5.56600 42.48300 27.74500
C  3.35900 42.52700 28.95400
C  3.67600 41.44000 29.80800
O  3.61300 40.24700 29.49600
O  3.93600 41.88400 31.06000
C  4.08500 40.85900 32.12400
H  -3.50800 42.43300 29.54200
H  -3.99800 42.98600 23.17700
H  2.36000 43.56400 22.69500
H  1.13000 41.88700 30.85400
H  -1.52400 43.24900 31.03600
H  -2.11500 41.63000 32.05400
H  -0.49800 40.84400 32.11900
H  -1.70400 40.32900 30.92200
H  0.72400 44.89300 30.23600
H  2.01600 44.05400 31.08400
H  -0.36300 45.05500 32.36200
H  1.29300 45.21100 32.69000
H  -6.33100 43.21300 28.06100
H  -5.47300 42.04000 29.11400
H  -6.63600 41.60100 27.86200
H  -7.72900 41.59300 25.90600
H  -8.40800 42.90100 24.80200
H  -7.87100 43.27000 26.41400
H  -2.22400 44.42300 21.78900
H  0.17100 42.66500 21.05900
H  -1.86800 42.11300 19.90000
H  -3.37500 42.85900 20.23200
H  -2.83200 41.51500 21.21600
H  -0.56200 45.07100 20.33100
H  1.16900 44.49100 20.35700
H  0.53900 45.91700 22.90900
H  0.36600 46.93400 21.48000
H  1.81900 46.16600 21.69900
H  5.20300 44.06100 24.72400
H  4.50400 43.12200 23.23200
H  5.31000 42.26000 24.40100
H  3.53400 43.45200 29.50300
H  4.96400 40.22000 32.04300
H  3.16700 40.27600 32.20400
H  4.12500 41.51100 32.99700

