158

Mg 44.45200 4.07100 48.31600
C  41.94000 6.34800 47.42300
C  42.10800 1.61000 48.03000
C  46.90700 1.97900 48.40000
C  46.80700 6.79500 47.96500
N  42.28000 3.98500 47.61000
C  41.41100 5.06900 47.55200
C  39.99000 4.67700 47.19000
C  40.01600 3.10100 47.50300
C  41.57400 2.85500 47.68800
C  39.08600 2.69300 48.62100
C  39.60500 4.98600 45.72300
C  38.24700 5.60200 45.48500
H  37.79700 5.92300 44.01800
N  44.50300 2.03200 48.30200
C  43.49300 1.16200 48.25000
C  44.00100 -0.17900 48.38700
C  45.42400 -0.13600 48.55700
C  45.63300 1.38700 48.42100
C  43.05200 -1.35000 48.29400
C  46.30300 -1.37100 48.80300
O  45.83400 -2.52800 48.93900
C  47.84000 -1.23700 48.96200
N  46.63700 4.36900 48.20000
C  47.38600 3.29700 48.33900
C  48.88400 3.72600 48.44800
C  48.89400 5.26400 48.07800
C  47.39600 5.52600 48.14200
C  49.59600 3.39400 49.78100
C  49.52800 5.62600 46.72600
C  51.11700 5.61100 46.65500
N  44.42000 6.18800 47.98500
C  45.48700 7.06900 47.79000
C  44.89700 8.36700 47.47900
C  43.53300 8.10300 47.36800
C  43.21400 6.76900 47.57500
C  45.64200 9.70000 47.19700
C  42.28100 8.81300 47.12500
O  42.04700 10.02300 46.97500
C  41.18300 7.71000 47.28800
C  40.34900 8.10500 48.41400
O  40.41200 7.57100 49.48900
O  39.46700 9.19400 48.12200
C  38.67000 9.72800 49.21200
H  41.38800 0.79400 47.94600
H  47.76100 1.29900 48.38600
H  47.40800 7.70000 47.85400
H  39.25500 5.16600 47.83000
H  39.78500 2.50100 46.62300
H  39.66400 2.24900 49.43100
H  38.44100 1.98900 48.09600
H  38.47900 3.49100 49.04800
H  39.76600 4.17600 45.01100
H  40.24000 5.79600 45.36400
H  38.43700 6.59700 45.88500
H  37.52300 5.08600 46.11600
H  42.89500 -1.86300 49.24300
H  43.52500 -2.01100 47.56800
H  42.19100 -1.14400 47.65800
H  48.22400 -0.71300 48.08700
H  48.22900 -2.24300 48.81000
H  48.10500 -0.73100 49.89000
H  49.38400 3.16200 47.66200
H  49.54100 5.81900 48.75800
H  48.86900 2.91500 50.43600
H  50.17600 4.15900 50.29700
H  50.32400 2.60300 49.60000
H  49.13700 6.60400 46.44500
H  49.14400 4.97700 45.93900
H  51.39700 5.09600 45.73600
H  51.53200 5.16400 47.55800
H  51.37100 6.66600 46.54700
H  46.27500 9.66100 46.31000
H  46.19500 10.03200 48.07600
H  44.82700 10.39300 46.99100
H  40.50800 7.68400 46.43300
H  38.77900 9.21600 50.16800
H  37.61400 9.86500 48.98000
H  39.03400 10.74500 49.35100
Mg -10.75500 17.70200 42.25900
C  -7.30600 18.17200 42.89400
C  -11.07600 21.21300 42.31500
C  -13.78100 17.31000 40.99500
C  -10.07200 14.30300 41.93000
N  -9.37800 19.43500 42.53800
C  -8.08200 19.38800 42.72700
C  -7.43500 20.82900 42.63100
C  -8.69300 21.74200 42.91400
C  -9.81100 20.79100 42.62800
C  -8.64900 22.35000 44.38200
C  -6.95800 21.00700 41.10000
C  -5.37200 21.00400 40.88100
H  -4.80900 20.18100 39.65700
N  -12.20800 19.07200 41.71000
C  -12.18600 20.47100 41.82400
C  -13.40100 21.01900 41.36400
C  -14.15400 19.92600 40.86400
C  -13.37900 18.66600 41.14000
C  -13.85700 22.51800 41.24000
C  -15.48100 19.99700 40.15900
O  -16.01500 21.06800 39.97700
C  -16.13300 18.79400 39.52600
N  -11.75300 16.07000 41.61300
C  -13.03500 16.17200 41.27200
C  -13.59800 14.82200 40.99200
C  -12.46300 13.80600 41.34800
C  -11.35500 14.75300 41.62100
C  -14.96600 14.51200 41.68500
C  -12.18000 12.74600 40.28300
C  -12.74100 11.27500 40.51700
N  -9.03100 16.41200 42.55600
C  -8.96100 15.04900 42.35200
C  -7.59500 14.61900 42.57000
C  -6.88200 15.82300 42.83200
C  -7.80400 16.87700 42.78900
C  -7.13100 13.20700 42.45900
C  -5.57700 16.38800 43.06300
O  -4.47000 15.83000 43.13200
C  -5.76700 17.99400 43.20000
C  -5.23800 18.53500 44.50000
O  -5.54700 18.13900 45.55700
O  -4.32500 19.51900 44.30800
C  -3.72300 20.19300 45.46300
H  -11.20600 22.28700 42.46000
H  -14.80300 17.08300 40.68300
H  -9.96000 13.21800 41.88100
H  -6.59500 21.09100 43.27500
H  -8.69600 22.59600 42.23700
H  -9.57200 22.09800 44.90600
H  -8.75200 23.42600 44.23800
H  -7.72700 22.09900 44.90600
H  -7.23100 22.00100 40.74700
H  -7.29600 20.17800 40.47800
H  -4.93700 20.50400 41.74700
H  -4.95300 22.00100 40.74500
H  -13.05300 23.16700 41.58800
H  -14.71200 22.84700 41.83200
H  -14.04300 22.82000 40.21000
H  -16.91900 19.16300 38.86800
H  -16.50400 18.20900 40.36700
H  -15.45000 18.30200 38.83300
H  -13.77800 14.76400 39.91800
H  -12.63600 13.37100 42.33200
H  -15.70500 14.24500 40.92900
H  -15.23000 15.39200 42.27000
H  -14.96100 13.73100 42.44600
H  -11.11700 12.52300 40.18500
H  -12.39500 13.15100 39.29400
H  -13.54100 11.29000 41.25800
H  -11.88800 10.66800 40.82200
H  -13.21900 10.93300 39.59900
H  -7.72500 12.69900 41.69900
H  -7.06700 12.68200 43.41200
H  -6.11700 13.27100 42.06700
H  -5.10000 18.36000 42.42000
H  -4.47100 20.40800 46.22600
H  -3.31700 21.13600 45.09800
H  -2.86600 19.71700 45.94000

