158

Mg 27.14500 50.16500 25.50900
C  25.31100 51.58400 28.18700
C  29.60500 49.42800 27.75700
C  28.70300 48.77000 23.06900
C  24.58500 51.13600 23.36600
N  27.36200 50.42400 27.80700
C  26.51200 50.99400 28.63300
C  27.03300 50.82100 30.08100
C  28.50000 50.46500 29.85200
C  28.53700 50.11500 28.35900
C  29.64000 51.52000 30.12700
C  26.13300 49.87500 30.94400
C  25.42600 50.55900 32.15700
H  26.34000 50.96000 33.26300
N  28.96300 49.28300 25.42100
C  29.85500 49.07100 26.44000
C  31.01100 48.28600 25.89500
C  30.70700 47.97400 24.57400
C  29.47500 48.73400 24.27900
C  32.26200 47.83600 26.72000
C  31.46500 47.29400 23.53200
O  31.11600 47.32700 22.33100
C  32.83000 46.67600 23.81200
N  26.86000 50.30500 23.41800
C  27.60500 49.51600 22.66000
C  27.08500 49.48900 21.18500
C  25.61500 49.98200 21.35600
C  25.64900 50.50700 22.76500
C  27.91400 50.40500 20.26100
C  24.41200 49.04900 20.93100
C  24.25200 47.84200 21.94000
N  25.36700 51.29500 25.65900
C  24.45600 51.60400 24.69900
C  23.35200 52.42900 25.23900
C  23.58500 52.27500 26.65700
C  24.88100 51.65400 26.85900
C  22.10300 52.94900 24.53200
C  23.07200 52.56100 27.97900
O  22.01300 53.00800 28.36700
C  24.18200 52.18000 29.04900
C  24.57100 53.37500 29.77100
O  25.38300 54.23400 29.47700
O  23.87500 53.35900 30.95200
C  24.02300 54.45500 31.92100
H  30.38700 49.15000 28.46700
H  29.14900 48.21200 22.24200
H  23.72400 51.39100 22.74400
H  27.18400 51.77900 30.57900
H  28.75500 49.57300 30.42500
H  29.20000 52.50700 30.27200
H  30.31400 51.58900 29.27300
H  30.26900 51.33700 30.99800
H  26.82500 49.09100 31.25300
H  25.41000 49.42700 30.26300
H  24.60700 49.97000 32.57100
H  25.04500 51.54500 31.89100
H  32.27500 46.77200 26.48300
H  32.08800 47.90400 27.79400
H  33.21500 48.25500 26.39800
H  33.32500 46.65500 22.84100
H  32.71200 45.66600 24.20400
H  33.38800 47.28500 24.52300
H  27.12900 48.47400 20.79100
H  25.44900 50.91100 20.81100
H  28.93500 50.34100 20.63500
H  27.61300 51.45100 20.20500
H  27.93800 50.02100 19.24100
H  24.59000 48.68100 19.92000
H  23.50800 49.65900 20.91800
H  23.18100 47.63900 21.97500
H  24.83800 47.84000 22.85900
H  24.59500 47.01200 21.32200
H  21.56400 52.04300 24.25600
H  22.19300 53.47400 23.58100
H  21.42100 53.43200 25.23300
H  23.97900 51.37900 29.76000
H  24.61100 55.22900 31.42800
H  24.59900 54.15700 32.79800
H  23.03900 54.90200 32.06200
Mg -10.83200 38.32600 42.55900
C  -8.79600 35.63700 41.53500
C  -8.89200 40.40900 40.70600
C  -13.30000 40.65200 42.76000
C  -13.15800 35.88400 43.63100
N  -9.11200 38.01900 41.04300
C  -8.37600 36.84900 40.91000
C  -7.08400 37.22300 40.01500
C  -7.05400 38.71200 40.20200
C  -8.47400 39.09300 40.63300
C  -5.91500 39.39600 41.14600
C  -7.29000 36.70100 38.52800
C  -6.09900 35.93600 37.92700
H  -5.54600 36.60700 36.67200
N  -11.00800 40.32500 42.05300
C  -10.02200 40.98400 41.36000
C  -10.42300 42.39800 41.34900
C  -11.74100 42.51100 41.91700
C  -12.04400 41.12500 42.34300
C  -9.62200 43.49300 40.65700
C  -12.63400 43.74100 41.91400
O  -12.24700 44.80200 41.41800
C  -13.98800 43.84600 42.55800
N  -12.97400 38.28000 43.02500
C  -13.74600 39.37500 43.11300
C  -15.13400 39.07200 43.72700
C  -15.06700 37.54600 44.01500
C  -13.67200 37.14800 43.45400
C  -15.36300 39.85500 45.07800
C  -16.14100 36.69100 43.25700
C  -17.54000 37.08000 43.52300
N  -10.95300 36.19400 42.81300
C  -11.89300 35.34000 43.28900
C  -11.35900 33.98200 43.42800
C  -10.14600 34.08800 42.67600
C  -9.96100 35.44400 42.29100
C  -12.08100 32.92200 44.13900
C  -9.00900 33.30400 42.30900
O  -8.63100 32.21200 42.57400
C  -8.14400 34.26400 41.44700
C  -6.78200 34.19500 42.07700
O  -6.06800 33.18500 42.13100
O  -6.52900 35.36600 42.78100
C  -5.31100 35.38700 43.52800
H  -8.22500 41.12500 40.22000
H  -13.98300 41.47000 42.99900
H  -13.88700 35.16600 44.01300
H  -6.22100 36.84300 40.56200
H  -6.98500 39.13300 39.19900
H  -5.93400 39.20500 42.21900
H  -6.17100 40.43700 40.94800
H  -4.93200 39.07200 40.80500
H  -7.61900 37.50300 37.86900
H  -8.10100 35.98500 38.65900
H  -6.13600 34.85300 37.80600
H  -5.28300 35.98500 38.64800
H  -9.61700 44.36500 41.31100
H  -10.25900 43.65600 39.78700
H  -8.60100 43.17600 40.44200
H  -14.00100 43.75600 43.64400
H  -14.58700 43.12500 42.00000
H  -14.49800 44.77300 42.29900
H  -15.91300 39.43000 43.05400
H  -15.05100 37.39500 45.09400
H  -16.26800 39.65100 45.65100
H  -15.33800 40.94200 45.00300
H  -14.48100 39.57700 45.65700
H  -16.07800 35.68200 43.66600
H  -15.91200 36.62500 42.19300
H  -17.91000 37.60800 42.64400
H  -17.53700 37.84500 44.30000
H  -18.24100 36.26700 43.70900
H  -13.16200 32.88100 44.00600
H  -12.03000 33.05400 45.22000
H  -11.85800 31.90900 43.80300
H  -8.04100 33.72900 40.50400
H  -4.53200 35.79500 42.88500
H  -5.10100 34.39600 43.93100
H  -5.41800 36.03200 44.40100

