158

Mg 52.69200 23.23700 44.84500
C  49.86500 25.02800 44.00800
C  51.43200 20.53000 43.41000
C  55.84800 21.93100 44.96700
C  54.23100 26.39400 45.81400
N  50.84900 22.85800 43.79100
C  49.75500 23.65800 43.55000
C  48.60900 22.90800 42.91800
C  49.03100 21.48100 43.26200
C  50.54900 21.57700 43.52100
C  48.15500 20.64400 44.33800
C  48.59400 23.28300 41.33200
C  47.33200 22.74300 40.56800
H  47.28800 23.23700 39.07900
N  53.45700 21.43600 44.39400
C  52.79200 20.40600 43.74000
C  53.67800 19.23500 43.66600
C  54.96100 19.62300 44.15000
C  54.79700 21.03900 44.54700
C  53.31800 17.80600 43.13100
C  56.21000 18.72800 44.25700
O  56.19300 17.59000 43.82400
C  57.48600 19.19900 45.00400
N  54.79000 23.98600 45.42100
C  55.80800 23.20900 45.47800
C  57.05100 23.97700 46.04700
C  56.55900 25.37200 46.14700
C  55.08100 25.31400 45.74600
C  57.57100 23.42100 47.36600
C  57.34700 26.39900 45.33700
C  57.59900 27.76500 46.06600
N  52.14100 25.35700 45.06600
C  52.83700 26.42600 45.52700
C  51.95400 27.52800 45.60500
C  50.79600 27.10100 44.97800
C  50.97300 25.72400 44.58100
C  52.17700 28.81400 46.33300
C  49.48700 27.43900 44.55500
O  48.82900 28.48300 44.58800
C  48.80900 26.09800 43.81500
C  48.42900 26.48500 42.41000
O  49.12900 26.63000 41.38900
O  47.14200 26.94800 42.44800
C  46.61900 27.74900 41.30600
H  50.95100 19.65700 42.96300
H  56.86700 21.54500 44.89800
H  54.67300 27.30700 46.22000
H  47.66800 23.15500 43.40900
H  49.02200 20.74000 42.46300
H  47.34000 20.19400 43.77200
H  47.51400 21.27400 44.95500
H  48.72200 19.97600 44.98700
H  49.45100 22.79700 40.86700
H  48.81800 24.31800 41.07700
H  46.43300 23.12700 41.04900
H  47.21900 21.65900 40.60600
H  53.52000 17.10000 43.93700
H  53.97500 17.68900 42.26900
H  52.33500 17.67800 42.67800
H  58.10400 18.32400 45.20800
H  57.25300 19.66700 45.96100
H  58.03000 19.87900 44.34900
H  57.79000 23.82000 45.26100
H  56.66400 25.71300 47.17700
H  56.98000 23.84600 48.17800
H  58.57900 23.77800 47.57400
H  57.52200 22.33900 47.49200
H  56.74500 26.64200 44.46100
H  58.33500 26.01800 45.07900
H  58.65200 27.98300 46.24600
H  57.01700 27.80300 46.98600
H  57.20700 28.55500 45.42500
H  52.47300 29.52900 45.56600
H  53.01500 28.73400 47.02600
H  51.27400 29.08000 46.88300
H  47.99300 25.76300 44.45400
H  46.73300 27.37800 40.28800
H  47.26400 28.61900 41.18700
H  45.64700 28.14200 41.60200
Mg 46.67400 35.16100 28.73500
C  45.08800 33.07000 31.19500
C  46.90300 37.54500 31.17200
C  47.65200 37.31200 26.39500
C  45.87200 32.74500 26.41900
N  46.26000 35.20000 30.98300
C  45.58600 34.22000 31.76000
C  45.45900 34.66400 33.19000
C  45.69200 36.21400 33.06700
C  46.34800 36.30600 31.67100
C  44.42800 37.00400 33.23000
C  46.48200 34.03900 34.16600
C  45.86900 33.89100 35.63600
H  46.14100 35.01200 36.63500
N  47.55800 37.11900 28.78900
C  47.59600 37.88900 29.94000
C  48.18700 39.16700 29.54400
C  48.29500 39.14300 28.11800
C  47.86600 37.79700 27.68300
C  48.38000 40.31100 30.53500
C  48.76800 40.20400 27.18000
O  48.83000 40.03700 25.97700
C  49.29800 41.54900 27.72600
N  46.61700 35.15200 26.66600
C  47.16900 36.11200 25.89500
C  46.87200 35.87500 24.37400
C  46.36400 34.34600 24.42000
C  46.29800 34.05000 25.98600
C  45.92600 36.96700 23.78200
C  47.32900 33.37400 23.60800
C  46.78500 32.45900 22.51800
N  45.84300 33.19700 28.74600
C  45.60200 32.36700 27.70500
C  45.01500 31.11100 28.16800
C  44.76400 31.37300 29.52500
C  45.25400 32.65500 29.82000
C  44.64300 29.89500 27.41900
C  44.18600 30.74400 30.69800
O  43.79000 29.62500 30.91200
C  44.20300 31.91900 31.77000
C  44.70500 31.39200 33.02500
O  45.63100 30.62000 33.23400
O  43.77600 31.74100 34.00200
C  43.85200 31.03200 35.27900
H  46.71700 38.31400 31.92400
H  47.91500 38.05200 25.63700
H  45.68400 32.03100 25.61500
H  44.48500 34.49500 33.64900
H  46.30800 36.63400 33.86100
H  43.58500 36.42100 33.59900
H  44.06800 37.35400 32.26300
H  44.63300 37.87700 33.85000
H  47.32100 34.73400 34.20500
H  46.83800 33.08300 33.78300
H  46.25100 33.01100 36.15500
H  44.79400 33.72000 35.58100
H  48.15100 41.32800 30.21500
H  49.43400 40.35800 30.80900
H  47.77100 40.20800 31.43300
H  49.93000 42.10400 27.03200
H  49.83000 41.39000 28.66400
H  48.41600 42.18500 27.80800
H  47.82100 35.92700 23.84000
H  45.35500 34.34800 24.00700
H  45.60600 37.71800 24.50400
H  45.05000 36.50500 23.32500
H  46.48300 37.50700 23.01700
H  47.86000 32.81800 24.38100
H  47.99700 34.02500 23.04400
H  45.78300 32.10000 22.75300
H  47.55300 31.68500 22.49500
H  46.84300 33.11300 21.64700
H  43.66800 30.05300 26.95900
H  44.54300 29.09300 28.15000
H  45.40000 29.57300 26.70400
H  43.22800 32.38500 31.91000
H  42.83000 31.21800 35.60700
H  44.55300 31.43700 36.00900
H  43.98200 29.94900 35.29600

