158

Mg 8.08500 3.21400 27.82900
C  9.73200 1.90100 30.60400
C  6.09400 4.99200 29.93700
C  6.65900 4.32300 25.12900
C  9.85400 0.79100 25.83300
N  7.89600 3.34600 29.95800
C  8.78700 2.88200 30.89900
C  8.41900 3.36600 32.28300
C  7.10400 4.20400 32.05500
C  7.03900 4.18800 30.57900
C  5.82200 3.49500 32.62500
C  9.60700 4.14500 32.83100
C  9.45200 4.70800 34.29400
H  9.86100 3.87600 35.55600
N  6.54200 4.52400 27.55100
C  5.82800 5.12200 28.53500
C  4.96200 6.10700 27.87800
C  5.14600 6.03800 26.44100
C  6.16600 4.92500 26.32000
C  3.99300 7.07500 28.61600
C  4.48100 6.73200 25.34500
O  4.83500 6.54000 24.18500
C  3.32300 7.68600 25.56000
N  8.35000 2.60400 25.69000
C  7.62600 3.22900 24.88200
C  7.93300 2.74400 23.43500
C  8.87500 1.57600 23.68200
C  9.03400 1.64300 25.14900
C  6.67600 2.50900 22.58100
C  10.25600 1.62900 22.93300
C  11.23100 2.74500 23.32200
N  9.49400 1.64300 28.17100
C  10.13400 0.74600 27.23300
C  11.07600 -0.10600 27.94200
C  10.95000 0.30200 29.29200
C  10.00500 1.38900 29.32900
C  11.91200 -1.17000 27.39300
C  11.45900 0.17000 30.68100
O  12.30600 -0.58800 31.17600
C  10.72400 1.18300 31.53500
C  10.05300 0.42300 32.61100
O  9.03400 -0.28100 32.50800
O  10.89300 0.54000 33.72400
C  10.44600 -0.28800 34.89800
H  5.53100 5.68100 30.57000
H  6.05700 4.76400 24.33200
H  10.47000 0.03700 25.33800
H  8.25000 2.49900 32.92100
H  7.04400 5.23900 32.39100
H  6.00800 2.56700 33.16600
H  5.14600 3.28800 31.79600
H  5.42100 4.13300 33.41300
H  9.85700 4.87600 32.06300
H  10.38200 3.37900 32.87600
H  8.42200 4.92400 34.57500
H  9.94100 5.68200 34.27400
H  4.28800 8.10300 28.82600
H  3.76400 6.69600 29.61200
H  2.98100 7.09300 28.21000
H  3.27000 8.31700 26.44700
H  2.37700 7.16400 25.41800
H  3.25100 8.35400 24.70200
H  8.46900 3.57900 22.98400
H  8.31200 0.71600 23.32100
H  5.75600 2.78900 23.09300
H  6.62400 1.44400 22.35500
H  6.71100 3.19100 21.73100
H  9.90000 1.69600 21.90500
H  10.79000 0.68000 22.96500
H  10.64800 3.31800 24.04300
H  11.41200 3.35900 22.44000
H  12.15800 2.38000 23.76400
H  11.52500 -1.35900 26.39200
H  11.77900 -2.06500 28.00100
H  12.97200 -0.91700 27.37900
H  11.52200 1.83600 31.89000
H  10.23200 -1.23700 34.40600
H  9.54300 0.09300 35.37400
H  11.30400 -0.26300 35.56900
Mg 40.24600 10.33500 29.47800
C  42.22700 11.31300 32.03000
C  37.97800 9.10600 31.93200
C  38.20800 9.40300 26.98600
C  42.62300 11.26500 27.08400
N  40.21500 10.04300 31.77200
C  41.00200 10.86800 32.53800
C  40.58500 10.89300 34.01800
C  39.28600 10.00400 33.91700
C  39.14500 9.71600 32.43400
C  39.36200 8.74400 34.84700
C  40.34900 12.31900 34.56400
C  39.87000 12.29800 36.05600
H  40.52600 13.20900 37.04300
N  38.38000 9.40600 29.45600
C  37.65200 8.87700 30.53100
C  36.46500 8.30900 30.12300
C  36.44400 8.40000 28.69100
C  37.69000 9.06700 28.28600
C  35.42200 7.73800 31.08100
C  35.32100 7.91800 27.75400
O  35.40900 8.16200 26.57600
C  34.13300 7.13600 28.31400
N  40.53100 10.11700 27.27100
C  39.42500 9.79500 26.53900
C  39.71300 10.16000 24.99100
C  41.04300 10.91800 25.03900
C  41.39900 10.83400 26.55600
C  39.83600 8.92300 24.06300
C  40.99700 12.39400 24.51900
C  39.78100 13.30400 24.90300
N  42.08400 10.94200 29.47900
C  42.94600 11.26900 28.47400
C  44.20700 11.73200 29.06300
C  43.93500 11.86000 30.41200
C  42.66000 11.32600 30.69600
C  45.48500 12.14400 28.45000
C  44.47200 12.31500 31.74500
O  45.55100 12.84900 31.96300
C  43.39700 11.87400 32.79200
C  44.01800 10.97900 33.84500
O  43.99700 9.73600 33.91000
O  44.37600 11.76300 34.95200
C  44.83600 11.02800 36.12100
H  37.24400 8.76300 32.66400
H  37.50200 9.30300 26.15900
H  43.35000 11.71300 26.40300
H  41.37400 10.48800 34.65200
H  38.48100 10.70300 34.14400
H  40.40900 8.62000 35.12400
H  38.88900 7.90900 34.33000
H  38.79900 8.98600 35.74900
H  39.59000 12.74000 33.90500
H  41.24900 12.93300 34.51800
H  39.88100 11.25500 36.37300
H  38.80600 12.53500 36.05100
H  34.87100 6.88100 30.69400
H  34.75500 8.54400 31.38700
H  35.84100 7.30000 31.98700
H  33.65000 7.61800 29.16300
H  34.40000 6.10800 28.56000
H  33.34500 7.19100 27.56300
H  39.06600 10.93600 24.58200
H  41.83000 10.40800 24.48400
H  38.80900 8.84500 23.70700
H  40.16100 8.00800 24.55800
H  40.55000 9.08700 23.25700
H  41.03800 12.44700 23.43100
H  41.91700 12.88400 24.83800
H  38.89800 12.84000 25.34200
H  39.52700 13.73600 23.93500
H  40.02300 14.09200 25.61500
H  45.88500 13.00700 28.98200
H  45.43700 12.39500 27.39100
H  46.22400 11.34300 28.48000
H  43.21100 12.81200 33.31400
H  45.71000 10.40000 35.94800
H  44.08500 10.28700 36.39700
H  44.92200 11.67100 36.99700

