158

Mg 40.56600 9.68900 29.45500
C  42.47700 10.73400 32.21600
C  38.35200 8.29700 31.56100
C  39.08400 8.41400 26.73100
C  42.97200 11.21100 27.33600
N  40.57400 9.40300 31.67700
C  41.28700 10.09500 32.66400
C  40.60100 9.88900 34.04800
C  39.30700 9.11900 33.74200
C  39.36600 9.00400 32.17000
C  39.03300 7.79100 34.52300
C  40.34700 11.23300 34.89200
C  40.94200 11.24800 36.28200
H  40.60200 12.26800 37.27300
N  38.97900 8.55100 29.17900
C  38.14700 8.09000 30.17400
C  37.10000 7.32400 29.56400
C  37.28000 7.37400 28.18000
C  38.52100 8.13100 27.95600
C  36.06400 6.59400 30.44400
C  36.45900 6.82600 27.08300
O  36.55900 7.22100 25.95800
C  35.21100 5.92700 27.36600
N  40.97400 9.80700 27.29300
C  40.18100 9.21100 26.38100
C  40.67700 9.47600 24.94100
C  41.99800 10.30900 25.14900
C  41.90600 10.57300 26.66900
C  40.91000 8.23700 24.04900
C  42.07600 11.48100 24.27300
C  41.16100 12.75900 24.54100
N  42.32100 10.70900 29.63100
C  43.15300 11.28400 28.74300
C  44.21100 12.02600 29.39900
C  44.06500 11.67600 30.75900
C  42.85100 10.96400 30.90600
C  45.25500 12.86700 28.78700
C  44.50800 11.98500 32.06400
O  45.48600 12.66600 32.41100
C  43.53200 11.41400 33.06800
C  44.35300 10.48500 33.92400
O  44.68500 9.34200 33.68000
O  44.55600 11.05300 35.16700
C  45.23800 10.26500 36.13400
H  37.43300 8.30800 32.15000
H  38.70600 7.93400 25.82600
H  43.75300 11.58900 26.67300
H  41.30100 9.33000 34.66900
H  38.50600 9.82400 33.96500
H  37.98100 7.58300 34.32900
H  39.09300 7.87600 35.60800
H  39.67600 6.98600 34.16700
H  39.27500 11.34900 35.05100
H  40.59900 12.15400 34.36700
H  42.02300 11.33000 36.16800
H  40.75600 10.24200 36.65700
H  35.07400 6.85800 30.07300
H  36.18700 6.96300 31.46200
H  36.15100 5.50800 30.39500
H  35.54200 4.95600 27.73100
H  34.79400 5.69200 26.38600
H  34.45600 6.43600 27.96600
H  39.99100 10.16100 24.44200
H  42.91700 9.76100 24.94100
H  40.54800 7.38700 24.62700
H  41.94700 8.12100 23.73400
H  40.28400 8.31400 23.16000
H  41.81700 11.18300 23.25700
H  43.07200 11.92300 24.26200
H  40.35300 12.85400 23.81600
H  41.76300 13.66200 24.63500
H  40.74300 12.63500 25.54000
H  44.89000 13.13300 27.79500
H  46.09600 12.17400 28.76600
H  45.26000 13.73800 29.44300
H  43.06000 12.22100 33.62900
H  44.83100 9.25400 36.13100
H  45.04700 10.64700 37.13700
H  46.31000 10.20900 35.94400
Mg 29.11500 57.21600 41.31400
C  26.33600 55.35400 40.24100
C  31.10500 55.10300 39.61200
C  31.47500 59.70100 41.29100
C  26.67800 59.77300 42.26800
N  28.80900 55.54600 40.03100
C  27.56900 54.94200 39.74500
C  27.75300 53.66200 38.88300
C  29.31200 53.40700 38.98400
C  29.77600 54.77700 39.45600
C  29.81900 52.19200 39.88300
C  27.18300 53.76800 37.49000
C  27.55300 55.13000 36.70900
H  27.62800 55.12000 35.25600
N  30.96400 57.33400 40.77800
C  31.69800 56.34000 40.15300
C  33.09800 56.63300 40.03700
C  33.23100 57.98400 40.54400
C  31.86200 58.36500 40.95100
C  34.18800 55.70600 39.45900
C  34.50800 58.65300 40.77400
O  35.55000 58.18900 40.34200
C  34.65200 59.97700 41.52900
N  29.03900 59.47600 41.64900
C  30.21300 60.24100 41.65100
C  29.93700 61.72100 41.97000
C  28.40200 61.68400 42.32500
C  28.01200 60.15200 42.13400
C  30.81800 62.28200 43.10400
C  27.53000 62.80900 41.68700
C  26.54800 63.55500 42.57200
N  26.93600 57.48300 41.50700
C  26.15200 58.55700 41.98900
C  24.77400 58.07000 41.95200
C  24.77500 56.84500 41.27400
C  26.11900 56.53600 41.01600
C  23.58700 58.67700 42.67700
C  23.87300 55.78600 40.80100
O  22.66400 55.59300 40.83800
C  24.81300 54.86100 40.03000
C  24.57200 53.39900 40.51000
O  24.54300 53.09700 41.68600
O  24.43700 52.63500 39.41700
C  24.31800 51.21700 39.76600
H  31.85800 54.44600 39.17100
H  32.27200 60.44700 41.26900
H  25.89700 60.44400 42.63100
H  27.44600 52.69900 39.29200
H  29.80900 53.34000 38.01600
H  29.63000 51.17900 39.52900
H  29.25700 52.43500 40.78500
H  30.86600 52.29800 40.16600
H  26.09600 53.69100 37.51000
H  27.53300 52.93100 36.88500
H  28.44400 55.64100 37.07400
H  26.70400 55.76600 36.95800
H  33.93700 55.39600 38.44500
H  34.33100 54.86800 40.14100
H  35.15500 56.14200 39.21000
H  34.27800 60.81700 40.94400
H  35.71900 60.13400 41.68800
H  34.05100 59.79500 42.42000
H  30.10700 62.30700 41.06700
H  28.42600 61.87400 43.39800
H  30.42700 62.47300 44.10400
H  31.43800 63.10900 42.75800
H  31.63500 61.56500 43.17500
H  26.95700 62.39200 40.85800
H  28.13800 63.61700 41.27900
H  26.62600 63.10100 43.56000
H  25.52900 63.28200 42.29600
H  26.77800 64.62000 42.56600
H  23.95600 59.17800 43.57200
H  22.92500 57.82800 42.84200
H  23.13400 59.44000 42.04300
H  24.52100 54.88000 38.98000
H  25.00300 50.91400 40.55800
H  24.45500 50.56500 38.90400
H  23.25000 51.10600 39.95700

