158

Mg 0.80800 7.43000 24.93000
C  1.33000 9.16400 27.87100
C  1.06300 4.47900 26.77900
C  0.63200 5.69500 21.99500
C  1.06200 10.47700 23.09700
N  1.06500 6.93500 27.07700
C  1.25100 7.80200 28.10600
C  1.27400 7.08000 29.51000
C  1.23300 5.59300 29.05600
C  1.02700 5.68400 27.46100
C  2.43800 4.75100 29.43800
C  0.05700 7.37900 30.48900
C  0.42800 7.52600 31.98700
H  1.61000 6.78000 32.55600
N  0.68000 5.37400 24.47200
C  0.88500 4.36700 25.33800
C  0.91200 3.06400 24.63700
C  0.76600 3.36700 23.23500
C  0.68100 4.90200 23.16300
C  1.04500 1.76800 25.29000
C  0.62500 2.51400 22.01300
O  0.45000 2.93500 20.83200
C  0.45000 1.00900 22.18700
N  0.90700 7.96200 22.88800
C  0.65500 7.10500 21.88500
C  0.48600 7.83700 20.50000
C  0.59200 9.33100 20.87300
C  0.90400 9.28500 22.36800
C  1.36800 7.34900 19.31200
C  -0.49500 10.28000 20.33500
C  -1.95400 10.36300 20.94600
N  1.09100 9.42400 25.32100
C  1.17400 10.53100 24.55300
C  1.18900 11.72500 25.44600
C  1.30100 11.24100 26.72200
C  1.17900 9.85400 26.62000
C  1.22000 13.13700 25.03500
C  1.49500 11.62300 28.10800
O  1.63500 12.70100 28.66700
C  1.49200 10.27900 28.88700
C  2.66900 10.26300 29.84100
O  3.75900 9.72500 29.60600
O  2.27100 10.89400 31.01300
C  3.26500 11.04600 32.12100
H  1.13100 3.58500 27.40200
H  0.49000 5.23100 21.01600
H  0.97600 11.47600 22.66300
H  2.26200 7.31300 29.90700
H  0.30000 5.11000 29.34600
H  2.10800 3.94500 30.09300
H  3.11100 5.37500 30.02600
H  3.03500 4.31500 28.63600
H  -0.80800 6.71800 30.42900
H  -0.25600 8.37900 30.18700
H  -0.35100 7.00400 32.54300
H  0.44600 8.59500 32.19700
H  0.49100 0.95400 24.82200
H  0.58700 1.73200 26.27900
H  2.08900 1.46200 25.23000
H  1.33200 0.67700 22.73600
H  0.45900 0.65800 21.15500
H  -0.48800 0.70000 22.64900
H  -0.55900 7.71100 20.21700
H  1.51200 9.72400 20.44000
H  1.86100 6.40400 19.54000
H  2.08800 8.14600 19.12400
H  0.70200 7.15000 18.47300
H  -0.55500 9.95300 19.29700
H  -0.07400 11.28500 20.33900
H  -2.00000 9.53800 21.65700
H  -2.73000 10.23000 20.19200
H  -2.15800 11.33000 21.40600
H  2.19700 13.55100 25.28300
H  0.40100 13.56600 25.61200
H  1.01300 13.32300 23.98100
H  0.60000 10.23600 29.51200
H  4.18700 11.43200 31.68600
H  3.45800 10.03900 32.49000
H  2.84300 11.60800 32.95400
Mg 42.56800 41.55600 25.94600
C  41.70400 43.94800 28.34100
C  43.43400 39.39400 28.41400
C  43.76000 39.39500 23.54700
C  41.96400 43.91700 23.48400
N  42.78000 41.76200 28.09600
C  42.22600 42.77600 28.88800
C  42.26000 42.38600 30.36100
C  42.77900 40.91500 30.37900
C  43.07000 40.63000 28.85000
C  43.92700 40.70700 31.33100
C  40.93600 42.61500 31.09400
C  40.73800 42.02400 32.51400
H  40.27700 42.84700 33.68400
N  43.54600 39.62400 26.00100
C  43.62500 38.88200 27.11600
C  44.09600 37.52900 26.73900
C  44.20500 37.51700 25.29500
C  43.81000 38.89600 24.90300
C  44.26500 36.32300 27.70300
C  44.55500 36.37000 24.32200
O  44.65700 36.45500 23.13900
C  44.88600 35.04200 24.93200
N  42.91600 41.64000 23.84700
C  43.33600 40.64500 23.08300
C  43.29400 40.94000 21.59300
C  42.71600 42.38600 21.60400
C  42.51600 42.74700 23.10700
C  44.70700 40.79400 20.85300
C  41.36500 42.51400 20.82900
C  40.13800 41.87600 21.37000
N  41.99600 43.59000 25.82200
C  41.69200 44.37400 24.75600
C  41.36500 45.68800 25.25700
C  41.26700 45.59700 26.61600
C  41.63300 44.24000 26.93500
C  40.99400 46.87300 24.36000
C  40.84100 46.20600 27.87400
O  40.41500 47.30400 28.17700
C  41.14900 45.19600 29.00900
C  42.11400 45.76000 29.95400
O  43.27500 45.96500 29.77600
O  41.47100 46.08400 31.08100
C  42.27100 46.80800 32.14400
H  43.56200 38.73000 29.27100
H  44.05100 38.77200 22.69900
H  41.86200 44.60700 22.64400
H  42.83900 43.14200 30.89200
H  41.98600 40.23300 30.68700
H  44.81700 40.82800 30.71300
H  43.91600 39.68000 31.69600
H  43.86900 41.39500 32.17300
H  40.06500 42.38800 30.47800
H  40.84500 43.65300 31.41300
H  41.67600 41.55200 32.80600
H  39.92400 41.30300 32.43700
H  44.15200 36.71100 28.71500
H  45.26100 35.93400 27.49200
H  43.54300 35.50700 27.65800
H  44.07100 34.62300 25.52300
H  45.70000 35.28900 25.61300
H  45.33100 34.28900 24.28100
H  42.64200 40.25300 21.05300
H  43.39100 43.16300 21.24400
H  44.90700 41.70200 20.28300
H  44.49000 39.98000 20.16200
H  45.47500 40.41400 21.52700
H  41.52500 42.17500 19.80500
H  41.20700 43.59100 20.76100
H  39.26300 42.50800 21.21900
H  40.25100 41.59100 22.41600
H  40.14700 40.96400 20.77300
H  40.01400 47.32000 24.52600
H  41.11600 46.54800 23.32600
H  41.78600 47.60300 24.52800
H  40.26000 44.85600 29.54000
H  42.97000 47.49700 31.67200
H  42.70600 46.18300 32.92500
H  41.72600 47.60400 32.65100

