158

Mg 9.73900 47.68000 25.73800
C  7.69000 48.34600 28.47200
C  12.41500 48.53100 27.71000
C  11.82600 46.87400 23.11400
C  6.96500 47.68900 23.65900
N  9.99900 48.06600 27.90700
C  9.04300 48.34900 28.79700
C  9.66500 48.57400 30.22700
C  11.08000 49.13400 29.77700
C  11.17100 48.56600 28.35900
C  11.21800 50.68200 29.70800
C  9.75200 47.22000 30.96300
C  10.31000 47.24400 32.39200
H  9.39100 46.64400 33.53000
N  11.80500 47.63500 25.44300
C  12.80200 48.04600 26.40600
C  14.15100 47.91600 25.81800
C  13.93900 47.46400 24.47000
C  12.49500 47.25700 24.33900
C  15.42200 48.32500 26.57700
C  14.98400 47.20800 23.31800
O  14.69600 46.88300 22.15500
C  16.48300 47.05900 23.72600
N  9.45500 47.27800 23.71100
C  10.40800 46.95200 22.75700
C  9.81100 46.42300 21.46600
C  8.30500 46.90000 21.68500
C  8.22000 47.30800 23.11000
C  10.51300 47.00900 20.18500
C  7.29400 45.87500 21.07700
C  6.15900 46.47400 20.21000
N  7.78500 47.92700 25.92100
C  6.71200 47.95900 25.02100
C  5.45300 48.16900 25.65400
C  5.76000 48.34200 27.02300
C  7.21100 48.20800 27.16800
C  4.10400 48.34800 25.03900
C  5.25700 48.68000 28.34800
O  4.12800 48.87600 28.57400
C  6.48500 48.66400 29.36000
C  6.02300 47.66700 30.36800
O  5.87700 46.47200 30.27500
O  5.92100 48.30200 31.55400
C  5.22300 47.57400 32.57700
H  13.25000 49.04500 28.18900
H  12.42800 46.32700 22.38600
H  6.03400 47.80600 23.10200
H  9.07300 49.24800 30.84500
H  11.84500 48.80500 30.48100
H  10.24400 51.15400 29.83900
H  11.62200 50.96700 28.73700
H  11.90700 51.10100 30.44100
H  10.30000 46.47500 30.38600
H  8.71800 46.88000 31.01400
H  10.55800 48.27800 32.63200
H  11.27100 46.73200 32.39600
H  15.25100 48.16500 27.64200
H  15.81500 49.32900 26.41700
H  16.24700 47.61800 26.48700
H  17.15500 46.93700 22.87600
H  16.53300 46.10800 24.25500
H  16.76400 47.90800 24.34900
H  9.92900 45.34700 21.34100
H  8.03500 47.79600 21.12600
H  10.99900 47.96100 20.39900
H  9.77100 47.21500 19.41400
H  11.19200 46.29400 19.72100
H  6.70800 45.38700 21.85600
H  7.81000 45.04800 20.58900
H  6.47200 47.37400 19.67900
H  5.28300 46.90700 20.69200
H  5.82000 45.73400 19.48400
H  3.92300 47.37600 24.57900
H  4.02100 49.21200 24.37900
H  3.37800 48.38000 25.85100
H  6.66600 49.58500 29.91500
H  5.96800 46.88400 32.97200
H  4.31900 47.10200 32.19300
H  4.82300 48.26300 33.32100
Mg -2.78400 34.77500 27.02900
C  -4.72600 33.49100 29.70000
C  -1.25000 37.05500 29.10500
C  -1.50200 36.28300 24.34900
C  -4.48500 32.44800 24.98200
N  -3.04000 35.23600 29.12300
C  -3.82800 34.54400 30.04900
C  -3.40900 34.95400 31.41800
C  -2.34300 36.17100 31.20700
C  -2.14000 36.09600 29.70300
C  -2.92600 37.58400 31.62100
C  -2.80300 33.76300 32.23600
C  -3.51600 33.35300 33.57000
H  -2.80100 33.17900 34.93800
N  -1.62200 36.49300 26.79400
C  -0.99100 37.19400 27.75300
C  -0.10600 38.23600 27.17700
C  -0.18200 38.02600 25.76100
C  -1.13800 36.92600 25.55900
C  0.51900 39.32600 27.96400
C  0.47700 38.74500 24.63400
O  0.37800 38.41900 23.49300
C  1.32800 39.92200 25.00300
N  -3.15600 34.56200 25.00000
C  -2.39200 35.21700 24.09900
C  -2.53500 34.71100 22.66400
C  -3.29900 33.38700 22.89800
C  -3.70800 33.47500 24.38300
C  -3.18500 35.70900 21.71400
C  -2.40800 32.12300 22.55300
C  -3.16300 31.07400 21.66800
N  -4.32800 33.19900 27.25600
C  -4.88500 32.36800 26.31000
C  -5.77400 31.44900 27.00700
C  -5.77100 31.84800 28.38900
C  -4.82000 32.93200 28.42700
C  -6.52000 30.25900 26.50300
C  -6.29600 31.55100 29.62900
O  -6.98200 30.59900 29.94200
C  -5.73800 32.65600 30.56300
C  -6.82300 33.39100 31.21000
O  -7.23700 34.44500 30.74000
O  -7.26600 32.84300 32.38300
C  -8.40900 33.45000 33.07000
H  -0.67300 37.68000 29.79000
H  -0.93300 36.46500 23.43500
H  -4.90700 31.72100 24.28500
H  -4.27000 35.33500 31.96700
H  -1.45700 35.99300 31.81600
H  -3.98500 37.46200 31.84700
H  -2.93600 38.23000 30.74300
H  -2.31500 38.05700 32.39000
H  -1.78300 34.08700 32.44200
H  -2.80000 32.84200 31.65300
H  -3.81600 32.32700 33.35800
H  -4.30300 34.09600 33.70400
H  -0.12600 40.20000 27.88000
H  1.57400 39.48500 27.74000
H  0.50500 39.05600 29.02000
H  0.78300 40.76800 25.42100
H  1.65800 40.37700 24.06900
H  2.17600 39.62300 25.61900
H  -1.52200 34.49600 22.32400
H  -4.24100 33.32300 22.35200
H  -2.58500 35.84200 20.81400
H  -3.30900 36.70800 22.13200
H  -4.21200 35.37100 21.57500
H  -2.18000 31.54400 23.44800
H  -1.52800 32.46700 22.00800
H  -3.20100 30.12100 22.19600
H  -2.67600 30.87500 20.71400
H  -4.16600 31.38500 21.37300
H  -6.43700 29.45200 27.23100
H  -5.91600 29.86600 25.68500
H  -7.54000 30.38700 26.13900
H  -5.29700 32.11400 31.40000
H  -8.05400 34.35800 33.55700
H  -8.79700 32.78400 33.84000
H  -9.31200 33.56600 32.47000

