158

Mg 44.11000 42.33100 26.60700
C  42.84900 44.25900 29.21700
C  45.66200 40.43600 28.98300
C  45.38900 40.46700 24.24900
C  43.14600 44.79100 24.39400
N  44.09000 42.29700 28.91600
C  43.57400 43.22200 29.74300
C  43.84200 42.92100 31.23300
C  44.91400 41.87200 31.10000
C  44.88700 41.41300 29.63200
C  46.24300 42.42900 31.59800
C  42.58200 42.43400 32.02900
C  42.11500 43.48400 33.11100
H  41.52300 43.02200 34.44300
N  45.15400 40.60500 26.59800
C  45.74900 39.97800 27.63700
C  46.38000 38.75800 27.17000
C  46.16000 38.61900 25.79400
C  45.51100 39.89600 25.50600
C  47.00700 37.87900 28.14900
C  46.48200 37.40400 24.95400
O  46.26900 37.39800 23.75900
C  47.03300 36.06100 25.57600
N  44.38000 42.67800 24.63400
C  44.83200 41.71300 23.84900
C  44.61200 42.08500 22.34600
C  43.67300 43.35200 22.43300
C  43.72800 43.67500 23.88500
C  45.93300 42.36900 21.58100
C  42.24600 43.14000 21.86600
C  41.13200 42.58200 22.82100
N  43.25200 44.15300 26.70400
C  42.90000 45.08100 25.74300
C  42.19700 46.21800 26.32900
C  42.07500 45.84000 27.65300
C  42.75500 44.63400 27.84700
C  41.59300 47.43400 25.68900
C  41.63600 46.30200 28.92700
O  41.10000 47.39300 29.21800
C  42.08800 45.30200 30.00800
C  43.08800 46.00200 30.86100
O  44.19700 46.22700 30.50700
O  42.53700 46.49200 32.00700
C  43.37800 47.28300 32.84700
H  46.25300 39.93100 29.75000
H  45.62800 39.78800 23.42700
H  42.78800 45.56400 23.71000
H  44.26400 43.81800 31.68500
H  44.72000 41.02300 31.75600
H  46.29500 43.51000 31.46700
H  47.14000 42.06900 31.09400
H  46.32000 42.13600 32.64500
H  42.83500 41.48800 32.50700
H  41.76600 42.29000 31.32000
H  41.20300 43.96100 32.75200
H  42.80800 44.30900 33.27600
H  47.54800 38.52800 28.83700
H  47.70100 37.08000 27.88600
H  46.31300 37.26600 28.72400
H  46.43400 35.76500 26.43700
H  48.11600 36.13000 25.68100
H  46.83000 35.20700 24.93000
H  44.08100 41.20600 21.98100
H  44.05900 44.15200 21.80100
H  46.06600 43.37100 21.17300
H  46.13900 41.58300 20.85400
H  46.77300 42.17100 22.24600
H  42.30500 42.37100 21.09500
H  41.96600 44.04800 21.33100
H  40.86100 41.55800 22.56500
H  40.30300 43.28900 22.80200
H  41.37900 42.73000 23.87300
H  41.12300 47.04600 24.78500
H  42.22500 48.21800 25.27200
H  40.78600 47.88700 26.26400
H  41.19900 45.06200 30.59100
H  43.45300 46.67200 33.74600
H  42.85700 48.17400 33.19700
H  44.37000 47.57500 32.50100
Mg 5.76800 53.07300 41.35200
C  4.67200 49.82400 41.01900
C  8.65500 52.17700 39.45500
C  6.65200 56.30700 41.36200
C  2.70500 53.92400 42.76900
N  6.42100 51.25000 40.19400
C  5.83200 50.01600 40.30800
C  6.62200 48.94300 39.52100
C  8.05100 49.65600 39.42600
C  7.70800 51.14100 39.68600
C  9.14700 49.18700 40.47700
C  5.94300 48.55300 38.09700
C  5.54600 49.70000 37.17400
H  5.62300 49.44700 35.66300
N  7.50300 54.09000 40.66300
C  8.58800 53.54600 39.88100
C  9.46600 54.63500 39.65800
C  8.94100 55.78700 40.21500
C  7.66200 55.44200 40.81600
C  10.80300 54.41500 38.82100
C  9.64700 57.04600 40.13700
O  10.84800 57.14100 39.71200
C  9.10300 58.34100 40.69600
N  4.82300 54.91100 41.80800
C  5.40600 56.14100 41.89200
C  4.55500 57.25500 42.54800
C  3.23600 56.37500 42.81700
C  3.59500 54.97900 42.40000
C  5.18900 57.78900 43.81900
C  1.97500 56.91100 42.11200
C  1.24300 58.01900 42.80000
N  4.01600 52.12000 41.85700
C  2.92000 52.49600 42.58500
C  2.16300 51.32500 42.95200
C  2.86600 50.29500 42.45500
C  3.88000 50.82500 41.67300
C  0.87600 51.31600 43.73300
C  2.88900 48.88000 42.28300
O  2.04000 48.07100 42.63000
C  4.02600 48.52300 41.34600
C  3.47400 47.73600 40.26100
O  2.48900 48.07200 39.63000
O  4.09100 46.55100 40.14000
C  3.75600 45.63900 39.07100
H  9.61000 51.82300 39.06100
H  6.96400 57.34900 41.45300
H  1.82700 54.16700 43.37200
H  6.61200 48.06400 40.16600
H  8.53800 49.55200 38.45600
H  8.81500 48.55100 41.29700
H  9.46000 50.05900 41.05000
H  9.96900 48.77400 39.89200
H  5.07400 47.93000 38.30800
H  6.60700 47.81900 37.64000
H  5.98100 50.63800 37.52000
H  4.48400 49.89700 37.31500
H  10.61700 54.66600 37.77700
H  11.07400 53.37400 38.99700
H  11.61400 55.01700 39.23000
H  9.90800 59.07100 40.62000
H  8.86400 58.27300 41.75700
H  8.24100 58.61800 40.08900
H  4.26300 57.98600 41.79400
H  2.97400 56.44000 43.87300
H  4.54100 57.47200 44.63600
H  5.30100 58.87100 43.89500
H  6.19300 57.39400 43.97500
H  1.19100 56.18000 41.91400
H  2.36200 57.20700 41.13700
H  1.78800 58.39600 43.66500
H  0.25700 57.64300 43.07400
H  1.17600 58.82600 42.07100
H  0.17500 51.90400 43.14000
H  1.02300 51.78200 44.70700
H  0.52800 50.28600 43.80900
H  4.52500 47.85100 42.04400
H  4.54100 44.88400 39.03600
H  3.71000 46.08400 38.07700
H  2.91300 45.01600 39.37000

