158

Mg 42.67600 42.29100 25.88900
C  41.54200 44.46800 28.45200
C  43.87100 40.15500 28.18300
C  44.15300 40.69200 23.32300
C  41.66800 44.81400 23.54900
N  42.91900 42.44500 28.16100
C  42.21400 43.29800 28.99900
C  42.30900 42.83700 30.46300
C  43.15800 41.52800 30.33200
C  43.30000 41.34300 28.78900
C  44.49400 41.58700 31.09200
C  41.05800 42.67600 31.21600
C  41.28700 42.06600 32.62100
H  40.92500 43.00600 33.88200
N  43.71500 40.55600 25.73000
C  44.11700 39.77700 26.77200
C  44.62600 38.58300 26.32900
C  44.97900 38.80000 24.92900
C  44.33100 40.08300 24.59100
C  45.04100 37.45000 27.21500
C  45.66400 37.87200 23.87400
O  46.11800 38.32700 22.81400
C  46.00500 36.38400 24.28400
N  42.97700 42.75800 23.78900
C  43.56600 41.87100 22.96700
C  43.47300 42.28700 21.50600
C  42.25000 43.32300 21.60900
C  42.33300 43.69900 23.04700
C  44.73300 42.91300 20.88800
C  40.85100 42.85400 21.07100
C  40.13800 41.82100 21.99700
N  41.93000 44.25900 25.95000
C  41.45400 45.10800 24.95100
C  40.85900 46.25500 25.52000
C  40.80600 46.01300 26.87500
C  41.48300 44.78600 27.09500
C  40.39300 47.44800 24.68900
C  40.40000 46.53900 28.18100
O  39.86800 47.57900 28.59300
C  40.73800 45.44700 29.22600
C  41.61400 46.11700 30.33600
O  42.77700 46.24100 30.28500
O  40.88600 46.40000 31.39600
C  41.58500 46.83200 32.59500
H  44.19700 39.37300 28.87200
H  44.56100 40.24200 22.41600
H  41.16700 45.49600 22.85800
H  43.03900 43.52600 30.88800
H  42.54300 40.72200 30.73300
H  44.62500 42.49800 31.67600
H  45.35000 41.58900 30.41700
H  44.63300 40.77100 31.80100
H  40.35100 42.17600 30.55400
H  40.89900 43.73400 31.42300
H  42.26900 41.62600 32.79500
H  40.60700 41.21500 32.60400
H  46.11900 37.31800 27.11600
H  44.61000 36.57400 26.73100
H  44.60800 37.52700 28.21200
H  46.40500 35.73900 23.50100
H  45.11400 35.91400 24.70000
H  46.62800 36.50300 25.17000
H  43.07300 41.49700 20.87000
H  42.45600 44.24900 21.07300
H  44.41200 43.80300 20.34600
H  45.30300 42.27500 20.21300
H  45.35400 43.08400 21.76800
H  41.08400 42.51600 20.06100
H  40.26000 43.77000 21.06500
H  39.41100 42.41600 22.55000
H  40.83800 41.30300 22.65200
H  39.68500 40.97500 21.47900
H  39.86300 48.12900 25.35500
H  39.61800 47.18300 23.97000
H  41.21500 47.83700 24.08900
H  39.74500 45.15100 29.56400
H  41.49200 46.02200 33.31800
H  41.01400 47.70800 32.90100
H  42.62000 47.12300 32.41600
Mg -1.84500 33.82000 26.94900
C  -3.63800 31.96900 29.42000
C  -0.61600 35.73500 29.58300
C  -0.56000 35.94000 24.67700
C  -3.47100 32.11000 24.50700
N  -2.22300 33.92200 29.15500
C  -2.81100 32.93900 29.91300
C  -2.44600 33.10100 31.45200
C  -1.63500 34.39300 31.43500
C  -1.45400 34.67100 29.97500
C  -2.14500 35.61100 32.15900
C  -1.71500 31.85800 32.09800
C  -2.37400 31.09700 33.26500
H  -1.75800 31.27900 34.59800
N  -0.65600 35.56500 27.11900
C  -0.21800 36.13900 28.29100
C  0.66000 37.23000 27.93500
C  0.56400 37.46500 26.53700
C  -0.21700 36.31000 26.02300
C  1.37100 38.00500 28.95300
C  1.19300 38.55100 25.73900
O  1.08600 38.60800 24.49300
C  1.97700 39.68600 26.49000
N  -2.13300 34.10600 24.88800
C  -1.38600 34.98700 24.12600
C  -1.70800 34.78100 22.59100
C  -2.71700 33.57300 22.62200
C  -2.75000 33.19100 24.07600
C  -2.30200 35.96600 21.70000
C  -2.54500 32.39600 21.56300
C  -1.60200 31.21600 21.92500
N  -3.23800 32.37300 26.87400
C  -3.69600 31.64100 25.82400
C  -4.44700 30.57000 26.25300
C  -4.50900 30.67600 27.68800
C  -3.72000 31.78500 27.99400
C  -5.14800 29.49600 25.41600
C  -5.03100 30.05800 28.86500
O  -5.88200 29.16300 29.14200
C  -4.43000 30.82600 29.96800
C  -5.41900 31.19500 30.97900
O  -6.42900 31.92900 30.81000
O  -5.29100 30.42900 32.12100
C  -6.31200 30.50800 33.18000
H  -0.23000 36.17100 30.50600
H  -0.01700 36.59900 23.99600
H  -4.02500 31.40400 23.88500
H  -3.35700 33.32400 32.00900
H  -0.68700 34.17600 31.92800
H  -1.37600 36.35000 32.38400
H  -2.53000 35.32200 33.13700
H  -3.00300 36.05400 31.65300
H  -0.67800 32.07500 32.35100
H  -1.72000 31.05800 31.35800
H  -2.43100 30.01900 33.11900
H  -3.39600 31.47600 33.24600
H  2.39900 37.92400 28.60000
H  1.31300 37.55300 29.94300
H  0.89800 38.98400 29.03600
H  2.21800 40.39500 25.69700
H  2.95000 39.34900 26.84600
H  1.48500 40.19200 27.32000
H  -0.78800 34.39400 22.15400
H  -3.72800 33.92900 22.42600
H  -2.85600 36.66800 22.32300
H  -2.99600 35.54500 20.97300
H  -1.46500 36.46900 21.21600
H  -2.09200 32.85000 20.68200
H  -3.52600 32.05300 21.23500
H  -0.91000 30.96900 21.11900
H  -2.24500 30.37500 22.18600
H  -0.99600 31.55600 22.76500
H  -4.64300 29.19600 24.49700
H  -6.08100 29.92900 25.05700
H  -5.26700 28.59300 26.01500
H  -3.74100 30.15600 30.48300
H  -5.80500 30.95900 34.03400
H  -6.68800 29.52300 33.45700
H  -7.15500 31.15500 32.94100

