158

Mg 34.39700 3.25700 30.08000
C  31.99700 3.98700 32.51300
C  36.86800 3.46600 32.45700
C  36.68600 2.82000 27.62700
C  31.90200 3.74200 27.56500
N  34.45000 3.83000 32.26500
C  33.32600 3.91900 33.03700
C  33.76300 3.81600 34.51300
C  35.33900 3.90600 34.47000
C  35.61300 3.63600 32.99200
C  36.07900 5.16600 34.97900
C  33.18400 2.56800 35.15600
C  32.95400 2.58800 36.65200
H  33.72400 3.63100 37.49800
N  36.50200 2.95000 30.05700
C  37.35600 3.22600 31.20800
C  38.74000 3.13900 30.80800
C  38.67100 2.71900 29.46400
C  37.24400 2.81800 28.97500
C  40.00200 3.16300 31.80100
C  39.82300 2.57000 28.47800
O  39.63300 2.15400 27.32300
C  41.24200 2.73300 28.89400
N  34.33000 3.35800 27.86600
C  35.39400 3.05400 27.07600
C  34.96000 3.04700 25.57500
C  33.39500 3.07700 25.68300
C  33.14500 3.42700 27.15800
C  35.55400 4.22800 24.79600
C  32.63600 1.76300 25.15100
C  31.54300 2.03800 24.09500
N  32.35300 3.87400 30.01200
C  31.51900 3.90700 28.92700
C  30.19800 4.11200 29.45700
C  30.29600 4.20300 30.86100
C  31.63800 3.99400 31.15300
C  29.01900 4.37400 28.59300
C  29.57100 4.50600 32.10400
O  28.45200 4.92700 32.28600
C  30.64800 4.30000 33.23000
C  30.73400 5.51000 34.09500
O  30.58100 6.70300 33.73400
O  30.78800 5.14500 35.41500
C  30.49300 6.05700 36.49800
H  37.63500 3.40200 33.23100
H  37.47800 2.65600 26.89200
H  31.18500 3.88900 26.75500
H  33.37400 4.64600 35.10200
H  35.77600 2.99400 34.87500
H  35.29600 5.87900 35.24000
H  36.50400 5.65700 34.10300
H  36.76200 5.07700 35.82400
H  33.92400 1.77400 35.05000
H  32.26600 2.26900 34.65000
H  33.26700 1.64100 37.09300
H  31.89000 2.62000 36.88500
H  40.70400 2.38100 31.51200
H  39.82300 2.78900 32.81000
H  40.50200 4.12000 31.95100
H  41.88700 2.50400 28.04600
H  41.29100 1.91900 29.61700
H  41.51700 3.61200 29.47800
H  35.28000 2.17400 25.00600
H  33.01500 3.88500 25.05900
H  34.82800 4.88900 24.32300
H  36.16800 3.87300 23.96800
H  36.11100 4.86100 25.48700
H  32.15400 1.28900 26.00700
H  33.30400 1.09000 24.61300
H  31.44800 3.08100 23.79300
H  30.61000 1.74100 24.57500
H  31.70000 1.47900 23.17300
H  28.93800 5.43900 28.37900
H  28.13400 4.08700 29.16100
H  29.05000 3.71800 27.72300
H  30.22600 3.44600 33.76000
H  29.49500 6.02000 36.93400
H  30.54200 7.08300 36.13300
H  31.22900 5.84900 37.27500
Mg -5.82900 25.44600 25.98700
C  -4.26500 26.65200 28.93800
C  -7.82300 23.51700 28.13300
C  -6.98000 23.83100 23.32100
C  -3.49600 27.12900 24.12200
N  -5.92200 25.15500 28.27300
C  -5.30100 25.78900 29.24300
C  -5.78300 25.36600 30.66400
C  -6.66400 24.15100 30.33200
C  -6.82300 24.23600 28.80100
C  -6.19400 22.89800 30.99200
C  -6.47700 26.53600 31.36600
C  -6.23500 26.81700 32.83800
H  -6.16800 25.52500 33.72700
N  -7.25600 23.91800 25.74700
C  -7.97500 23.28800 26.73600
C  -9.01200 22.50600 26.14800
C  -8.76000 22.53000 24.73900
C  -7.62700 23.43400 24.53000
C  -10.19800 21.84700 26.95600
C  -9.46900 21.70200 23.67200
O  -9.09200 21.68800 22.48500
C  -10.76000 20.98400 24.05300
N  -5.30400 25.51500 24.02200
C  -5.94600 24.81600 23.10900
C  -5.36300 24.98900 21.67600
C  -4.25100 26.04900 21.92000
C  -4.37200 26.27200 23.45000
C  -4.95100 23.77700 20.88800
C  -4.63600 27.45900 21.21700
C  -3.83200 27.64500 19.86900
N  -4.20200 26.72900 26.37500
C  -3.30400 27.33100 25.51200
C  -2.31300 28.06200 26.31800
C  -2.64300 27.86700 27.65100
C  -3.78400 27.01100 27.61600
C  -1.11700 28.91100 25.81600
C  -2.28800 28.18100 29.03300
O  -1.43900 28.92200 29.55400
C  -3.29900 27.35100 29.91600
C  -2.50700 26.45900 30.75900
O  -1.84200 25.55900 30.32700
O  -2.44300 26.96100 32.03100
C  -1.33400 26.52200 32.91700
H  -8.51000 23.09900 28.87300
H  -7.29900 23.38500 22.37700
H  -2.70700 27.60700 23.53800
H  -4.84100 25.07700 31.12900
H  -7.62600 24.29800 30.82200
H  -5.54600 23.15100 31.83100
H  -5.60600 22.32300 30.27600
H  -7.01200 22.26700 31.33800
H  -7.56000 26.49000 31.24900
H  -6.17000 27.43200 30.82500
H  -6.97900 27.46400 33.30200
H  -5.24100 27.26000 32.90100
H  -11.08900 22.28700 26.50800
H  -10.17000 22.24900 27.96900
H  -10.18600 20.78500 26.71100
H  -11.27500 20.66000 23.14800
H  -11.41100 21.75300 24.46800
H  -10.68100 20.13900 24.73700
H  -6.17500 25.38600 21.06500
H  -3.23200 25.73600 21.69000
H  -5.66300 22.95400 20.81400
H  -4.02400 23.42000 21.33800
H  -4.69300 24.09700 19.87900
H  -4.37300 28.33200 21.81300
H  -5.71300 27.50400 21.05100
H  -3.52600 26.77100 19.29300
H  -3.05100 28.39200 20.01800
H  -4.51600 28.23300 19.25700
H  -0.79700 28.48100 24.86700
H  -0.20300 28.85500 26.40800
H  -1.39600 29.95700 25.69000
H  -3.97200 27.97700 30.50100
H  -1.71000 25.56000 33.26600
H  -1.13300 27.20700 33.74100
H  -0.40000 26.34600 32.38200

