158

Mg 43.51100 42.05200 26.23100
C  42.62000 44.53300 28.63100
C  44.66400 40.09300 28.84200
C  44.68700 39.95500 23.88800
C  43.32500 44.60100 23.86900
N  43.54200 42.23000 28.43800
C  42.95600 43.25100 29.21900
C  43.03400 42.91900 30.69900
C  44.13900 41.81400 30.73800
C  44.11300 41.29300 29.28800
C  45.50500 42.32300 31.11700
C  41.70200 42.45700 31.38000
C  41.26100 43.33500 32.60700
H  41.95200 43.12000 33.91000
N  44.38700 40.20000 26.32900
C  44.68600 39.56100 27.50400
C  45.12200 38.19000 27.12200
C  45.05700 38.13300 25.68400
C  44.66200 39.45700 25.23300
C  45.53300 37.15500 28.13700
C  45.33700 36.94500 24.80800
O  45.17900 36.93300 23.60600
C  45.88700 35.66900 25.50100
N  44.06600 42.20100 24.17400
C  44.44800 41.17700 23.37200
C  44.43300 41.59600 21.90900
C  44.00000 43.08100 21.98400
C  43.86000 43.38600 23.46200
C  45.82500 41.40500 21.13900
C  42.73500 43.36100 21.12700
C  41.31000 43.26900 21.76000
N  42.93800 44.08200 26.13000
C  42.91400 44.98900 25.12400
C  42.39100 46.26900 25.62000
C  42.27800 46.16700 26.98700
C  42.64600 44.79400 27.23300
C  41.83300 47.36600 24.68300
C  41.89600 46.84000 28.23900
O  41.34800 47.91500 28.43300
C  42.12300 45.82100 29.40100
C  43.07700 46.36100 30.29300
O  44.29500 46.29900 30.19500
O  42.38000 46.90700 31.41100
C  43.41300 47.20000 32.46500
H  45.01200 39.39500 29.60700
H  44.90600 39.14400 23.19000
H  43.18000 45.41800 23.15900
H  43.40100 43.84500 31.14100
H  43.84500 40.97600 31.37100
H  45.99100 41.49300 31.63000
H  45.46600 43.17500 31.79600
H  46.15200 42.68000 30.31600
H  41.74800 41.41700 31.70500
H  40.86600 42.48900 30.68100
H  40.20000 43.18700 32.81000
H  41.34600 44.41600 32.49600
H  45.14400 36.14800 27.98500
H  45.15300 37.56100 29.07500
H  46.62000 37.16300 28.21500
H  46.33700 35.04000 24.73300
H  45.05300 35.10300 25.91500
H  46.63100 35.94600 26.24800
H  43.67500 41.00300 21.39700
H  44.86300 43.63700 21.61600
H  45.61500 41.47200 20.07200
H  46.27900 40.46400 21.45000
H  46.53100 42.18200 21.43100
H  42.73200 42.65000 20.30100
H  42.78600 44.37200 20.72100
H  41.24500 43.07800 22.83100
H  40.60900 42.54300 21.34800
H  40.76900 44.20800 21.64500
H  42.62900 48.03800 24.36400
H  41.08100 48.04900 25.07800
H  41.33100 46.91700 23.82600
H  41.19600 45.54800 29.90600
H  44.31800 47.73200 32.17300
H  43.66900 46.30000 33.02500
H  42.89100 47.84500 33.17200
Mg 30.71100 58.88700 39.94200
C  27.97400 56.80400 39.11100
C  32.74900 56.44500 38.86500
C  33.36400 61.01600 40.45900
C  28.56600 61.49300 40.45800
N  30.36000 56.86900 39.13300
C  29.16100 56.19300 38.80700
C  29.50800 54.74500 38.34100
C  31.02700 54.59400 38.59900
C  31.41600 56.09900 38.74500
C  31.37400 53.79000 39.87500
C  29.11300 54.47400 36.85400
C  27.87500 53.63500 36.51900
H  27.03200 54.12300 35.32100
N  32.76400 58.76400 39.66300
C  33.37500 57.66400 39.21700
C  34.81300 57.93600 39.08200
C  35.10800 59.17700 39.67200
C  33.66900 59.73100 40.02100
C  35.82700 56.94600 38.39100
C  36.50800 59.88400 39.78600
O  37.44800 59.36000 39.18700
C  36.63300 61.27000 40.51000
N  31.01000 61.04600 40.21900
C  32.18700 61.69700 40.52900
C  31.93000 63.12700 41.05300
C  30.32100 63.29400 40.92400
C  29.94400 61.83100 40.55300
C  32.55400 63.57500 42.41300
C  29.84500 64.28600 39.87900
C  29.60500 65.67500 40.45800
N  28.65500 59.10900 39.96900
C  27.95200 60.22000 40.26000
C  26.52900 59.96200 40.13100
C  26.49700 58.63900 39.66400
C  27.84200 58.11200 39.65700
C  25.46500 61.00300 40.23600
C  25.64300 57.54700 39.13200
O  24.37700 57.46900 38.92700
C  26.61900 56.40000 38.79100
C  25.97600 55.34000 39.65100
O  26.15700 55.22700 40.84000
O  25.22800 54.54400 38.84500
C  24.60300 53.30600 39.30800
H  33.33900 55.56700 38.59400
H  34.18200 61.64200 40.82300
H  27.83600 62.27200 40.69100
H  28.83400 54.09800 38.90300
H  31.60700 54.13100 37.80000
H  30.47100 53.18400 39.94600
H  31.40400 54.46200 40.73300
H  32.28800 53.25100 39.62300
H  29.92600 54.01400 36.29300
H  29.06000 55.42100 36.31800
H  27.28100 53.60000 37.43200
H  28.12600 52.66000 36.10200
H  36.35600 57.37000 37.53700
H  35.24700 56.05400 38.15500
H  36.58900 56.69600 39.13000
H  36.29900 61.06100 41.52600
H  35.97800 61.96300 39.98100
H  37.65000 61.65800 40.56200
H  32.48700 63.81700 40.41800
H  29.94900 63.36300 41.94600
H  32.49600 64.66300 42.43600
H  33.51100 63.15800 42.72800
H  31.85900 63.24200 43.18300
H  29.01200 63.95600 39.25800
H  30.63700 64.55500 39.18000
H  30.47200 66.33400 40.49600
H  29.29800 65.52600 41.49400
H  28.78800 66.16300 39.92700
H  24.70400 60.77600 39.48900
H  25.92900 61.97200 40.05000
H  25.10700 61.02100 41.26600
H  26.43300 56.21800 37.73300
H  23.52300 53.44100 39.26000
H  24.88800 53.03500 40.32400
H  24.77700 52.46800 38.63300

