158

Mg 41.97100 41.15000 26.63300
C  41.04000 43.46000 28.91300
C  42.92600 39.09100 29.07700
C  42.86700 38.81000 24.26400
C  41.74400 43.50700 24.10000
N  41.90400 41.23000 28.73800
C  41.48400 42.27400 29.47300
C  41.59700 42.02600 30.91900
C  42.39100 40.66500 30.97200
C  42.50400 40.32500 29.48100
C  43.71100 40.51000 31.69900
C  40.21100 42.13600 31.65800
C  40.24800 41.48700 33.09000
H  39.70900 42.36700 34.29300
N  42.56700 39.16600 26.65500
C  42.91900 38.51600 27.79700
C  43.39700 37.10300 27.50200
C  43.27900 36.99700 26.05900
C  42.87200 38.35800 25.61700
C  43.64500 36.03300 28.59500
C  43.49100 35.67500 25.23700
O  43.61100 35.71300 24.00100
C  43.52400 34.29700 25.83000
N  42.46800 41.17600 24.42300
C  42.66000 40.05000 23.68300
C  42.49200 40.34200 22.11100
C  42.02600 41.83800 22.14900
C  42.10100 42.22900 23.62200
C  43.76700 39.98700 21.32100
C  40.58000 41.95500 21.60200
C  39.55000 41.25900 22.46000
N  41.45200 43.12400 26.48600
C  41.39200 43.95500 25.38200
C  40.76400 45.19600 25.87400
C  40.66900 45.08500 27.25200
C  41.11000 43.75900 27.58100
C  40.53900 46.45100 25.11900
C  40.42800 45.78600 28.43900
O  40.07000 47.01800 28.46600
C  40.54500 44.81200 29.59800
C  41.59200 45.29600 30.62500
O  42.69200 45.76200 30.43800
O  40.93200 45.41700 31.87900
C  41.74400 45.85100 33.03600
H  43.42300 38.56300 29.89400
H  43.02200 38.07500 23.47100
H  41.47300 44.14800 23.25900
H  42.23600 42.83600 31.26900
H  41.79700 39.87800 31.43800
H  43.96700 39.47700 31.93500
H  43.55800 41.00100 32.66000
H  44.49000 40.98800 31.10500
H  39.42900 41.73400 31.01500
H  39.93600 43.17100 31.86500
H  41.28200 41.23700 33.32500
H  39.71700 40.53500 33.13300
H  43.62200 36.48100 29.58900
H  44.69300 35.74500 28.51100
H  43.13900 35.08300 28.42200
H  44.39500 34.15200 26.46900
H  43.62300 33.51800 25.07300
H  42.50300 34.27200 26.21200
H  41.65200 39.79000 21.68900
H  42.77600 42.52600 21.75900
H  44.47600 39.62300 22.06500
H  44.08600 40.90800 20.83300
H  43.57000 39.29100 20.50600
H  40.52700 41.44100 20.64200
H  40.33900 43.00100 21.41300
H  39.32200 41.93400 23.28600
H  39.86300 40.29800 22.86800
H  38.65800 40.97400 21.90300
H  41.41700 47.08400 24.99200
H  39.88700 46.96600 25.82500
H  40.08000 46.23800 24.15400
H  39.63100 44.72700 30.18600
H  42.79500 45.60400 32.88600
H  41.31400 45.39000 33.92500
H  41.70200 46.93800 33.10900
Mg -9.50800 39.94900 41.81700
C  -8.58800 36.72800 40.94200
C  -6.48400 41.04100 40.52700
C  -10.57100 43.02500 42.21100
C  -12.65500 38.73100 42.71000
N  -7.77100 39.00500 40.94700
C  -7.65600 37.71700 40.58500
C  -6.32200 37.39700 39.93100
C  -5.57500 38.72700 40.15500
C  -6.66900 39.64400 40.59300
C  -4.33800 38.68300 41.14200
C  -6.32200 36.83700 38.46000
C  -5.16400 35.98300 38.02800
H  -4.29200 36.48600 36.85100
N  -8.66000 41.75900 41.42300
C  -7.41600 42.03900 40.97600
C  -7.18200 43.44300 40.80100
C  -8.30400 44.08200 41.39800
C  -9.25000 42.94100 41.72900
C  -5.93700 44.11400 40.24100
C  -8.49900 45.58800 41.64600
O  -7.56200 46.37900 41.43900
C  -9.91400 46.16300 41.85800
N  -11.42500 40.76800 42.24500
C  -11.58200 42.09800 42.47900
C  -13.06400 42.44800 42.91500
C  -13.67900 41.00000 43.10200
C  -12.54700 40.09600 42.59900
C  -13.07300 43.50400 44.07000
C  -15.01800 40.73200 42.28900
C  -16.24700 40.29800 43.14100
N  -10.42700 38.14100 41.97000
C  -11.68900 37.82100 42.33200
C  -11.76800 36.33200 42.43900
C  -10.58700 35.90400 41.93200
C  -9.82300 37.08400 41.56700
C  -12.96900 35.51400 42.71600
C  -9.75200 34.70800 41.54600
O  -9.99200 33.50700 41.73900
C  -8.38800 35.22400 40.94500
C  -7.27600 34.78100 41.84400
O  -7.07900 35.13500 42.99600
O  -6.48700 33.87400 41.19400
C  -5.38400 33.48000 42.07800
H  -5.49600 41.42500 40.26700
H  -10.92700 44.02600 42.46400
H  -13.67100 38.41500 42.95500
H  -5.94000 36.62300 40.59700
H  -5.04400 39.08100 39.27200
H  -4.16500 37.64000 41.40600
H  -4.45700 39.22100 42.08300
H  -3.44000 39.01100 40.61800
H  -6.39500 37.63900 37.72600
H  -7.29000 36.34400 38.37500
H  -5.55200 34.98000 37.84600
H  -4.41400 35.89600 38.81400
H  -5.36600 43.37900 39.67400
H  -5.32200 44.46100 41.07100
H  -6.19200 44.93500 39.57200
H  -10.54000 45.81200 41.03800
H  -9.83300 47.24900 41.79700
H  -10.30000 45.90400 42.84400
H  -13.62500 42.92000 42.10800
H  -13.89200 40.85800 44.16200
H  -12.14500 44.06300 44.18900
H  -13.41600 43.03900 44.99400
H  -13.80700 44.28400 43.86700
H  -14.94600 39.92600 41.55900
H  -15.14500 41.63100 41.68600
H  -17.19400 40.27300 42.60200
H  -16.33600 41.03300 43.94100
H  -16.04500 39.28400 43.48600
H  -13.58900 35.81700 43.55900
H  -12.80400 34.46300 42.95300
H  -13.68700 35.49100 41.89600
H  -8.24200 34.81900 39.94400
H  -4.88900 34.32600 42.55500
H  -4.70500 32.94900 41.41200
H  -5.71200 32.76300 42.83100

