158

Mg 48.41400 34.80800 27.48800
C  46.47100 33.51500 30.00600
C  48.99900 37.58200 29.20100
C  50.03800 36.15900 24.71300
C  47.82400 31.85100 25.69900
N  47.74100 35.42900 29.41100
C  47.06500 34.76300 30.31800
C  47.29300 35.44500 31.72100
C  47.70200 36.88900 31.30900
C  48.17700 36.65700 29.89600
C  46.59600 37.97100 31.47800
C  48.46300 34.67100 32.46200
C  48.41100 34.70300 33.99000
H  47.62800 35.90200 34.64200
N  49.54500 36.61200 27.04600
C  49.61600 37.66900 27.88900
C  50.44100 38.74300 27.27300
C  50.80400 38.24000 26.00000
C  50.14000 36.94300 25.83700
C  50.67100 40.10400 27.95900
C  51.68800 38.94900 24.98900
O  51.87600 38.54200 23.81100
C  52.51400 39.99000 25.40000
N  48.76700 34.11200 25.47600
C  49.42900 34.90800 24.56600
C  49.46400 34.16700 23.25600
C  48.89300 32.70700 23.60200
C  48.46800 32.86200 24.97500
C  48.75800 34.91200 22.08700
C  49.94200 31.50300 23.58500
C  49.53100 30.26900 22.86000
N  47.25900 33.00500 27.71600
C  47.16700 31.91000 26.92100
C  46.38100 30.90700 27.62900
C  46.18200 31.52800 28.86500
C  46.69100 32.80900 28.86400
C  46.06300 29.45800 27.27900
C  45.58700 31.27200 30.13000
O  45.07000 30.25600 30.55100
C  45.57400 32.64600 30.88300
C  45.86800 32.56800 32.29800
O  46.71600 31.86000 32.89300
O  44.78500 33.23500 32.91200
C  44.38600 32.98700 34.32800
H  49.29000 38.41700 29.84100
H  50.45600 36.66200 23.83800
H  47.68800 30.93300 25.12300
H  46.31700 35.38400 32.20100
H  48.64200 37.07800 31.82800
H  45.68200 37.55900 31.05000
H  46.94400 38.81700 30.88500
H  46.41000 38.27100 32.50900
H  49.43600 35.10700 32.23700
H  48.48200 33.61700 32.18500
H  49.39900 34.90100 34.40400
H  47.95000 33.81900 34.43100
H  50.44200 40.89000 27.24100
H  51.64800 40.18300 28.43600
H  49.97800 40.29200 28.78000
H  52.01100 40.95700 25.37100
H  53.42400 39.85000 24.81700
H  52.86100 39.84800 26.42400
H  50.51300 34.22700 22.96500
H  47.97900 32.49900 23.04700
H  47.95100 35.61500 22.29300
H  48.34800 34.20600 21.36500
H  49.36400 35.60500 21.50400
H  50.16000 31.14800 24.59200
H  50.87000 31.90300 23.17700
H  50.21000 30.01000 22.04700
H  48.56900 30.38800 22.36300
H  49.42100 29.40300 23.51300
H  44.98600 29.29100 27.29900
H  46.42400 28.62600 27.88400
H  46.34900 29.25400 26.24700
H  44.58300 33.08700 30.77800
H  44.78100 32.04800 34.71700
H  43.30900 32.82600 34.34600
H  44.60300 33.80700 35.01200
Mg 41.43700 41.20800 27.15400
C  41.00100 43.78400 29.62400
C  42.32600 39.12100 29.76800
C  42.19000 38.95400 24.90500
C  40.89800 43.59500 24.71200
N  41.58200 41.48500 29.33800
C  41.21700 42.51100 30.19900
C  41.28700 42.26300 31.74000
C  41.70200 40.77700 31.69300
C  41.90900 40.38800 30.16500
C  42.80500 40.42500 32.70700
C  39.90600 42.46300 32.53900
C  39.97100 43.42700 33.67700
H  39.21900 43.08500 34.98900
N  42.11200 39.35700 27.31700
C  42.56400 38.71000 28.42200
C  43.06900 37.40900 28.01100
C  43.03700 37.32100 26.56500
C  42.46400 38.59000 26.22800
C  43.43700 36.29200 29.15400
C  43.55500 36.19000 25.67200
O  43.58700 36.21100 24.41600
C  44.06900 34.92000 26.31800
N  41.65800 41.26200 25.08800
C  41.76800 40.13900 24.36800
C  41.62300 40.42200 22.87100
C  40.82200 41.76500 22.93200
C  41.15200 42.27000 24.33300
C  42.99400 40.46600 22.13100
C  39.20400 41.75200 22.71000
C  38.38400 40.55300 23.25000
N  41.09800 43.19600 27.14200
C  40.86500 44.06200 26.03500
C  40.59100 45.41400 26.49600
C  40.67400 45.28900 27.88500
C  40.95000 43.93300 28.25600
C  40.39000 46.60200 25.58200
C  40.46500 46.04000 29.12300
O  40.21700 47.19300 29.31700
C  40.61000 45.05100 30.26300
C  41.79200 45.49000 31.08300
O  42.94700 45.58900 30.73700
O  41.27600 45.97700 32.31400
C  42.26900 46.55900 33.27600
H  42.56600 38.41300 30.56400
H  42.15800 38.13100 24.18900
H  40.55800 44.27000 23.92400
H  42.05300 42.90500 32.17400
H  40.81500 40.22000 31.99800
H  43.84100 40.52700 32.38400
H  42.78400 39.35300 32.90500
H  42.70000 40.99700 33.62900
H  39.55300 41.52600 32.96900
H  39.14500 42.84100 31.85600
H  39.54000 44.37900 33.36700
H  41.01000 43.50500 33.99800
H  43.79700 36.81600 30.03900
H  44.21800 35.57600 28.90100
H  42.57200 35.72800 29.50300
H  43.43700 34.63400 27.15900
H  45.04600 35.28300 26.63700
H  44.25700 34.17800 25.54200
H  40.95500 39.70900 22.38900
H  41.30100 42.38100 22.17100
H  43.82800 40.37900 22.82700
H  43.01400 41.43500 21.63300
H  43.21200 39.66200 21.42800
H  39.04600 41.86000 21.63700
H  38.78800 42.61700 23.22500
H  37.61600 40.41800 22.48800
H  37.87300 40.80000 24.18000
H  38.97700 39.64900 23.39400
H  40.95000 46.49200 24.65300
H  40.76000 47.45300 26.15400
H  39.33700 46.77600 25.36100
H  39.64700 45.13900 30.76600
H  42.56500 45.88200 34.07800
H  41.80400 47.49000 33.60000
H  43.21300 46.84100 32.81000

