158

Mg 7.36100 3.21400 28.17600
C  8.80800 1.77600 31.12500
C  5.38500 5.07000 30.11800
C  6.02600 4.36300 25.33200
C  9.02000 0.75500 26.38000
N  7.08100 3.38500 30.40900
C  7.84000 2.76700 31.38500
C  7.55600 3.40100 32.76800
C  6.41300 4.43000 32.38700
C  6.25000 4.35900 30.91200
C  5.17100 4.28200 33.28500
C  8.84200 4.00200 33.27700
C  8.76200 5.08600 34.40900
H  9.36600 4.81200 35.76200
N  5.90700 4.61600 27.78200
C  5.17000 5.17200 28.72600
C  4.20700 6.03700 28.05100
C  4.47100 5.88900 26.61600
C  5.51400 4.94300 26.51400
C  3.25400 6.89500 28.78700
C  3.82400 6.56000 25.47100
O  4.11100 6.41300 24.31000
C  2.81500 7.70700 25.75700
N  7.35800 2.61400 26.22100
C  6.84800 3.32700 25.15700
C  7.22600 2.84000 23.80800
C  8.07800 1.62100 24.14600
C  8.10200 1.58100 25.71000
C  6.09000 2.67800 22.70500
C  9.56400 1.54900 23.55400
C  10.61200 2.32900 24.30800
N  8.72100 1.62200 28.59500
C  9.33100 0.77000 27.72400
C  10.24900 -0.10200 28.40000
C  10.09100 0.22400 29.79800
C  9.08700 1.32100 29.84500
C  11.12900 -1.14200 27.93700
C  10.48500 -0.07300 31.16300
O  11.35000 -0.79600 31.59100
C  9.72500 0.99400 32.05500
C  9.02900 0.28100 33.15300
O  7.95900 -0.32500 33.01300
O  9.79000 0.23900 34.31400
C  9.29300 -0.49200 35.53700
H  4.74500 5.66600 30.77200
H  5.73100 4.85400 24.40200
H  9.52500 -0.06100 25.85800
H  7.23800 2.66000 33.50100
H  6.71800 5.45300 32.61000
H  4.69500 5.22800 33.54100
H  5.46200 3.80700 34.22200
H  4.44600 3.59000 32.85600
H  9.36700 4.52400 32.47800
H  9.57100 3.30200 33.68600
H  7.69400 5.16800 34.60900
H  9.09400 6.05300 34.03200
H  3.10600 6.59300 29.82400
H  2.26800 6.77800 28.33800
H  3.47700 7.95900 28.70800
H  1.85200 7.20200 25.82700
H  2.91200 8.36700 24.89400
H  3.10100 8.30800 26.62100
H  7.88100 3.65400 23.49700
H  7.57800 0.76700 23.68900
H  5.14100 2.68100 23.24100
H  6.10200 1.70700 22.21000
H  6.17900 3.47800 21.97100
H  9.61600 1.81200 22.49800
H  9.93300 0.52700 23.63800
H  10.21400 3.08600 24.98300
H  11.23300 2.77200 23.52900
H  11.20700 1.68800 24.95900
H  11.70100 -0.81600 27.06900
H  10.53200 -2.04200 27.78900
H  11.83100 -1.33900 28.74800
H  10.40100 1.66600 32.58500
H  10.06900 -1.12500 35.96700
H  8.46200 -1.18700 35.41900
H  9.12400 0.33500 36.22700
Mg 49.27100 46.18300 42.07000
C  45.87400 46.31200 41.17900
C  49.46800 42.98700 40.78500
C  52.52900 46.39500 42.37500
C  49.01400 49.56600 43.07600
N  47.79600 44.76600 41.11200
C  46.46300 45.08900 40.77300
C  45.79700 43.88400 40.08300
C  46.86100 42.72200 40.27900
C  48.13000 43.49700 40.78300
C  46.44400 41.49700 41.20800
C  45.54200 44.34700 38.58400
C  44.06700 44.13500 38.00200
H  44.01100 43.20900 36.81300
N  50.85100 44.86900 41.51300
C  50.71500 43.60000 41.08100
C  52.04600 43.00000 41.05000
C  53.00500 44.01800 41.51000
C  52.12300 45.13100 41.92800
C  52.34300 41.71400 40.34100
C  54.52900 43.85400 41.57400
O  55.07400 42.77800 41.35600
C  55.40600 45.02200 41.88200
N  50.60700 47.71900 42.73100
C  51.89600 47.62500 42.66700
C  52.66100 48.96200 42.89800
C  51.45300 49.95400 42.96900
C  50.27300 48.99800 43.03800
C  53.57600 48.99000 44.17800
C  51.36300 51.04700 41.84600
C  51.22400 52.46000 42.34600
N  47.74400 47.63800 42.26800
C  47.80700 48.89300 42.72900
C  46.49500 49.58000 42.57300
C  45.69000 48.55000 41.93100
C  46.48600 47.41800 41.81100
C  46.12800 50.92900 42.99700
C  44.42500 48.31100 41.27600
O  43.45300 49.00400 41.11000
C  44.42700 46.78200 40.93900
C  43.53100 46.05600 41.84900
O  43.83000 45.75400 42.97600
O  42.27500 45.72700 41.23200
C  41.18000 45.30300 42.14700
H  49.59400 41.91000 40.66300
H  53.56700 46.72700 42.30600
H  49.05800 50.64900 43.21300
H  44.88600 43.66200 40.63800
H  47.02200 42.37000 39.26000
H  47.05200 41.60500 42.10700
H  46.62500 40.56000 40.68100
H  45.38500 41.51100 41.46400
H  46.13700 43.72500 37.91500
H  45.83400 45.38800 38.44000
H  43.71000 45.15400 37.84700
H  43.42100 43.72200 38.77600
H  51.55600 41.47100 39.62700
H  52.35100 40.92100 41.08900
H  53.25500 41.76000 39.74600
H  56.43400 44.65800 41.87300
H  55.16200 45.33600 42.89700
H  55.46100 45.84700 41.17100
H  53.23000 49.16200 41.99000
H  51.40900 50.45900 43.93300
H  54.05800 49.96700 44.21200
H  54.41000 48.30700 44.01800
H  53.05100 48.81000 45.11600
H  50.56100 50.81700 41.14500
H  52.29800 50.93800 41.29700
H  50.24100 52.73400 41.96000
H  51.93700 53.15600 41.90400
H  51.16200 52.60700 43.42400
H  46.75800 51.19400 43.84500
H  45.05400 51.10600 43.05500
H  46.56300 51.54700 42.21100
H  44.17300 46.57100 39.90100
H  40.21500 45.77500 41.95800
H  41.55700 45.67400 43.10000
H  41.15600 44.21300 42.13600

