158

Mg 44.04400 3.50000 47.96600
C  41.71400 5.97900 47.15500
C  41.56700 1.15700 47.84200
C  46.42800 1.14200 47.80300
C  46.53500 6.02000 47.56900
N  41.99000 3.61200 47.48900
C  41.22800 4.71200 47.15600
C  39.74100 4.27300 46.85100
C  39.70300 2.95200 47.65200
C  41.19400 2.49600 47.72100
C  39.03300 2.94300 49.10300
C  39.34400 4.24300 45.37100
C  38.16400 4.98500 44.73700
H  38.47800 5.62500 43.36300
N  43.95800 1.47400 47.83900
C  42.89300 0.68200 47.90200
C  43.27900 -0.75300 47.77200
C  44.72900 -0.75500 47.66100
C  45.09800 0.68100 47.79900
C  42.28000 -1.86400 47.68600
C  45.46300 -2.03300 47.53800
O  44.89200 -3.12900 47.60700
C  46.93100 -2.07900 47.49000
N  46.18000 3.52000 47.66400
C  47.00300 2.45900 47.71500
C  48.45400 2.82100 47.40700
C  48.41900 4.40000 47.47200
C  46.92700 4.67200 47.51200
C  49.62700 2.20300 48.17600
C  49.27900 5.25800 46.39200
C  50.19400 4.56100 45.38500
N  44.10700 5.59400 47.57100
C  45.22500 6.47100 47.42200
C  44.78000 7.88800 47.22400
C  43.40500 7.73100 47.14800
C  43.05100 6.33500 47.31200
C  45.64300 9.14300 47.03300
C  42.09200 8.34000 46.95600
O  41.85800 9.49600 46.71000
C  40.98800 7.26400 46.92900
C  40.11400 7.52600 48.17400
O  40.22800 6.97900 49.28300
O  39.02400 8.23500 47.72500
C  38.04100 8.27000 48.76600
H  40.79300 0.39600 47.71600
H  47.26600 0.46100 47.64800
H  47.31400 6.78400 47.60900
H  39.11800 4.92600 47.46300
H  39.15100 2.16700 47.13600
H  39.70000 2.66400 49.91800
H  38.30300 2.13400 49.08100
H  38.64400 3.93700 49.32400
H  39.12500 3.20100 45.13900
H  40.26000 4.49300 44.83700
H  37.88700 5.76600 45.44500
H  37.36100 4.24900 44.69900
H  41.25000 -1.50800 47.66400
H  42.34100 -2.46200 48.59500
H  42.43400 -2.57800 46.87600
H  47.35600 -1.44700 46.71000
H  47.23700 -3.12100 47.39700
H  47.12000 -1.66000 48.47800
H  48.76500 2.54300 46.40000
H  48.76300 4.73700 48.45000
H  49.23000 1.76300 49.09100
H  50.28700 2.94500 48.62600
H  50.21600 1.59300 47.49200
H  49.91600 5.83600 47.06100
H  48.71600 5.95700 45.77400
H  50.46700 3.56600 45.73500
H  51.05100 5.23200 45.32600
H  49.68900 4.57300 44.41900
H  46.10900 9.59400 47.90900
H  45.08100 9.96500 46.58900
H  46.46600 8.89500 46.36300
H  40.35600 7.23200 46.04100
H  37.90600 7.24600 49.11400
H  37.08400 8.54700 48.32300
H  38.21100 8.95400 49.59700
Mg 15.68400 51.77100 25.83000
C  17.52200 50.93000 28.53200
C  13.01100 52.17200 27.91400
C  13.73300 52.02900 23.11800
C  18.36200 50.70200 23.77500
N  15.42500 51.77800 28.05600
C  16.35000 51.44300 28.96000
C  15.88800 51.83800 30.37900
C  14.33900 51.85200 30.14300
C  14.19800 51.96600 28.63400
C  13.61400 50.50500 30.70100
C  16.45600 53.16800 30.90500
C  16.63400 53.26800 32.44600
H  16.00700 52.31500 33.41900
N  13.65500 52.24400 25.54900
C  12.75100 52.24300 26.55500
C  11.41800 52.55600 25.92100
C  11.58700 52.38900 24.53200
C  13.06400 52.27100 24.31300
C  10.12900 52.68900 26.68600
C  10.54700 52.51000 23.42100
O  10.92300 52.43300 22.24400
C  9.13700 52.87700 23.76300
N  16.07100 51.51600 23.76100
C  15.09400 51.73400 22.88100
C  15.60500 51.62100 21.48400
C  17.15600 51.42700 21.69500
C  17.22100 51.19200 23.17000
C  14.99500 50.44100 20.67200
C  18.11500 52.66300 21.27400
C  18.96500 52.46200 20.06300
N  17.53600 50.80800 26.04100
C  18.56800 50.51100 25.15900
C  19.70400 49.90800 25.83000
C  19.34300 50.19600 27.17100
C  18.03800 50.66400 27.25200
C  20.97000 49.35200 25.23900
C  19.79500 49.94600 28.47600
O  20.86300 49.45900 28.79800
C  18.68200 50.50900 29.45900
C  18.26100 49.41600 30.42200
O  17.20000 48.71900 30.40400
O  19.19200 49.41100 31.45400
C  18.86900 48.69200 32.67600
H  12.13200 52.27000 28.55400
H  13.19200 52.17500 22.18100
H  19.17700 50.34300 23.14300
H  16.11400 51.15500 31.19800
H  13.86100 52.69100 30.64800
H  13.77700 50.55600 31.77800
H  14.18200 49.67500 30.28200
H  12.61800 50.45800 30.26100
H  15.84500 54.02100 30.61000
H  17.41600 53.22500 30.39300
H  16.35400 54.29400 32.68300
H  17.71000 53.30200 32.61400
H  10.25500 53.24300 27.61600
H  9.76800 51.68900 26.92700
H  9.27500 53.23400 26.28500
H  9.06800 53.86300 24.22400
H  8.66300 52.03600 24.27000
H  8.60700 52.96700 22.81400
H  15.37000 52.52700 20.92600
H  17.46500 50.47200 21.27000
H  14.43500 49.93300 21.45700
H  15.74800 49.81500 20.19300
H  14.28500 50.88600 19.97500
H  18.90900 52.81200 22.00600
H  17.58500 53.60400 21.12200
H  19.07000 51.46500 19.63500
H  19.99800 52.54400 20.40000
H  18.69700 53.13600 19.24800
H  21.31700 48.72200 26.05800
H  21.61300 50.21300 25.05800
H  20.80800 48.88600 24.26700
H  19.01000 51.45000 29.90100
H  19.13100 49.30100 33.54100
H  19.39700 47.73900 32.72000
H  17.79000 48.53700 32.70800

