158

Mg 17.13900 51.91100 25.89600
C  18.90600 50.56000 28.47300
C  14.72600 52.95700 27.97800
C  15.29500 52.84300 23.20200
C  19.82400 50.98400 23.72400
N  16.82900 51.62400 27.96200
C  17.71600 51.19600 28.88600
C  17.17900 51.22700 30.28700
C  15.69200 51.90200 30.12000
C  15.69000 52.16400 28.54500
C  14.45800 51.14300 30.69300
C  18.11300 52.03700 31.23900
C  17.71400 52.14400 32.67100
H  16.65300 51.25900 33.30700
N  15.33700 52.87000 25.66300
C  14.47600 53.27300 26.65000
C  13.35000 54.00800 26.12300
C  13.62200 54.00800 24.71300
C  14.72300 53.17300 24.43300
C  12.22000 54.57500 27.00000
C  12.83900 54.75900 23.68900
O  13.09200 54.69000 22.51200
C  11.51100 55.48300 24.09200
N  17.48400 52.05200 23.84800
C  16.61200 52.42700 22.83200
C  17.19100 52.39400 21.48200
C  18.68300 51.98300 21.74700
C  18.70000 51.63200 23.21400
C  16.43500 51.38500 20.64600
C  19.67900 53.09200 21.34500
C  19.92800 54.28400 22.24300
N  18.93300 50.94800 26.02700
C  19.88900 50.51900 25.03000
C  20.99500 49.77600 25.69500
C  20.64800 49.74400 27.05000
C  19.37500 50.43300 27.15600
C  22.21800 49.24000 24.99700
C  21.10900 49.40800 28.28500
O  22.17100 48.92300 28.69300
C  20.02800 49.89000 29.31700
C  19.54000 48.73000 30.11300
O  18.92700 47.75900 29.68400
O  19.85000 48.95500 31.46300
C  19.29100 47.93800 32.34300
H  14.05200 53.33400 28.75000
H  14.65200 53.07700 22.35000
H  20.68000 50.71400 23.10200
H  17.09700 50.19900 30.63800
H  15.62600 52.89000 30.57500
H  13.89700 51.79900 31.35900
H  14.91800 50.36200 31.29900
H  13.77600 50.69600 29.96900
H  17.93600 53.02700 30.81900
H  19.18400 51.85200 31.15200
H  17.44000 53.18700 32.83000
H  18.50400 51.87700 33.37200
H  12.22900 55.66100 26.90900
H  12.29400 54.22800 28.03100
H  11.23100 54.17800 26.77000
H  11.72300 56.37800 24.67700
H  10.75900 54.85600 24.57200
H  10.97300 55.59400 23.15100
H  17.08600 53.39100 21.05400
H  18.94500 51.05400 21.24100
H  16.74000 50.36600 20.88500
H  16.52200 51.56600 19.57400
H  15.37600 51.53400 20.85500
H  19.48000 53.38600 20.31500
H  20.60800 52.52700 21.26400
H  19.03500 54.42600 22.85200
H  20.11800 55.17700 21.64800
H  20.68300 54.11800 23.01200
H  22.34000 49.10500 23.92200
H  22.20400 48.16500 25.17800
H  23.10100 49.70800 25.43300
H  20.56100 50.61300 29.93300
H  19.67700 48.22200 33.32200
H  19.70500 46.97600 32.04100
H  18.20700 47.83500 32.29900
Mg -12.69000 15.77100 42.43400
C  -9.48900 14.38300 42.49800
C  -11.32200 18.58300 40.84000
C  -15.77300 16.97900 41.93300
C  -13.98900 12.61200 43.18900
N  -10.65000 16.34200 41.69700
C  -9.47800 15.61700 41.89200
C  -8.31100 16.23100 41.12000
C  -8.93500 17.65100 40.71200
C  -10.44000 17.55200 41.11700
C  -8.39200 18.96800 41.34300
C  -8.02800 15.36400 39.82200
C  -6.54300 15.27000 39.40200
H  -6.16700 16.10500 38.20500
N  -13.42900 17.59200 41.51400
C  -12.70400 18.59800 40.94200
C  -13.66900 19.64500 40.45400
C  -15.00900 19.22700 40.91500
C  -14.79900 17.86700 41.46600
C  -13.24100 21.07800 39.91300
C  -16.28800 19.99200 40.67700
O  -16.35600 21.08600 40.13900
C  -17.63800 19.53800 41.20600
N  -14.59000 14.85300 42.39200
C  -15.71000 15.63500 42.25100
C  -16.95100 14.74500 42.49400
C  -16.38700 13.29700 42.77600
C  -14.87000 13.60300 42.76400
C  -17.89900 15.37000 43.53300
C  -16.81400 12.19000 41.75200
C  -18.01100 11.27600 42.28300
N  -11.89700 13.85100 42.93700
C  -12.52300 12.67300 43.25700
C  -11.54600 11.71600 43.59400
C  -10.29400 12.33800 43.25400
C  -10.61100 13.64900 42.82900
C  -11.75900 10.35300 44.19800
C  -8.79500 12.15500 43.24400
O  -8.05600 11.18900 43.53500
C  -8.20200 13.52000 42.64800
C  -7.14200 14.14400 43.60700
O  -7.28600 14.75000 44.64300
O  -5.87500 13.89700 43.01700
C  -4.76400 14.62600 43.64900
H  -11.06600 19.59600 40.52200
H  -16.79900 17.30800 41.75800
H  -14.38200 11.63100 43.46600
H  -7.52700 16.27300 41.87700
H  -9.01800 17.81100 39.63700
H  -9.11300 19.08100 42.15200
H  -8.46400 19.75800 40.59600
H  -7.38600 18.90300 41.75900
H  -8.53600 15.69400 38.91600
H  -8.50100 14.39000 39.94900
H  -6.33700 14.22000 39.19900
H  -6.00000 15.62200 40.27900
H  -13.98200 21.82400 40.20000
H  -12.99700 21.11300 38.85100
H  -12.36100 21.48600 40.41100
H  -18.00300 18.62300 40.73900
H  -18.29800 20.38500 41.02100
H  -17.45400 19.51600 42.28000
H  -17.55600 14.80300 41.59000
H  -16.47400 12.99300 43.81900
H  -18.92300 15.26100 43.17500
H  -17.67800 16.41000 43.77500
H  -17.80400 14.89700 44.51100
H  -15.99900 11.57100 41.37800
H  -17.22000 12.78000 40.93100
H  -17.64300 10.25200 42.34400
H  -18.74600 11.38400 41.48500
H  -18.36100 11.51500 43.28700
H  -11.91300 9.48800 43.55300
H  -12.62200 10.41700 44.86200
H  -10.88700 10.14600 44.81800
H  -7.68600 13.23400 41.73200
H  -4.23100 14.12000 44.45400
H  -5.03300 15.66300 43.84800
H  -4.01800 14.56700 42.85600

