158

Mg 47.28100 16.15500 28.29500
C  45.80800 15.93300 31.45600
C  49.90500 18.00900 29.73000
C  48.79200 16.09600 25.35700
C  44.51700 14.76400 26.88900
N  47.76300 16.95400 30.36900
C  46.97100 16.74500 31.51000
C  47.62300 17.35300 32.78900
C  48.77500 18.27100 32.15400
C  48.86700 17.72500 30.64300
C  48.61100 19.81600 32.24600
C  48.02900 16.15200 33.82700
C  48.00400 16.43900 35.33500
H  48.21800 17.82100 35.94400
N  49.04500 16.90700 27.70700
C  50.03100 17.46600 28.47800
C  51.21900 17.53100 27.67900
C  50.93900 17.03000 26.41400
C  49.53900 16.59200 26.42100
C  52.56700 17.99200 28.22900
C  51.90700 16.95900 25.25900
O  51.68200 16.32800 24.22900
C  53.22100 17.73700 25.18300
N  46.69900 15.71200 26.29700
C  47.50700 15.75200 25.20800
C  46.85200 15.28100 23.87400
C  45.47700 14.70500 24.45400
C  45.53700 15.21200 25.99100
C  46.62900 16.34500 22.82300
C  45.26000 13.26400 24.23700
C  46.16300 12.21100 25.02800
N  45.54900 15.54000 28.94700
C  44.45400 14.99600 28.22800
C  43.47500 14.58700 29.14200
C  43.98700 14.96000 30.42500
C  45.17700 15.59900 30.26500
C  42.22100 13.90500 28.79800
C  43.69500 14.88900 31.87800
O  42.76600 14.41800 32.52300
C  44.84400 15.64200 32.57700
C  44.27000 16.87000 33.17200
O  44.06500 17.90000 32.57500
O  43.89400 16.53800 34.45100
C  42.95600 17.40900 35.15300
H  50.81400 18.48800 30.10000
H  49.34700 15.98700 24.42300
H  43.68800 14.15200 26.53000
H  46.89400 17.99200 33.28800
H  49.77700 18.06500 32.53200
H  47.75900 20.14200 32.84200
H  48.68600 20.40300 31.33000
H  49.48700 20.04800 32.85200
H  48.99000 15.71000 33.56600
H  47.35900 15.32300 33.59800
H  48.82000 15.81200 35.69600
H  47.04800 16.00600 35.62900
H  52.70100 17.89200 29.30600
H  52.80500 18.98500 27.84900
H  53.31700 17.30300 27.84100
H  53.19600 18.78000 25.49600
H  53.54800 17.87500 24.15200
H  54.04300 17.28600 25.73800
H  47.45300 14.42100 23.57800
H  44.58100 15.24900 24.15500
H  46.84100 17.30400 23.29600
H  45.59700 16.49000 22.50400
H  47.35600 16.21200 22.02200
H  45.25300 13.09500 23.16000
H  44.24400 13.13800 24.61300
H  46.59200 12.71300 25.89400
H  46.94300 11.87000 24.34700
H  45.62000 11.32400 25.35700
H  42.25400 13.18200 29.61300
H  42.18900 13.42600 27.81900
H  41.35200 14.55600 28.89400
H  45.21000 15.05600 33.42000
H  41.96600 16.96700 35.04500
H  42.99500 18.38100 34.66100
H  43.35100 17.48800 36.16600
Mg -5.29100 25.52400 27.36100
C  -4.01600 27.32200 30.06500
C  -6.75100 23.42400 29.69400
C  -6.43000 23.55200 24.82000
C  -3.21700 27.25500 25.22000
N  -5.11500 25.30700 29.58900
C  -4.71100 26.23200 30.53200
C  -5.12800 25.90100 32.03400
C  -5.64700 24.48000 31.84900
C  -5.91900 24.40000 30.25500
C  -4.77500 23.26900 32.51100
C  -6.09800 27.04800 32.58400
C  -6.36300 27.15500 34.06000
H  -5.95800 25.94000 34.93300
N  -6.57400 23.82300 27.29100
C  -7.13400 23.17500 28.30300
C  -8.08800 22.15700 27.75900
C  -8.08600 22.24800 26.38400
C  -7.00500 23.23100 26.06700
C  -8.88900 21.27100 28.72300
C  -8.91300 21.55300 25.37400
O  -8.77400 21.83100 24.15200
C  -9.94600 20.53700 25.81400
N  -4.95200 25.57400 25.26700
C  -5.43900 24.52800 24.49300
C  -4.78700 24.57300 23.07000
C  -3.86000 25.88200 23.08800
C  -4.05000 26.30800 24.62100
C  -4.19000 23.16100 22.65400
C  -4.25100 27.02000 22.16600
C  -3.46700 27.25800 20.85000
N  -3.96800 27.01800 27.52000
C  -3.20700 27.72600 26.57000
C  -2.46000 28.76700 27.10900
C  -2.74700 28.68000 28.51600
C  -3.65500 27.58500 28.70600
C  -1.56800 29.64800 26.35000
C  -2.49500 29.24400 29.80600
O  -1.76300 30.18700 30.13400
C  -3.33700 28.45000 30.79900
C  -2.45800 27.93900 31.86700
O  -1.37700 27.35000 31.69800
O  -3.03000 28.20200 33.04900
C  -2.29000 27.87600 34.23900
H  -7.36700 22.98000 30.47800
H  -6.65600 22.99100 23.91000
H  -2.58600 27.90300 24.60800
H  -4.17000 25.83900 32.54900
H  -6.67600 24.38700 32.19600
H  -4.50100 22.59900 31.69600
H  -5.26400 22.74900 33.33400
H  -3.90100 23.72100 32.98000
H  -7.07600 26.73500 32.21800
H  -6.00000 28.07100 32.22100
H  -7.43900 27.31800 34.12900
H  -5.85100 28.03500 34.44900
H  -8.55100 21.46200 29.74200
H  -8.78500 20.20900 28.50400
H  -9.96100 21.46900 28.73900
H  -9.37800 19.95300 26.53800
H  -10.24200 19.92000 24.96600
H  -10.84900 20.97900 26.23600
H  -5.52100 24.75600 22.28500
H  -2.82100 25.55900 23.02900
H  -3.20200 23.26000 22.20400
H  -4.91600 22.70100 21.98300
H  -4.02800 22.58100 23.56300
H  -4.38100 27.94300 22.73000
H  -5.28400 26.83000 21.87500
H  -3.94800 26.62200 20.10700
H  -2.50600 26.79900 21.08300
H  -3.50200 28.28800 20.49500
H  -0.91700 28.98000 25.78800
H  -0.94900 30.36600 26.88900
H  -2.07500 30.14300 25.52200
H  -4.06600 29.18300 31.14500
H  -1.56400 27.06800 34.14300
H  -3.04800 27.42500 34.87900
H  -1.76000 28.74100 34.63700

