158

Mg 1.19400 7.92800 25.49100
C  1.63300 9.59600 28.51100
C  1.13700 4.90000 27.30100
C  0.94400 6.35300 22.55900
C  1.12900 10.98600 23.79500
N  1.27100 7.39900 27.64700
C  1.33600 8.24700 28.71700
C  1.37300 7.44700 30.01200
C  1.45800 5.95400 29.57600
C  1.18100 6.13000 28.04200
C  2.76200 5.10900 29.97000
C  0.22600 7.70000 31.01300
C  0.69100 7.89800 32.50300
H  1.99800 7.19200 33.04800
N  1.10600 5.92600 25.00000
C  1.07700 4.82600 25.86900
C  1.05200 3.58300 25.11600
C  0.92100 3.95700 23.73100
C  1.02100 5.45900 23.67900
C  0.97900 2.23400 25.74700
C  0.84100 3.16100 22.44300
O  0.87800 3.68700 21.33100
C  1.02500 1.75600 22.60200
N  0.99500 8.58300 23.43900
C  0.94200 7.72100 22.43500
C  0.86100 8.40400 21.06700
C  0.75200 9.95200 21.50300
C  0.93300 9.87400 23.02000
C  2.03400 8.07800 20.15600
C  -0.65800 10.65300 21.27900
C  -0.54600 11.95700 20.53300
N  1.28500 9.85100 26.00600
C  1.33800 11.01200 25.21300
C  1.50400 12.19000 26.01100
C  1.74400 11.68400 27.34100
C  1.53200 10.26300 27.30300
C  1.61100 13.56600 25.59900
C  2.04900 12.02200 28.76000
O  2.20300 13.09500 29.29500
C  1.83800 10.63800 29.55200
C  3.00000 10.56700 30.46100
O  4.11900 10.28500 30.23400
O  2.65200 11.11500 31.66800
C  3.70200 11.50400 32.59100
H  1.21000 4.01400 27.93600
H  0.90200 5.86200 21.58400
H  0.89500 11.97300 23.39200
H  2.32900 7.71800 30.46100
H  0.68700 5.35700 30.06200
H  3.56800 5.18800 29.24000
H  2.58000 4.03500 29.98900
H  3.07600 5.47900 30.94600
H  -0.56300 6.96500 30.85200
H  -0.27100 8.61800 30.69900
H  -0.13400 7.61900 33.15800
H  0.85800 8.94800 32.74500
H  1.23800 2.26900 26.80500
H  1.68900 1.57600 25.24500
H  0.00900 1.74900 25.63400
H  0.08700 1.33600 22.96300
H  1.82100 1.49900 23.30100
H  1.44100 1.53700 21.61800
H  -0.05900 8.16800 20.53300
H  1.58300 10.50200 21.06100
H  1.75300 7.09200 19.78600
H  2.98800 8.02600 20.68100
H  2.09900 8.74300 19.29500
H  -1.10400 10.93700 22.23200
H  -1.31000 9.95900 20.75100
H  -0.70100 11.78000 19.46900
H  0.47600 12.31500 20.66100
H  -1.30700 12.65600 20.87900
H  2.45700 14.08500 26.04700
H  0.62500 14.03200 25.62000
H  1.88000 13.41800 24.55300
H  1.01700 10.60400 30.26800
H  4.48900 10.75500 32.68200
H  3.28300 11.75800 33.56500
H  4.11900 12.41500 32.16300
Mg 17.49500 -1.04300 26.89500
C  16.57200 0.82000 29.77000
C  19.69900 -2.91700 29.04400
C  18.92300 -2.44100 24.20500
C  15.52100 0.86400 24.99400
N  18.13000 -0.97600 29.16100
C  17.54500 -0.17600 30.11500
C  17.91900 -0.61600 31.53700
C  19.04300 -1.75100 31.22800
C  18.95000 -1.92400 29.71500
C  20.42500 -1.32100 31.79400
C  16.70000 -1.12800 32.32800
C  16.30900 -0.42300 33.69200
H  17.39100 0.22700 34.50700
N  19.10000 -2.41200 26.62600
C  19.81900 -3.05900 27.63900
C  20.73200 -3.99400 26.98300
C  20.39400 -4.04100 25.59700
C  19.46400 -2.89500 25.38000
C  21.66900 -4.91000 27.63000
C  20.85700 -5.04800 24.46000
O  20.22000 -5.09000 23.41400
C  22.07400 -6.01600 24.62500
N  17.20000 -0.97500 24.93700
C  17.87500 -1.60600 23.99100
C  17.30600 -1.33500 22.59600
C  16.16600 -0.32700 22.90700
C  16.25100 -0.12900 24.39200
C  18.34900 -0.97900 21.42900
C  14.72400 -0.81100 22.45300
C  13.83000 -1.64100 23.35000
N  16.35800 0.57700 27.22500
C  15.58600 1.28100 26.31500
C  14.85500 2.32900 26.98100
C  15.23400 2.14100 28.36700
C  16.13700 1.06800 28.41700
C  14.00700 3.47900 26.31400
C  14.97100 2.61800 29.66200
O  14.25700 3.53400 30.06600
C  15.86300 1.82400 30.71100
C  16.69800 2.87300 31.40500
O  17.87000 3.19800 31.21000
O  15.87900 3.35400 32.44900
C  16.44700 4.37600 33.35500
H  20.33800 -3.55100 29.66300
H  19.25500 -2.98900 23.32100
H  14.86400 1.25200 24.21200
H  18.40700 0.24400 31.99700
H  18.81100 -2.75200 31.59000
H  20.53500 -2.01700 32.62600
H  20.46100 -0.27000 32.08300
H  21.14500 -1.52300 31.00200
H  16.79100 -2.19100 32.55300
H  15.81500 -0.94400 31.71900
H  15.73500 -1.09300 34.33300
H  15.60600 0.39800 33.55200
H  21.39600 -5.86600 27.18300
H  21.61000 -4.95100 28.71700
H  22.69600 -4.69000 27.34000
H  22.49000 -6.17200 23.63000
H  21.85200 -6.93500 25.16700
H  22.83600 -5.45700 25.16900
H  16.81700 -2.25200 22.26800
H  16.24700 0.65600 22.44400
H  19.35800 -0.80500 21.80100
H  17.93400 -0.21700 20.77000
H  18.52000 -1.81800 20.75500
H  14.94300 -1.45400 21.60000
H  14.30500 0.13500 22.11000
H  12.99300 -0.97700 23.56600
H  14.31200 -1.96100 24.27400
H  13.34900 -2.48100 22.85000
H  14.53800 3.91700 25.46900
H  13.82700 4.17000 27.13700
H  13.05300 3.00400 26.08200
H  15.36000 1.27700 31.50900
H  16.42100 4.24600 34.43700
H  15.72400 5.17400 33.18500
H  17.42200 4.73300 33.02300

