158

Mg 2.29500 -1.13600 43.38500
C  5.70800 -0.88200 43.04400
C  2.01600 1.48000 41.21400
C  -1.12800 -1.78500 43.21700
C  2.64700 -4.28000 44.79800
N  3.72800 0.00000 42.12600
C  5.05500 0.03200 42.21900
C  5.67300 1.00100 41.22300
C  4.47100 1.95100 41.00500
C  3.32700 1.13400 41.45200
C  4.57500 3.32900 41.82800
C  6.26700 0.33000 39.90800
C  7.35700 1.25900 39.18400
H  6.93900 2.18700 38.06400
N  0.64200 -0.18600 42.48800
C  0.80600 0.87300 41.60000
C  -0.46800 1.37700 41.31800
C  -1.45400 0.53800 42.00500
C  -0.67400 -0.56500 42.61000
C  -0.72100 2.62600 40.39200
C  -2.93100 0.66900 41.81800
O  -3.43600 1.64000 41.23100
C  -3.86300 -0.22300 42.53800
N  0.94800 -2.85800 43.68900
C  -0.46100 -2.91400 43.60100
C  -0.99500 -4.22200 44.10500
C  0.25100 -4.96200 44.72900
C  1.36900 -3.99300 44.30500
C  -2.23000 -4.11800 45.03600
C  0.40000 -6.42800 44.27800
C  -0.51900 -7.44800 45.03600
N  3.83400 -2.28000 43.98300
C  3.83500 -3.52100 44.55200
C  5.24500 -3.92000 44.78000
C  6.00800 -2.82400 44.36100
C  5.12500 -1.94100 43.81800
C  5.66300 -5.18400 45.38100
C  7.37100 -2.26500 44.17400
O  8.43600 -2.71700 44.54000
C  7.24700 -0.96300 43.31700
C  7.71800 0.19100 44.24600
O  7.78300 0.16800 45.45000
O  7.96400 1.35300 43.53500
C  8.22900 2.58600 44.31300
H  1.98900 2.42400 40.66500
H  -2.17900 -2.07700 43.15200
H  2.84800 -5.18600 45.37300
H  6.46800 1.60300 41.66100
H  4.30500 2.00300 39.92900
H  5.41200 3.20300 42.51500
H  3.68200 3.50200 42.42900
H  4.82700 4.12900 41.13200
H  5.43600 0.18600 39.21700
H  6.64000 -0.66200 40.16400
H  8.02700 0.52100 38.74200
H  8.00300 1.81800 39.86100
H  -1.62800 2.37800 39.84200
H  0.03700 2.92200 39.66600
H  -0.97100 3.45700 41.05100
H  -3.90400 -1.15300 41.97100
H  -4.83800 0.24800 42.66500
H  -3.38300 -0.26100 43.51600
H  -1.40700 -4.73100 43.23400
H  0.25800 -4.89100 45.81700
H  -2.31800 -3.10200 45.42000
H  -2.14300 -4.76700 45.90800
H  -3.13100 -4.38200 44.48300
H  1.42400 -6.79300 44.36400
H  0.09900 -6.48900 43.23200
H  -1.04500 -6.96000 45.85700
H  0.12400 -8.25200 45.39500
H  -1.19600 -7.89800 44.31000
H  6.74900 -5.26800 45.40600
H  5.24700 -6.07700 44.91400
H  5.27400 -5.20700 46.39900
H  7.86900 -1.11200 42.43400
H  8.11000 2.60500 45.39700
H  7.48600 3.33800 44.04700
H  9.13500 3.15800 44.11000
Mg -10.53100 40.15500 43.17000
C  -9.94400 36.91500 42.29600
C  -7.63500 41.25000 41.58900
C  -11.65900 43.43600 43.21400
C  -13.87700 39.27900 44.15700
N  -9.02900 39.20300 42.01800
C  -8.91600 37.80100 41.82100
C  -7.68300 37.49700 41.02000
C  -6.87900 38.85400 41.00700
C  -7.90300 39.84100 41.60100
C  -5.47800 38.86100 41.69900
C  -7.93800 36.84400 39.59100
C  -6.90000 35.83600 39.17400
H  -5.73500 36.29200 38.35800
N  -9.68400 42.06900 42.60600
C  -8.49300 42.27600 42.00100
C  -8.34300 43.67300 41.73400
C  -9.49900 44.33100 42.14300
C  -10.32800 43.27700 42.69200
C  -7.04700 44.26000 41.08300
C  -9.75400 45.84400 42.14600
O  -8.89300 46.54500 41.64000
C  -10.92000 46.52000 42.69300
N  -12.50700 41.17200 43.78800
C  -12.62300 42.51900 43.70900
C  -14.04000 42.95700 43.98900
C  -14.82500 41.61000 44.53800
C  -13.71300 40.61600 44.10500
C  -14.26700 44.20400 44.84900
C  -16.28200 41.30000 43.91900
C  -16.37900 40.53400 42.68300
N  -11.69800 38.47200 43.32000
C  -12.96800 38.27500 43.74900
C  -13.32100 36.82200 43.62200
C  -12.11600 36.28800 43.04800
C  -11.19400 37.30500 42.81800
C  -14.62600 36.27200 44.00900
C  -11.42100 35.02200 42.72600
O  -11.87000 33.88100 42.79300
C  -10.06000 35.45400 42.00700
C  -8.98400 34.64000 42.60700
O  -8.34100 34.82800 43.62200
O  -8.80300 33.58200 41.75600
C  -7.64900 32.68100 42.02100
H  -6.79000 41.60000 40.99200
H  -12.20700 44.37900 43.16700
H  -14.88200 39.04500 44.51300
H  -7.12100 36.81300 41.65700
H  -6.69500 39.12700 39.96800
H  -4.83800 38.01800 41.43900
H  -5.42800 39.05000 42.77100
H  -5.09700 39.72500 41.15400
H  -8.02700 37.67800 38.89500
H  -8.93800 36.41200 39.64200
H  -7.40800 35.04400 38.62400
H  -6.47200 35.36100 40.05700
H  -6.25800 44.57300 41.76700
H  -7.35300 45.08300 40.43700
H  -6.59500 43.61900 40.32600
H  -10.79800 47.60300 42.68400
H  -11.09100 46.27700 43.74200
H  -11.73600 46.24000 42.02600
H  -14.50600 43.15100 43.02200
H  -14.93700 41.54800 45.62000
H  -13.40600 44.48200 45.45600
H  -14.88800 43.88700 45.68700
H  -14.75100 45.04300 44.34700
H  -16.81300 42.23200 43.72800
H  -16.98700 40.84500 44.61600
H  -17.02000 41.07500 41.98700
H  -16.75300 39.57300 43.03700
H  -15.48700 40.25700 42.12200
H  -14.87400 35.29800 43.58800
H  -15.41400 37.00700 43.84300
H  -14.58100 36.11600 45.08700
H  -10.08800 35.23800 40.93900
H  -7.53200 31.96700 41.20600
H  -7.86800 32.04100 42.87600
H  -6.69300 33.15900 42.23500

