158

Mg 46.67800 24.39400 28.95100
C  47.24100 26.92100 31.40600
C  45.69800 22.36500 31.49100
C  46.65100 22.00500 26.67800
C  48.18300 26.56500 26.54100
N  46.51400 24.63100 31.23700
C  46.64600 25.77100 31.96600
C  46.12200 25.56400 33.42000
C  45.86000 24.01900 33.41600
C  45.97600 23.59900 31.95700
C  46.88000 23.15400 34.21800
C  44.97500 26.57800 33.85900
C  45.27700 27.20800 35.22400
H  44.31200 27.13300 36.36900
N  45.98300 22.49300 29.05900
C  45.60600 21.85100 30.17600
C  45.08900 20.60000 29.69900
C  45.41300 20.38000 28.37900
C  46.02700 21.64700 27.94600
C  44.44000 19.64400 30.55600
C  45.22800 19.25500 27.44400
O  45.55000 19.31600 26.20800
C  44.76400 17.97000 28.03400
N  47.48300 24.28600 26.96200
C  47.20100 23.21900 26.15800
C  47.59700 23.38100 24.67200
C  47.75900 24.93800 24.65600
C  47.78500 25.32000 26.12700
C  48.93400 22.63500 24.43400
C  46.60300 25.64900 23.97800
C  46.72100 26.17300 22.51200
N  47.57700 26.25600 28.91800
C  48.19900 27.00600 27.86700
C  48.63800 28.23500 28.44300
C  48.37100 28.21700 29.77700
C  47.67100 27.04300 30.05000
C  49.16100 29.35400 27.66100
C  48.50700 28.96200 31.03600
O  49.12400 29.94300 31.35000
C  47.85600 28.09700 32.16000
C  48.94300 27.62900 33.17100
O  49.88900 26.92500 32.88500
O  48.58900 28.16500 34.36600
C  49.35300 27.77400 35.54300
H  45.39700 21.67200 32.28000
H  46.58100 21.30700 25.84100
H  48.30500 27.27300 25.71900
H  47.04900 25.75000 33.96300
H  44.85600 23.86400 33.81100
H  47.55200 22.53000 33.62900
H  46.27700 22.51200 34.86000
H  47.37300 23.82500 34.92200
H  44.02000 26.05600 33.92300
H  45.05900 27.39300 33.13900
H  45.84700 28.13400 35.14500
H  46.00100 26.55600 35.71100
H  45.01000 18.71900 30.47000
H  43.40800 19.46300 30.25500
H  44.48300 19.88500 31.61800
H  45.46000 17.62100 28.79700
H  44.84100 17.23700 27.23000
H  43.75000 18.03900 28.42800
H  46.73900 23.02900 24.09900
H  48.70400 25.23300 24.20000
H  49.13300 21.80000 25.10500
H  49.83700 23.24200 24.49600
H  48.87900 22.34400 23.38500
H  46.28600 26.45300 24.64200
H  45.78000 24.93400 23.99800
H  47.71600 25.87300 22.18400
H  46.71000 27.25100 22.35100
H  45.93100 25.73000 21.90500
H  48.40500 30.02700 27.25600
H  49.67200 28.98500 26.77200
H  49.83300 29.83300 28.37300
H  47.08400 28.77500 32.52400
H  49.89700 28.61400 35.97500
H  50.01600 26.95300 35.27100
H  48.69700 27.60100 36.39700
Mg -1.56600 34.03500 27.41800
C  -3.25600 32.25600 29.95700
C  -0.44000 36.19700 29.78900
C  -0.42900 36.11500 24.99000
C  -3.55300 32.35000 25.03000
N  -2.03400 34.25800 29.55500
C  -2.58000 33.36200 30.47200
C  -2.36300 33.84800 31.90500
C  -1.74100 35.26300 31.79700
C  -1.33700 35.28700 30.23300
C  -2.64900 36.46400 32.16700
C  -1.57700 32.76400 32.73900
C  -2.09800 32.37200 34.16800
H  -1.23200 32.06800 35.37200
N  -0.41200 35.72800 27.42100
C  0.07700 36.41600 28.53000
C  0.92800 37.47700 28.09100
C  0.99300 37.38500 26.61300
C  -0.01200 36.41000 26.26400
C  1.76200 38.34500 29.08500
C  1.77200 38.26700 25.66100
O  1.67800 38.16500 24.41900
C  2.69300 39.41500 26.10900
N  -2.15600 34.32400 25.33000
C  -1.38400 35.22400 24.57400
C  -1.75900 34.97700 23.08600
C  -2.47700 33.59400 23.07000
C  -2.75400 33.41200 24.52200
C  -2.53200 36.22000 22.47100
C  -1.77700 32.33300 22.47700
C  -0.54900 31.83100 23.35100
N  -3.17500 32.62300 27.43700
C  -3.74600 31.94200 26.44000
C  -4.57000 30.86100 26.94400
C  -4.39700 30.94200 28.29700
C  -3.50200 32.04600 28.58500
C  -5.37800 29.98600 26.01900
C  -4.82400 30.42100 29.56700
O  -5.55400 29.44800 29.70300
C  -3.93900 31.16000 30.74500
C  -4.94800 31.72600 31.73900
O  -5.55100 32.80400 31.59900
O  -4.99700 30.96100 32.87700
C  -5.77100 31.63000 33.98000
H  -0.24400 36.95100 30.55400
H  -0.01100 36.65500 24.13800
H  -4.08900 31.82300 24.23800
H  -3.35600 33.97200 32.33800
H  -0.83700 35.21400 32.40400
H  -2.54800 37.23600 31.40400
H  -2.27700 36.77200 33.14400
H  -3.66000 36.06700 32.25700
H  -0.57300 33.16400 32.88300
H  -1.55000 31.83000 32.17700
H  -2.66400 31.46700 33.95100
H  -2.75000 33.19600 34.45800
H  1.43800 39.38400 29.01800
H  2.83000 38.35800 28.86500
H  1.56600 38.10900 30.13100
H  3.60500 38.92800 26.45400
H  2.14800 39.85000 26.94700
H  2.82100 40.12400 25.29100
H  -0.82200 34.87000 22.54000
H  -3.45200 33.58000 22.58300
H  -2.94500 36.80000 23.29700
H  -3.31500 35.85100 21.80900
H  -1.85000 36.72800 21.78900
H  -1.32500 32.59400 21.52000
H  -2.49500 31.53800 22.27600
H  -0.57400 32.12400 24.40000
H  0.37800 32.29500 23.01300
H  -0.49700 30.74300 23.37800
H  -5.76900 29.09700 26.51200
H  -4.71500 29.77200 25.18100
H  -6.15400 30.67900 25.69600
H  -3.30400 30.45300 31.27900
H  -6.65500 32.18500 33.66600
H  -5.15600 32.34400 34.52800
H  -5.99500 30.83300 34.68900

