158

Mg 1.38100 8.37500 25.02900
C  1.88100 10.36100 27.80200
C  1.50500 5.60400 26.81400
C  0.89700 6.53400 22.20500
C  1.17700 11.34400 23.07600
N  1.76200 8.04500 27.08600
C  1.90300 9.00100 28.07200
C  2.03800 8.32500 29.49600
C  2.01200 6.79200 29.06200
C  1.70300 6.80100 27.55900
C  3.38100 6.05900 29.32700
C  0.81100 8.65200 30.45900
C  1.10300 8.72900 31.96700
H  2.33300 7.94400 32.58500
N  1.35000 6.34100 24.52600
C  1.47000 5.37300 25.51100
C  1.26500 4.13000 24.86500
C  0.97500 4.31600 23.49900
C  1.07500 5.77700 23.35000
C  1.26900 2.81800 25.53800
C  0.63400 3.38500 22.35300
O  0.19300 3.71300 21.25400
C  0.65500 1.99400 22.64200
N  1.20100 8.90200 22.92200
C  0.99700 7.91000 21.96700
C  0.78500 8.56800 20.57800
C  0.55600 10.13700 20.92500
C  0.94600 10.17900 22.40000
C  2.10200 8.36600 19.75900
C  -0.84600 10.68400 20.60200
C  -0.85100 11.39800 19.24600
N  1.47100 10.41500 25.33700
C  1.37400 11.52100 24.40900
C  1.50200 12.83700 25.15500
C  1.66500 12.41500 26.50000
C  1.71000 10.93800 26.51300
C  1.66200 14.22700 24.52500
C  1.87300 12.89000 27.81200
O  1.93700 14.01400 28.23900
C  1.93400 11.62300 28.70800
C  3.06100 11.81400 29.64500
O  4.19400 12.01300 29.27400
O  2.59800 11.88000 30.92700
C  3.45600 12.38400 32.00300
H  1.58600 4.76000 27.50200
H  0.88600 5.99600 21.25400
H  1.21900 12.20900 22.41100
H  2.99500 8.64200 29.90900
H  1.23600 6.19900 29.54700
H  3.19500 5.25700 30.04100
H  4.20400 6.64500 29.73300
H  3.72700 5.54300 28.43100
H  0.00900 7.94200 30.26000
H  0.50700 9.66600 30.20100
H  0.23000 8.26500 32.42500
H  1.08900 9.78400 32.23900
H  2.04400 2.17400 25.12200
H  0.31500 2.32300 25.71800
H  1.74400 3.04600 26.49300
H  0.50200 1.45700 21.70700
H  -0.22900 2.06100 23.27700
H  1.57300 1.66000 23.12500
H  -0.02500 8.03500 20.07800
H  1.28000 10.79600 20.44600
H  2.05600 7.31400 19.47500
H  2.96800 8.48600 20.40800
H  2.13000 8.97400 18.85500
H  -1.17200 11.33600 21.41200
H  -1.44000 9.78200 20.45900
H  -1.69200 11.12200 18.61100
H  0.05200 11.41000 18.63600
H  -1.15600 12.39400 19.56800
H  0.99400 14.93900 25.00900
H  1.45800 14.23700 23.45400
H  2.68500 14.60100 24.56800
H  1.04700 11.76600 29.32500
H  3.95700 11.46500 32.31000
H  2.88000 12.77900 32.84000
H  4.15300 13.14100 31.64400
Mg 25.41200 50.04200 26.18500
C  23.34700 51.22800 28.81400
C  27.70000 49.37200 28.57400
C  27.61100 49.41300 23.76700
C  23.23100 51.26700 23.93400
N  25.38800 50.06100 28.52300
C  24.48300 50.70200 29.36400
C  24.82600 50.39100 30.82000
C  26.33300 50.09600 30.68500
C  26.53300 49.79200 29.18200
C  27.38400 51.18300 31.21400
C  23.97100 49.24100 31.35300
C  23.61900 49.31700 32.92600
H  24.37300 50.24500 33.84400
N  27.39300 49.37900 26.22000
C  28.14100 49.21100 27.30300
C  29.44900 48.74400 26.93800
C  29.47000 48.71200 25.51300
C  28.13800 49.10400 25.07700
C  30.58700 48.35700 27.88900
C  30.60500 48.43000 24.53900
O  30.54400 48.68700 23.32200
C  31.94900 47.91700 25.03500
N  25.40900 50.27400 24.15500
C  26.44500 49.94700 23.34400
C  25.99600 50.01500 21.85300
C  24.54300 50.52300 21.85000
C  24.36900 50.70200 23.40900
C  26.98200 50.63400 20.83300
C  23.50100 49.53000 21.31100
C  22.22400 50.10900 20.76800
N  23.65500 51.07600 26.32000
C  22.88000 51.55100 25.32000
C  21.69800 52.25800 25.84900
C  21.86700 52.11600 27.21500
C  23.07000 51.46700 27.43300
C  20.65800 52.93400 25.03800
C  21.32400 52.41800 28.50300
O  20.27100 53.02400 28.82000
C  22.21600 51.85800 29.60200
C  22.60300 53.02200 30.43900
O  23.15500 53.98400 30.03800
O  22.06600 52.88500 31.71500
C  22.43600 54.00600 32.61000
H  28.51900 49.22300 29.28100
H  28.22000 49.22300 22.88100
H  22.45500 51.55600 23.22100
H  24.67500 51.34400 31.32500
H  26.60400 49.16500 31.18100
H  26.88300 52.14400 31.32100
H  28.15000 51.39800 30.47000
H  27.83300 50.98800 32.18800
H  24.47900 48.32400 31.05400
H  23.00800 49.21300 30.84400
H  23.67500 48.28800 33.28000
H  22.56400 49.59100 32.92500
H  30.47500 48.78800 28.88400
H  31.58400 48.61100 27.52800
H  30.61000 47.27000 27.96500
H  32.46300 47.52700 24.15600
H  31.80800 47.04600 25.67600
H  32.48200 48.73300 25.52200
H  25.97000 48.98900 21.48600
H  24.39800 51.44400 21.28500
H  27.89900 50.87300 21.37100
H  26.51500 51.56600 20.51500
H  27.19100 49.90500 20.05100
H  23.22400 48.76600 22.03800
H  23.99100 48.97900 20.50900
H  21.50900 50.09300 21.59100
H  21.94700 49.66000 19.81500
H  22.34800 51.18400 20.63000
H  20.34400 52.53900 24.07200
H  21.06400 53.94200 24.95600
H  19.77800 53.02900 25.67400
H  21.60600 51.10800 30.10600
H  21.65500 54.75900 32.50300
H  23.41800 54.45100 32.44700
H  22.39100 53.71700 33.66000

