158

Mg 48.94000 24.87000 27.43700
C  49.97100 27.21000 29.83400
C  47.60700 22.99300 29.95200
C  48.07900 22.76600 25.09300
C  50.48800 26.86700 25.07200
N  48.82000 25.12900 29.52300
C  49.20700 26.22800 30.29500
C  48.52300 26.14800 31.70900
C  47.96900 24.66800 31.75000
C  48.12100 24.25800 30.27800
C  48.78500 23.71100 32.63600
C  47.57700 27.36400 32.04000
C  47.58200 27.80100 33.53200
H  46.31000 27.81200 34.35600
N  47.95700 23.00500 27.48000
C  47.49200 22.40300 28.64300
C  46.97900 21.10100 28.26400
C  47.02100 21.07500 26.80000
C  47.72200 22.27400 26.38100
C  46.55300 20.02900 29.31500
C  46.50500 19.95200 25.88100
O  46.67200 19.98100 24.66900
C  45.64900 18.79600 26.39200
N  49.53400 24.69600 25.43400
C  48.86900 23.79200 24.65400
C  49.45600 23.86100 23.23800
C  50.05200 25.34000 23.15300
C  50.05200 25.68500 24.66300
C  50.38700 22.68500 22.88500
C  49.15800 26.27100 22.30100
C  49.45900 26.09100 20.79300
N  50.16500 26.70800 27.39800
C  50.72700 27.36100 26.37100
C  51.31400 28.57900 26.89000
C  50.99600 28.58800 28.23200
C  50.33700 27.39300 28.49000
C  51.96200 29.73400 26.08000
C  51.22100 29.34200 29.43100
O  51.73300 30.44900 29.67100
C  50.47900 28.47000 30.59300
C  51.45000 28.18300 31.62500
O  52.60300 27.81200 31.52100
O  50.92100 28.61400 32.82100
C  51.84000 28.41900 33.90600
H  47.27300 22.32100 30.74600
H  47.82600 22.01200 24.34500
H  50.91300 27.41800 24.23000
H  49.35000 26.21500 32.41600
H  46.92600 24.60800 32.06100
H  49.25500 24.25800 33.45300
H  49.59700 23.13700 32.18900
H  48.05000 23.05100 33.09700
H  46.59900 26.95400 31.78700
H  47.79900 28.21200 31.39300
H  48.03600 28.79200 33.51600
H  48.10000 27.07500 34.15900
H  46.92800 20.33500 30.29200
H  46.94200 19.07500 28.96200
H  45.47200 19.99500 29.45200
H  45.13300 18.50000 25.47900
H  45.05600 19.07900 27.26200
H  46.47300 18.12400 26.63100
H  48.57800 23.70500 22.61000
H  51.07000 25.21100 22.78600
H  49.87600 22.02100 22.18900
H  50.77200 22.00500 23.64600
H  51.31000 23.06200 22.44300
H  49.25400 27.29200 22.67000
H  48.13600 25.92200 22.44800
H  49.84000 27.06500 20.48700
H  48.56500 25.94100 20.18700
H  50.10500 25.21800 20.70000
H  51.70000 29.77400 25.02200
H  53.03600 29.59600 26.20000
H  51.69600 30.64300 26.61900
H  49.69600 29.01700 31.11900
H  51.88600 27.36400 34.17600
H  51.31900 28.87800 34.74600
H  52.81500 28.87000 33.71900
Mg 49.27100 46.18300 42.07000
C  45.87400 46.31200 41.17900
C  49.46800 42.98700 40.78500
C  52.52900 46.39500 42.37500
C  49.01400 49.56600 43.07600
N  47.79600 44.76600 41.11200
C  46.46300 45.08900 40.77300
C  45.79700 43.88400 40.08300
C  46.86100 42.72200 40.27900
C  48.13000 43.49700 40.78300
C  46.44400 41.49700 41.20800
C  45.54200 44.34700 38.58400
C  44.06700 44.13500 38.00200
H  44.01100 43.20900 36.81300
N  50.85100 44.86900 41.51300
C  50.71500 43.60000 41.08100
C  52.04600 43.00000 41.05000
C  53.00500 44.01800 41.51000
C  52.12300 45.13100 41.92800
C  52.34300 41.71400 40.34100
C  54.52900 43.85400 41.57400
O  55.07400 42.77800 41.35600
C  55.40600 45.02200 41.88200
N  50.60700 47.71900 42.73100
C  51.89600 47.62500 42.66700
C  52.66100 48.96200 42.89800
C  51.45300 49.95400 42.96900
C  50.27300 48.99800 43.03800
C  53.57600 48.99000 44.17800
C  51.36300 51.04700 41.84600
C  51.22400 52.46000 42.34600
N  47.74400 47.63800 42.26800
C  47.80700 48.89300 42.72900
C  46.49500 49.58000 42.57300
C  45.69000 48.55000 41.93100
C  46.48600 47.41800 41.81100
C  46.12800 50.92900 42.99700
C  44.42500 48.31100 41.27600
O  43.45300 49.00400 41.11000
C  44.42700 46.78200 40.93900
C  43.53100 46.05600 41.84900
O  43.83000 45.75400 42.97600
O  42.27500 45.72700 41.23200
C  41.18000 45.30300 42.14700
H  49.59400 41.91000 40.66300
H  53.56700 46.72700 42.30600
H  49.05800 50.64900 43.21300
H  44.88600 43.66200 40.63800
H  47.02200 42.37000 39.26000
H  47.05200 41.60500 42.10700
H  46.62500 40.56000 40.68100
H  45.38500 41.51100 41.46400
H  46.13700 43.72500 37.91500
H  45.83400 45.38800 38.44000
H  43.71000 45.15400 37.84700
H  43.42100 43.72200 38.77600
H  51.55600 41.47100 39.62700
H  52.35100 40.92100 41.08900
H  53.25500 41.76000 39.74600
H  56.43400 44.65800 41.87300
H  55.16200 45.33600 42.89700
H  55.46100 45.84700 41.17100
H  53.23000 49.16200 41.99000
H  51.40900 50.45900 43.93300
H  54.05800 49.96700 44.21200
H  54.41000 48.30700 44.01800
H  53.05100 48.81000 45.11600
H  50.56100 50.81700 41.14500
H  52.29800 50.93800 41.29700
H  50.24100 52.73400 41.96000
H  51.93700 53.15600 41.90400
H  51.16200 52.60700 43.42400
H  46.75800 51.19400 43.84500
H  45.05400 51.10600 43.05500
H  46.56300 51.54700 42.21100
H  44.17300 46.57100 39.90100
H  40.21500 45.77500 41.95800
H  41.55700 45.67400 43.10000
H  41.15600 44.21300 42.13600

