158

Mg 23.34600 -6.39200 46.89800
C  25.73000 -3.95900 45.86100
C  21.07000 -4.84100 44.80200
C  21.51800 -9.20700 47.11800
C  25.94200 -7.97400 48.60700
N  23.45500 -4.55200 45.50400
C  24.49100 -3.67500 45.35000
C  24.07400 -2.60000 44.41500
C  22.48800 -2.73500 44.45600
C  22.32800 -4.14900 44.94100
C  21.72900 -1.73000 45.42200
C  24.69700 -2.73300 43.05900
C  25.01400 -1.45900 42.31400
H  24.23400 -1.28300 40.99700
N  21.48700 -6.88800 46.08300
C  20.68900 -6.11100 45.28100
C  19.48300 -6.86400 45.02800
C  19.53600 -8.09700 45.69300
C  20.91900 -8.09800 46.34900
C  18.35100 -6.30400 44.11300
C  18.47300 -9.13400 45.80900
O  17.43000 -8.91900 45.23700
C  18.66400 -10.38800 46.44200
N  23.72300 -8.25200 47.73800
C  22.73700 -9.28500 47.76400
C  23.15600 -10.50300 48.65000
C  24.57400 -10.07000 49.07900
C  24.81100 -8.67100 48.43300
C  22.21600 -10.64000 49.85700
C  25.60700 -11.19200 48.75200
C  26.14900 -11.25100 47.22900
N  25.44200 -5.97200 47.26200
C  26.29100 -6.73400 47.95600
C  27.56700 -6.02600 48.05600
C  27.40300 -4.89500 47.21300
C  26.09000 -5.01100 46.69500
C  28.77200 -6.55900 48.72000
C  28.07400 -3.74300 46.65900
O  29.19100 -3.29200 46.84400
C  26.96500 -3.09400 45.71500
C  26.66200 -1.66700 46.07700
O  26.43800 -1.20900 47.20700
O  26.71500 -0.86300 44.95100
C  26.44500 0.51600 45.26600
H  20.19500 -4.30000 44.43700
H  21.03300 -10.18300 47.05300
H  26.73500 -8.46100 49.17800
H  24.30700 -1.67000 44.93400
H  22.02800 -2.68700 43.46900
H  22.45200 -1.13400 45.97800
H  21.16700 -2.28700 46.17100
H  20.94200 -1.24000 44.84800
H  24.05000 -3.31800 42.40500
H  25.67600 -3.16900 43.25600
H  26.06600 -1.30000 42.07800
H  24.76400 -0.67500 43.02900
H  17.88700 -7.15400 43.61300
H  18.70700 -5.59700 43.36500
H  17.58700 -5.84300 44.73900
H  19.38000 -11.00100 45.89400
H  17.66600 -10.82700 46.45600
H  18.92300 -10.09500 47.45900
H  23.12600 -11.44600 48.10400
H  24.66100 -9.97600 50.16100
H  21.94100 -11.69200 49.93900
H  21.29100 -10.07900 49.72300
H  22.54900 -10.32100 50.84400
H  25.24300 -12.21300 48.86900
H  26.47800 -11.05400 49.39400
H  27.20900 -11.49600 47.16800
H  26.05500 -10.27800 46.74600
H  25.57900 -11.99100 46.66800
H  28.78100 -6.82700 49.77600
H  29.38800 -5.67400 48.55700
H  29.21400 -7.38300 48.16000
H  27.48400 -3.25000 44.76900
H  25.35900 0.60100 45.21200
H  26.97200 1.15200 44.55600
H  26.77000 1.07500 46.14300
Mg 44.82600 3.74900 47.48200
C  42.63100 6.52400 47.15700
C  42.10400 1.71400 47.05500
C  46.82100 1.16200 46.86200
C  47.49500 5.98300 47.03900
N  42.65400 4.15600 47.05900
C  42.00000 5.31700 47.12800
C  40.42000 5.01500 47.14100
C  40.34800 3.51000 47.35800
C  41.79900 3.10900 47.17100
C  39.68000 3.08600 48.69900
C  39.74400 5.65000 45.90100
C  40.52300 5.60200 44.58200
H  39.86700 5.05600 43.30800
N  44.49900 1.63900 47.12100
C  43.29100 1.00300 47.07700
C  43.58600 -0.44000 46.95800
C  44.96600 -0.61900 46.84900
C  45.47900 0.76800 46.91700
C  42.54200 -1.55000 46.81900
C  45.60300 -1.92100 46.71600
O  44.84600 -2.92900 46.85700
C  47.09800 -2.21900 46.58900
N  46.82500 3.61000 47.05700
C  47.47300 2.42200 46.92600
C  48.93600 2.57100 46.66300
C  49.17000 4.09600 47.06800
C  47.75700 4.64300 47.05600
C  49.83800 1.55100 47.36600
C  50.12500 4.79500 46.15200
C  51.35500 5.35900 46.79700
N  45.07800 5.87300 47.34600
C  46.21700 6.63600 47.12600
C  45.90300 8.04100 47.19800
C  44.46100 8.04800 47.16600
C  44.03700 6.68800 47.20200
C  46.77300 9.18600 46.98100
C  43.38300 8.87000 47.13000
O  43.29700 10.08000 47.04100
C  42.09200 7.99600 47.12100
C  41.23000 8.36100 48.27100
O  41.31100 7.90500 49.37200
O  40.27500 9.19700 47.80200
C  39.13700 9.37900 48.76200
H  41.25700 1.02500 47.08400
H  47.45100 0.28200 46.71700
H  48.30100 6.71900 47.04700
H  40.09900 5.60700 47.99800
H  39.69700 3.04700 46.61600
H  39.42300 3.92500 49.34500
H  40.47700 2.53600 49.19900
H  38.89800 2.33800 48.56600
H  39.53100 6.68100 46.18400
H  38.81900 5.07700 45.83000
H  41.50100 5.12300 44.62800
H  40.76900 6.64500 44.38200
H  41.55700 -1.08600 46.86100
H  42.41500 -2.31400 47.58600
H  42.54000 -2.00100 45.82700
H  47.51300 -1.78400 45.68000
H  47.13500 -3.30800 46.58300
H  47.61600 -1.86400 47.47900
H  49.06200 2.39400 45.59500
H  49.54400 4.24500 48.08100
H  50.66300 2.11200 47.80500
H  50.22300 0.80500 46.67200
H  49.23200 1.06400 48.13100
H  49.59400 5.58600 45.62300
H  50.54700 3.98600 45.55500
H  51.19300 6.10700 47.57300
H  51.90000 5.90800 46.02900
H  51.93500 4.50800 47.15300
H  46.85300 9.39300 45.91400
H  47.77200 9.07100 47.40000
H  46.29900 10.00400 47.52500
H  41.51900 8.18900 46.21400
H  38.49800 8.56300 48.42400
H  38.68400 10.36000 48.61500
H  39.28600 9.33200 49.84100

