158

Mg 2.30500 -1.99100 44.43700
C  5.51600 -1.14100 43.62200
C  1.03600 0.60500 42.72400
C  -0.77000 -3.29100 44.82400
C  3.61800 -5.17100 45.64700
N  3.21900 -0.50400 43.20900
C  4.52400 -0.31300 43.06600
C  4.83000 0.94200 42.24000
C  3.31600 1.63000 42.06500
C  2.45200 0.49700 42.69300
C  3.11900 3.09200 42.71800
C  5.56900 0.80800 40.91100
C  6.51600 1.97900 40.55900
H  6.82800 2.30300 39.08600
N  0.35800 -1.49300 43.70300
C  0.06900 -0.26900 43.15400
C  -1.39200 -0.14000 42.98300
C  -1.89000 -1.23000 43.73100
C  -0.73200 -2.10900 44.09900
C  -2.08500 1.03400 42.22700
C  -3.31000 -1.49300 44.10900
O  -4.08700 -0.70300 43.63700
C  -3.77300 -2.57800 45.02900
N  1.49700 -3.99300 45.10700
C  0.18000 -4.18400 45.25600
C  -0.15400 -5.55900 45.89800
C  1.30100 -6.22200 45.89800
C  2.21200 -5.02800 45.60500
C  -0.97400 -5.50300 47.21300
C  1.68300 -7.45000 44.98000
C  2.60800 -8.53000 45.54700
N  4.12000 -2.94800 44.68900
C  4.56400 -4.18600 45.19500
C  5.99500 -4.23800 45.34200
C  6.44400 -3.08500 44.71300
C  5.25400 -2.29000 44.31200
C  6.75800 -5.39100 45.91100
C  7.55900 -2.27300 44.37000
O  8.75800 -2.37200 44.58100
C  7.03900 -1.06500 43.56300
C  7.60000 0.13200 44.27200
O  7.22300 0.54000 45.35200
O  8.65600 0.57100 43.48300
C  9.10100 1.89700 43.91300
H  0.54400 1.39000 42.14700
H  -1.74300 -3.78500 44.85900
H  4.03800 -6.11400 46.00200
H  5.45900 1.62100 42.81600
H  2.95500 1.71900 41.04000
H  2.42500 3.19700 43.55200
H  2.78300 3.81700 41.97600
H  4.05000 3.56700 43.02900
H  4.88600 0.61900 40.08200
H  6.17600 -0.09100 41.01600
H  7.40600 1.68600 41.11500
H  6.14500 2.86000 41.08200
H  -2.97600 0.66500 41.72000
H  -1.39500 1.43000 41.48200
H  -2.32600 1.86400 42.89100
H  -4.82500 -2.44600 45.28200
H  -2.94700 -2.75700 45.71800
H  -3.90500 -3.48400 44.43800
H  -0.77200 -6.12400 45.20000
H  1.53900 -6.43100 46.94100
H  -1.17900 -4.43400 47.25400
H  -0.54300 -5.70600 48.19300
H  -1.90100 -6.07500 47.17800
H  2.32500 -6.92700 44.27100
H  0.84300 -7.95300 44.50100
H  3.65500 -8.54200 45.24600
H  2.04000 -9.42900 45.30700
H  2.46500 -8.59500 46.62600
H  6.72700 -6.26000 45.25300
H  6.30000 -5.81100 46.80700
H  7.76200 -5.01400 46.10300
H  7.36800 -0.98800 42.52700
H  9.86500 2.30400 43.25100
H  9.30800 2.01300 44.97700
H  8.22500 2.53000 43.77100
Mg -2.20800 35.30100 26.79800
C  -4.08600 33.39400 29.08900
C  -1.25300 37.30300 29.43300
C  -0.85500 37.24400 24.68100
C  -3.53200 33.29300 24.19000
N  -2.73300 35.35800 29.01500
C  -3.36800 34.44200 29.75700
C  -3.08500 34.57300 31.29100
C  -2.47000 36.00300 31.39300
C  -2.08700 36.21900 29.84300
C  -3.35500 37.10500 32.01000
C  -2.35000 33.28900 31.90600
C  -2.81900 32.71800 33.22200
H  -3.22100 33.72000 34.38300
N  -1.18500 36.98100 27.06400
C  -0.80100 37.66900 28.20100
C  0.01100 38.78000 27.94800
C  0.11900 38.80000 26.51700
C  -0.63100 37.64200 26.02400
C  0.72400 39.63200 28.95700
C  0.96700 39.72100 25.69400
O  1.03700 39.55700 24.47900
C  1.66100 40.96900 26.27700
N  -2.22200 35.30100 24.72400
C  -1.55400 36.21300 24.06500
C  -1.43600 35.97800 22.58600
C  -2.05700 34.53000 22.43900
C  -2.66000 34.33800 23.85500
C  -2.04700 37.04600 21.63200
C  -1.13100 33.38000 22.04200
C  -1.10800 33.30700 20.49500
N  -3.53400 33.57200 26.60300
C  -4.01900 32.95500 25.43900
C  -4.74500 31.81300 25.87400
C  -4.81400 31.88100 27.28000
C  -4.10700 33.05300 27.69900
C  -5.30500 30.80400 24.89600
C  -5.39200 31.26600 28.47500
O  -5.99300 30.22900 28.63500
C  -4.95500 32.22900 29.70400
C  -6.15700 32.68500 30.47700
O  -7.15400 33.22100 29.95700
O  -5.88500 32.45800 31.81000
C  -6.90200 32.68700 32.86000
H  -0.90800 37.97300 30.22400
H  -0.27800 37.79000 23.93200
H  -3.73400 32.52400 23.44200
H  -3.98400 34.50700 31.90400
H  -1.53800 35.93600 31.95400
H  -4.37900 36.80300 32.23100
H  -3.34900 37.94800 31.31800
H  -2.84200 37.29900 32.95200
H  -1.31700 33.58800 32.08200
H  -2.19800 32.49400 31.17600
H  -1.97900 32.10000 33.53900
H  -3.60800 31.97400 33.10800
H  1.80500 39.61600 28.81500
H  0.51800 39.36300 29.99300
H  0.37400 40.65900 28.85900
H  0.97100 41.51100 26.92300
H  2.15300 41.43700 25.42500
H  2.52400 40.58600 26.82200
H  -0.37900 36.00800 22.32100
H  -2.80700 34.58200 21.65000
H  -2.67800 37.76300 22.15800
H  -2.63900 36.52900 20.87700
H  -1.25800 37.68600 21.23500
H  -1.46200 32.43000 22.46000
H  -0.20300 33.67700 22.53100
H  -1.74800 32.44400 20.30600
H  -0.16600 32.93700 20.09200
H  -1.47300 34.13200 19.88400
H  -6.11000 31.25700 24.31700
H  -5.72100 29.96400 25.45200
H  -4.59000 30.28100 24.26200
H  -4.35200 31.57000 30.32900
H  -6.78600 33.66800 33.32300
H  -6.79400 31.95500 33.66000
H  -7.91900 32.66600 32.46600

