158

Mg 1.97200 -1.13500 44.85400
C  5.45700 -0.45500 44.05800
C  1.22300 1.48600 42.63200
C  -1.21400 -1.95500 45.15600
C  3.08200 -4.03100 46.41800
N  3.24600 0.37700 43.55000
C  4.60600 0.39500 43.34900
C  5.00500 1.73700 42.54700
C  3.60700 2.28600 42.07900
C  2.57900 1.26000 42.74100
C  3.23800 3.70600 42.55500
C  5.86600 1.45200 41.28100
C  6.94400 2.50400 40.98300
H  6.47700 3.62800 40.12200
N  0.14700 -0.26800 44.09700
C  0.07300 0.81900 43.25200
C  -1.29100 1.09400 43.08900
C  -2.10100 0.18400 43.82200
C  -1.10000 -0.72100 44.44800
C  -1.79400 2.30400 42.27500
C  -3.60200 0.21700 44.01100
O  -4.33700 1.02500 43.39400
C  -4.26500 -0.63100 45.04600
N  1.01800 -2.81300 45.45900
C  -0.27500 -2.87900 45.59400
C  -0.66500 -4.22600 46.25200
C  0.68800 -4.82200 46.71500
C  1.68500 -3.80400 46.19400
C  -1.77400 -4.07600 47.40100
C  0.86600 -6.28700 46.29000
C  1.12700 -7.34400 47.37200
N  3.80600 -2.07300 45.23900
C  4.07900 -3.22200 45.96200
C  5.53300 -3.41400 46.04100
C  6.07100 -2.34300 45.35300
C  4.99700 -1.58200 44.79300
C  6.30000 -4.44200 46.81100
C  7.40300 -1.82700 44.88500
O  8.57200 -2.15900 45.07400
C  6.96900 -0.55200 44.05400
C  7.54300 0.60800 44.90100
O  7.12600 0.94500 45.97300
O  8.58500 1.27500 44.23300
C  9.18800 2.49300 44.87200
H  1.02600 2.38500 42.04400
H  -2.26400 -2.22900 45.27800
H  3.45800 -4.89300 46.97400
H  5.60000 2.37800 43.19700
H  3.50800 2.28800 40.99300
H  4.04600 4.23600 43.05900
H  2.32000 3.71100 43.14200
H  3.05500 4.39400 41.73000
H  5.26400 1.26400 40.39200
H  6.31800 0.46700 41.40100
H  7.61900 1.88500 40.39200
H  7.39300 2.85100 41.91300
H  -1.37100 1.99900 41.31700
H  -1.32300 3.22000 42.63000
H  -2.86400 2.50600 42.23200
H  -5.29300 -0.29000 45.17000
H  -3.68800 -0.56400 45.96800
H  -4.34300 -1.65300 44.67700
H  -0.99700 -4.87900 45.44500
H  0.80500 -4.87800 47.79800
H  -2.03600 -3.02000 47.46200
H  -1.53100 -4.53500 48.36000
H  -2.62500 -4.69100 47.11000
H  1.67800 -6.28400 45.56200
H  -0.04000 -6.70200 45.84800
H  0.18900 -7.82500 47.65000
H  1.76000 -6.96600 48.17400
H  1.83500 -8.08300 46.99600
H  6.09600 -5.42100 46.37700
H  6.02500 -4.42300 47.86600
H  7.37500 -4.36400 46.64700
H  7.42800 -0.64000 43.06900
H  9.02600 3.36400 44.23600
H  10.25200 2.26400 44.92900
H  8.83300 2.61300 45.89500
Mg 9.63800 48.23300 25.60000
C  7.68300 49.01700 28.30500
C  12.31000 49.08900 27.31000
C  11.41400 47.57500 22.85000
C  6.67800 47.86300 23.56100
N  9.89100 48.83500 27.68900
C  9.01200 49.09100 28.69700
C  9.66800 49.47300 30.03300
C  11.09000 49.84600 29.50400
C  11.11800 49.22100 28.07200
C  11.23000 51.47000 29.43200
C  9.77500 48.33700 31.10700
C  9.47500 48.76100 32.55400
H  8.84800 47.59400 33.37700
N  11.65200 48.01900 25.21300
C  12.59900 48.44100 26.07200
C  13.92100 48.26000 25.47500
C  13.70900 47.76400 24.14500
C  12.22000 47.80400 24.02500
C  15.15500 48.52900 26.22800
C  14.66300 47.36000 22.93200
O  14.20900 46.90700 21.87000
C  16.20600 47.39000 23.23500
N  9.11200 47.68300 23.47800
C  10.10800 47.49200 22.55000
C  9.51200 47.15900 21.15900
C  7.98300 47.07800 21.48900
C  7.89500 47.56500 22.95900
C  9.86200 48.19800 20.04800
C  7.24100 45.72900 21.30800
C  7.74100 44.51200 22.21300
N  7.61200 48.36700 25.83900
C  6.51600 48.19800 24.96700
C  5.28700 48.33000 25.73000
C  5.64400 48.75900 27.01800
C  7.08400 48.70500 27.04800
C  3.85500 48.13200 25.24100
C  5.15300 48.98700 28.33900
O  4.03600 49.00500 28.80800
C  6.47100 49.28200 29.25400
C  6.25700 48.38900 30.45000
O  6.43100 47.18600 30.46500
O  5.54700 49.03300 31.41300
C  4.96900 48.12300 32.45200
H  13.21100 49.43000 27.82400
H  11.95100 47.24200 21.96000
H  5.75500 47.97100 22.98900
H  9.13100 50.30200 30.49500
H  11.92400 49.44600 30.08200
H  10.30600 52.04900 29.42700
H  11.77300 51.75400 28.53000
H  11.82400 51.86500 30.25600
H  10.81100 48.00000 31.14400
H  9.37500 47.40500 30.70700
H  8.76300 49.58300 32.48200
H  10.43700 49.14800 32.89100
H  15.89400 47.77900 25.94700
H  15.01300 48.50500 27.30800
H  15.54600 49.52500 26.02100
H  16.48700 46.48600 23.77500
H  16.41800 48.39100 23.61200
H  16.70000 47.37300 22.26300
H  9.95600 46.21200 20.85300
H  7.42500 47.72500 20.81200
H  10.77500 48.71400 20.34600
H  9.07700 48.91900 19.81800
H  10.17300 47.65800 19.15400
H  7.43000 45.38900 20.28900
H  6.19200 45.97100 21.47900
H  6.90100 44.14300 22.80100
H  8.64200 44.80700 22.75100
H  8.03000 43.77900 21.46000
H  3.83400 47.92700 24.17100
H  3.23000 49.00000 25.45200
H  3.55100 47.26900 25.83300
H  6.51400 50.33200 29.54400
H  4.32200 48.71100 33.10400
H  5.72100 47.75800 33.15100
H  4.48700 47.28700 31.94600

