158

Mg 47.85000 16.06700 28.50400
C  45.89400 16.34200 31.40900
C  50.39200 17.77900 30.22900
C  49.48300 16.36000 25.54100
C  45.03600 15.08100 26.81200
N  48.06100 16.90600 30.62300
C  47.18500 16.81800 31.65600
C  47.89300 17.35500 32.86900
C  49.08200 18.20100 32.25100
C  49.22200 17.55000 30.91800
C  48.85300 19.75500 32.24600
C  48.47200 16.17100 33.84800
C  48.60600 16.48000 35.31500
H  48.55000 17.96500 35.82300
N  49.70400 16.84800 27.95600
C  50.62400 17.45900 28.80500
C  51.86600 17.61400 28.08400
C  51.61600 17.17900 26.69700
C  50.22100 16.75100 26.67700
C  53.18600 17.94200 28.83500
C  52.64200 17.07800 25.64500
O  52.34600 16.79700 24.50200
C  54.08100 17.48600 25.90000
N  47.36200 15.59400 26.53100
C  48.14300 15.94500 25.46500
C  47.42400 15.84200 24.14000
C  46.14200 15.17300 24.53600
C  46.10800 15.27400 26.02400
C  47.21700 17.09800 23.26400
C  46.09400 13.64200 24.12300
C  45.06400 13.29600 23.01800
N  45.88500 15.74600 28.97400
C  44.86700 15.33300 28.14600
C  43.74800 15.01500 28.96300
C  44.07300 15.37600 30.22100
C  45.36600 15.89800 30.15900
C  42.47400 14.26600 28.56000
C  43.54600 15.41900 31.54200
O  42.46600 15.03300 31.95400
C  44.78500 16.04500 32.39300
C  44.41800 17.28900 33.09100
O  44.43300 18.41300 32.59700
O  43.82700 16.90600 34.28000
C  43.27000 18.03700 35.00000
H  51.24300 18.29500 30.67900
H  49.97900 16.52300 24.58200
H  44.18300 14.66200 26.27400
H  47.19400 18.01500 33.38300
H  49.98000 18.05100 32.85100
H  47.97600 20.01700 32.83700
H  48.78800 20.05500 31.20000
H  49.70000 20.22700 32.74400
H  49.42800 15.82500 33.45500
H  47.85300 15.28500 33.70800
H  49.51900 16.13900 35.80300
H  47.80400 15.99400 35.87100
H  53.85600 17.08300 28.83000
H  53.03100 18.21700 29.87900
H  53.66000 18.76500 28.30000
H  54.12800 18.55000 26.13100
H  54.63700 17.40600 24.96600
H  54.53500 16.89600 26.69600
H  48.04200 15.15500 23.56300
H  45.35000 15.73700 24.04300
H  47.89700 17.02400 22.41500
H  47.43000 18.01100 23.82000
H  46.21300 17.28700 22.88300
H  45.99900 12.97700 24.98100
H  47.06500 13.35600 23.71900
H  45.66300 13.10400 22.12900
H  44.38500 14.12400 22.81500
H  44.46600 12.46100 23.38200
H  42.38300 14.33000 27.47600
H  41.52300 14.58300 28.98800
H  42.60900 13.21800 28.82700
H  45.03700 15.25700 33.10200
H  44.01800 18.81100 35.17000
H  42.77000 17.87500 35.95500
H  42.47200 18.44100 34.37700
Mg 0.34100 43.72500 26.15700
C  2.47600 43.98000 28.91800
C  -2.26400 43.22700 28.24700
C  -1.56900 43.40200 23.48200
C  3.07700 44.33800 24.09900
N  0.16600 43.75200 28.37100
C  1.16700 43.87300 29.31800
C  0.64400 43.66200 30.76800
C  -0.84700 43.18000 30.46100
C  -1.00000 43.34300 28.92200
C  -1.16500 41.69600 30.91800
C  0.91800 44.86400 31.72000
C  0.95400 44.50500 33.26000
H  0.52600 43.07000 33.69000
N  -1.64100 43.34800 25.92000
C  -2.57900 43.22800 26.83300
C  -3.84600 42.92700 26.21100
C  -3.64200 42.95500 24.81900
C  -2.22500 43.20800 24.70500
C  -5.15000 42.76200 26.95700
C  -4.66600 42.64500 23.71800
O  -4.33500 42.57000 22.53800
C  -6.07300 42.45000 23.97800
N  0.71100 43.90000 24.07400
C  -0.24400 43.68900 23.15100
C  0.24000 43.94300 21.77200
C  1.59200 44.47300 21.99500
C  1.80300 44.26100 23.46300
C  0.07200 42.68900 20.83300
C  1.88600 45.93900 21.71600
C  2.10000 46.38300 20.25200
N  2.34600 43.99800 26.38200
C  3.35700 44.22100 25.44400
C  4.58000 44.35300 26.16500
C  4.30700 44.15700 27.50200
C  2.95800 44.00300 27.60400
C  5.83300 44.58500 25.38400
C  4.84300 44.03400 28.85000
O  6.00800 43.98800 29.21400
C  3.72500 44.01900 29.83000
C  3.84500 42.90400 30.80700
O  3.71800 41.74000 30.47500
O  4.17000 43.36900 32.08700
C  4.19000 42.32400 33.09500
H  -3.06000 42.89600 28.91800
H  -2.32900 43.36400 22.69900
H  3.99500 44.41800 23.51400
H  1.12500 42.74800 31.11500
H  -1.63800 43.77800 30.91300
H  -1.37200 40.93100 30.16900
H  -1.93000 41.72300 31.69400
H  -0.26500 41.32500 31.40700
H  0.15700 45.60700 31.48200
H  1.92200 45.22700 31.50200
H  0.29500 45.28900 33.63200
H  1.89900 44.73500 33.75200
H  -5.78500 43.64300 26.86000
H  -5.05800 42.42600 27.99000
H  -5.79200 41.97800 26.55600
H  -6.21600 41.54300 24.56400
H  -6.58300 42.34800 23.02000
H  -6.50200 43.34900 24.42000
H  -0.34500 44.76100 21.35300
H  2.23700 43.76700 21.47300
H  -0.94700 42.30300 20.87700
H  0.82600 41.94600 21.09300
H  0.21700 42.87100 19.76800
H  2.81200 46.23600 22.20600
H  1.08600 46.53600 22.15400
H  3.03000 46.93700 20.12300
H  1.35100 47.15100 20.06100
H  2.11000 45.52200 19.58400
H  6.54600 44.74000 26.19400
H  5.77200 45.33600 24.59700
H  6.12700 43.68000 24.85300
H  3.81600 44.93700 30.41100
H  5.19600 41.96700 33.31400
H  3.47300 41.52200 32.91700
H  3.87000 42.73600 34.05200

