158

Mg 54.15500 24.87500 44.89000
C  51.65400 27.16600 43.97400
C  52.26300 22.41700 43.36100
C  56.80700 23.04300 45.02900
C  56.13600 27.71800 45.94700
N  52.24100 24.84000 43.71200
C  51.37300 25.87200 43.55000
C  50.21700 25.38200 42.76100
C  50.18000 23.85900 43.05700
C  51.64400 23.65700 43.36500
C  49.21100 23.50300 44.21100
C  50.18400 25.68100 41.18600
C  51.60100 25.90000 40.53800
H  52.13100 24.69300 39.77600
N  54.45900 22.93600 44.30300
C  53.58300 22.10900 43.69000
C  54.23400 20.85200 43.50200
C  55.55700 20.92600 44.04700
C  55.65500 22.30600 44.56100
C  53.55100 19.66800 42.72600
C  56.60100 19.85700 43.98800
O  56.45900 18.86000 43.30000
C  58.00200 19.86500 44.70300
N  56.22400 25.27800 45.49600
C  57.16100 24.32500 45.43300
C  58.49900 24.80300 45.94500
C  58.27000 26.34300 45.98900
C  56.79400 26.46700 45.83100
C  58.74200 24.07700 47.25500
C  59.11100 27.21100 45.00600
C  59.81400 28.44000 45.67800
N  53.94700 27.02100 45.06400
C  54.77400 28.03400 45.60500
C  54.01100 29.23200 45.71200
C  52.77000 28.98000 45.05100
C  52.77900 27.63500 44.72700
C  54.47600 30.58800 46.38500
C  51.52400 29.59100 44.55500
O  51.04800 30.69600 44.70100
C  50.80300 28.48000 43.82400
C  50.52600 28.91200 42.44100
O  51.34400 29.16400 41.58600
O  49.18600 28.90600 42.24400
C  48.70100 29.37700 40.95600
H  51.65300 21.55900 43.07000
H  57.68400 22.41000 45.18000
H  56.78300 28.54200 46.25600
H  49.24900 25.81000 43.02400
H  49.88100 23.31200 42.16300
H  48.90000 24.42300 44.70600
H  49.56600 22.79100 44.95600
H  48.29100 23.02800 43.86700
H  49.53600 26.54100 41.01700
H  49.63100 24.83700 40.77200
H  52.32800 26.12600 41.31800
H  51.54300 26.80000 39.92500
H  53.48200 19.94200 41.67300
H  52.56400 19.48100 43.14900
H  54.14000 18.75400 42.80200
H  58.36200 18.84100 44.80900
H  57.91700 20.45300 45.61700
H  58.67900 20.49700 44.12800
H  59.34300 24.51900 45.31600
H  58.37400 26.69100 47.01700
H  59.24600 23.12200 47.10500
H  57.83600 23.98300 47.85400
H  59.39300 24.70500 47.86300
H  58.55000 27.61900 44.16500
H  59.90300 26.59500 44.57800
H  60.81200 28.45900 45.24000
H  59.88300 28.38200 46.76400
H  59.26300 29.30700 45.31400
H  53.81100 30.83100 47.21400
H  54.32000 31.46000 45.75000
H  55.51100 30.52800 46.72100
H  49.82500 28.41900 44.30100
H  49.24100 29.05300 40.06600
H  48.44400 30.43600 40.91700
H  47.82200 28.74800 40.82000
Mg 43.69400 41.80100 26.48000
C  42.63500 44.08200 28.82800
C  44.87600 39.77000 28.92500
C  44.49300 39.58400 24.09700
C  42.60400 43.98000 23.97900
N  43.81200 41.97100 28.54200
C  43.11000 42.93800 29.36900
C  43.11600 42.56400 30.82800
C  44.13700 41.35600 30.86600
C  44.31200 41.01600 29.34900
C  45.49700 41.77400 31.56000
C  41.74400 42.24400 31.51100
C  41.31800 43.05100 32.78800
H  42.09200 42.98500 34.09200
N  44.52300 39.82300 26.50900
C  44.98700 39.20200 27.61800
C  45.28700 37.86600 27.27300
C  45.01100 37.73000 25.79400
C  44.67200 39.07900 25.40100
C  45.82600 36.83000 28.26300
C  45.11700 36.60500 24.88200
O  44.89200 36.69700 23.63900
C  45.50600 35.34600 25.41800
N  43.54200 41.71000 24.41000
C  43.99100 40.74900 23.63000
C  43.75700 40.99500 22.13500
C  42.88200 42.27300 22.11500
C  43.03800 42.70100 23.59400
C  45.05400 41.10900 21.35200
C  41.38700 42.08400 21.65200
C  40.51200 41.04300 22.39800
N  43.03100 43.74400 26.33600
C  42.56000 44.51300 25.31200
C  42.18700 45.81100 25.77900
C  42.05400 45.63000 27.11500
C  42.66300 44.41000 27.44900
C  41.81400 46.99900 24.99600
C  41.56500 46.23200 28.34100
O  41.04400 47.31400 28.64100
C  41.95200 45.22100 29.49800
C  42.67800 45.91100 30.55800
O  43.92300 45.99200 30.63600
O  41.82800 46.33500 31.55800
C  42.46200 46.87300 32.78100
H  45.36700 39.19400 29.71200
H  44.68100 38.88000 23.28400
H  42.29400 44.63900 23.16600
H  43.39200 43.37700 31.50000
H  43.69200 40.53000 31.42000
H  45.41200 42.84000 31.77500
H  46.33600 41.68600 30.87100
H  45.63000 41.28600 32.52600
H  41.67500 41.23900 31.92700
H  40.89500 42.40600 30.84600
H  40.27300 42.82800 33.00300
H  41.36600 44.11900 32.57800
H  46.72700 36.36100 27.86600
H  45.04700 36.08300 28.41700
H  46.15300 37.30800 29.18600
H  46.57300 35.37000 25.64200
H  45.33900 34.65500 24.59200
H  44.97800 34.96600 26.29300
H  43.35200 40.10800 21.64700
H  43.32000 43.05000 21.48800
H  45.15800 42.10000 20.90900
H  44.92900 40.38000 20.55100
H  45.95600 40.91900 21.93500
H  41.41700 41.63700 20.65800
H  40.85300 43.03100 21.57600
H  41.13600 40.39600 23.01400
H  39.91800 40.42700 21.72200
H  39.83100 41.62400 23.01900
H  40.87900 46.67000 24.54400
H  42.65300 47.27300 24.35600
H  41.48700 47.77500 25.68800
H  41.03400 44.76500 29.86700
H  43.24800 47.58000 32.51600
H  42.85300 46.01000 33.31900
H  41.69800 47.40200 33.35100

