158

Mg 54.51700 23.61200 45.75000
C  51.98000 25.71100 44.53600
C  52.81300 20.87800 44.44900
C  57.37800 21.87400 45.75300
C  56.15200 26.41100 46.89900
N  52.70900 23.38600 44.58900
C  51.75200 24.37600 44.24300
C  50.46300 23.76200 43.66400
C  50.63200 22.22700 43.96200
C  52.15000 22.14400 44.43200
C  49.76800 21.68700 45.16100
C  50.25800 24.08600 42.16900
C  51.34700 24.18100 41.18700
H  52.37200 22.92300 41.20000
N  55.01500 21.53600 45.28300
C  54.17400 20.60600 44.70400
C  54.92300 19.37000 44.49400
C  56.28500 19.64300 44.85800
C  56.24700 21.04800 45.32800
C  54.31700 18.21600 43.84400
C  57.51100 18.70100 44.83600
O  57.36000 17.49600 44.62200
C  58.88800 19.12800 45.18600
N  56.49900 24.10600 46.12900
C  57.48100 23.19600 46.11400
C  58.86200 23.72600 46.71600
C  58.44100 25.15600 47.16000
C  56.97100 25.25400 46.70400
C  59.26100 22.80200 47.84100
C  59.45800 26.26500 46.65900
C  59.00400 27.09700 45.41500
N  54.23600 25.68500 45.73300
C  54.89200 26.70700 46.40700
C  54.03000 27.86300 46.51200
C  52.93200 27.47100 45.72500
C  53.10900 26.18800 45.25200
C  54.21800 29.07200 47.27000
C  51.65800 27.93400 45.30900
O  51.14300 29.01600 45.48500
C  51.04600 26.85000 44.43500
C  50.96000 27.41200 43.04500
O  51.91700 27.61600 42.28600
O  49.63100 27.54900 42.69300
C  49.45800 28.01300 41.33300
H  52.24700 20.02400 44.07000
H  58.32800 21.35300 45.89000
H  56.64800 27.29300 47.31100
H  49.70300 24.21100 44.30300
H  50.65500 21.41800 43.23200
H  49.95300 20.63000 45.35400
H  48.72800 21.97600 45.00900
H  50.11100 22.03800 46.13400
H  49.64400 24.97900 42.27900
H  49.57000 23.35800 41.73800
H  52.01600 25.01000 41.41900
H  50.85900 24.18500 40.21300
H  53.88900 17.63200 44.65900
H  55.08000 17.62100 43.34300
H  53.64600 18.69200 43.12800
H  59.64400 18.34500 45.24400
H  58.78900 19.60300 46.16200
H  59.23400 19.76600 44.37200
H  59.65400 23.73400 45.96700
H  58.27900 25.27400 48.23100
H  58.36700 22.24300 48.11700
H  59.60400 23.43800 48.65700
H  60.09200 22.14700 47.57700
H  60.37300 25.73300 46.39700
H  59.68600 26.78600 47.58900
H  57.99000 26.82300 45.12500
H  59.67500 26.83600 44.59700
H  59.22200 28.15000 45.59700
H  55.11800 29.57300 46.91400
H  54.26100 28.86600 48.34000
H  53.29600 29.64100 47.15000
H  50.09500 26.53000 44.85800
H  49.79800 27.21300 40.67400
H  50.09600 28.89600 41.30000
H  48.40600 28.19000 41.10900
Mg -11.85800 15.68100 41.93500
C  -8.60400 14.01300 41.88000
C  -10.37800 18.38700 40.57300
C  -14.83700 16.81600 41.43800
C  -13.19700 12.54500 42.92300
N  -9.83100 16.06300 41.18500
C  -8.70500 15.35700 41.43000
C  -7.46200 16.11400 40.83900
C  -7.98400 17.62300 40.90000
C  -9.51900 17.38000 40.88700
C  -7.57700 18.42200 42.18200
C  -7.11600 15.51000 39.34700
C  -5.67700 15.07600 39.24700
H  -4.93100 15.90400 38.24500
N  -12.51700 17.35600 41.10700
C  -11.75200 18.34300 40.57400
C  -12.64000 19.35200 40.10000
C  -13.97500 18.89500 40.23900
C  -13.82200 17.60500 40.99100
C  -12.13400 20.63100 39.42400
C  -15.13700 19.65900 39.74200
O  -14.98500 20.78200 39.23000
C  -16.50500 19.05400 39.75800
N  -13.69000 14.73800 42.03600
C  -14.81300 15.50700 41.98200
C  -16.14500 14.77700 42.35400
C  -15.63600 13.35800 42.71000
C  -14.08400 13.55200 42.53700
C  -16.88400 15.42000 43.58600
C  -16.15500 12.17800 41.73700
C  -16.20000 10.77800 42.32300
N  -11.03400 13.74600 42.46900
C  -11.76300 12.57600 42.80100
C  -10.77400 11.48700 43.06800
C  -9.54600 11.98600 42.73100
C  -9.72000 13.35200 42.31700
C  -11.09700 10.12800 43.66400
C  -8.13700 11.69300 42.55500
O  -7.57100 10.61300 42.77200
C  -7.47200 12.97900 42.07400
C  -6.49000 13.54500 43.05700
O  -6.62400 13.78900 44.23700
O  -5.30900 13.64800 42.43600
C  -4.22300 14.40100 43.05800
H  -9.80900 19.20800 40.13100
H  -15.84000 17.20600 41.25200
H  -13.71800 11.62300 43.18900
H  -6.62000 15.89700 41.49700
H  -7.75800 18.12300 39.95800
H  -6.58600 18.17500 42.56200
H  -8.28200 18.15400 42.96800
H  -7.61300 19.49900 42.01700
H  -7.42600 16.25900 38.61800
H  -7.73000 14.62800 39.16000
H  -5.71600 14.00200 39.06400
H  -5.03900 15.30300 40.10000
H  -12.43900 20.77100 38.38700
H  -11.04900 20.71000 39.35300
H  -12.50800 21.48800 39.98400
H  -17.14900 19.50900 39.00600
H  -16.95600 19.06900 40.74900
H  -16.36100 18.03200 39.40600
H  -16.89400 14.77500 41.56200
H  -15.80000 13.05800 43.74500
H  -17.92800 15.71000 43.46900
H  -16.30800 16.34200 43.67800
H  -16.81800 14.78300 44.46800
H  -15.55300 12.00500 40.84500
H  -17.09800 12.51900 41.31000
H  -16.98900 10.16900 41.88100
H  -16.30000 10.89700 43.40200
H  -15.23700 10.29700 42.15300
H  -11.64700 9.52200 42.94400
H  -11.80700 10.14400 44.49000
H  -10.14500 9.68400 43.95600
H  -6.93700 12.93100 41.12600
H  -3.51700 14.31100 42.23200
H  -3.77700 13.91300 43.92400
H  -4.55100 15.42300 43.25200

