158

Mg 46.87400 24.76700 28.74000
C  47.86500 27.28400 30.95200
C  45.89700 22.79800 31.32600
C  46.64400 22.33100 26.55600
C  48.68200 26.64300 26.24700
N  46.91100 25.02800 30.85300
C  47.23000 26.14300 31.55600
C  46.96600 25.90300 33.07900
C  46.65600 24.36000 33.16500
C  46.53600 23.98300 31.66100
C  47.59900 23.47900 33.98800
C  45.81200 26.79500 33.64300
C  45.48800 26.74200 35.14800
H  46.54500 26.17600 36.14300
N  46.16400 22.85800 28.89600
C  45.67400 22.25700 30.02000
C  44.94900 21.09400 29.64000
C  45.14800 20.90700 28.24400
C  46.04600 22.00700 27.81100
C  44.22600 20.11100 30.57900
C  44.60100 19.82300 27.29200
O  44.72400 19.96000 26.05300
C  43.73100 18.68700 27.74700
N  47.76400 24.50800 26.72500
C  47.44300 23.36100 26.05900
C  47.96900 23.37300 24.57300
C  48.35600 24.88100 24.46100
C  48.32400 25.37100 25.85700
C  49.11600 22.39000 24.25900
C  47.41300 25.72900 23.54800
C  48.06900 26.51400 22.36500
N  47.88300 26.63700 28.54500
C  48.58400 27.22900 27.55000
C  49.09900 28.54700 27.92300
C  48.78000 28.61300 29.29500
C  48.15500 27.40200 29.61800
C  49.78800 29.44800 26.94000
C  48.96800 29.45000 30.51800
O  49.42400 30.61400 30.65300
C  48.36600 28.53700 31.61500
C  49.50000 28.41400 32.48500
O  50.49500 27.69200 32.27000
O  49.27400 29.13400 33.64700
C  50.32900 29.11000 34.65100
H  45.57800 22.13100 32.13000
H  46.60900 21.45200 25.90900
H  49.14700 27.30200 25.51000
H  47.89000 26.22300 33.56000
H  45.75100 24.27200 33.76600
H  48.33800 24.02000 34.57900
H  48.14500 22.87700 33.26100
H  47.09500 22.68700 34.54200
H  44.89900 26.73000 33.05100
H  46.12600 27.83800 33.67000
H  44.62000 26.09200 35.26200
H  45.28100 27.76200 35.47200
H  44.41200 20.47000 31.59100
H  44.66300 19.11700 30.49200
H  43.18400 20.16200 30.26000
H  44.07000 18.20500 28.66400
H  43.79100 17.94300 26.95300
H  42.77400 19.14200 28.00100
H  47.17700 23.23500 23.83600
H  49.40500 24.83900 24.16800
H  49.05500 21.67800 25.08100
H  50.10800 22.83300 24.35900
H  48.86500 21.97700 23.28200
H  46.74700 26.33400 24.16300
H  46.81300 25.04500 22.94700
H  47.52900 27.46200 22.36700
H  47.89600 26.06700 21.38600
H  49.13200 26.72400 22.48200
H  50.79100 29.02200 26.90800
H  49.78800 30.47500 27.30500
H  49.25300 29.43000 25.99100
H  47.52400 29.02000 32.11100
H  50.33700 28.11700 35.10000
H  50.16600 29.94000 35.33800
H  51.28000 29.08100 34.11900
Mg -6.18100 26.04300 25.97800
C  -4.78700 27.51300 28.73100
C  -7.81100 23.83800 27.96600
C  -7.65400 24.80000 23.23500
C  -4.17800 28.10100 23.89300
N  -6.17800 25.67100 28.14300
C  -5.67600 26.45700 29.08500
C  -6.06500 26.03700 30.50600
C  -6.88700 24.70700 30.18100
C  -7.00700 24.74800 28.64700
C  -6.27000 23.39500 30.60400
C  -6.77000 27.05700 31.41300
C  -6.56600 26.90100 32.91500
H  -6.07500 25.62300 33.56600
N  -7.50500 24.48600 25.62300
C  -8.06500 23.72500 26.56500
C  -9.10300 22.96200 25.97600
C  -8.98200 23.07400 24.54900
C  -8.06500 24.19700 24.38800
C  -9.95700 22.03500 26.89400
C  -9.65300 22.31600 23.48500
O  -9.64300 22.67500 22.30500
C  -10.50600 21.06600 23.90500
N  -5.71000 26.15300 23.83500
C  -6.59000 25.64000 22.88100
C  -6.49600 26.27400 21.50500
C  -5.49100 27.41600 21.78700
C  -5.09000 27.23800 23.24200
C  -6.19200 25.37400 20.27900
C  -6.06600 28.83400 21.46400
C  -6.50700 29.06500 19.99800
N  -4.74800 27.47900 26.20200
C  -4.02400 28.23700 25.27800
C  -3.19900 29.18300 26.04700
C  -3.51900 28.92200 27.42400
C  -4.39500 27.86100 27.45400
C  -2.32800 30.26900 25.54400
C  -3.09600 29.38700 28.74700
O  -2.41900 30.34900 29.06400
C  -3.95000 28.42300 29.71800
C  -3.01800 27.65400 30.61400
O  -1.97500 27.08200 30.24100
O  -3.43200 27.73200 31.89100
C  -2.50800 27.10100 32.79900
H  -8.39600 23.28200 28.70200
H  -8.02500 24.45200 22.26900
H  -3.60800 28.81200 23.29200
H  -5.09800 25.69800 30.87900
H  -7.88800 24.65300 30.60800
H  -7.05300 22.65800 30.78100
H  -5.66800 23.45800 31.51000
H  -5.70300 22.90300 29.81300
H  -7.84600 26.91300 31.31700
H  -6.50100 28.04600 31.03900
H  -7.46800 27.12600 33.48500
H  -5.94200 27.74200 33.21800
H  -10.84400 21.70400 26.35400
H  -10.39800 22.56500 27.73800
H  -9.45000 21.16300 27.30800
H  -10.44800 20.37500 23.06400
H  -11.53900 21.31300 24.15100
H  -10.10500 20.40500 24.67300
H  -7.50000 26.65800 21.32300
H  -4.54700 27.32000 21.24900
H  -6.29300 24.29300 20.37500
H  -5.12300 25.33500 20.07000
H  -6.71100 25.77200 19.40800
H  -5.27600 29.57700 21.57800
H  -6.86700 29.09500 22.15500
H  -7.53600 29.38300 19.83200
H  -6.27800 28.20100 19.37400
H  -5.88600 29.88200 19.63100
H  -2.95100 31.16100 25.47700
H  -1.77600 29.86700 24.69400
H  -1.65400 30.53700 26.35700
H  -4.44700 29.16600 30.34200
H  -2.16500 26.16300 32.36300
H  -3.08000 26.94100 33.71300
H  -1.70000 27.80900 32.98400

