158

Mg 17.47400 -2.16600 27.18200
C  16.47800 -0.06700 29.76300
C  19.33400 -3.95800 29.41300
C  18.59700 -4.00400 24.56700
C  15.64500 -0.08900 24.97900
N  17.93300 -1.87500 29.28300
C  17.32800 -1.06300 30.19100
C  17.82100 -1.27200 31.56300
C  18.88400 -2.37900 31.37500
C  18.79000 -2.77300 29.91100
C  20.39500 -2.03500 31.70500
C  16.73700 -1.55800 32.67500
C  16.66800 -0.64500 33.95400
H  18.03700 -0.07400 34.39100
N  18.75800 -3.76600 26.99600
C  19.38000 -4.39700 28.00800
C  20.09200 -5.52700 27.55000
C  19.91300 -5.66300 26.11500
C  19.14300 -4.38800 25.77600
C  20.94500 -6.41700 28.41200
C  20.18100 -6.80500 25.13100
O  19.76500 -6.75100 23.96600
C  20.97100 -7.99500 25.54300
N  17.32200 -2.00300 25.04900
C  17.84000 -2.88300 24.21300
C  17.62000 -2.51500 22.77700
C  16.64500 -1.27900 22.89600
C  16.47100 -1.08500 24.41000
C  18.92900 -2.25800 21.92100
C  15.30300 -1.54800 22.13300
C  14.54000 -0.42100 21.56700
N  16.24000 -0.47100 27.26000
C  15.49600 0.17700 26.31800
C  14.61500 1.08500 26.98400
C  15.00800 1.09400 28.36100
C  15.93700 0.08500 28.46100
C  13.59500 1.96100 26.24300
C  14.79300 1.69300 29.64900
O  14.05000 2.65700 29.90300
C  15.72500 0.93200 30.62400
C  16.52000 1.92400 31.24200
O  17.56300 2.34500 30.71300
O  15.87400 2.42600 32.36100
C  16.56000 3.45800 33.18300
H  19.91400 -4.50300 30.16100
H  18.84900 -4.52600 23.64100
H  14.96900 0.51500 24.37000
H  18.26100 -0.31400 31.83900
H  18.55500 -3.26500 31.91800
H  20.83600 -2.87900 32.23500
H  20.51900 -1.19800 32.39200
H  21.02800 -1.85300 30.83700
H  17.02200 -2.53100 33.07700
H  15.71600 -1.48600 32.30200
H  16.32900 -1.23700 34.80400
H  15.92900 0.14400 33.81300
H  21.16200 -7.44900 28.13900
H  20.53600 -6.55000 29.41300
H  21.90900 -5.91900 28.51900
H  22.01200 -7.81200 25.81100
H  21.06800 -8.68200 24.70200
H  20.42100 -8.60400 26.26100
H  17.16900 -3.44700 22.43600
H  17.23000 -0.42400 22.55900
H  19.69200 -1.74700 22.50700
H  18.75900 -1.57200 21.09100
H  19.31500 -3.18700 21.50200
H  14.65300 -2.12700 22.79000
H  15.49200 -2.22700 21.30200
H  13.52700 -0.32700 21.95900
H  14.58400 -0.49800 20.48000
H  15.14800 0.48100 21.63200
H  12.82200 2.29000 26.93700
H  13.11700 1.39600 25.44300
H  13.93100 2.87000 25.74500
H  15.15000 0.46500 31.42300
H  16.20900 4.48900 33.14000
H  17.62300 3.39600 32.94700
H  16.31700 3.10300 34.18500
Mg 0.35400 42.69800 25.33200
C  2.69900 42.41700 27.94100
C  -2.16900 42.23000 27.69300
C  -1.91300 42.55900 22.91600
C  2.86700 43.03700 23.05100
N  0.34200 42.41100 27.55700
C  1.39400 42.36800 28.40500
C  0.87500 42.20000 29.89100
C  -0.64000 41.93500 29.66600
C  -0.85200 42.26000 28.18600
C  -1.18300 40.59800 30.12100
C  1.20300 43.49700 30.67800
C  0.85600 43.73100 32.15800
H  0.75500 42.45800 32.99700
N  -1.81300 42.47100 25.30300
C  -2.64000 42.41200 26.37600
C  -4.03700 42.46400 25.90000
C  -3.91400 42.59500 24.52600
C  -2.50500 42.61600 24.20500
C  -5.19900 42.41300 26.91500
C  -5.04000 42.78200 23.53600
O  -4.77300 43.11900 22.38500
C  -6.55400 42.71800 23.95000
N  0.44100 42.56100 23.29600
C  -0.60800 42.50700 22.51400
C  -0.27300 42.53700 20.98600
C  1.20700 43.01200 21.00000
C  1.54100 42.88800 22.52500
C  -0.51000 41.21200 20.20000
C  1.34500 44.49400 20.46300
C  2.10700 44.59200 19.07500
N  2.36600 42.68300 25.39200
C  3.30500 42.83400 24.36900
C  4.70300 42.85900 24.90400
C  4.47900 42.68200 26.28200
C  3.12200 42.59300 26.54300
C  6.00800 43.09900 24.25600
C  5.12000 42.49400 27.55600
O  6.30600 42.49900 27.79200
C  4.00500 42.42100 28.69600
C  4.25200 41.14100 29.48900
O  3.79300 40.01100 29.26800
O  4.87300 41.50100 30.61900
C  4.95300 40.50700 31.69900
H  -2.98600 42.29000 28.41500
H  -2.61200 42.23400 22.14200
H  3.69800 43.30800 22.39700
H  1.33100 41.38900 30.45800
H  -1.24400 42.68100 30.18200
H  -0.74700 40.28600 31.07000
H  -1.07200 39.81100 29.37500
H  -2.22300 40.69100 30.43200
H  0.81200 44.25600 30.00100
H  2.27900 43.64900 30.59000
H  -0.08800 44.27700 32.15900
H  1.66600 44.31200 32.59900
H  -5.71300 41.45500 26.83400
H  -5.89500 43.23200 26.73400
H  -4.82800 42.46900 27.93800
H  -6.57900 41.76100 24.47000
H  -7.12500 42.68100 23.02300
H  -6.83200 43.45100 24.70700
H  -0.90700 43.33100 20.58900
H  1.92300 42.38900 20.46300
H  -0.99700 40.56900 20.93300
H  0.43400 40.86900 19.77400
H  -1.17700 41.39200 19.35700
H  1.76900 45.14200 21.23000
H  0.37500 44.97500 20.33900
H  2.18000 43.62200 18.58400
H  3.11600 44.98500 19.20500
H  1.59300 45.29400 18.41900
H  6.93900 43.02700 24.81800
H  5.95800 44.05200 23.73100
H  6.00400 42.25200 23.56900
H  4.03200 43.27200 29.37600
H  3.96200 40.30900 32.10700
H  5.58300 41.11600 32.34700
H  5.60000 39.64200 31.55100

