158

Mg 49.50100 35.77400 27.00800
C  47.02800 34.78100 29.29100
C  50.20400 38.50800 28.66000
C  51.63200 36.54100 24.51300
C  48.14800 33.21800 24.83600
N  48.68900 36.46500 28.76300
C  47.74900 35.92400 29.62400
C  47.52400 36.87300 30.81600
C  48.35800 38.15600 30.44000
C  49.25900 37.67100 29.25500
C  47.50600 39.46900 30.27200
C  47.86500 36.30600 32.22000
C  46.66500 36.20500 33.14600
H  46.48500 37.51200 33.92800
N  50.89900 37.29900 26.75000
C  51.10200 38.26800 27.58200
C  52.22600 39.08300 27.13300
C  52.65600 38.55800 25.86900
C  51.71200 37.48700 25.62700
C  52.66100 40.30300 27.84100
C  53.80700 38.96600 25.01400
O  54.15600 38.36400 23.97200
C  54.73700 40.11600 25.49000
N  49.65800 35.06300 24.93200
C  50.72800 35.56400 24.20400
C  50.99100 34.71300 22.88900
C  50.11700 33.40400 23.26500
C  49.22600 33.92200 24.33300
C  50.71900 35.27000 21.48600
C  50.97000 32.21200 23.74900
C  51.25400 31.12800 22.75600
N  47.96600 34.16000 26.99100
C  47.51000 33.25700 26.07200
C  46.37900 32.50200 26.64900
C  46.09500 33.14900 27.85000
C  47.14200 34.11500 28.07700
C  45.73800 31.22100 26.03900
C  45.25200 33.13500 28.97500
O  44.30900 32.44800 29.25200
C  45.85200 34.15100 29.95500
C  46.05900 33.42600 31.26200
O  47.10100 32.86800 31.66600
O  44.84100 33.50700 31.95800
C  44.90200 33.00700 33.36100
H  50.40600 39.46400 29.14600
H  52.41500 36.72700 23.77400
H  47.85000 32.39400 24.18400
H  46.44000 36.98700 30.79700
H  49.04700 38.30100 31.27300
H  47.89200 39.92800 29.36200
H  47.68900 40.14800 31.10500
H  46.46100 39.21400 30.09700
H  48.63800 36.91600 32.68700
H  48.30000 35.32000 32.05100
H  46.79400 35.36200 33.82400
H  45.75300 35.97800 32.59500
H  53.72200 40.27700 28.08900
H  52.22500 40.38900 28.83600
H  52.48600 41.18400 27.22200
H  54.15200 41.03500 25.54200
H  55.59000 40.16200 24.81300
H  55.04700 39.89400 26.51100
H  52.02000 34.35200 22.86900
H  49.48300 33.03900 22.45600
H  51.57600 35.14800 20.82400
H  50.63900 36.33900 21.68200
H  49.84300 34.84400 20.99600
H  50.46100 31.64900 24.53200
H  51.97800 32.47000 24.07200
H  50.76100 31.24300 21.79100
H  50.87700 30.16300 23.09400
H  52.31000 31.07300 22.49000
H  46.45900 30.41300 26.16600
H  45.62200 31.41700 24.97300
H  44.77600 30.96400 26.48200
H  45.17200 34.98700 30.12300
H  45.86600 32.75000 33.80000
H  44.33400 32.07900 33.29100
H  44.40800 33.72100 34.02000
Mg -12.24400 16.04700 41.32900
C  -9.17800 14.29600 40.96400
C  -10.96600 18.62600 39.39200
C  -15.39900 17.24300 41.10700
C  -13.53300 12.96900 42.57800
N  -10.35900 16.39500 40.35200
C  -9.23400 15.55400 40.32800
C  -8.01200 16.31200 39.70800
C  -8.60100 17.69500 39.33600
C  -10.07700 17.56100 39.66000
C  -7.94100 18.90800 40.06800
C  -7.63300 15.53900 38.41300
C  -6.13800 15.15700 38.35600
H  -5.38100 15.73400 37.19400
N  -13.11000 17.76000 40.37400
C  -12.36600 18.68500 39.68000
C  -13.24600 19.73100 39.29900
C  -14.56300 19.42300 39.83300
C  -14.42400 18.09800 40.47500
C  -12.86900 20.99800 38.48000
C  -15.84100 20.36200 39.66700
O  -15.79600 21.46900 39.17200
C  -17.25100 20.00100 40.18500
N  -14.19900 15.15500 41.65700
C  -15.24600 15.90400 41.62200
C  -16.51200 15.08500 42.02500
C  -15.90800 13.88400 42.81700
C  -14.46600 13.96200 42.31500
C  -17.66100 15.88900 42.66700
C  -16.69300 12.57300 42.68000
C  -17.22900 11.99300 44.05300
N  -11.48100 14.05300 41.80000
C  -12.15500 12.88200 42.36000
C  -11.21500 11.89700 42.64400
C  -9.98600 12.45400 42.18700
C  -10.27900 13.70400 41.58500
C  -11.33600 10.61000 43.42600
C  -8.53200 12.19200 42.09200
O  -7.83600 11.24900 42.57100
C  -7.95500 13.38700 41.22200
C  -6.93200 14.14100 42.00400
O  -7.00000 14.45400 43.15600
O  -5.80300 14.20900 41.28000
C  -4.58700 14.66200 41.93800
H  -10.49500 19.53600 39.01600
H  -16.39100 17.69800 41.06400
H  -13.97500 12.15600 43.15700
H  -7.14100 16.43800 40.35100
H  -8.71700 17.88200 38.26900
H  -7.04700 18.54700 40.57700
H  -8.62300 19.27400 40.83600
H  -7.73100 19.63700 39.28500
H  -7.86600 16.13400 37.53000
H  -8.25500 14.67400 38.18200
H  -6.16100 14.06700 38.37100
H  -5.62200 15.42500 39.27800
H  -13.19100 21.88000 39.03400
H  -13.34300 21.02200 37.49900
H  -11.80400 21.12800 38.28900
H  -17.24000 19.81200 41.25800
H  -17.71200 19.28100 39.50900
H  -17.92800 20.85200 40.11500
H  -16.84500 14.62500 41.09400
H  -15.88200 14.26900 43.83600
H  -17.91100 15.36800 43.59200
H  -18.57200 15.89700 42.06900
H  -17.40500 16.92800 42.87000
H  -16.11200 11.78900 42.19400
H  -17.51700 12.82000 42.01100
H  -18.28300 12.21700 43.89000
H  -16.77300 12.43700 44.93900
H  -17.04500 10.91900 44.06200
H  -10.31500 10.31200 43.65900
H  -11.66900 9.76700 42.82000
H  -11.98500 10.71600 44.29500
H  -7.43100 13.03100 40.33500
H  -3.77700 14.01400 41.60400
H  -4.64800 14.58500 43.02300
H  -4.43900 15.70100 41.64300

