158

Mg 26.90600 50.93300 26.43000
C  24.93500 51.63900 29.10900
C  29.46900 49.89400 28.64300
C  29.00200 50.25300 23.86900
C  24.58400 52.32200 24.36600
N  27.11500 50.68200 28.49200
C  26.06700 50.89800 29.39700
C  26.49600 50.57800 30.82800
C  28.04600 50.46400 30.71100
C  28.28300 50.38200 29.18400
C  28.80900 51.55700 31.41100
C  25.70400 49.44300 31.40800
C  25.18800 49.46600 32.87800
H  26.18300 49.93500 33.94000
N  28.94100 50.27200 26.24600
C  29.79200 49.88300 27.27600
C  31.04000 49.38800 26.73900
C  30.89300 49.39000 25.27200
C  29.56000 49.95900 25.01600
C  32.12500 48.82600 27.64500
C  31.93700 48.82000 24.28400
O  31.79200 49.00800 23.05100
C  33.13200 48.21300 24.78900
N  26.84000 51.29700 24.44200
C  27.76600 50.90700 23.51700
C  27.18400 50.88100 22.07400
C  25.72500 51.48500 22.29900
C  25.69100 51.67100 23.85100
C  28.04400 51.30800 20.84100
C  24.50100 50.66000 21.79900
C  23.56900 51.24200 20.69600
N  25.03900 51.72400 26.56800
C  24.27400 52.36900 25.70400
C  23.07100 52.79600 26.40900
C  23.26500 52.62500 27.76100
C  24.52700 51.99000 27.81100
C  21.73000 53.38200 25.83300
C  22.79300 52.73700 29.11900
O  21.71000 53.17200 29.48500
C  23.85100 52.08600 30.09900
C  24.31000 53.15100 31.02100
O  24.87800 54.21800 30.76700
O  23.85500 52.75200 32.29400
C  23.91300 53.82000 33.31800
H  30.13700 49.53100 29.42700
H  29.53200 49.89000 22.98600
H  23.72800 52.37200 23.68900
H  26.22300 51.50300 31.33600
H  28.41500 49.56100 31.19700
H  29.35300 50.94000 32.12700
H  28.24200 52.33900 31.91700
H  29.47700 52.11300 30.75300
H  26.14900 48.44800 31.37400
H  24.80400 49.43900 30.79300
H  24.82400 48.45100 33.03800
H  24.31600 50.12100 32.87100
H  32.11700 47.73900 27.72800
H  32.16100 49.28000 28.63500
H  33.13200 49.00600 27.26900
H  32.88700 47.39800 25.47000
H  33.75300 48.99600 25.22500
H  33.56900 47.66500 23.95400
H  26.95700 49.81800 21.99800
H  25.76700 52.50600 21.91900
H  28.42700 50.36100 20.46100
H  28.87900 51.91100 21.19500
H  27.51800 51.99000 20.17300
H  23.86000 50.45100 22.65600
H  24.87900 49.73100 21.37500
H  23.71700 50.71800 19.75200
H  23.71300 52.32100 20.64100
H  22.60200 50.99600 21.13600
H  22.00800 54.41500 25.62300
H  21.00100 53.23000 26.62900
H  21.43900 52.81400 24.95000
H  23.43000 51.22300 30.61400
H  23.83800 54.85700 32.99100
H  24.79600 53.70300 33.94500
H  22.97900 53.73300 33.87400
Mg 6.41800 53.37500 41.35300
C  6.10800 49.96800 40.22500
C  9.46800 53.39200 39.76500
C  6.28600 56.66800 41.21500
C  2.91200 53.17200 42.25100
N  7.58100 51.88600 40.05800
C  7.26400 50.60700 39.74800
C  8.30400 49.93300 38.83600
C  9.49900 50.91900 39.08600
C  8.81000 52.14700 39.63900
C  10.71500 50.35800 39.89900
C  7.85800 49.83400 37.30400
C  7.95600 48.44000 36.64200
H  6.92000 47.97800 35.57300
N  7.75200 54.86800 40.72900
C  9.01200 54.67800 40.22000
C  9.69700 55.89600 40.18200
C  8.80100 56.94900 40.53200
C  7.53700 56.20400 40.79300
C  11.16800 55.91900 39.69300
C  9.06900 58.45800 40.40700
O  10.21200 58.87500 40.05400
C  8.00200 59.41500 40.55600
N  4.79800 54.64400 41.52300
C  5.10000 56.04000 41.49700
C  3.80800 56.84300 41.82300
C  2.72300 55.73200 42.08900
C  3.49100 54.41800 41.97400
C  3.85500 57.89700 43.03200
C  1.50100 55.77700 41.15800
C  0.10700 55.47400 41.79100
N  4.89400 51.89800 41.52400
C  3.64500 51.92000 42.05500
C  3.16200 50.59800 42.21900
C  4.09300 49.80800 41.52800
C  5.10900 50.64800 41.05000
C  1.82000 50.25600 43.00600
C  4.40000 48.38000 41.06600
O  3.88200 47.33500 41.40600
C  5.73600 48.49000 40.24600
C  5.56800 47.74900 38.92700
O  4.88200 48.15200 38.00000
O  5.84500 46.42700 39.06300
C  5.40300 45.44700 38.09300
H  10.51400 53.34800 39.45400
H  6.27500 57.74300 41.40700
H  1.88000 53.02400 42.57500
H  8.57600 48.96600 39.26100
H  9.96300 51.28700 38.17100
H  11.40300 49.68900 39.38300
H  10.25000 49.90300 40.77400
H  11.38200 51.08500 40.36300
H  8.57000 50.38600 36.69100
H  6.83600 50.20800 37.24400
H  8.07200 47.80000 37.51600
H  8.90200 48.35800 36.10700
H  11.28800 55.23800 38.85000
H  11.91400 55.67700 40.44900
H  11.38400 56.96000 39.45100
H  8.20900 60.43600 40.23400
H  7.73400 59.32500 41.60900
H  7.17900 59.11600 39.90700
H  3.62400 57.39800 40.90300
H  2.37800 55.80400 43.12000
H  3.58800 58.86600 42.61000
H  4.83500 57.94200 43.50700
H  3.15000 57.57400 43.79800
H  1.57800 55.08600 40.31800
H  1.48700 56.77300 40.71600
H  -0.34000 56.46800 41.82300
H  0.14400 55.11500 42.81900
H  -0.54500 54.80800 41.22700
H  1.46600 49.47100 42.33800
H  1.00900 50.98100 43.07200
H  2.08700 49.95900 44.02100
H  6.41700 47.88500 40.84400
H  4.41100 45.69100 37.71300
H  5.21600 44.43100 38.44100
H  6.10100 45.33700 37.26400

