158

Mg 55.28300 25.00300 44.03000
C  52.33500 26.73900 43.12800
C  53.97900 22.12600 42.79500
C  58.33600 23.51300 44.47200
C  56.71000 28.06800 45.27100
N  53.47400 24.59300 42.81100
C  52.42400 25.40800 42.62400
C  51.38900 24.70900 41.70400
C  51.66900 23.24500 42.14300
C  53.20800 23.27200 42.49600
C  50.77200 22.84700 43.37100
C  51.75400 24.90700 40.16400
C  50.54000 25.16900 39.24700
H  50.87600 25.90500 37.93400
N  56.01100 23.06200 43.79700
C  55.28200 22.04200 43.38300
C  56.00300 20.76800 43.50200
C  57.29600 21.13200 44.00300
C  57.28900 22.62800 44.09300
C  55.46400 19.44100 43.12900
C  58.43100 20.13400 44.30900
O  58.35000 18.94300 44.08500
C  59.75100 20.54700 44.98300
N  57.29100 25.71900 44.68300
C  58.38600 24.91000 44.70000
C  59.68500 25.71900 45.00900
C  59.09200 27.13000 45.33200
C  57.58300 26.98100 45.13600
C  60.55200 25.10500 46.11800
C  59.80200 28.31800 44.57500
C  60.03600 29.52900 45.56300
N  54.71000 27.06700 44.18100
C  55.34100 28.18600 44.75600
C  54.34200 29.25700 44.89700
C  53.18400 28.73900 44.22200
C  53.43200 27.41200 43.79400
C  54.71700 30.54700 45.57700
C  51.82900 29.09300 43.84600
O  51.12400 30.11100 43.95700
C  51.26300 27.76900 43.10000
C  50.81500 28.17900 41.72200
O  51.51000 28.27500 40.70600
O  49.46300 28.35400 41.79700
C  48.91400 28.71200 40.49400
H  53.60000 21.14800 42.49100
H  59.34200 23.09600 44.54900
H  57.12500 28.87000 45.88500
H  50.37800 25.07100 41.89200
H  51.46500 22.52700 41.34900
H  51.42500 22.80800 44.24300
H  50.42300 21.84100 43.14000
H  49.91000 23.48600 43.56300
H  52.21900 23.96300 39.87900
H  52.50900 25.68000 40.02000
H  49.78100 25.70500 39.81800
H  50.31500 24.18000 38.84700
H  55.42300 19.41200 42.04000
H  54.45600 19.57300 43.52200
H  55.93800 18.59400 43.62500
H  59.52400 21.09600 45.89700
H  60.24100 21.23300 44.29100
H  60.42100 19.71600 45.19900
H  60.39900 25.74100 44.18600
H  59.11800 27.37000 46.39500
H  60.01600 24.28600 46.59600
H  60.80900 25.84700 46.87400
H  61.48300 24.76000 45.66800
H  59.18300 28.52200 43.70200
H  60.78300 28.07100 44.16900
H  60.33800 30.45200 45.06800
H  60.85800 29.16900 46.18100
H  59.14300 29.69000 46.16700
H  55.61800 30.50700 46.19000
H  53.85600 30.80100 46.19500
H  54.94800 31.34300 44.87000
H  50.43200 27.31700 43.64100
H  48.20200 27.92100 40.25900
H  49.58500 28.74000 39.63600
H  48.46100 29.70200 40.55900
Mg 9.18100 48.89400 26.22900
C  7.09500 49.36500 28.94700
C  11.83800 49.95500 28.10000
C  11.10300 48.43300 23.51500
C  6.32800 48.17700 24.22700
N  9.38100 49.62300 28.31100
C  8.44800 49.68700 29.26800
C  9.05800 50.17000 30.57000
C  10.49300 50.64500 30.08400
C  10.63000 50.01300 28.73100
C  10.77100 52.19400 30.05100
C  9.22400 49.00000 31.60300
C  8.29500 49.05800 32.84500
H  8.42600 48.01500 33.95100
N  11.20700 49.00700 25.86600
C  12.09300 49.50800 26.79000
C  13.44600 49.33900 26.26200
C  13.34000 48.83700 24.97800
C  11.87000 48.77300 24.66400
C  14.73700 49.68800 26.90300
C  14.36000 48.43700 23.93800
O  14.08800 47.81300 22.89200
C  15.77800 48.67000 24.23700
N  8.75900 48.31400 24.14800
C  9.74400 48.31000 23.20000
C  9.19400 47.84500 21.87200
C  7.64100 47.88900 22.03600
C  7.54500 48.08400 23.58300
C  9.50100 48.68600 20.60300
C  6.95800 46.52800 21.55000
C  6.34300 46.64300 20.15200
N  7.16500 48.78500 26.42300
C  6.08500 48.59100 25.58400
C  4.81600 48.72400 26.21400
C  5.17100 48.96000 27.55000
C  6.59100 48.98500 27.64200
C  3.46600 48.72900 25.50400
C  4.69100 49.19200 28.88400
O  3.50800 49.21600 29.29200
C  5.89100 49.39000 29.81100
C  5.93300 48.21000 30.66700
O  6.65700 47.20100 30.72700
O  4.99400 48.52600 31.69900
C  4.70100 47.46800 32.59700
H  12.69400 50.34100 28.65700
H  11.78300 48.32800 22.66600
H  5.41900 48.06600 23.63300
H  8.40400 50.98500 30.87900
H  11.29400 50.13400 30.61700
H  9.92200 52.83600 30.29000
H  11.11200 52.52700 29.07100
H  11.46700 52.43200 30.85500
H  10.20700 48.89000 32.06200
H  9.21000 48.05300 31.06200
H  7.25600 49.04400 32.51500
H  8.49200 50.01800 33.32100
H  14.73800 49.98100 27.95200
H  15.25400 50.48600 26.37000
H  15.34700 48.78600 26.88300
H  16.01600 48.00800 25.07000
H  15.86000 49.72500 24.49700
H  16.29900 48.27900 23.36300
H  9.70500 46.89900 21.68900
H  7.20500 48.76100 21.54800
H  10.03300 49.58400 20.91900
H  8.70900 48.95200 19.90300
H  10.21900 48.10800 20.02100
H  6.08800 46.20700 22.12300
H  7.59100 45.64500 21.46400
H  5.36000 46.17400 20.11300
H  7.07200 46.14600 19.51200
H  6.30300 47.64100 19.71500
H  3.14000 47.91900 24.85200
H  3.34200 49.68100 24.98900
H  2.65300 48.74700 26.22900
H  5.87200 50.35400 30.32000
H  5.31200 47.39000 33.49600
H  4.47300 46.47200 32.21600
H  3.73300 47.73700 33.02100

