158

Mg 0.38800 7.70900 26.31700
C  1.03200 9.88900 28.96000
C  0.78200 5.02700 28.69200
C  0.10300 5.63300 23.84700
C  0.74000 10.36700 24.11300
N  0.94600 7.43600 28.55100
C  0.98900 8.55100 29.43700
C  1.24500 8.06300 30.85700
C  1.16800 6.49000 30.74800
C  0.94400 6.25500 29.23900
C  2.38200 5.76100 31.31400
C  0.11600 8.57000 31.83100
C  0.49000 8.59100 33.35000
H  1.72200 7.88500 33.87400
N  0.35000 5.63600 26.28400
C  0.43600 4.71400 27.34400
C  0.29400 3.36600 26.87800
C  0.08300 3.49400 25.42900
C  0.19700 4.93900 25.14300
C  0.43600 2.12800 27.80600
C  -0.11700 2.41800 24.36700
O  -0.39300 2.67300 23.18700
C  -0.10500 1.03000 24.77500
N  0.65900 7.97400 24.19400
C  0.29600 6.92700 23.41800
C  0.03700 7.36200 22.02200
C  0.42700 8.86000 22.05200
C  0.55600 9.12800 23.52300
C  0.68200 6.53800 20.87800
C  -0.57100 9.81300 21.31500
C  -2.01400 9.82800 21.77600
N  0.69700 9.63300 26.48600
C  0.75600 10.63000 25.52000
C  0.89500 11.91100 26.08600
C  0.93900 11.63200 27.46700
C  0.90600 10.23400 27.63900
C  0.97000 13.23600 25.36400
C  1.05100 12.29600 28.76900
O  1.19200 13.49500 28.99500
C  1.24500 11.18100 29.79900
C  2.46100 11.14800 30.63900
O  3.59900 11.18300 30.20800
O  2.12000 11.30000 31.98300
C  3.17600 11.23200 33.00000
H  0.73500 4.21300 29.41800
H  -0.18000 5.00400 23.00100
H  0.93000 11.15900 23.38500
H  2.15100 8.46500 31.31000
H  0.28000 6.03300 31.18300
H  2.79700 5.24700 30.44700
H  2.03700 5.02100 32.03600
H  3.06100 6.44500 31.82200
H  -0.78500 7.98000 31.66300
H  -0.20700 9.55800 31.50300
H  -0.43600 8.32100 33.85800
H  0.56700 9.61600 33.71300
H  0.33300 1.13600 27.36600
H  -0.35600 2.19800 28.55100
H  1.36900 2.25700 28.35400
H  -0.52300 0.31600 24.06500
H  -0.67400 0.90100 25.69700
H  0.92700 0.77000 25.00900
H  -1.04000 7.19800 21.96600
H  1.32400 9.00900 21.45100
H  1.39600 5.84900 21.33000
H  1.29000 7.18000 20.24000
H  0.04200 5.99200 20.18600
H  -0.65000 9.46700 20.28500
H  -0.23200 10.84800 21.26100
H  -2.76800 9.60700 21.02000
H  -2.14600 10.85600 22.11200
H  -2.24600 9.14900 22.59700
H  0.20100 13.25200 24.59100
H  1.93300 13.23300 24.85400
H  0.94100 14.14200 25.97000
H  0.41700 11.25200 30.50400
H  3.10200 10.48200 33.78700
H  3.22700 12.18800 33.52200
H  4.10200 11.03500 32.45900
Mg 8.63700 3.49400 27.78700
C  10.18500 2.06200 30.68800
C  6.83500 5.52000 29.75500
C  6.92200 4.52100 25.02000
C  10.02400 0.92600 25.82300
N  8.53300 3.65700 30.04000
C  9.22100 3.02100 31.00100
C  8.92300 3.64100 32.38700
C  7.84100 4.73600 32.02200
C  7.72700 4.62800 30.51800
C  6.46900 4.67400 32.78300
C  10.21900 4.22900 33.12000
C  9.98000 4.90600 34.51500
H  10.91400 4.48700 35.59800
N  7.14700 4.77500 27.44700
C  6.59400 5.60600 28.41500
C  5.64300 6.53300 27.81600
C  5.75900 6.33300 26.42500
C  6.59300 5.17400 26.19800
C  4.65800 7.38900 28.60500
C  5.02400 7.03700 25.25900
O  5.16000 6.74100 24.10100
C  4.08100 8.25200 25.41700
N  8.54200 2.86600 25.68600
C  7.84400 3.47700 24.73000
C  7.90500 2.68200 23.37100
C  9.11000 1.72100 23.56700
C  9.30600 1.87500 25.05600
C  6.61400 2.10400 22.99700
C  10.38500 2.16700 22.71200
C  11.34300 1.10800 22.17200
N  9.77200 1.76300 28.13000
C  10.27200 0.87900 27.25500
C  11.10800 -0.06700 27.93600
C  11.13800 0.41000 29.26000
C  10.33800 1.51000 29.35500
C  11.78600 -1.29400 27.30900
C  11.68600 0.18500 30.63300
O  12.42600 -0.69000 31.01900
C  11.05500 1.21700 31.57700
C  10.22500 0.41700 32.52600
O  9.38600 -0.47500 32.34300
O  10.63100 0.84000 33.83400
C  10.01000 0.03600 34.86700
H  6.28500 6.27800 30.31700
H  6.42500 4.83000 24.09800
H  10.47000 0.08800 25.28400
H  8.37500 2.85800 32.91200
H  8.12400 5.77700 32.18300
H  6.16800 5.67500 33.09200
H  6.67300 4.05600 33.65800
H  5.68000 4.26300 32.15400
H  10.71900 4.92000 32.44100
H  10.99800 3.46900 33.18700
H  8.93300 4.79600 34.80000
H  10.08900 5.97400 34.32500
H  3.71800 7.39800 28.05400
H  4.95200 8.43600 28.68600
H  4.40600 7.05500 29.61100
H  4.66200 8.99000 25.97000
H  3.24200 7.96400 26.05000
H  3.82500 8.78300 24.49900
H  8.20400 3.40300 22.61000
H  8.76900 0.73400 23.25500
H  5.79600 2.37900 23.66200
H  6.65400 1.01700 23.06800
H  6.28300 2.41900 22.00700
H  10.95200 2.90000 23.28500
H  9.96900 2.63000 21.81700
H  10.92700 0.16400 22.52400
H  12.29700 1.32200 22.65500
H  11.35600 0.99800 21.08800
H  11.00100 -2.00100 27.03900
H  12.56200 -1.78800 27.89300
H  12.14700 -0.88300 26.36700
H  11.84700 1.86500 31.95200
H  9.22400 0.75000 35.11300
H  10.72500 -0.21300 35.65100
H  9.54500 -0.90800 34.58100

