158

Mg -3.01000 16.49000 26.37800
C  -3.39400 14.28500 29.04100
C  -4.36200 18.91300 28.31100
C  -3.25300 18.50200 23.55800
C  -2.77100 13.71900 24.20800
N  -3.66200 16.52900 28.40800
C  -3.56700 15.56800 29.37900
C  -3.89600 16.10600 30.84700
C  -4.54800 17.47500 30.41700
C  -4.09300 17.68100 28.93700
C  -6.07200 17.42000 30.64800
C  -2.63600 16.28700 31.76100
C  -2.56400 15.38600 32.94700
H  -3.17900 16.01800 34.16600
N  -3.43500 18.43200 26.00900
C  -3.98500 19.28000 26.97200
C  -3.89000 20.64800 26.43900
C  -3.35600 20.58900 25.11700
C  -3.34200 19.10800 24.83100
C  -4.37700 21.85300 27.30100
C  -2.97000 21.69000 24.13500
O  -2.58600 21.41000 22.99900
C  -3.07700 23.09600 24.54800
N  -3.18300 16.16300 24.15200
C  -3.13000 17.15300 23.24100
C  -2.98800 16.63300 21.79800
C  -2.41600 15.17900 22.13500
C  -2.80600 15.00400 23.61100
C  -4.35400 16.58500 20.95600
C  -0.87300 15.05700 21.75000
C  0.09000 15.64100 22.79100
N  -3.00200 14.41700 26.47900
C  -2.94100 13.41300 25.51500
C  -3.04600 12.15100 26.09700
C  -3.15000 12.42200 27.44300
C  -3.20100 13.81600 27.63300
C  -3.13200 10.79500 25.43400
C  -3.24900 11.79200 28.70400
O  -3.07100 10.60500 29.06800
C  -3.53700 12.94000 29.78200
C  -2.51900 12.66200 30.82600
O  -1.37800 13.06600 30.87100
O  -3.04300 11.87800 31.83300
C  -2.11200 11.55100 32.87300
H  -4.72200 19.66000 29.02100
H  -3.11600 19.07100 22.63500
H  -2.59000 12.92200 23.48300
H  -4.64100 15.40500 31.22300
H  -4.21400 18.33500 30.99600
H  -6.34600 17.05300 31.63700
H  -6.68400 17.02600 29.83600
H  -6.35800 18.47100 30.60800
H  -2.63500 17.34500 32.02200
H  -1.74800 16.25900 31.13000
H  -1.50000 15.15800 33.01900
H  -3.10300 14.46500 32.72700
H  -5.14700 21.54700 28.00800
H  -4.88300 22.55800 26.64200
H  -3.58200 22.49400 27.68100
H  -2.51500 23.16800 25.47900
H  -4.10000 23.44300 24.69000
H  -2.69300 23.76400 23.77700
H  -2.34900 17.31200 21.23300
H  -3.09900 14.55700 21.55700
H  -5.09900 16.80600 21.72000
H  -4.77500 15.73600 20.41700
H  -4.37000 17.35900 20.18900
H  -0.73500 15.66500 20.85600
H  -0.62600 14.00400 21.60800
H  -0.45300 16.30100 23.46700
H  0.81600 16.29000 22.30200
H  0.49900 14.77100 23.30400
H  -2.97200 10.96300 24.36900
H  -4.15200 10.48500 25.66200
H  -2.37600 10.14000 25.86800
H  -4.52600 12.78900 30.21500
H  -2.64100 11.62600 33.82300
H  -1.23300 12.15800 33.08900
H  -1.73500 10.54200 32.70700
Mg 2.40800 0.19100 45.21700
C  5.56000 1.70700 44.59400
C  1.07300 3.14800 43.96600
C  -0.40700 -1.42100 45.07000
C  4.16800 -2.96000 45.61700
N  3.24000 2.25100 44.40200
C  4.53000 2.55600 44.25100
C  4.71600 3.95900 43.82600
C  3.22700 4.51600 43.61600
C  2.47700 3.25500 44.06400
C  2.82500 5.89500 44.32000
C  5.43900 4.07500 42.44600
C  5.17300 3.01700 41.38900
H  5.73200 3.20300 40.03100
N  0.59100 0.75600 44.64100
C  0.15100 2.02700 44.19600
C  -1.23900 1.94000 43.85900
C  -1.69500 0.64000 44.30200
C  -0.43700 -0.06200 44.71900
C  -2.02800 3.14500 43.36100
C  -3.15200 0.19400 44.26000
O  -3.92200 0.88900 43.67700
C  -3.72300 -0.92700 45.05600
N  2.00200 -1.84200 45.36600
C  0.71300 -2.29000 45.30000
C  0.59700 -3.77900 45.27500
C  2.02600 -4.23000 45.37000
C  2.79200 -2.93400 45.42400
C  -0.33500 -4.36500 46.36500
C  2.44900 -5.30700 44.41200
C  2.99700 -6.65200 45.00700
N  4.41700 -0.49400 45.35900
C  4.96800 -1.79300 45.58800
C  6.40600 -1.70600 45.64800
C  6.65100 -0.38600 45.22200
C  5.43900 0.31900 45.01700
C  7.44600 -2.68800 45.88500
C  7.71200 0.68700 44.90600
O  8.95500 0.57200 44.96100
C  7.04100 2.03600 44.58000
C  7.38200 3.05000 45.48400
O  7.69000 4.24000 45.24100
O  7.07300 2.62700 46.68300
C  6.76100 3.60000 47.65100
H  0.50100 3.97200 43.53600
H  -1.35700 -1.95600 45.02000
H  4.69500 -3.90200 45.78700
H  5.18900 4.55300 44.60900
H  2.90300 4.66700 42.58600
H  1.91800 5.70000 44.89100
H  2.71700 6.73400 43.63300
H  3.68200 6.02600 44.98100
H  6.49200 4.35400 42.46700
H  4.96700 4.92600 41.95500
H  4.09600 3.05000 41.23100
H  5.54800 2.07600 41.79100
H  -3.05200 3.17200 43.73400
H  -1.95800 3.03100 42.27900
H  -1.58600 4.01300 43.85000
H  -3.33800 -0.96900 46.07500
H  -3.63000 -1.90900 44.59300
H  -4.78400 -0.77200 45.25000
H  0.19900 -4.01500 44.28700
H  2.17900 -4.62700 46.37300
H  -0.88200 -3.51000 46.76200
H  0.25400 -4.80100 47.17100
H  -0.99200 -5.12300 45.93800
H  3.18100 -4.83800 43.75300
H  1.59300 -5.54400 43.78000
H  2.87500 -6.77200 46.08300
H  4.05100 -6.72800 44.73800
H  2.44200 -7.45500 44.52200
H  8.13100 -2.10900 46.50500
H  7.93600 -2.92000 44.94000
H  7.12300 -3.62100 46.34600
H  7.35300 2.22900 43.55300
H  5.84000 4.07200 47.30900
H  7.37000 4.49200 47.80000
H  6.45700 3.20200 48.61900

