158

Mg 25.30800 1.30200 29.92600
C  27.29600 0.90500 32.87500
C  22.62400 1.54400 31.79900
C  23.54900 1.46100 27.01200
C  28.15200 0.68900 28.05400
N  25.04300 1.16000 32.04300
C  25.94600 1.09800 33.09600
C  25.29800 1.34000 34.49900
C  23.75100 1.40500 34.07100
C  23.79500 1.31500 32.51700
C  22.85700 0.33900 34.70500
C  25.88200 2.60500 35.22300
C  26.31200 2.41700 36.73600
H  25.61700 3.25700 37.82300
N  23.29800 1.41700 29.48000
C  22.35100 1.59200 30.42600
C  21.07700 1.90600 29.73900
C  21.36200 1.71300 28.34800
C  22.80300 1.58100 28.26200
C  19.78200 2.30300 30.52400
C  20.36500 1.61800 27.18900
O  20.78800 1.50500 26.01400
C  18.88400 1.72100 27.44100
N  25.77200 1.01100 27.81400
C  24.90900 1.23100 26.85900
C  25.59500 1.28900 25.43800
C  27.03100 1.33000 25.78600
C  27.03000 0.93300 27.27500
C  25.12400 0.21400 24.35400
C  27.74600 2.60600 25.30700
C  27.58300 3.89500 26.17200
N  27.29900 0.77000 30.31500
C  28.29800 0.54700 29.42800
C  29.52300 0.23000 30.18100
C  29.19800 0.36500 31.53200
C  27.82300 0.67400 31.57200
C  30.84000 -0.25800 29.62100
C  29.63200 0.32500 32.92300
O  30.76100 0.08900 33.33800
C  28.44100 0.75600 33.85100
C  28.09600 -0.30500 34.82400
O  27.31700 -1.16900 34.67700
O  28.88900 -0.11700 35.92800
C  28.62800 -1.05200 36.99500
H  21.72400 1.58300 32.41700
H  23.13300 1.57300 26.00800
H  29.09400 0.62800 27.50400
H  25.52900 0.48600 35.13500
H  23.28300 2.35100 34.34100
H  23.51100 -0.52200 34.84500
H  22.05900 0.02600 34.03200
H  22.52000 0.66300 35.69000
H  25.07300 3.33300 35.27300
H  26.73800 3.12400 34.79100
H  27.36200 2.70300 36.80000
H  26.22300 1.37600 37.04800
H  19.38300 3.21800 30.08700
H  19.96700 2.46000 31.58700
H  19.09900 1.47100 30.35700
H  18.54200 1.37400 28.41600
H  18.44200 1.12100 26.64600
H  18.58700 2.76000 27.29800
H  25.43100 2.19800 24.86000
H  27.47800 0.43900 25.34400
H  24.46700 -0.46500 24.89800
H  25.91300 -0.37100 23.88200
H  24.48500 0.72600 23.63400
H  27.47000 2.80100 24.27100
H  28.78400 2.27300 25.34500
H  28.53600 4.19100 26.61200
H  26.99700 3.68000 27.06600
H  27.18500 4.70500 25.56200
H  31.52700 -0.19000 30.46400
H  30.98400 0.37500 28.74500
H  30.80100 -1.26900 29.21500
H  28.68900 1.60200 34.49100
H  29.06100 -0.80600 37.96500
H  28.90900 -2.06200 36.69800
H  27.57200 -1.11900 37.25900
Mg 27.17800 50.63600 26.26800
C  25.16000 51.53600 29.05100
C  29.42000 49.29600 28.45300
C  29.13000 49.66800 23.56400
C  24.82300 51.99000 24.21800
N  27.34500 50.57700 28.58000
C  26.36700 50.82000 29.51700
C  26.88800 50.63600 30.94600
C  28.25400 49.98300 30.69700
C  28.35600 49.89300 29.14800
C  29.54300 50.69300 31.30900
C  25.89800 49.81400 31.79800
C  25.40900 50.52600 33.00800
H  24.89100 49.75400 34.24400
N  28.99800 49.55100 26.00100
C  29.80300 49.18300 27.06000
C  31.08900 48.71700 26.47800
C  30.85600 48.65600 25.08000
C  29.59600 49.31100 24.79700
C  32.18600 48.09500 27.38200
C  31.89600 48.12800 24.05500
O  31.67500 47.99100 22.86100
C  33.31600 47.80300 24.53000
N  27.11000 50.98900 24.16800
C  27.94800 50.41900 23.28300
C  27.55700 50.89200 21.87600
C  26.14100 51.45500 22.07500
C  25.99100 51.48500 23.55900
C  28.60700 51.75700 21.14100
C  24.93000 50.67300 21.37000
C  24.05400 49.66600 22.12500
N  25.38400 51.70100 26.51600
C  24.54700 52.20000 25.60600
C  23.29300 52.64000 26.22900
C  23.49800 52.51500 27.63500
C  24.82900 51.95400 27.69700
C  22.03800 53.13000 25.53000
C  23.02900 52.73300 28.95400
O  21.94300 53.16200 29.33400
C  24.03000 52.17800 29.91100
C  24.59100 53.23500 30.80800
O  25.64700 53.79600 30.67400
O  23.64400 53.55300 31.76700
C  23.98400 54.68300 32.60100
H  30.16400 48.91100 29.15400
H  29.62000 49.40500 22.62500
H  24.12800 52.51200 23.55800
H  26.99100 51.61400 31.41600
H  28.18700 48.94800 31.03300
H  29.14000 51.33600 32.09100
H  29.91100 51.35800 30.52600
H  30.26300 49.96900 31.69000
H  26.25800 48.84500 32.14400
H  25.10800 49.51200 31.11000
H  24.58000 51.14800 32.67200
H  26.12300 51.16000 33.53300
H  32.21800 47.00500 27.36300
H  32.02100 48.33900 28.43200
H  33.18600 48.48100 27.18500
H  33.79700 48.76100 24.73000
H  33.71100 47.31200 23.64100
H  33.29600 47.03800 25.30500
H  27.43500 49.97800 21.29600
H  26.15900 52.48800 21.72700
H  29.55900 51.72600 21.67100
H  28.18600 52.73900 20.92600
H  28.88000 51.34000 20.17200
H  25.34000 50.19100 20.48300
H  24.31400 51.46000 20.93500
H  23.99600 48.78700 21.48300
H  23.06000 50.04500 22.36300
H  24.46600 49.41000 23.10100
H  21.14400 52.73700 26.01500
H  21.98000 52.72200 24.52100
H  22.05700 54.21700 25.46400
H  23.53400 51.41500 30.51100
H  23.16600 55.04700 33.22300
H  24.39600 55.50800 32.01900
H  24.76400 54.35400 33.28800

