158

Mg 49.08700 35.60000 27.79300
C  47.14000 33.89600 30.20900
C  49.65100 38.17700 30.14600
C  50.88400 36.98600 25.46500
C  47.88800 33.15300 25.49300
N  48.51200 35.95100 29.87200
C  47.75000 35.09700 30.65800
C  47.92000 35.60400 32.11100
C  48.21500 37.16000 31.90200
C  48.95300 37.04200 30.57200
C  46.89900 37.95700 31.89000
C  49.04600 34.74100 32.79900
C  48.81500 34.35800 34.27500
H  47.97500 35.26900 35.12600
N  50.01100 37.39600 27.84800
C  50.25000 38.28000 28.85900
C  51.06700 39.39900 28.37700
C  51.44900 39.05000 27.04700
C  50.77200 37.74800 26.72000
C  51.37800 40.59400 29.25200
C  52.43000 39.74800 26.11600
O  52.77200 39.30100 25.05500
C  53.11600 41.01000 26.55500
N  49.24100 35.26000 25.82100
C  50.19200 35.88200 25.06300
C  50.37700 35.26300 23.70600
C  49.62700 33.91300 23.86900
C  48.87100 34.07800 25.15600
C  49.91600 36.15600 22.52300
C  50.35800 32.56900 23.89100
C  50.04400 31.59800 22.82400
N  47.93300 33.76300 27.81500
C  47.51100 32.95500 26.77900
C  46.70000 31.86500 27.36600
C  46.43300 32.22900 28.63100
C  47.18800 33.41000 28.86600
C  46.13300 30.62100 26.67100
C  45.64600 31.91000 29.80200
O  44.96000 30.91700 30.07800
C  46.01500 33.08500 30.83500
C  46.45500 32.45600 32.10800
O  47.46200 31.75600 32.29500
O  45.43300 32.61000 33.03800
C  45.69400 31.96500 34.33500
H  49.77100 39.01800 30.83200
H  51.57300 37.34500 24.69800
H  47.68200 32.41100 24.71800
H  46.94400 35.42800 32.56300
H  48.92200 37.57900 32.61900
H  46.88400 38.53000 32.81600
H  45.96000 37.40300 31.90600
H  46.88100 38.61500 31.02200
H  49.88300 35.42400 32.65800
H  49.23700 33.87300 32.16800
H  49.71900 34.37200 34.88500
H  48.33400 33.38000 34.24000
H  52.31800 40.42200 29.77500
H  50.65500 40.89600 30.01000
H  51.44300 41.48900 28.63200
H  53.49400 40.98200 27.57700
H  52.36400 41.79700 26.50100
H  54.00200 41.33800 26.01100
H  51.42000 34.94600 23.69300
H  48.84000 33.84300 23.11800
H  50.74300 36.27000 21.82300
H  49.56500 37.14700 22.81100
H  49.06500 35.73900 21.98300
H  50.28700 32.07400 24.86000
H  51.41400 32.81300 23.78100
H  51.01100 31.50100 22.33000
H  49.29800 31.97000 22.12100
H  49.67600 30.63200 23.16900
H  46.94200 30.18600 26.08300
H  45.54900 30.87300 25.78600
H  45.64600 29.84200 27.25800
H  45.11000 33.68500 30.92600
H  45.84400 30.90300 34.14100
H  44.90800 32.19000 35.05600
H  46.64000 32.38200 34.68100
Mg 9.57500 48.26100 25.00400
C  7.65500 47.90300 28.01400
C  12.04500 49.58900 26.88400
C  11.22600 48.33700 22.27600
C  6.69100 46.96100 23.24500
N  9.76700 48.83500 27.18400
C  8.88700 48.56900 28.25900
C  9.53500 49.07300 29.59400
C  10.64700 50.03100 29.08300
C  10.87500 49.48500 27.65400
C  10.30600 51.59800 29.04800
C  10.05000 47.99100 30.53600
C  9.32600 48.08400 31.92000
H  9.76700 47.00300 32.97200
N  11.37800 48.93900 24.61300
C  12.29100 49.35100 25.49100
C  13.60400 49.59900 24.82200
C  13.31200 49.15300 23.51900
C  11.93200 48.85200 23.38500
C  14.83400 50.03500 25.53800
C  14.27600 49.02200 22.37900
O  13.97400 48.53000 21.26900
C  15.71400 49.35900 22.60700
N  8.90800 47.93200 23.07600
C  9.88000 48.00100 22.07100
C  9.32800 47.64000 20.69700
C  8.02900 47.05300 21.09500
C  7.84000 47.33000 22.61600
C  9.25200 48.78300 19.62100
C  7.90300 45.49700 20.73800
C  8.53200 44.45000 21.54400
N  7.50400 47.67600 25.47900
C  6.50000 47.11000 24.67900
C  5.32600 46.84900 25.46300
C  5.77300 47.08700 26.80400
C  7.11600 47.57500 26.74500
C  3.97000 46.65500 25.07700
C  5.31900 47.21900 28.18700
O  4.20000 46.95800 28.69800
C  6.57200 47.58500 28.99200
C  6.86600 46.28900 29.79200
O  7.59600 45.37500 29.54300
O  6.23200 46.42700 30.99400
C  6.37400 45.29700 31.97000
H  12.87200 49.87400 27.53800
H  11.79800 48.32100 21.34500
H  5.96900 46.34700 22.70300
H  8.84600 49.74200 30.11000
H  11.56900 49.86400 29.64000
H  10.88500 52.11100 29.81500
H  9.22500 51.72100 29.10700
H  10.73700 51.87900 28.08600
H  11.13000 48.08000 30.65200
H  10.00400 47.01400 30.05500
H  8.25400 47.90700 31.82500
H  9.59800 49.02100 32.40600
H  15.41800 49.12100 25.65100
H  14.61000 50.36400 26.55300
H  15.41900 50.87600 25.16800
H  16.30900 49.14400 21.71900
H  16.17000 48.72200 23.36400
H  15.83400 50.41600 22.84700
H  9.95600 46.85900 20.26800
H  7.27400 47.57000 20.50100
H  9.38100 49.70700 20.18400
H  8.30500 48.82400 19.08300
H  10.18200 48.63000 19.07300
H  8.17900 45.25900 19.71100
H  6.81900 45.38100 20.74800
H  8.86300 44.92000 22.47100
H  9.37300 44.04800 20.97900
H  7.87700 43.63100 21.84100
H  3.60700 47.59800 24.66900
H  3.43500 46.42300 25.99800
H  3.86400 45.90700 24.29100
H  6.43400 48.42700 29.66900
H  6.27900 45.81600 32.92400
H  7.28200 44.69300 31.98900
H  5.53600 44.60700 31.87300

