158

Mg 0.54900 7.67600 26.07300
C  1.09700 9.64800 28.93800
C  0.09800 5.00000 28.17300
C  0.28900 5.90500 23.35300
C  0.60300 10.56300 24.26700
N  0.57300 7.37700 28.29600
C  0.78600 8.35500 29.20700
C  0.45900 7.77500 30.57300
C  0.61800 6.26600 30.34400
C  0.34500 6.18600 28.89800
C  1.98000 5.56800 30.74800
C  -0.87500 8.25000 31.23600
C  -1.00000 7.98100 32.74600
H  0.29300 7.91100 33.67300
N  0.37600 5.68900 25.78400
C  0.23500 4.76100 26.83700
C  0.13100 3.38700 26.18600
C  0.12700 3.61900 24.72100
C  0.33400 5.10400 24.54000
C  -0.18100 2.13100 27.02500
C  0.05900 2.63000 23.52500
O  -0.03100 2.88500 22.36700
C  -0.05600 1.07600 23.80800
N  0.53600 8.12400 24.09300
C  0.32700 7.25700 23.14500
C  0.34000 7.91800 21.68300
C  -0.02200 9.36900 22.10700
C  0.38500 9.34000 23.59500
C  1.67600 7.82300 20.89500
C  -1.52600 9.68500 21.89500
C  -1.79300 10.84400 20.93300
N  0.83700 9.73600 26.46100
C  0.83900 10.81700 25.60500
C  1.16400 12.06400 26.31000
C  1.15700 11.59300 27.67100
C  1.11800 10.19800 27.66200
C  1.37100 13.43300 25.78100
C  1.31500 12.07700 28.93300
O  1.50500 13.23900 29.31500
C  1.19900 10.85600 29.85800
C  2.47400 10.81400 30.63700
O  3.57100 10.48700 30.19600
O  2.25200 11.29800 31.88100
C  3.41500 11.24200 32.74900
H  -0.05700 4.12400 28.80600
H  0.21600 5.23100 22.49700
H  0.48500 11.36800 23.53900
H  1.20000 8.17300 31.26700
H  -0.21400 5.83000 30.89700
H  2.31200 6.25600 31.52600
H  2.60700 5.47000 29.86200
H  1.81000 4.60700 31.23300
H  -1.67900 7.69200 30.75600
H  -1.15900 9.28300 31.03600
H  -1.64400 7.11000 32.87000
H  -1.59700 8.75600 33.22600
H  -1.23400 2.10300 27.30500
H  0.40800 2.14700 27.94200
H  -0.03700 1.16000 26.55200
H  0.24100 0.55100 22.90000
H  -1.06900 0.72900 24.01100
H  0.55500 0.72200 24.63900
H  -0.46600 7.44200 21.12400
H  0.49600 10.09800 21.48400
H  1.95200 8.73300 20.36200
H  1.58000 6.90400 20.31800
H  2.48100 7.81300 21.63000
H  -1.94200 9.90100 22.87900
H  -2.00300 8.80900 21.45400
H  -0.94500 11.34100 20.46100
H  -2.25000 11.64400 21.51600
H  -2.45200 10.55300 20.11500
H  0.51600 13.86300 25.25900
H  2.26600 13.55300 25.17000
H  1.57500 14.06900 26.64300
H  0.38500 10.94000 30.57800
H  3.08000 11.66000 33.69900
H  4.33500 11.69700 32.38500
H  3.59300 10.18900 32.97100
Mg 6.30800 53.66000 41.72900
C  5.08900 50.28400 41.36100
C  9.39100 52.66800 40.74000
C  7.06200 56.90800 41.31000
C  2.93500 54.53600 42.21300
N  7.07600 51.74100 40.99000
C  6.45900 50.45800 40.97700
C  7.48700 49.34300 40.73000
C  8.81100 50.12100 40.73600
C  8.43400 51.63100 40.76900
C  9.81900 49.68000 41.81700
C  7.33100 48.56700 39.38500
C  6.87000 49.21100 38.13100
H  6.30300 48.33900 36.99500
N  8.08300 54.66900 41.13900
C  9.23600 54.09700 40.81400
C  10.21300 55.12400 40.64700
C  9.53700 56.37800 40.78600
C  8.14500 56.03000 41.06800
C  11.77200 54.90700 40.57900
C  10.20400 57.76200 40.75200
O  11.41800 57.88400 40.61700
C  9.44800 59.01600 41.05900
N  5.19100 55.44500 41.74800
C  5.72200 56.66900 41.59000
C  4.74500 57.86400 41.78400
C  3.44000 57.03700 42.15700
C  3.85200 55.57500 41.99300
C  5.03900 58.83500 42.91600
C  2.32500 57.36100 41.18800
C  0.92300 57.47100 41.91100
N  4.38900 52.61200 41.92600
C  3.14400 53.10200 42.20700
C  2.23400 52.03500 42.58200
C  3.00200 50.87100 42.22100
C  4.25900 51.32200 41.74600
C  0.87600 52.19100 43.08700
C  2.90500 49.41500 42.18900
O  2.06900 48.59400 42.46600
C  4.34200 49.04100 41.57900
C  4.29000 48.16900 40.39600
O  3.86800 48.51000 39.32000
O  4.61700 46.95300 40.82400
C  4.44300 45.90300 39.87900
H  10.38000 52.30500 40.45700
H  7.20400 57.98500 41.42600
H  1.95800 54.78900 42.63000
H  7.41700 48.65400 41.57100
H  9.46100 50.00600 39.86900
H  9.56500 48.67000 42.14000
H  9.71800 50.41000 42.61900
H  10.81400 49.72600 41.37500
H  6.78400 47.64500 39.58300
H  8.32700 48.21000 39.12500
H  7.71700 49.75700 37.71400
H  6.18800 50.00400 38.44000
H  12.16700 55.19600 41.55300
H  12.20800 55.53000 39.79800
H  12.09600 53.88800 40.36700
H  9.99400 59.92200 40.79500
H  9.10100 58.91200 42.08700
H  8.54800 59.15800 40.46200
H  4.67100 58.32800 40.80100
H  3.12900 57.20100 43.18900
H  5.70300 58.19900 43.50200
H  4.11000 59.08100 43.43000
H  5.53400 59.76300 42.62900
H  2.29000 56.55600 40.45400
H  2.47900 58.28800 40.63600
H  0.14000 56.96000 41.35100
H  0.74900 58.54200 41.81300
H  0.89300 57.32800 42.99200
H  0.56200 51.16000 43.25000
H  0.37800 52.81400 42.34400
H  0.83900 52.67300 44.06300
H  5.01400 48.48500 42.23200
H  4.64500 44.89300 40.23600
H  4.99300 45.99800 38.94300
H  3.38200 45.82000 39.64500

