158

Mg 47.27000 24.23300 28.34100
C  48.23200 26.53200 30.69400
C  46.34200 22.08400 30.99000
C  47.11500 21.68900 26.20100
C  48.51600 26.31000 25.83900
N  47.46200 24.18700 30.53500
C  47.67900 25.35100 31.24100
C  47.37800 25.24900 32.71200
C  46.96100 23.70000 32.88100
C  46.81700 23.34900 31.41300
C  47.99700 22.75800 33.59600
C  46.20700 26.20900 33.12500
C  46.36500 26.71600 34.68700
H  45.23200 26.52000 35.66500
N  46.65600 22.25500 28.54500
C  46.26300 21.62400 29.67100
C  45.89300 20.26700 29.29500
C  46.05200 20.12900 27.84200
C  46.63000 21.40500 27.48300
C  45.47300 19.12200 30.38300
C  45.82500 18.85100 27.05100
O  46.00200 18.81500 25.84000
C  45.21000 17.60000 27.77900
N  48.02700 23.96500 26.36200
C  47.77800 22.81300 25.65000
C  47.89400 23.06300 24.13200
C  48.15900 24.59100 23.97400
C  48.34100 25.00000 25.45700
C  48.89900 22.07400 23.51200
C  47.17100 25.32400 23.15100
C  45.88100 25.72200 23.78100
N  48.23400 26.06200 28.24900
C  48.65300 26.81800 27.17600
C  49.04200 28.16000 27.63000
C  48.85300 28.13000 29.04400
C  48.44200 26.81600 29.32800
C  49.67800 29.26400 26.85200
C  48.92600 28.93500 30.27400
O  49.12800 30.17000 30.45800
C  48.64100 27.82700 31.38600
C  49.82700 27.69100 32.23500
O  50.91300 27.29100 31.88100
O  49.45700 27.99500 33.50900
C  50.46000 27.68100 34.53100
H  45.91000 21.53100 31.82700
H  46.93600 20.97200 25.39700
H  48.65400 27.09900 25.09700
H  48.28200 25.49700 33.26800
H  45.94000 23.51600 33.21400
H  48.60200 23.38600 34.25000
H  48.71400 22.23500 32.96400
H  47.49500 21.95600 34.13700
H  45.22500 25.75700 32.99000
H  46.04200 27.10400 32.52500
H  46.45200 27.80200 34.65600
H  47.32000 26.28600 34.99100
H  44.53100 18.81400 29.92900
H  45.16500 19.58100 31.32300
H  46.23300 18.36200 30.56500
H  45.07600 16.79700 27.05500
H  44.23500 17.84200 28.20400
H  45.76800 17.06400 28.54600
H  46.87300 22.87000 23.80300
H  49.20100 24.71500 23.68000
H  49.33500 21.41300 24.26100
H  49.60300 22.64700 22.91000
H  48.51100 21.41300 22.73700
H  46.93900 24.71400 22.27800
H  47.72900 26.23300 22.92500
H  45.22700 25.28600 23.02600
H  45.80500 26.80400 23.89500
H  45.72900 25.33200 24.78800
H  50.18500 28.76700 26.02400
H  50.35300 29.72000 27.57600
H  48.99000 30.02700 26.48800
H  47.79600 28.32700 31.85900
H  49.87600 27.34200 35.38600
H  50.92600 28.62200 34.82200
H  51.19700 26.95800 34.17800
Mg 47.01500 34.36100 27.23200
C  45.58100 32.55600 29.84500
C  47.11500 37.14200 29.23000
C  47.93700 36.05600 24.55900
C  46.39400 31.52600 25.15900
N  46.39200 34.80500 29.27800
C  45.94300 33.84300 30.20500
C  46.10500 34.41200 31.67200
C  46.30800 35.90500 31.40100
C  46.58500 36.02500 29.87700
C  45.11400 36.88300 31.74600
C  47.26500 33.68300 32.43500
C  47.00900 33.26000 33.85800
H  47.67800 34.14900 34.93800
N  47.44300 36.30300 26.95400
C  47.51900 37.31000 27.86700
C  48.06200 38.54700 27.27700
C  48.40200 38.18900 25.92200
C  47.92200 36.78100 25.73500
C  48.14700 39.77200 28.12200
C  49.20300 38.99200 24.91900
O  49.65700 38.52200 23.87900
C  49.68900 40.35100 25.38400
N  46.96400 33.87400 25.11100
C  47.53700 34.71900 24.28100
C  47.64000 34.17900 22.85100
C  47.36100 32.69200 23.07900
C  46.85200 32.64300 24.48600
C  46.64800 34.78000 21.89800
C  48.66900 31.70600 22.95100
C  50.06400 32.32300 23.18300
N  46.33200 32.34000 27.45900
C  46.04000 31.40100 26.51100
C  45.48400 30.26500 27.10800
C  45.22500 30.67900 28.45200
C  45.74300 31.98000 28.54800
C  45.12900 28.99600 26.41400
C  44.70900 30.21700 29.74400
O  44.29200 29.13000 30.09400
C  44.84800 31.48100 30.61400
C  45.32300 31.05200 31.96000
O  46.43600 30.59200 32.16800
O  44.35700 31.28700 32.89700
C  44.57000 30.72800 34.24700
H  47.20000 38.02100 29.87200
H  48.34200 36.49500 23.64500
H  46.24100 30.68800 24.47500
H  45.17100 34.12600 32.15700
H  47.16100 36.24400 31.98900
H  44.22000 36.32700 32.02600
H  44.96100 37.49300 30.85500
H  45.30600 37.60200 32.54200
H  48.15500 34.31200 32.44200
H  47.54800 32.73800 31.97100
H  47.43300 32.25800 33.92000
H  45.94400 33.25100 34.09000
H  48.20100 40.65500 27.48400
H  48.86700 39.80900 28.93900
H  47.20900 39.96600 28.64200
H  50.29800 40.91100 24.67400
H  50.12000 40.34600 26.38500
H  48.78500 40.94100 25.53800
H  48.62600 34.37200 22.42900
H  46.57500 32.23500 22.47700
H  47.15400 35.20400 21.03000
H  46.18800 35.57800 22.48100
H  45.85700 34.07800 21.63500
H  48.66700 31.25600 21.95800
H  48.57900 30.86000 23.63300
H  50.28400 32.72200 22.19300
H  50.72300 31.50900 23.48300
H  50.01400 33.09000 23.95500
H  44.63000 28.26700 27.05400
H  46.09900 28.56800 26.16300
H  44.62900 29.20500 25.46800
H  43.80200 31.74600 30.76600
H  45.15600 29.81100 34.19100
H  43.57100 30.58900 34.66200
H  45.19500 31.37700 34.85900

