158

Mg 45.19200 4.17700 47.14500
C  43.04600 6.91100 47.01100
C  42.56800 2.02500 46.72700
C  47.41900 1.73800 46.37700
C  47.97300 6.47800 47.26800
N  43.07500 4.44300 46.88700
C  42.37500 5.63600 46.95200
C  40.83800 5.33400 46.87700
C  40.75800 3.82200 46.86800
C  42.21600 3.39900 46.84800
C  39.93900 3.08800 48.01500
C  40.12700 6.11100 45.67800
C  40.86800 6.21200 44.32500
H  40.04500 6.40100 43.06100
N  45.02700 2.11100 46.67100
C  43.84200 1.43300 46.54000
C  44.19700 0.08500 46.36800
C  45.56300 -0.01700 46.08800
C  46.08000 1.31400 46.38700
C  43.25800 -1.03000 46.32800
C  46.26200 -1.25800 45.61700
O  45.60600 -2.30900 45.61000
C  47.67800 -1.36400 45.07500
N  47.44500 4.14900 46.98000
C  48.04700 3.00800 46.65500
C  49.61400 3.26400 46.45700
C  49.71900 4.71500 46.77100
C  48.30200 5.15700 47.07200
C  50.53400 2.30900 47.19800
C  50.37400 5.60700 45.64600
C  51.74500 5.09600 45.16700
N  45.47500 6.27500 47.17300
C  46.62800 7.04800 47.25600
C  46.13800 8.44900 47.21300
C  44.79400 8.40700 47.25300
C  44.42200 7.04700 47.19500
C  46.95400 9.60200 47.07400
C  43.62200 9.20000 47.26300
O  43.49100 10.42600 47.55500
C  42.45300 8.27300 47.11500
C  41.57800 8.44300 48.29600
O  41.58300 7.78000 49.31500
O  40.62400 9.40200 48.11400
C  39.64600 9.72800 49.17400
H  41.68100 1.38800 46.72300
H  48.08200 0.92600 46.07300
H  48.81600 7.17000 47.20700
H  40.29400 5.65400 47.76600
H  40.44900 3.45700 45.88800
H  39.21000 3.80400 48.39300
H  40.59000 2.84400 48.85400
H  39.36500 2.23100 47.66100
H  39.94300 7.13600 46.00200
H  39.16500 5.60000 45.63900
H  41.46900 5.30800 44.22400
H  41.61800 7.00200 44.35300
H  42.28700 -0.60600 46.58500
H  43.63300 -1.87600 46.90400
H  43.10600 -1.42600 45.32400
H  47.88400 -2.39100 44.77400
H  48.30800 -1.14200 45.93600
H  47.83600 -0.62100 44.29300
H  49.69000 3.11800 45.37900
H  50.28900 4.85100 47.69000
H  49.97400 1.80600 47.98700
H  51.33600 2.90000 47.63900
H  50.78200 1.46100 46.56000
H  50.49300 6.65000 45.94000
H  49.62000 5.63600 44.85900
H  52.46500 5.91300 45.19000
H  51.72100 4.66700 44.16500
H  52.15400 4.39400 45.89400
H  47.14300 10.13200 48.00700
H  46.45900 10.38000 46.49300
H  47.95200 9.44200 46.66500
H  42.01500 8.55000 46.15600
H  38.69200 10.10300 48.80500
H  40.00400 10.54100 49.80600
H  39.43600 8.91500 49.86900
Mg -2.45600 34.31300 26.53100
C  -3.97400 32.45000 29.13500
C  -1.05800 36.24700 29.00000
C  -1.16200 36.16800 24.22200
C  -4.14800 32.33200 24.18700
N  -2.67300 34.39200 28.89700
C  -3.12700 33.43800 29.70200
C  -2.93900 33.81100 31.16400
C  -2.13600 35.14800 31.04200
C  -1.91800 35.29600 29.53200
C  -2.90600 36.39400 31.66600
C  -2.22400 32.76800 32.03100
C  -2.92400 32.36700 33.33300
H  -2.25200 32.36100 34.69100
N  -1.19700 36.00100 26.55300
C  -0.82000 36.69600 27.65500
C  -0.09300 37.83500 27.24200
C  -0.15700 37.94900 25.87900
C  -0.82800 36.70600 25.46200
C  0.64000 38.73500 28.25700
C  0.27900 39.09700 24.93700
O  -0.05300 39.07900 23.75100
C  1.03400 40.26300 25.34100
N  -2.62200 34.21800 24.42700
C  -1.96600 35.05700 23.67800
C  -2.21200 34.77000 22.18100
C  -2.95700 33.42000 22.20900
C  -3.22000 33.26100 23.69200
C  -2.98000 35.88600 21.42000
C  -2.28100 32.30000 21.49400
C  -1.53400 31.30300 22.42500
N  -3.75300 32.74800 26.59000
C  -4.34000 32.04400 25.54300
C  -5.20200 31.06800 26.13500
C  -5.11300 31.14300 27.50600
C  -4.21500 32.23200 27.73300
C  -6.17600 30.23800 25.29600
C  -5.58700 30.62300 28.79500
O  -6.39700 29.73600 29.05200
C  -4.80600 31.45900 29.91700
C  -5.83200 32.13500 30.87500
O  -6.43300 33.18500 30.65100
O  -5.91500 31.46800 32.01200
C  -6.98000 31.87900 32.99800
H  -0.46100 36.74100 29.77000
H  -0.62900 36.69700 23.42900
H  -4.54100 31.65200 23.42900
H  -3.92600 34.08600 31.53600
H  -1.20700 35.18300 31.61100
H  -3.73300 36.65500 31.00600
H  -2.15000 37.15800 31.85000
H  -3.34200 36.20000 32.64600
H  -1.31000 33.18000 32.45700
H  -2.14800 31.84700 31.45200
H  -3.15800 31.31100 33.19800
H  -3.86600 32.89900 33.46600
H  1.37800 39.42800 27.85100
H  1.14700 38.13700 29.01500
H  -0.18300 39.40500 28.50900
H  0.52200 40.95400 26.01100
H  1.32600 40.83800 24.46200
H  1.97000 39.86300 25.73200
H  -1.22300 34.55400 21.77700
H  -3.99300 33.53200 21.88800
H  -3.98600 35.56900 21.14400
H  -2.38600 36.11500 20.53600
H  -3.04500 36.78500 22.03200
H  -1.53300 32.59800 20.76000
H  -3.11700 31.70000 21.13300
H  -2.26100 30.62300 22.87000
H  -0.96800 31.77400 23.22800
H  -0.90800 30.67700 21.78800
H  -5.67700 29.75100 24.45900
H  -6.96500 30.85700 24.86900
H  -6.63000 29.47700 25.93000
H  -4.30600 30.78700 30.61500
H  -6.44100 32.39300 33.79400
H  -7.37300 30.99700 33.50400
H  -7.84100 32.40100 32.58100

