158

Mg -8.55900 40.46600 42.79400
C  -7.35200 37.35000 41.72300
C  -6.06100 41.92500 40.75000
C  -10.08800 43.55200 43.14300
C  -11.53600 38.91200 43.76000
N  -6.89500 39.71700 41.33500
C  -6.55200 38.44800 41.21100
C  -5.18900 38.25700 40.41800
C  -4.70900 39.75100 40.17000
C  -5.90200 40.50900 40.90400
C  -3.29800 40.22300 40.84200
C  -5.54200 37.34700 39.13800
C  -4.54600 36.11400 39.02200
H  -4.89300 34.97300 38.04800
N  -8.07600 42.46600 42.22600
C  -6.99600 42.79100 41.38300
C  -6.90700 44.14700 41.30000
C  -8.04200 44.77700 41.85800
C  -8.84000 43.61100 42.41100
C  -5.70400 44.82900 40.51700
C  -8.42900 46.24100 41.71500
O  -7.75100 47.01300 41.04700
C  -9.81300 46.75400 42.19100
N  -10.52200 41.11000 43.42000
C  -10.85700 42.37800 43.56700
C  -12.36500 42.53900 43.94500
C  -12.82800 41.03100 44.10300
C  -11.60700 40.29000 43.78000
C  -12.55000 43.46400 45.20000
C  -14.05500 40.65300 43.32900
C  -15.05600 39.80100 44.11400
N  -9.25700 38.52900 42.87400
C  -10.44500 38.04300 43.32800
C  -10.45100 36.61500 43.24400
C  -9.21500 36.21600 42.74700
C  -8.59300 37.46100 42.43400
C  -11.53900 35.74100 43.78600
C  -8.35500 35.11300 42.41200
O  -8.49200 33.93500 42.66400
C  -7.08400 35.76700 41.76700
C  -5.87400 35.36100 42.54400
O  -5.47200 36.11700 43.45100
O  -5.39900 34.13500 42.21200
C  -4.30500 33.57000 43.01200
H  -5.19700 42.32300 40.21400
H  -10.60500 44.49700 43.32300
H  -12.47700 38.48000 44.10800
H  -4.47000 37.70100 41.02000
H  -4.77400 39.89700 39.09100
H  -3.34800 41.28400 41.08800
H  -2.54300 40.17100 40.05800
H  -3.08000 39.58500 41.69900
H  -5.47200 38.00100 38.26900
H  -6.54000 36.91100 39.15600
H  -4.58800 35.64700 40.00600
H  -3.53000 36.48300 38.87700
H  -5.99400 45.01500 39.48300
H  -4.78400 44.24500 40.51500
H  -5.38100 45.73700 41.02600
H  -9.99000 47.79800 41.93300
H  -9.82200 46.66000 43.27700
H  -10.56500 46.08200 41.77800
H  -12.80000 42.95500 43.03600
H  -12.91000 40.79700 45.16500
H  -12.88700 42.95000 46.10100
H  -13.26800 44.27200 45.06400
H  -11.59600 43.92500 45.45500
H  -13.69000 40.21500 42.40000
H  -14.63700 41.50300 42.97300
H  -14.88100 39.89200 45.18600
H  -15.03900 38.81000 43.66100
H  -16.02800 40.24200 43.89600
H  -11.28600 34.69300 43.62500
H  -12.44700 35.98200 43.23200
H  -11.70600 35.94500 44.84300
H  -6.91000 35.24200 40.82700
H  -4.47400 33.89400 44.03900
H  -3.28300 33.85100 42.75700
H  -4.42500 32.49200 43.11300
Mg 0.17100 42.34900 25.76300
C  2.58100 42.40000 28.32300
C  -2.02800 41.25300 28.13300
C  -2.10200 42.29800 23.48400
C  2.71500 43.15800 23.44800
N  0.31700 41.77600 27.97900
C  1.35200 41.99500 28.88100
C  0.87300 42.06300 30.31200
C  -0.51400 41.42200 30.24300
C  -0.77400 41.49000 28.70100
C  -0.71000 39.96200 30.68500
C  0.92900 43.50800 30.96100
C  1.88400 43.57700 32.19600
H  1.82600 42.48500 33.27600
N  -1.78000 41.83500 25.80100
C  -2.48700 41.35400 26.81400
C  -3.82300 41.00300 26.42100
C  -3.91500 41.52400 25.10300
C  -2.58000 41.99300 24.74600
C  -4.76900 40.43500 27.39800
C  -5.18400 41.58400 24.23200
O  -5.07400 42.04500 23.06500
C  -6.57400 41.13200 24.67400
N  0.26400 42.82700 23.73700
C  -0.84100 42.68400 22.97300
C  -0.50300 43.04700 21.50500
C  1.03500 43.44700 21.58600
C  1.42400 43.13400 22.97700
C  -0.91300 41.98200 20.52800
C  1.37000 44.92300 21.18600
C  1.01900 46.12900 22.14000
N  2.15600 42.59400 25.75900
C  3.06600 42.89900 24.78500
C  4.37700 43.04900 25.38800
C  4.22700 42.78200 26.74000
C  2.87200 42.57500 26.94400
C  5.59700 43.40000 24.56700
C  4.96300 42.66600 27.96300
O  6.19100 42.81800 28.20200
C  3.93900 42.51800 29.08000
C  4.33500 41.30000 29.87300
O  4.28400 40.13100 29.46600
O  4.83600 41.69300 31.10800
C  5.33200 40.61300 31.96600
H  -2.77800 40.89800 28.84200
H  -2.83300 42.10600 22.69500
H  3.46400 43.42200 22.69900
H  1.55100 41.36800 30.80800
H  -1.34000 41.98100 30.68400
H  0.12300 39.75100 31.35500
H  -0.94200 39.20700 29.93200
H  -1.57500 39.91400 31.34700
H  -0.06700 43.94100 31.05800
H  1.34200 44.17600 30.20600
H  1.72500 44.55700 32.64800
H  2.85400 43.59200 31.70000
H  -4.41700 39.61100 28.01800
H  -5.70500 40.08300 26.96500
H  -4.92900 41.26000 28.09200
H  -6.65200 40.07100 24.91100
H  -7.33100 41.49200 23.97700
H  -6.72400 41.59900 25.64700
H  -1.17000 43.90100 21.39300
H  1.63100 42.89100 20.86100
H  -1.35700 41.07800 20.94500
H  0.01200 41.64300 20.06300
H  -1.66400 42.36800 19.83900
H  0.94200 45.04600 20.19100
H  2.45200 45.02500 21.09400
H  1.71100 46.39900 22.93800
H  0.02400 46.02000 22.57200
H  0.84000 46.99000 21.49700
H  6.55300 43.34100 25.08700
H  5.45700 44.43900 24.26900
H  5.56600 42.85400 23.62400
H  3.88800 43.42200 29.68600
H  6.20100 40.15600 31.49400
H  4.63800 39.79300 32.15500
H  5.51700 41.13400 32.90600

