158

Mg 4.97500 54.99100 40.75300
C  4.55500 51.54000 40.68200
C  7.89900 54.67400 39.29800
C  4.97800 58.28100 40.40300
C  1.78900 55.14500 42.20600
N  5.99700 53.28100 39.94400
C  5.79500 51.91900 40.15000
C  6.92800 51.06200 39.69700
C  8.10500 52.12400 39.45100
C  7.26400 53.40600 39.53800
C  9.32600 52.09000 40.41400
C  6.66600 50.07800 38.44500
C  5.63800 50.51600 37.38200
H  6.16700 51.04000 36.03300
N  6.26300 56.33400 39.90000
C  7.46400 55.98100 39.41400
C  8.11200 57.12400 38.87000
C  7.40200 58.28100 39.31800
C  6.14300 57.66300 39.90400
C  9.45500 56.99200 38.08700
C  7.75600 59.66300 39.09800
O  8.77500 59.92700 38.49400
C  6.95600 60.82900 39.62800
N  3.49500 56.47100 41.07900
C  3.82600 57.76600 40.93200
C  2.63000 58.63300 41.39500
C  1.53200 57.63000 41.57100
C  2.26200 56.32400 41.60000
C  3.03600 59.54600 42.63900
C  0.39000 57.56700 40.48600
C  -0.99200 57.86500 40.96300
N  3.47000 53.61700 41.36700
C  2.28900 53.83900 41.99300
C  1.66200 52.58500 42.37400
C  2.57100 51.56300 41.87300
C  3.53600 52.30900 41.19600
C  0.42700 52.45200 43.17800
C  2.82500 50.18400 41.72000
O  2.11600 49.21900 42.12600
C  4.23300 50.07100 41.09200
C  4.12700 49.07100 40.01700
O  3.35200 49.22300 39.03000
O  4.85000 47.90800 40.33700
C  4.85700 46.83900 39.31500
H  8.89400 54.56900 38.86200
H  4.96000 59.35900 40.22600
H  0.78800 55.15500 42.64200
H  7.25200 50.37300 40.47600
H  8.54000 51.95700 38.46600
H  10.17400 51.79000 39.79900
H  9.28900 51.45900 41.30200
H  9.44500 53.09400 40.82000
H  6.42100 49.09800 38.85600
H  7.62600 50.10800 37.93000
H  4.87500 51.21400 37.72800
H  5.21800 49.54700 37.11200
H  10.12700 56.89700 38.93900
H  9.83400 57.91500 37.64800
H  9.46800 56.08800 37.47700
H  7.55600 61.73300 39.51800
H  6.65600 60.56800 40.64300
H  5.99400 60.93700 39.12900
H  2.40100 59.34300 40.60100
H  1.19400 57.69200 42.60500
H  2.65600 59.13700 43.57400
H  2.67200 60.57300 42.59700
H  4.09600 59.61200 42.88600
H  0.20100 56.60200 40.01500
H  0.51500 58.37800 39.76800
H  -1.28300 58.82900 40.54600
H  -0.95700 57.91000 42.05100
H  -1.70800 57.08000 40.71800
H  0.17100 51.42400 42.92100
H  -0.41600 53.13700 43.08900
H  0.79200 52.41000 44.20400
H  5.02600 49.78700 41.78400
H  4.57400 47.25200 38.34700
H  4.18400 46.04000 39.62500
H  5.83900 46.37400 39.22400
Mg -2.04500 34.68900 27.50700
C  -3.72900 33.20800 30.22900
C  -0.72500 36.96600 29.71100
C  -0.80100 36.29700 24.98200
C  -3.80100 32.54400 25.38600
N  -2.38300 35.15300 29.67400
C  -2.89800 34.25600 30.58500
C  -2.71800 34.73300 32.06300
C  -1.89100 36.08400 31.94300
C  -1.63600 36.10700 30.35300
C  -2.65300 37.43500 32.48000
C  -1.99000 33.70500 33.00000
C  -1.42900 34.28200 34.37000
H  -1.59700 33.46400 35.56300
N  -0.94100 36.37000 27.40100
C  -0.41800 37.16900 28.39300
C  0.42500 38.25200 27.81600
C  0.34000 38.03600 26.38200
C  -0.55100 36.83600 26.19300
C  1.01400 39.40100 28.69900
C  1.00300 38.91000 25.24400
O  0.97200 38.70600 24.05600
C  1.77400 40.15800 25.55600
N  -2.30100 34.47300 25.43500
C  -1.57500 35.18300 24.59500
C  -1.76000 34.71400 23.14800
C  -2.67000 33.44600 23.30100
C  -2.83700 33.40800 24.81200
C  -2.21600 35.80400 22.18400
C  -1.87400 32.07800 22.89600
C  -2.67200 30.97600 22.28400
N  -3.54000 33.20300 27.74500
C  -4.15600 32.42700 26.77100
C  -5.03600 31.46100 27.36400
C  -4.90300 31.71200 28.77900
C  -4.03500 32.81000 28.87300
C  -5.81000 30.48400 26.72700
C  -5.29800 31.28000 30.06300
O  -5.98500 30.34900 30.47200
C  -4.45400 32.18600 31.07200
C  -5.34900 32.71800 32.08500
O  -6.18300 33.57000 31.83700
O  -5.22000 32.01400 33.22100
C  -6.30100 32.00800 34.13000
H  -0.10000 37.58100 30.36300
H  -0.40200 36.88100 24.15100
H  -4.34200 31.86500 24.72400
H  -3.70200 34.79500 32.52700
H  -0.94400 36.05300 32.48200
H  -2.15200 37.71600 33.40600
H  -3.69600 37.22600 32.71700
H  -2.57000 38.26900 31.78300
H  -1.11700 33.30600 32.48300
H  -2.55300 32.79100 33.19100
H  -1.81700 35.24800 34.69400
H  -0.36300 34.47600 34.24900
H  2.06000 39.13300 28.84900
H  0.46800 39.36800 29.64200
H  0.89200 40.35700 28.19100
H  1.09500 40.86600 26.03100
H  2.13600 40.66800 24.66400
H  2.61600 39.85000 26.17600
H  -0.76100 34.39500 22.85300
H  -3.63700 33.55300 22.80800
H  -2.20900 36.79000 22.64900
H  -3.14900 35.56900 21.67000
H  -1.42000 35.81700 21.44000
H  -1.25400 31.69700 23.70700
H  -1.12000 32.25000 22.12800
H  -3.71600 31.28200 22.21300
H  -2.45700 30.10100 22.89800
H  -2.32000 30.70400 21.28900
H  -5.82300 29.60600 27.37300
H  -5.36300 30.24400 25.76300
H  -6.80900 30.81900 26.44700
H  -3.72900 31.54000 31.56700
H  -5.99400 32.63900 34.96400
H  -6.56100 31.01200 34.48900
H  -7.15600 32.51000 33.67700

