158

Mg 46.81400 24.77800 28.40200
C  47.23900 26.68900 31.29500
C  46.00000 22.08200 30.47400
C  47.04600 22.80900 25.79100
C  47.88100 27.40800 26.47300
N  46.61600 24.41000 30.65300
C  46.80000 25.39200 31.54500
C  46.37200 24.84300 32.97900
C  46.04300 23.37600 32.69800
C  46.17500 23.26700 31.20100
C  46.98000 22.31500 33.45500
C  45.20200 25.62800 33.59700
C  45.49800 26.24800 34.96100
H  44.37800 26.43400 35.98600
N  46.52700 22.74500 28.18600
C  46.20500 21.78800 29.08500
C  46.04400 20.41100 28.42900
C  46.17700 20.68500 27.03000
C  46.64000 22.13100 26.96800
C  45.66800 19.11300 29.14200
C  45.95400 19.83200 25.87000
O  46.20900 20.20600 24.71300
C  45.74300 18.39600 26.14100
N  47.40600 25.10300 26.43000
C  47.37100 24.13900 25.52800
C  47.70900 24.63400 24.09000
C  47.55100 26.15600 24.32600
C  47.57100 26.26000 25.79100
C  49.09400 24.32800 23.56800
C  46.31600 26.89000 23.70700
C  46.54700 28.15700 22.77500
N  47.46500 26.60700 28.76600
C  47.81000 27.61300 27.89400
C  48.35800 28.77300 28.65600
C  48.12400 28.42700 29.94200
C  47.59500 27.10600 29.98700
C  48.65300 30.11400 28.22200
C  48.27500 28.94000 31.34700
O  48.77400 29.97500 31.75400
C  47.72500 27.80300 32.24300
C  48.84600 27.33400 33.15800
O  49.77900 26.65200 32.81700
O  48.61600 27.83200 34.46400
C  49.56000 27.69200 35.51200
H  45.75100 21.20300 31.07200
H  47.25800 22.18200 24.92300
H  48.20300 28.31400 25.95600
H  47.27200 24.70000 33.57600
H  44.98000 23.22000 32.88100
H  46.84200 22.51800 34.51700
H  47.98200 22.49400 33.06500
H  46.61700 21.30100 33.28900
H  44.30300 25.03600 33.77200
H  44.84300 26.40700 32.92400
H  46.06800 27.16200 34.79700
H  46.17000 25.54400 35.45200
H  44.67500 18.88300 28.75500
H  45.54300 19.19800 30.22200
H  46.45600 18.38600 28.94400
H  44.75500 18.27100 26.58400
H  46.57400 17.91500 26.65700
H  45.68200 17.87800 25.18300
H  47.02600 24.31600 23.30200
H  48.31100 26.66200 23.73100
H  48.90800 23.52500 22.85500
H  49.64900 23.85200 24.37700
H  49.61800 25.15800 23.09400
H  45.71100 27.23900 24.54400
H  45.78800 26.13700 23.12300
H  47.62300 28.28100 22.66100
H  46.02800 29.02200 23.18900
H  46.03800 27.90800 21.84400
H  48.85500 30.04600 27.15300
H  49.57300 30.14200 28.80600
H  47.84900 30.80400 28.47900
H  46.87200 28.20100 32.79300
H  49.81300 28.69700 35.85100
H  50.54000 27.27700 35.27600
H  49.27000 27.18100 36.43000
Mg -1.79600 34.34700 26.83200
C  -3.22500 32.51300 29.57300
C  -0.31400 36.34600 29.04400
C  -0.84400 36.13600 24.13400
C  -3.54500 32.14300 24.72900
N  -1.80300 34.29700 29.06700
C  -2.38700 33.55000 29.98700
C  -2.06100 33.96300 31.46600
C  -1.10700 35.22400 31.19700
C  -1.06100 35.29700 29.63600
C  -1.47000 36.59700 31.91500
C  -1.43000 32.89400 32.29300
C  -2.23000 32.51400 33.62300
H  -1.45600 32.22600 34.88700
N  -0.66900 35.98400 26.70800
C  -0.06500 36.69300 27.70000
C  0.71500 37.68300 27.14600
C  0.53800 37.69900 25.73800
C  -0.45700 36.63100 25.45300
C  1.48300 38.69000 28.05300
C  1.13100 38.63600 24.67000
O  0.74700 38.70700 23.47200
C  2.24000 39.54200 25.00800
N  -2.19200 34.20300 24.73300
C  -1.62400 35.03700 23.78700
C  -1.94800 34.59800 22.34300
C  -2.52100 33.17900 22.63300
C  -2.73200 33.10300 24.14900
C  -3.03700 35.53300 21.71900
C  -1.59200 32.06200 22.02900
C  -0.12300 32.02100 22.59600
N  -3.06900 32.71100 27.02500
C  -3.75200 31.99400 26.05300
C  -4.63300 31.03300 26.66700
C  -4.39400 31.18900 28.02000
C  -3.45000 32.20500 28.23900
C  -5.55700 30.00500 26.13900
C  -4.78000 30.68200 29.38800
O  -5.59000 29.82500 29.70900
C  -4.04600 31.51700 30.46000
C  -5.09800 32.08500 31.33000
O  -5.68000 33.12000 31.10700
O  -5.36100 31.25800 32.43800
C  -6.48600 31.72700 33.28200
H  0.24800 36.89900 29.80000
H  -0.46600 36.66700 23.25800
H  -4.02700 31.38800 24.10400
H  -3.02700 34.27300 31.86500
H  -0.08200 35.12100 31.55200
H  -2.04300 37.18200 31.19600
H  -0.64100 37.17600 32.32200
H  -2.19500 36.45600 32.71600
H  -0.51100 33.21300 32.78500
H  -1.31300 32.02400 31.64700
H  -2.58700 31.50100 33.44100
H  -3.11600 33.11800 33.81700
H  0.79100 38.72500 28.89500
H  1.74800 39.66800 27.65100
H  2.39100 38.13800 28.29800
H  1.89200 40.21800 25.78800
H  2.48200 40.19500 24.17000
H  3.06000 39.01800 25.50000
H  -0.99400 34.62200 21.81600
H  -3.48400 32.98700 22.16100
H  -3.28400 36.26100 22.49200
H  -3.90500 34.98200 21.35500
H  -2.74800 36.04400 20.80100
H  -1.49500 32.25700 20.96100
H  -2.00900 31.07200 22.21000
H  0.03200 32.70800 23.42900
H  0.66500 32.09200 21.84700
H  0.07400 31.04000 23.02800
H  -5.36400 29.00100 26.51700
H  -5.46700 30.00600 25.05200
H  -6.54500 30.34900 26.44700
H  -3.36800 30.88200 31.03100
H  -7.21800 32.23000 32.65000
H  -6.00400 32.44300 33.94800
H  -6.88000 30.98500 33.97600

