158

Mg 7.55400 2.95000 27.66800
C  9.15200 1.94000 30.68900
C  5.46500 4.78700 29.82100
C  6.48400 4.48000 24.95300
C  9.68700 0.88400 25.83900
N  7.46200 3.37600 29.99100
C  8.20600 2.82800 30.96200
C  8.01300 3.51100 32.30000
C  6.63400 4.31300 32.05000
C  6.44900 4.07800 30.53200
C  5.47100 3.74400 33.00100
C  9.16100 4.46500 32.67200
C  9.10000 5.05500 34.07200
H  9.93900 4.49700 35.29900
N  6.03500 4.32800 27.35200
C  5.27900 4.91300 28.37600
C  4.30000 5.91600 27.70900
C  4.61800 5.84100 26.33100
C  5.70900 4.89700 26.11900
C  3.31300 6.76600 28.53900
C  4.00000 6.68000 25.26000
O  4.31800 6.57700 24.05800
C  3.07100 7.84200 25.57600
N  7.89500 2.60800 25.71600
C  7.38500 3.43500 24.77400
C  7.95100 3.06800 23.33300
C  9.05200 1.99000 23.65000
C  8.89600 1.82400 25.12300
C  6.79500 2.57000 22.42500
C  10.48200 2.24800 23.11700
C  10.94200 1.59300 21.83700
N  8.96100 1.50000 28.12300
C  9.75800 0.77100 27.24500
C  10.64700 -0.10300 28.03100
C  10.47000 0.44800 29.39900
C  9.48300 1.39200 29.35400
C  11.64300 -1.09800 27.46700
C  10.95700 0.33100 30.77700
O  11.84300 -0.47000 31.17200
C  10.09000 1.23600 31.64600
C  9.25300 0.36800 32.61100
O  8.22600 -0.23400 32.37100
O  9.83200 0.37200 33.83100
C  9.18200 -0.19600 35.01400
H  4.92000 5.43600 30.51000
H  6.16600 5.02700 24.06300
H  10.34700 0.24500 25.24900
H  7.96100 2.79100 33.11700
H  6.84700 5.32400 32.39600
H  4.53700 3.76500 32.43900
H  5.36500 4.46600 33.81100
H  5.70100 2.75000 33.38300
H  9.19300 5.29000 31.96100
H  10.05100 3.83900 32.61600
H  8.11100 4.88600 34.49600
H  9.25500 6.12400 33.92300
H  3.16200 6.32400 29.52400
H  2.34700 6.60200 28.06100
H  3.53900 7.83200 28.54800
H  2.57500 8.15800 24.65900
H  3.68400 8.59400 26.07400
H  2.27000 7.50000 26.23100
H  8.38800 3.97600 22.91800
H  8.72700 1.03400 23.24000
H  5.81000 2.54900 22.89100
H  6.94000 1.61600 21.91800
H  6.69700 3.30100 21.62100
H  11.20100 1.98700 23.89300
H  10.62800 3.30700 22.90300
H  10.18100 0.98700 21.34500
H  11.75700 0.90000 22.04500
H  11.27600 2.41600 21.20500
H  11.51900 -2.02900 28.02000
H  12.62200 -0.65200 27.63800
H  11.50100 -1.39200 26.42700
H  10.66900 2.00000 32.16300
H  9.78500 0.30600 35.77100
H  9.20600 -1.27400 35.17000
H  8.15800 0.17300 35.06300
Mg 37.02700 48.96500 24.97500
C  37.30400 47.04100 27.83900
C  35.18300 51.25800 26.62300
C  36.29000 50.51900 21.97000
C  38.36600 46.27500 23.10600
N  36.19200 48.99300 26.96000
C  36.66900 48.28800 27.97500
C  36.15800 48.84100 29.28100
C  35.24000 50.04900 28.89700
C  35.44700 50.07400 27.39200
C  33.72300 50.02400 29.32400
C  37.39200 49.23200 30.15500
C  37.01500 49.72800 31.52900
H  35.62600 49.64500 32.12300
N  36.08800 50.75700 24.47300
C  35.40800 51.59000 25.30100
C  35.14000 52.80200 24.63300
C  35.21600 52.51500 23.23100
C  35.84200 51.19300 23.17200
C  34.61600 54.05400 25.37200
C  34.92000 53.43900 22.02600
O  34.95500 53.02300 20.89700
C  34.66700 54.87900 22.27500
N  37.09400 48.32800 22.79000
C  36.86400 49.24500 21.80600
C  37.33800 48.65100 20.46300
C  38.20700 47.43900 20.86500
C  37.86100 47.32600 22.38100
C  36.20500 48.30700 19.40800
C  39.71700 47.45700 20.52800
C  40.20400 46.92300 19.19300
N  37.79100 47.12700 25.37300
C  38.24600 46.11400 24.49100
C  38.69600 44.98600 25.33800
C  38.38900 45.33600 26.67700
C  37.70900 46.58900 26.60500
C  39.36200 43.68500 24.82700
C  38.36400 44.82600 28.05800
O  38.70900 43.78200 28.56800
C  37.78400 45.98900 28.87800
C  36.57800 45.50000 29.67000
O  35.41300 45.40600 29.30400
O  36.90000 45.66000 30.97900
C  35.89600 45.08600 31.92800
H  34.64800 52.02700 27.18500
H  36.30500 51.16700 21.09000
H  38.87000 45.60200 22.40800
H  35.64000 47.96500 29.67100
H  35.64500 51.01800 29.19000
H  33.46200 50.90900 29.90400
H  33.67200 49.16900 29.99800
H  33.10600 49.77400 28.46000
H  38.07200 49.97000 29.73000
H  37.95600 48.31600 30.32900
H  37.33500 50.76900 31.47400
H  37.68400 49.14600 32.16300
H  33.77500 54.57300 24.91100
H  35.42700 54.78100 25.39700
H  34.27600 53.80700 26.37800
H  33.70700 55.05200 22.76200
H  34.78600 55.43600 21.34500
H  35.44300 55.14400 22.99400
H  38.02400 49.43100 20.13200
H  37.69000 46.54300 20.52000
H  35.19200 48.28100 19.80800
H  36.63200 47.41300 18.95200
H  36.15100 49.02900 18.59300
H  40.28900 47.02000 21.34600
H  40.19300 48.43600 20.59000
H  39.32500 46.54500 18.67100
H  41.09000 46.29600 19.29500
H  40.47800 47.81600 18.63300
H  39.63600 43.88800 23.79200
H  38.65800 42.85300 24.84300
H  40.33900 43.49000 25.27000
H  38.62100 46.30400 29.50000
H  35.85700 45.56500 32.90700
H  36.24700 44.10100 32.23600
H  34.90400 44.94900 31.49700

