158

Mg 48.73800 35.68000 27.30500
C  46.57200 34.24500 29.77500
C  48.90000 38.53300 29.31800
C  50.27400 37.15700 24.91800
C  47.93300 32.97000 25.23400
N  47.94400 36.19000 29.36800
C  47.11100 35.48300 30.18900
C  46.99100 36.31300 31.53000
C  47.53400 37.71900 31.24200
C  48.19300 37.47900 29.90700
C  46.51000 38.82500 31.21100
C  47.54800 35.54500 32.73600
C  46.59700 35.44100 33.90900
H  46.64000 36.61600 34.92900
N  49.60700 37.55600 27.16400
C  49.52800 38.60800 28.07300
C  50.17900 39.72100 27.53600
C  50.61600 39.34600 26.19100
C  50.15900 37.91600 26.02900
C  50.47100 40.99700 28.32800
C  51.33300 40.12400 25.10500
O  51.74200 39.69500 24.02600
C  51.61000 41.53100 25.30400
N  49.09500 35.11100 25.35100
C  49.86300 35.88600 24.56300
C  50.05500 35.23800 23.12500
C  49.53300 33.75700 23.43700
C  48.83000 33.90100 24.79200
C  49.21400 35.98500 22.10500
C  50.75000 32.75600 23.40300
C  51.27000 32.63000 21.98800
N  47.56700 33.97300 27.41000
C  47.29500 32.96100 26.45600
C  46.28200 32.05000 26.91600
C  45.94900 32.52700 28.21700
C  46.77600 33.66500 28.44800
C  45.77900 30.86300 26.14300
C  45.13200 32.29000 29.37200
O  44.30500 31.46100 29.67400
C  45.53100 33.34500 30.44300
C  46.09000 32.60100 31.51600
O  47.17400 32.08000 31.58400
O  45.18600 32.55400 32.50500
C  45.53900 32.01700 33.84300
H  48.95400 39.42700 29.94200
H  50.80800 37.60400 24.07700
H  47.70600 32.12800 24.57700
H  45.90600 36.29800 31.62500
H  48.32100 38.00600 31.93900
H  46.57000 39.40600 30.29100
H  46.88700 39.51700 31.96400
H  45.49700 38.55900 31.51100
H  48.37500 36.16600 33.07900
H  47.89200 34.55200 32.44800
H  46.80600 34.57600 34.53900
H  45.55900 35.34400 33.59300
H  50.22200 40.86100 29.38000
H  50.01400 41.85300 27.83300
H  51.53200 41.17200 28.14900
H  52.04900 42.03100 24.44000
H  52.37800 41.69700 26.05800
H  50.77500 42.18500 25.55600
H  51.08800 35.21800 22.77900
H  48.82700 33.36100 22.70700
H  49.62700 36.10600 21.10400
H  49.10700 36.96600 22.56800
H  48.28700 35.42100 21.99700
H  50.40600 31.77900 23.74300
H  51.58000 33.02200 24.05700
H  50.70400 33.16100 21.22200
H  51.15700 31.60800 21.62700
H  52.30900 32.95800 21.95100
H  44.82300 30.41400 26.41100
H  46.46600 30.01700 26.15700
H  45.68600 31.09400 25.08100
H  44.56900 33.78400 30.70800
H  45.72100 32.73000 34.64700
H  46.41000 31.36400 33.78200
H  44.62800 31.52700 34.18800
Mg 42.47900 41.86200 26.40900
C  41.46900 44.19700 28.82300
C  43.52100 39.78300 28.90600
C  43.39100 39.52800 24.14800
C  41.86300 44.21700 23.91000
N  42.47500 42.04200 28.61600
C  41.92900 43.00000 29.39200
C  41.87100 42.58200 30.91300
C  42.51300 41.15000 30.91100
C  42.92200 41.00100 29.39500
C  43.76500 40.97100 31.84400
C  40.47100 42.59200 31.56000
C  40.20800 43.44700 32.79800
H  39.37900 42.90000 33.93200
N  43.35600 39.96900 26.51700
C  43.69800 39.29700 27.61100
C  44.14400 37.99800 27.31200
C  43.88300 37.77700 25.92800
C  43.50400 39.14000 25.48700
C  44.66200 37.06800 28.39200
C  44.08300 36.48500 25.07900
O  43.72400 36.45000 23.89700
C  44.43900 35.18500 25.87600
N  42.69500 41.90000 24.30800
C  42.96500 40.79600 23.58700
C  42.87500 41.06200 22.09800
C  42.29300 42.49500 22.04100
C  42.31200 42.93900 23.52700
C  44.26700 40.77800 21.36700
C  40.87200 42.73800 21.39800
C  40.71700 43.89900 20.40800
N  41.81000 43.87500 26.34500
C  41.63900 44.64100 25.26600
C  41.01500 45.91000 25.68800
C  40.84000 45.72500 27.09600
C  41.40800 44.50700 27.41800
C  40.63600 47.00900 24.84500
C  40.44400 46.42400 28.27100
O  40.01900 47.55000 28.40600
C  40.86300 45.38100 29.48000
C  41.85600 46.03300 30.47700
O  43.08000 45.90800 30.46000
O  41.16200 46.59800 31.53600
C  42.00500 47.02000 32.67400
H  43.74700 39.19200 29.79700
H  43.60300 38.79100 23.37200
H  41.63900 44.84800 23.04800
H  42.45400 43.30000 31.48900
H  41.83900 40.31400 31.10300
H  43.63100 41.57600 32.74000
H  44.65800 41.37600 31.36800
H  43.97100 39.94500 32.14800
H  40.06900 41.61400 31.82500
H  39.82100 42.98900 30.78000
H  39.79600 44.44000 32.61500
H  41.17100 43.73900 33.21700
H  43.84900 36.40500 28.68500
H  45.15100 37.59700 29.21000
H  45.33900 36.29900 28.02000
H  45.51600 35.18500 26.04400
H  44.23300 34.33400 25.22800
H  43.77600 34.99900 26.72000
H  42.12100 40.37600 21.71100
H  43.04800 43.06300 21.49800
H  45.11100 40.75100 22.05600
H  44.47100 41.59200 20.67100
H  44.22200 39.81400 20.86100
H  40.21400 42.90300 22.25200
H  40.39200 41.86700 20.95200
H  39.94700 44.47500 20.92000
H  40.04400 43.59100 19.60800
H  41.52400 44.47800 19.95900
H  40.57400 46.59600 23.83800
H  41.35300 47.82900 24.89000
H  39.64000 47.40900 25.03900
H  40.01600 45.03600 30.07400
H  43.05200 47.15300 32.40100
H  41.93300 46.30600 33.49400
H  41.62800 47.98000 33.02700

