158

Mg 0.14600 7.70800 26.93400
C  0.59900 9.74500 29.73700
C  0.22000 4.92200 28.97000
C  0.10800 5.85900 24.15200
C  0.76600 10.52800 24.96300
N  0.20800 7.37200 29.03800
C  0.37400 8.35800 30.01500
C  0.34800 7.77300 31.40800
C  0.40900 6.20800 31.17900
C  0.29600 6.16600 29.60400
C  1.66300 5.51800 31.67000
C  -0.86600 8.17100 32.18100
C  -0.67400 8.49700 33.63100
H  0.56800 7.93700 34.31100
N  0.02600 5.62000 26.60100
C  0.03200 4.65900 27.58800
C  -0.10900 3.33900 26.92800
C  -0.04700 3.56500 25.49100
C  -0.04300 5.08500 25.33100
C  -0.24200 2.05300 27.77600
C  -0.02600 2.59700 24.34600
O  0.08700 2.94200 23.20500
C  -0.04700 1.09800 24.65900
N  0.18600 8.16800 24.89200
C  0.10300 7.22200 23.97300
C  0.42500 7.79400 22.60000
C  0.27000 9.33100 22.82300
C  0.40600 9.40100 24.31500
C  1.74000 7.49100 22.03500
C  -1.17700 9.84800 22.28700
C  -1.16200 10.06700 20.80700
N  0.56800 9.82300 27.23500
C  0.85500 10.80000 26.35200
C  1.16700 12.04700 26.98200
C  1.11900 11.67900 28.39100
C  0.69100 10.31200 28.44300
C  1.53600 13.38100 26.31800
C  1.42700 12.12700 29.80500
O  1.93100 13.16700 30.24300
C  0.89900 10.90400 30.72300
C  2.11800 10.54800 31.60800
O  3.15700 9.96900 31.22600
O  1.91300 11.03100 32.81000
C  3.00300 11.06600 33.72500
H  0.25900 4.05900 29.63900
H  0.03700 5.22100 23.26900
H  0.80800 11.40600 24.31500
H  1.22200 8.14500 31.94300
H  -0.44300 5.66700 31.59000
H  1.42900 4.65200 32.28900
H  2.19100 6.22600 32.30800
H  2.29700 5.20100 30.84200
H  -1.61900 7.38900 32.09200
H  -1.27000 9.09800 31.77200
H  -1.51100 8.09700 34.20300
H  -0.56200 9.56200 33.83500
H  -0.96000 2.14700 28.59000
H  0.76500 1.73100 28.04100
H  -0.72900 1.26400 27.20300
H  0.82800 1.04500 25.30600
H  0.15500 0.57800 23.72200
H  -1.01900 0.80400 25.05300
H  -0.30800 7.58000 21.82200
H  1.02700 9.97800 22.37900
H  2.43600 8.27700 22.32700
H  1.57500 7.43500 20.95900
H  2.16900 6.54900 22.37500
H  -1.41600 10.77600 22.80500
H  -1.94700 9.09800 22.47000
H  -0.23300 9.70200 20.36800
H  -1.23200 11.13100 20.58500
H  -1.96600 9.41600 20.46300
H  2.31100 13.39200 25.55200
H  1.84200 14.21800 26.94500
H  0.62600 13.67900 25.79700
H  0.03100 11.21000 31.30600
H  3.11600 12.13300 33.92000
H  3.96500 10.62700 33.46200
H  2.60000 10.72300 34.67800
Mg -4.96900 25.02900 26.58900
C  -3.46900 26.42500 29.53100
C  -6.81400 23.06200 28.71600
C  -6.22600 23.52300 23.95100
C  -2.52300 26.75800 24.64200
N  -4.99000 24.76700 28.89300
C  -4.40500 25.49900 29.86700
C  -4.99500 25.16000 31.23800
C  -5.85600 23.85200 30.98600
C  -5.87000 23.88600 29.39500
C  -5.27500 22.49800 31.63800
C  -5.72000 26.36600 31.80300
C  -6.12400 26.42700 33.31900
H  -5.75500 25.17300 34.18500
N  -6.30200 23.54300 26.35200
C  -7.00900 22.87600 27.36900
C  -8.03500 22.08200 26.80200
C  -7.94800 22.20600 25.39500
C  -6.77300 23.04600 25.18400
C  -9.09100 21.36200 27.64400
C  -8.77200 21.53500 24.33900
O  -8.66500 21.73500 23.15700
C  -9.90700 20.62700 24.75100
N  -4.53500 25.19000 24.56200
C  -5.17400 24.40100 23.65800
C  -4.42100 24.48400 22.23400
C  -3.31600 25.55800 22.48700
C  -3.46500 25.93400 23.96600
C  -3.95100 23.18500 21.48600
C  -3.35300 26.87400 21.68000
C  -1.97800 27.26200 20.97900
N  -3.40400 26.32900 26.94600
C  -2.56600 27.03000 26.05100
C  -1.75000 27.93300 26.81100
C  -1.98400 27.71800 28.16000
C  -3.02200 26.70200 28.21100
C  -0.71300 28.88100 26.28000
C  -1.75400 28.16800 29.48600
O  -1.08600 29.05300 29.96600
C  -2.81900 27.43100 30.47400
C  -2.06500 26.78000 31.61200
O  -1.45800 25.69700 31.56300
O  -2.30100 27.51200 32.81600
C  -1.83300 26.96200 34.09900
H  -7.44300 22.47700 29.39000
H  -6.57500 23.18700 22.97300
H  -1.75200 27.24800 24.04400
H  -4.19200 24.95900 31.94700
H  -6.84800 23.92100 31.43200
H  -6.06400 21.77700 31.85200
H  -4.57100 22.65800 32.45500
H  -4.62700 22.08700 30.86400
H  -6.65700 26.48400 31.25900
H  -5.13500 27.27700 31.67900
H  -7.16500 26.72300 33.45000
H  -5.46400 27.18900 33.73500
H  -9.09000 20.27700 27.54000
H  -10.09700 21.60600 27.30300
H  -9.10400 21.55300 28.71700
H  -9.58200 19.70100 25.22500
H  -10.48600 20.40900 23.85300
H  -10.56800 21.24300 25.36100
H  -5.19100 24.95100 21.62000
H  -2.39900 25.01800 22.24900
H  -2.92700 23.17100 21.11100
H  -4.48200 23.13600 20.53600
H  -4.20100 22.30200 22.07500
H  -3.72700 27.74900 22.21300
H  -4.10400 26.75100 20.89900
H  -1.18600 26.62900 21.38000
H  -1.72100 28.32100 21.00400
H  -2.12600 27.13700 19.90600
H  0.19800 28.91000 26.87700
H  -1.15200 29.86700 26.12500
H  -0.43600 28.51100 25.29300
H  -3.48900 28.22700 30.79800
H  -2.07800 25.94400 34.40000
H  -2.15300 27.64100 34.88900
H  -0.74400 26.94200 34.15000

