158

Mg 49.02500 35.14100 27.08900
C  47.00300 34.01300 29.81000
C  49.61200 37.95100 28.94700
C  50.05700 36.53500 24.33900
C  47.80000 32.39900 25.23000
N  48.46000 35.78200 29.25000
C  47.68700 35.15000 30.15200
C  47.67300 35.92200 31.44900
C  48.08200 37.37100 31.00500
C  48.78600 37.01600 29.65300
C  46.88500 38.46000 30.97100
C  48.60500 35.33800 32.58700
C  47.88700 35.05200 33.93800
H  46.91500 36.07800 34.41300
N  49.94600 36.89300 26.74200
C  50.10800 37.92700 27.59600
C  50.86800 39.01200 26.97700
C  50.87900 38.72600 25.55800
C  50.27400 37.36900 25.46800
C  51.26000 40.21100 27.75200
C  51.47800 39.49000 24.44300
O  51.42000 39.01600 23.31200
C  52.15900 40.78000 24.63900
N  48.98100 34.47700 25.06500
C  49.55900 35.29200 24.13400
C  49.32300 34.68000 22.76100
C  48.82500 33.20100 23.05900
C  48.56300 33.35500 24.58600
C  48.23900 35.43400 21.92700
C  49.83700 32.01500 22.79500
C  49.66300 31.26100 21.46500
N  47.75200 33.46500 27.44000
C  47.43100 32.39500 26.61000
C  46.67400 31.39700 27.34500
C  46.43100 31.98000 28.61700
C  47.07900 33.24900 28.59700
C  46.03300 30.04600 26.88900
C  45.58200 31.88500 29.80300
O  44.69600 30.99200 30.11100
C  46.02700 33.13400 30.62900
C  46.63800 32.57200 31.93100
O  47.75800 32.11200 32.04800
O  45.68000 32.39400 32.93900
C  46.06700 31.52800 34.01000
H  49.74700 38.87500 29.51300
H  50.35400 36.92600 23.36400
H  47.42900 31.60700 24.57500
H  46.62900 35.83900 31.75300
H  48.92300 37.84500 31.51100
H  47.15800 39.39700 31.45500
H  46.05500 37.97900 31.48900
H  46.58800 38.73300 29.95800
H  49.43300 35.93200 32.97200
H  48.96600 34.42100 32.12100
H  48.64500 34.96700 34.71600
H  47.34300 34.10800 33.92000
H  50.43000 40.88400 27.96900
H  51.90700 40.96500 27.30300
H  51.76300 39.81900 28.63500
H  51.43500 41.36400 25.20700
H  52.41900 41.31600 23.72700
H  53.00800 40.49200 25.26000
H  50.24100 34.61500 22.17600
H  47.83300 32.97500 22.66700
H  47.29900 34.90500 21.77100
H  48.56600 35.82000 20.96100
H  47.87600 36.24100 22.56200
H  49.76100 31.33800 23.64600
H  50.83900 32.44400 22.81000
H  50.65200 31.30100 21.01000
H  48.93100 31.67800 20.77200
H  49.40100 30.25500 21.79200
H  46.25200 29.89600 25.83200
H  44.95800 30.04500 27.07000
H  46.58900 29.31600 27.47700
H  45.16000 33.74600 30.87500
H  45.13500 31.23100 34.49100
H  46.70400 32.02900 34.73900
H  46.50000 30.57100 33.72100
Mg 27.24000 50.91200 25.75200
C  25.25600 52.06700 28.40000
C  29.24700 49.59900 28.06200
C  29.25500 49.77400 23.15700
C  25.07300 52.36900 23.49400
N  27.27400 51.00100 27.96600
C  26.35200 51.44600 28.83100
C  26.66000 51.10900 30.27800
C  28.14900 50.54100 30.15500
C  28.19900 50.38700 28.62000
C  29.29500 51.44300 30.80800
C  25.68900 50.07600 30.92200
C  25.05100 50.56500 32.24000
H  26.04100 50.92900 33.38500
N  29.07500 49.86600 25.63400
C  29.75900 49.49300 26.75100
C  30.90200 48.75700 26.27700
C  30.88000 48.71300 24.87500
C  29.75800 49.48400 24.47000
C  32.01100 48.11100 27.17300
C  31.71800 48.00900 23.85600
O  31.72200 48.14400 22.61100
C  32.66000 47.02600 24.40600
N  27.29100 51.19400 23.66500
C  28.10700 50.51400 22.81300
C  27.50500 50.52000 21.36400
C  26.05800 51.18800 21.50000
C  26.15300 51.68000 22.98700
C  28.53400 51.11900 20.37400
C  24.79800 50.37300 21.08600
C  24.69400 48.89500 21.65400
N  25.53300 52.04300 25.88500
C  24.77400 52.53700 24.85000
C  23.66400 53.20600 25.48700
C  23.83400 53.06000 26.81600
C  24.96200 52.30000 27.02700
C  22.57200 53.92600 24.71800
C  23.30900 53.42200 28.04500
O  22.29500 54.05700 28.29600
C  24.06400 52.68900 29.17000
C  24.54900 53.80200 30.01700
O  25.44900 54.55100 29.69100
O  23.82400 53.83000 31.15500
C  24.32000 54.61600 32.21600
H  29.83800 49.04000 28.79100
H  29.53500 49.27900 22.22600
H  24.25400 52.76700 22.89200
H  26.72500 52.11300 30.69600
H  28.31500 49.56200 30.60400
H  30.00000 50.76800 31.29200
H  28.90000 52.18100 31.50700
H  29.90200 51.94200 30.05300
H  26.14500 49.11000 31.13500
H  24.89300 49.93200 30.19100
H  24.56100 49.65000 32.57300
H  24.47500 51.48900 32.18500
H  32.09900 48.58600 28.15000
H  32.97400 48.37500 26.73500
H  32.02500 47.02100 27.19200
H  33.52600 47.53700 24.82600
H  32.99800 46.34000 23.62800
H  32.07700 46.45000 25.12400
H  27.33000 49.48200 21.08200
H  25.87500 52.07000 20.88700
H  29.39200 51.35200 21.00400
H  28.13500 51.98400 19.84500
H  28.74000 50.40700 19.57500
H  24.65000 50.21400 20.01800
H  23.91600 50.92300 21.41300
H  25.63500 48.58100 22.10500
H  24.47900 48.13900 20.89800
H  23.96000 48.75800 22.44700
H  22.91000 54.28200 23.74500
H  22.28900 54.82900 25.25800
H  21.71700 53.25600 24.62700
H  23.50900 51.92500 29.71500
H  24.59400 55.65300 32.02000
H  25.18100 54.14900 32.69300
H  23.59000 54.77500 33.00900

