158

Mg 54.33100 23.64600 45.07100
C  51.91200 25.85600 43.95700
C  52.46400 21.00300 44.00200
C  57.19400 21.65600 45.18700
C  56.24900 26.34200 46.03000
N  52.43300 23.48500 44.11400
C  51.62500 24.51700 43.82000
C  50.25400 23.95600 43.26800
C  50.33500 22.44700 43.74300
C  51.83600 22.26700 43.90900
C  49.52900 22.22100 45.07100
C  50.19400 24.13800 41.67300
C  48.93200 24.64000 40.95700
H  48.68100 24.01400 39.51800
N  54.69200 21.60600 44.76900
C  53.81400 20.68200 44.27200
C  54.41000 19.40300 44.29000
C  55.79200 19.54200 44.65100
C  55.97100 21.01800 44.84200
C  53.72500 18.15300 43.76500
C  56.82600 18.38700 44.60300
O  56.46400 17.25500 44.23900
C  58.34900 18.54300 44.88900
N  56.42600 23.95200 45.42100
C  57.34900 23.02600 45.42700
C  58.68700 23.51300 46.11800
C  58.31600 24.99800 46.47900
C  56.90500 25.12300 45.92200
C  59.05900 22.69500 47.39300
C  59.35500 26.09600 46.19100
C  59.99700 26.74900 47.41400
N  54.11700 25.75600 45.20400
C  54.97700 26.72000 45.60700
C  54.30800 28.05100 45.53500
C  53.04000 27.76600 44.91900
C  53.10000 26.37200 44.58700
C  54.86800 29.45900 46.02200
C  51.77200 28.34500 44.41200
O  51.44800 29.53400 44.36200
C  51.04000 27.18700 43.68000
C  51.14100 27.55800 42.22900
O  52.19200 27.52900 41.60400
O  49.90800 27.94000 41.74700
C  49.90400 28.54200 40.41600
H  51.84300 20.12200 43.82600
H  58.15300 21.13700 45.25000
H  56.80400 27.14300 46.52400
H  49.41600 24.49400 43.71200
H  49.93400 21.73600 43.02200
H  50.20600 21.94000 45.87700
H  48.95700 21.32700 44.82600
H  48.82500 23.03900 45.22500
H  50.36300 23.15900 41.22500
H  51.06300 24.71300 41.35300
H  48.84400 25.71500 40.80300
H  48.05100 24.29100 41.49600
H  54.02300 18.20300 42.71800
H  52.63900 18.18000 43.85200
H  54.10800 17.29800 44.32200
H  58.83600 19.08700 44.07900
H  58.79000 17.55500 45.02000
H  58.49900 19.11300 45.80600
H  59.44100 23.47100 45.33100
H  58.24000 25.02800 47.56600
H  58.45900 21.78600 47.44100
H  59.02500 23.31800 48.28700
H  60.10500 22.39600 47.32700
H  58.95900 26.80700 45.46500
H  60.08900 25.52900 45.61900
H  61.03400 26.42500 47.32700
H  59.67000 26.38800 48.38900
H  59.81200 27.82200 47.36300
H  54.33700 29.81500 46.90500
H  54.70600 30.19800 45.23700
H  55.94500 29.45500 46.19200
H  50.03800 26.97500 44.05400
H  50.02800 27.81900 39.61000
H  50.68000 29.30600 40.40300
H  48.93600 29.00800 40.22900
Mg 7.51000 54.51600 41.15200
C  6.72100 51.05200 41.39500
C  10.39900 53.63400 39.57900
C  7.94700 57.69700 40.33300
C  4.04100 55.19200 41.90100
N  8.35900 52.53400 40.43800
C  7.87500 51.24200 40.62600
C  8.75300 50.19400 39.96100
C  10.09500 51.04600 39.81500
C  9.66000 52.46500 40.05200
C  11.34400 50.64500 40.74500
C  8.19700 49.67600 38.58400
C  7.42700 50.64300 37.62500
H  7.94400 50.94400 36.20000
N  9.05600 55.56200 40.20700
C  10.20500 55.03400 39.69700
C  11.06800 56.10700 39.19700
C  10.45600 57.37600 39.43700
C  9.09000 56.92100 39.94900
C  12.34300 55.86100 38.57500
C  10.97900 58.72800 39.07000
O  12.12200 58.75100 38.67700
C  10.18600 59.99600 39.21800
N  6.09800 56.16400 40.91300
C  6.60500 57.38800 40.69700
C  5.54200 58.42300 41.03900
C  4.25800 57.55600 41.25200
C  4.80300 56.15200 41.33100
C  5.93900 59.33100 42.31400
C  3.04200 57.66900 40.15700
C  2.95100 56.57700 39.12800
N  5.80200 53.46900 41.82200
C  4.48300 53.87500 42.07200
C  3.74600 52.69100 42.49700
C  4.59300 51.55800 42.35200
C  5.82300 52.08400 41.87100
C  2.35500 52.72700 43.01500
C  4.71000 50.18900 42.56100
O  3.91400 49.40800 43.06300
C  6.04400 49.81800 41.91600
C  5.72900 48.95900 40.76600
O  4.69000 49.01400 40.07800
O  6.57900 47.90800 40.76100
C  6.24600 46.78900 39.93200
H  11.14900 53.15000 38.95000
H  7.99200 58.78400 40.24400
H  3.02600 55.46600 42.19900
H  8.90300 49.37100 40.66000
H  10.49400 50.96800 38.80300
H  12.35300 50.53300 40.34800
H  11.06700 49.77700 41.34300
H  11.35600 51.39000 41.54100
H  7.61700 48.76900 38.75000
H  9.04300 49.33500 37.98600
H  7.30000 51.66300 37.98900
H  6.47900 50.14200 37.43100
H  12.39700 56.38500 37.62100
H  12.43100 54.81500 38.28200
H  13.16200 56.24000 39.18700
H  9.13800 59.89100 38.93400
H  10.54100 60.77500 38.54200
H  10.30900 60.32100 40.25100
H  5.19400 58.98200 40.17000
H  3.93800 57.74000 42.27700
H  6.84300 59.00000 42.82700
H  5.16200 59.43000 43.07200
H  6.01100 60.38700 42.05700
H  2.99600 58.59900 39.59000
H  2.11400 57.66800 40.73000
H  2.09400 55.92200 39.28700
H  3.89400 56.04700 38.99800
H  2.78200 57.07400 38.17300
H  2.05200 51.72700 43.32500
H  1.73300 52.96700 42.15200
H  2.16300 53.51900 43.73800
H  6.55100 49.22200 42.67500
H  5.87900 47.16800 38.97800
H  5.59500 46.08500 40.45100
H  7.16900 46.20900 39.92200

