158

Mg 16.47100 -2.60400 28.36900
C  15.58100 -0.77500 31.31000
C  18.76800 -4.32900 30.32800
C  17.96500 -3.67300 25.55300
C  14.52900 -0.46400 26.51500
N  17.21500 -2.38400 30.55000
C  16.56400 -1.74600 31.56300
C  17.21700 -2.12000 32.94700
C  18.29800 -3.17200 32.55900
C  18.06400 -3.35400 31.01400
C  19.77500 -2.62300 33.02900
C  16.06200 -2.68500 33.89200
C  15.84100 -1.92100 35.28800
H  17.05100 -1.18600 35.90400
N  17.97800 -3.95900 27.99900
C  18.72900 -4.61900 28.93700
C  19.60200 -5.52500 28.23000
C  19.41900 -5.37000 26.82100
C  18.45100 -4.30300 26.70500
C  20.53900 -6.55400 28.95600
C  20.12000 -5.98900 25.66300
O  19.69400 -5.89600 24.51300
C  21.19900 -6.96300 25.83800
N  16.16400 -2.20700 26.27800
C  16.99800 -2.69500 25.38100
C  16.81200 -2.00100 23.99000
C  15.58900 -1.14100 24.20200
C  15.37200 -1.27200 25.75600
C  18.09000 -1.30800 23.55900
C  14.35100 -1.41600 23.28300
C  14.11700 -0.36800 22.25000
N  15.21100 -1.08000 28.82700
C  14.43200 -0.30400 27.91200
C  13.67600 0.64600 28.61900
C  14.09800 0.48200 29.95100
C  14.99900 -0.55000 30.04700
C  12.63300 1.51400 28.11900
C  13.90200 0.97600 31.33600
O  13.25900 1.91800 31.70300
C  14.90600 0.15900 32.30100
C  15.79600 1.12100 33.00100
O  17.01100 1.25700 32.85000
O  15.05800 1.92000 33.81400
C  15.76600 2.97800 34.49100
H  19.44900 -4.82700 31.02100
H  18.59200 -3.73500 24.66100
H  14.03000 0.19900 25.80500
H  17.60400 -1.28600 33.53200
H  18.06000 -4.07900 33.11400
H  19.84100 -1.74700 33.67400
H  20.25900 -2.36900 32.08500
H  20.28700 -3.47100 33.48400
H  16.15900 -3.73700 34.16000
H  15.10300 -2.60300 33.38100
H  15.59400 -2.72900 35.97700
H  15.07100 -1.15200 35.35300
H  21.54100 -6.24800 28.65700
H  20.34700 -7.54700 28.54800
H  20.46100 -6.56600 30.04300
H  20.85900 -7.80400 26.44200
H  22.05700 -6.50400 26.32900
H  21.46500 -7.30000 24.83600
H  16.46700 -2.68900 23.21800
H  15.98200 -0.13000 24.09800
H  18.15300 -1.06600 22.49800
H  18.94500 -1.90800 23.87100
H  18.21800 -0.36600 24.09300
H  13.44700 -1.54500 23.87800
H  14.37400 -2.29800 22.64400
H  14.06100 -0.71900 21.22000
H  14.87100 0.41900 22.23600
H  13.18300 0.17200 22.40000
H  12.39300 1.32700 27.07300
H  12.94300 2.55100 28.24900
H  11.78700 1.32500 28.78000
H  14.36300 -0.50600 32.97400
H  16.00600 3.80800 33.82700
H  16.64600 2.58200 34.99800
H  15.12500 3.33100 35.29800
Mg -11.81700 37.75000 42.11300
C  -9.88600 34.98700 41.00400
C  -9.27200 39.78800 40.98700
C  -13.97200 40.41700 42.46000
C  -14.42600 35.58100 42.93900
N  -9.75700 37.40500 41.01700
C  -9.27800 36.20600 40.62800
C  -7.97600 36.34000 39.78500
C  -7.77400 37.92300 39.84000
C  -8.98600 38.38300 40.64800
C  -6.41300 38.42400 40.18800
C  -8.05200 35.73500 38.37300
C  -6.95000 34.77500 37.84900
H  -5.78100 35.42500 37.07600
N  -11.67200 39.75000 41.73700
C  -10.51300 40.38200 41.29100
C  -10.84700 41.81500 41.12600
C  -12.25400 41.99100 41.38100
C  -12.71500 40.63700 41.88200
C  -9.76100 42.75700 40.60500
C  -13.03800 43.32100 41.15700
O  -12.39600 44.29400 40.76200
C  -14.53200 43.42600 41.30900
N  -13.97300 38.00500 42.40900
C  -14.52000 39.16500 42.73000
C  -15.91000 39.01100 43.27600
C  -16.10200 37.45400 43.37800
C  -14.73000 36.97500 42.90300
C  -16.12200 39.76100 44.55500
C  -17.21500 36.73000 42.50300
C  -18.23000 36.02300 43.35200
N  -12.15800 35.65200 42.00200
C  -13.30000 34.96000 42.39000
C  -12.99600 33.47200 42.20600
C  -11.67600 33.42300 41.62800
C  -11.22500 34.77600 41.53900
C  -13.88600 32.30500 42.66200
C  -10.54800 32.59000 41.10800
O  -10.50300 31.35800 41.06000
C  -9.40600 33.58200 40.66700
C  -8.05600 33.20800 41.23800
O  -7.36100 32.30600 40.86000
O  -7.62800 33.98300 42.29900
C  -6.36000 33.59600 43.07600
H  -8.53100 40.53400 40.69200
H  -14.71300 41.17700 42.71600
H  -15.26100 35.05000 43.40200
H  -7.08400 35.89100 40.22100
H  -7.97200 38.26300 38.82300
H  -5.62800 37.70800 39.94300
H  -6.40800 38.48300 41.27600
H  -6.17400 39.34000 39.64800
H  -7.96100 36.55700 37.66300
H  -9.06700 35.39900 38.16100
H  -7.52600 34.16600 37.15200
H  -6.45800 34.19400 38.62900
H  -9.18400 42.24900 39.83300
H  -9.14600 42.98800 41.47500
H  -10.14300 43.67900 40.16800
H  -15.08600 42.72400 40.68500
H  -14.81300 44.46100 41.11200
H  -14.93200 43.28100 42.31200
H  -16.64800 39.40100 42.57600
H  -16.26200 37.15100 44.41300
H  -15.14600 40.07700 44.92400
H  -16.45800 39.21800 45.43800
H  -16.68000 40.68600 44.40700
H  -16.81900 36.04400 41.75400
H  -17.73200 37.46900 41.89000
H  -19.07800 36.67200 43.56900
H  -17.85600 35.67200 44.31400
H  -18.62900 35.29600 42.64500
H  -14.36800 32.01100 41.72900
H  -14.75600 32.52800 43.28000
H  -13.29400 31.50100 43.09900
H  -9.40900 33.61100 39.57700
H  -6.06700 32.55700 42.92000
H  -6.50000 33.67200 44.15400
H  -5.53000 34.22700 42.75900

