158

Mg 23.77300 -7.70400 46.81000
C  26.39000 -5.74500 45.59200
C  21.76000 -6.50300 44.34400
C  21.80600 -10.36700 47.17200
C  26.30800 -9.52000 48.67300
N  24.10500 -6.24000 45.19200
C  25.21500 -5.48500 44.88800
C  24.95600 -4.50500 43.68600
C  23.42600 -4.77000 43.32200
C  23.03300 -5.89900 44.34000
C  22.48700 -3.42800 43.22300
C  25.85300 -4.63400 42.32800
C  26.46000 -3.22900 42.02900
H  25.92400 -2.34300 40.94800
N  21.87900 -8.24500 46.05300
C  21.21300 -7.54700 45.08800
C  19.87100 -8.08400 45.00200
C  19.87400 -9.35100 45.79900
C  21.19500 -9.39900 46.34800
C  18.85100 -7.51000 44.06900
C  18.73300 -10.34700 45.91100
O  17.65300 -10.03100 45.41200
C  18.82600 -11.56400 46.69400
N  24.00700 -9.60000 47.84300
C  23.02500 -10.58900 47.77500
C  23.39100 -11.91200 48.59500
C  24.74000 -11.47300 49.22800
C  25.04500 -10.05600 48.56600
C  22.31100 -12.53400 49.57200
C  25.90500 -12.52300 49.25700
C  26.44300 -12.86400 50.66800
N  25.88700 -7.67900 47.20800
C  26.72100 -8.38300 47.98900
C  28.05400 -7.78100 47.92800
C  27.85700 -6.66800 47.12300
C  26.56200 -6.71200 46.63000
C  29.28000 -8.32800 48.64000
C  28.55900 -5.50800 46.60100
O  29.68800 -5.17200 46.74400
C  27.60000 -4.88600 45.58600
C  27.35200 -3.50500 46.01200
O  26.68000 -3.11800 46.97400
O  28.13700 -2.66000 45.30700
C  28.30400 -1.33600 45.79700
H  21.15300 -5.93300 43.63700
H  21.22300 -11.28800 47.24300
H  27.13200 -9.97000 49.23000
H  25.10300 -3.53400 44.15900
H  23.36000 -5.24900 42.34500
H  21.83100 -3.51500 42.35700
H  23.18500 -2.60100 43.08900
H  21.91700 -3.24100 44.13300
H  25.16700 -4.83900 41.50600
H  26.43700 -5.54300 42.18800
H  27.50700 -3.39500 41.77900
H  26.52400 -2.71200 42.98600
H  18.94900 -7.92300 43.06500
H  18.97600 -6.43300 43.96200
H  17.84900 -7.58200 44.49300
H  19.60400 -12.27700 46.42200
H  17.98000 -12.18000 46.39000
H  18.71600 -11.38200 47.76300
H  23.66100 -12.53100 47.73900
H  24.46800 -11.26400 50.26300
H  21.71800 -13.39200 49.25400
H  21.79300 -11.65700 49.96100
H  22.78300 -12.89900 50.48500
H  26.75900 -12.22000 48.65100
H  25.44100 -13.44600 48.91100
H  27.52000 -13.02000 50.59500
H  25.91300 -13.70700 51.11200
H  26.16800 -12.03900 51.32500
H  29.44000 -9.40600 48.67500
H  29.15200 -7.87400 49.62300
H  30.08000 -7.93700 48.01100
H  28.15400 -4.76600 44.65500
H  28.65700 -1.31800 46.82800
H  27.38600 -0.75300 45.73000
H  29.02400 -0.94500 45.07800
Mg 9.21600 47.21900 27.55500
C  7.41800 46.80200 30.57200
C  12.13200 47.70400 29.42600
C  10.91800 48.53300 24.89600
C  6.26900 47.51100 25.79100
N  9.67200 47.24700 29.75200
C  8.77400 46.97300 30.80400
C  9.49300 47.07700 32.12400
C  10.95100 47.51200 31.71600
C  10.96900 47.48700 30.15700
C  11.45500 48.87100 32.27500
C  9.47900 45.76200 32.90900
C  10.42500 45.44700 34.00300
H  9.83900 45.21800 35.42700
N  11.28000 47.78000 27.11500
C  12.33300 47.82900 28.04700
C  13.61900 48.09500 27.36200
C  13.22700 48.41800 25.98500
C  11.72800 48.28100 25.97200
C  15.04700 48.17100 28.04000
C  14.08600 48.80400 24.83200
O  13.65400 49.18300 23.77000
C  15.57000 48.83200 24.95300
N  8.68000 48.11900 25.67700
C  9.53000 48.42300 24.65800
C  8.88300 48.74500 23.36900
C  7.39200 48.37900 23.68500
C  7.41100 47.84300 25.09900
C  9.02100 50.26100 22.86500
C  6.95600 47.35200 22.56200
C  7.08500 47.85800 21.04100
N  7.29400 47.05400 27.97100
C  6.24100 47.15600 27.11900
C  5.02000 46.86400 27.90200
C  5.42800 46.73000 29.25900
C  6.86000 46.73900 29.24000
C  3.60200 47.06700 27.40300
C  4.96600 46.57800 30.65000
O  3.81000 46.48200 31.08800
C  6.26000 46.58800 31.55200
C  6.37800 45.15900 32.12200
O  6.97100 44.22500 31.64600
O  5.75700 45.20200 33.33300
C  5.83000 43.88700 33.98000
H  13.00800 47.72500 30.07700
H  11.39700 48.93900 24.00200
H  5.43200 47.60200 25.09500
H  8.99700 47.83800 32.72500
H  11.61400 46.68000 31.95200
H  10.71400 49.18200 33.01000
H  11.41200 49.64800 31.51200
H  12.44800 48.66600 32.67600
H  9.78800 45.06100 32.13400
H  8.45700 45.51100 33.19600
H  11.03300 46.34700 34.09800
H  11.09200 44.61300 33.78600
H  15.67600 47.40000 27.59500
H  15.00900 47.76000 29.04900
H  15.52200 49.14700 28.13800
H  16.10400 49.03000 24.02400
H  15.79900 47.79100 25.18200
H  15.89100 49.33700 25.86400
H  9.23400 48.16400 22.51600
H  6.81000 49.29100 23.55000
H  8.08000 50.80600 22.79400
H  9.46700 50.25800 21.87000
H  9.61800 50.79900 23.60100
H  5.88900 47.14300 22.63700
H  7.53800 46.44800 22.74400
H  6.42900 47.26600 20.40300
H  8.10500 47.87500 20.65800
H  6.56000 48.80700 21.15300
H  3.00700 47.52300 28.19400
H  3.30100 46.04100 27.18900
H  3.54500 47.82100 26.61800
H  6.26500 47.28900 32.38700
H  5.32900 43.16900 33.33000
H  5.40300 44.01200 34.97400
H  6.88900 43.63800 34.04700

