158

Mg 2.63700 -2.85100 45.28800
C  5.64700 -1.29400 44.20900
C  0.84800 -0.35600 43.73900
C  -0.10200 -4.68600 45.63000
C  4.68700 -5.57000 46.55600
N  3.14800 -1.15600 43.96500
C  4.42800 -0.59900 43.81100
C  4.35600 0.71100 42.98000
C  2.86600 1.12100 43.18900
C  2.21200 -0.23200 43.60000
C  2.59100 2.13500 44.39200
C  4.71700 0.43200 41.44100
C  5.99700 1.15300 41.01800
H  7.04800 0.55500 40.12800
N  0.57200 -2.51800 44.86200
C  0.06200 -1.45800 44.23300
C  -1.31800 -1.60000 44.13000
C  -1.68400 -2.91000 44.61800
C  -0.44300 -3.43400 45.11200
C  -2.30300 -0.59200 43.42700
C  -3.04100 -3.48200 44.52000
O  -4.03600 -2.78800 44.09800
C  -3.26200 -4.81100 44.87000
N  2.38500 -4.69900 46.12800
C  1.12000 -5.25100 46.03700
C  1.16500 -6.74900 46.49000
C  2.64400 -6.94300 46.88600
C  3.32200 -5.70600 46.42600
C  0.25700 -7.04400 47.69000
C  3.18800 -8.27400 46.39400
C  4.04500 -8.97800 47.48700
N  4.76100 -3.36500 45.43100
C  5.39800 -4.40000 46.03800
C  6.82800 -4.19000 45.92200
C  6.94000 -3.02700 45.25200
C  5.62800 -2.56700 44.84900
C  7.92500 -5.05500 46.53400
C  7.93800 -2.07000 44.85300
O  9.16200 -2.01100 45.09100
C  7.05900 -0.86700 44.14000
C  7.25100 0.40400 44.93300
O  6.88500 0.60300 46.06100
O  7.76400 1.36600 44.08800
C  7.85500 2.71200 44.71000
H  0.34800 0.52700 43.33500
H  -0.97700 -5.33900 45.65000
H  5.24700 -6.42700 46.93600
H  5.01100 1.49900 43.35200
H  2.57800 1.62500 42.26700
H  2.10400 3.04200 44.03200
H  3.48200 2.26800 45.00700
H  1.90100 1.65100 45.08200
H  3.96300 0.88000 40.79400
H  4.89900 -0.62500 41.24400
H  6.45900 1.62900 41.88300
H  5.57900 2.06000 40.58000
H  -2.47000 -1.06500 42.45900
H  -1.93400 0.39100 43.13300
H  -3.22200 -0.32100 43.94600
H  -2.65000 -5.31600 44.12300
H  -4.30500 -5.08300 44.70500
H  -2.94000 -4.81900 45.91100
H  0.85100 -7.40500 45.67800
H  2.75000 -6.73600 47.95000
H  0.31900 -6.21300 48.39200
H  0.51100 -7.99500 48.15800
H  -0.75700 -7.06800 47.29200
H  3.82500 -8.10500 45.52600
H  2.39900 -8.98300 46.14100
H  3.60100 -9.91000 47.83500
H  4.17100 -8.29400 48.32700
H  5.10300 -9.05700 47.24000
H  8.41000 -5.60100 45.72500
H  7.60900 -5.62500 47.40800
H  8.70900 -4.36200 46.84000
H  7.47300 -0.73200 43.14100
H  7.03400 2.92100 45.39500
H  8.00700 3.41900 43.89400
H  8.79100 2.86400 45.24600
Mg -12.07500 37.34000 42.90400
C  -9.65900 34.92200 41.78000
C  -10.30000 39.77000 41.37400
C  -14.85700 39.27400 43.05300
C  -14.08300 34.55600 44.03800
N  -10.16500 37.30300 41.77200
C  -9.29000 36.25400 41.41800
C  -8.12700 36.72400 40.58500
C  -8.24700 38.25600 40.84300
C  -9.65000 38.51800 41.43200
C  -7.20100 38.71600 41.94500
C  -8.24000 36.34100 39.01400
C  -7.19600 35.36100 38.47600
H  -6.07500 35.74100 37.53600
N  -12.44700 39.22600 42.48500
C  -11.53200 40.10100 41.88500
C  -12.12000 41.40600 41.81900
C  -13.43300 41.37100 42.38300
C  -13.65900 39.84300 42.68500
C  -11.41400 42.66400 41.25900
C  -14.28100 42.56200 42.54500
O  -13.98500 43.69300 42.11600
C  -15.62500 42.49100 43.20800
N  -14.18900 36.92700 43.39200
C  -15.10700 37.95400 43.46400
C  -16.46100 37.56000 44.06700
C  -16.21800 36.03100 44.38000
C  -14.77300 35.84300 43.92500
C  -17.01600 38.37700 45.25900
C  -17.30000 35.16500 43.61400
C  -17.63600 33.75500 44.20600
N  -11.90200 35.18800 42.92600
C  -12.75800 34.25300 43.56600
C  -12.01800 32.96400 43.65700
C  -10.80800 33.18200 42.92000
C  -10.80000 34.54600 42.47400
C  -12.38800 31.71300 44.40000
C  -9.61900 32.57900 42.40700
O  -9.11900 31.44100 42.56000
C  -8.83300 33.69500 41.69100
C  -7.54800 33.84600 42.36800
O  -6.55500 33.31900 41.96000
O  -7.60500 34.55500 43.57600
C  -6.37300 34.69300 44.35400
H  -9.64300 40.50700 40.90800
H  -15.75900 39.85400 43.25900
H  -14.75400 33.80300 44.45700
H  -7.25500 36.33200 41.10800
H  -8.32200 38.87200 39.94600
H  -6.75800 39.69800 41.77700
H  -6.44000 37.93500 41.96800
H  -7.77500 38.82000 42.86500
H  -8.24200 37.21100 38.35700
H  -9.26700 35.99500 38.89700
H  -7.87800 34.72400 37.91200
H  -6.83700 34.72600 39.28500
H  -10.33500 42.61300 41.40700
H  -11.66900 43.55500 41.83300
H  -11.79400 42.86500 40.25700
H  -16.06500 43.48200 43.09700
H  -15.61000 42.42200 44.29600
H  -16.28800 41.77900 42.71500
H  -17.18000 37.71600 43.26200
H  -16.34700 35.79200 45.43600
H  -16.19300 38.99700 45.61500
H  -17.27800 37.64000 46.01700
H  -17.86200 39.05900 45.17300
H  -17.05400 35.16000 42.55200
H  -18.16900 35.76700 43.87800
H  -17.42800 33.09600 43.36200
H  -18.72400 33.69600 44.23900
H  -17.11100 33.55600 45.14000
H  -11.88200 31.57100 45.35500
H  -12.23200 30.88200 43.71200
H  -13.44700 31.90900 44.57100
H  -8.76300 33.28500 40.68300
H  -6.66000 34.82100 45.39700
H  -5.80200 35.56600 44.04000
H  -5.79300 33.77600 44.25100

