158

Mg 44.55500 4.26900 45.69700
C  42.74800 7.16600 45.72600
C  41.63100 2.48900 45.47100
C  46.46200 1.60200 45.31800
C  47.53500 6.34600 45.10000
N  42.34300 4.76200 45.46200
C  41.90300 6.02400 45.52600
C  40.37300 6.09400 45.37800
C  39.98800 4.50100 45.30700
C  41.35900 3.82400 45.45000
C  38.80800 4.08400 46.28500
C  39.82000 6.82500 44.14100
C  40.81200 7.31300 43.04000
H  40.32400 7.19800 41.59400
N  44.14200 2.32100 45.53100
C  42.90300 1.77600 45.43200
C  43.01600 0.36300 45.30900
C  44.41100 0.06700 45.20100
C  45.09500 1.32800 45.33100
C  41.83000 -0.59500 45.12600
C  44.97100 -1.30700 44.88400
O  44.28500 -2.31400 44.78300
C  46.45400 -1.56300 44.72800
N  46.66200 4.01500 45.39800
C  47.18500 2.78400 45.27000
C  48.70600 2.70700 45.22400
C  49.06700 4.21700 44.95900
C  47.68000 4.91400 45.16100
C  49.37300 2.24200 46.60100
C  49.65100 4.59100 43.62100
C  51.19800 4.39800 43.52900
N  45.09800 6.30200 45.53700
C  46.29800 7.01200 45.46200
C  46.06500 8.50600 45.60300
C  44.67000 8.55900 45.75200
C  44.12400 7.26600 45.62000
C  47.10300 9.59700 45.73800
C  43.60700 9.41500 46.02900
O  43.62300 10.62300 46.18000
C  42.32800 8.61700 45.89300
C  41.45300 8.85400 47.10300
O  41.48400 8.31400 48.13700
O  40.52100 9.73400 46.72700
C  39.38800 9.90100 47.64600
H  40.71600 1.90000 45.38600
H  47.17900 0.77900 45.27700
H  48.45800 6.89800 44.90900
H  39.89500 6.61200 46.21000
H  39.69300 4.22000 44.29600
H  37.89700 3.82800 45.74500
H  38.53700 4.88800 46.97000
H  38.97400 3.15700 46.83400
H  39.21900 7.64900 44.52600
H  39.13000 6.14900 43.63600
H  41.82700 6.91800 43.10200
H  40.77400 8.38800 43.21600
H  41.98500 -1.34200 45.90400
H  41.82200 -1.08700 44.15300
H  40.90800 -0.08500 45.40400
H  46.57800 -2.60400 44.43300
H  47.01900 -1.34500 45.63400
H  46.84800 -0.96200 43.90800
H  49.05900 2.01500 44.45900
H  49.74000 4.69500 45.67100
H  48.47400 2.16000 47.21200
H  50.03100 2.91300 47.15300
H  49.76700 1.22600 46.61600
H  49.31200 5.49300 43.11000
H  49.28800 3.83500 42.92400
H  51.38200 3.61100 42.79600
H  51.76800 4.21200 44.43900
H  51.73500 5.19400 43.01300
H  46.53000 10.49200 45.98300
H  47.59800 9.82600 44.79400
H  47.84200 9.37900 46.51000
H  41.76800 9.03800 45.05800
H  38.50400 9.39700 47.25600
H  39.20200 10.96200 47.81300
H  39.47400 9.45000 48.63500
Mg 42.16500 41.43500 27.03700
C  41.44600 43.73800 29.53200
C  43.01600 39.14200 29.54000
C  43.42800 39.42100 24.59800
C  41.92500 44.08200 24.66800
N  42.16200 41.43800 29.21200
C  41.68600 42.40200 29.96600
C  41.54600 41.96700 31.49400
C  42.23800 40.59300 31.46400
C  42.51200 40.34300 29.99500
C  43.52300 40.40500 32.35000
C  40.07700 41.99200 32.02100
C  39.72100 43.15300 32.98100
H  38.90200 42.75400 34.26100
N  42.95100 39.43800 27.05300
C  43.18100 38.63900 28.16300
C  43.51900 37.28100 27.69900
C  43.49500 37.34300 26.26400
C  43.25600 38.76500 25.93900
C  43.76600 36.16700 28.65100
C  43.67300 36.21900 25.24500
O  43.70000 36.35200 24.01900
C  43.73600 34.70500 25.72000
N  42.76100 41.72900 25.02900
C  43.20300 40.76400 24.21500
C  43.56800 41.29200 22.82800
C  42.57200 42.49100 22.84100
C  42.39800 42.83200 24.27000
C  45.03300 41.63200 22.49400
C  41.22000 42.18600 22.13900
C  40.36200 40.95000 22.54400
N  41.81900 43.52800 27.05200
C  41.68100 44.42100 26.02000
C  41.41800 45.68600 26.60600
C  41.36700 45.50900 27.98600
C  41.57600 44.15900 28.20400
C  41.18400 46.93100 25.89700
C  41.17300 46.15500 29.23900
O  40.97700 47.31900 29.60700
C  41.11500 45.00200 30.25500
C  42.05000 45.47700 31.30100
O  43.25600 45.54400 31.07500
O  41.48500 45.90100 32.47300
C  42.47800 46.45500 33.45200
H  43.27400 38.45600 30.34800
H  43.88200 38.78900 23.83200
H  41.72500 44.86400 23.93100
H  42.24400 42.66900 31.95100
H  41.52600 39.83500 31.79000
H  44.10900 39.60000 31.90500
H  43.16800 40.22300 33.36400
H  44.14100 41.29800 32.44800
H  39.83100 41.11100 32.61400
H  39.34800 42.00500 31.21100
H  39.01900 43.94400 32.71700
H  40.64000 43.58900 33.37300
H  44.58800 35.56100 28.27000
H  42.87500 35.54100 28.64400
H  44.01000 36.52400 29.65200
H  44.67600 34.59800 26.26100
H  43.71800 34.04000 24.85600
H  42.91600 34.46900 26.39800
H  43.14400 40.63900 22.06500
H  43.03800 43.34100 22.34300
H  45.31700 42.64400 22.78300
H  45.12100 41.48700 21.41700
H  45.78400 40.95700 22.90400
H  41.54100 42.08800 21.10200
H  40.59200 43.07400 22.21300
H  40.29900 40.29100 21.67800
H  39.45700 41.44800 22.88900
H  40.87700 40.47200 23.37800
H  40.14600 47.26300 25.92800
H  41.54000 46.81100 24.87300
H  41.74700 47.77100 26.30200
H  40.12700 44.92500 30.71000
H  43.37800 46.88000 33.00800
H  42.69300 45.65400 34.16000
H  42.08700 47.29800 34.02100

