158

Mg 16.45900 -2.03800 27.53600
C  15.42200 -0.04900 30.27700
C  18.77600 -3.46600 29.75700
C  17.56600 -3.90500 25.01700
C  14.63700 0.03400 25.39500
N  17.02500 -1.72800 29.81600
C  16.42600 -0.90200 30.67400
C  17.00100 -1.12000 32.05700
C  18.15500 -2.15800 31.89600
C  17.97100 -2.50200 30.39100
C  19.54600 -1.73900 32.32600
C  15.94200 -1.39300 33.11400
C  15.88000 -0.42000 34.32400
H  17.15300 0.26100 34.72100
N  17.83500 -3.56900 27.37000
C  18.71900 -3.93700 28.36700
C  19.53400 -5.09000 27.86100
C  19.18500 -5.23200 26.45900
C  18.12900 -4.23800 26.21300
C  20.59800 -5.75500 28.56900
C  19.64800 -6.21500 25.40400
O  19.22500 -6.20200 24.26100
C  20.62600 -7.25300 25.78300
N  16.01400 -1.95800 25.49200
C  16.67600 -2.85300 24.64500
C  16.33900 -2.48100 23.15700
C  15.27200 -1.33500 23.30400
C  15.35400 -1.02900 24.79700
C  17.61800 -2.17200 22.36300
C  13.78900 -1.56900 22.85800
C  13.07100 -2.67500 23.66800
N  15.26100 -0.40200 27.72700
C  14.52700 0.28100 26.76100
C  13.61800 1.22800 27.40700
C  14.00400 1.14800 28.79900
C  14.96500 0.12100 28.91900
C  12.64900 2.24900 26.70600
C  13.76900 1.72700 30.12000
O  13.01100 2.66200 30.41800
C  14.65700 1.00700 31.13900
C  15.49900 2.10600 31.67900
O  16.59200 2.42300 31.20200
O  14.93400 2.64800 32.76100
C  15.60100 3.71800 33.42500
H  19.38900 -3.96500 30.51100
H  17.98900 -4.32600 24.10200
H  14.03300 0.70700 24.78300
H  17.29500 -0.08000 32.20200
H  17.92600 -3.09700 32.40000
H  20.07500 -1.59700 31.38300
H  19.94400 -2.57200 32.90500
H  19.52200 -0.78200 32.84700
H  15.90800 -2.41400 33.49500
H  14.97500 -1.18900 32.65400
H  15.47700 -0.97800 35.16800
H  15.21600 0.39600 34.03600
H  20.99800 -5.24700 29.44700
H  21.42200 -6.01000 27.90200
H  20.30100 -6.73800 28.93500
H  20.39800 -7.83300 26.67800
H  21.63800 -6.85600 25.86500
H  20.62600 -7.90000 24.90600
H  15.96100 -3.41300 22.73700
H  15.61900 -0.47200 22.73600
H  18.50000 -2.34700 22.97900
H  17.43900 -1.16100 21.99600
H  17.72800 -2.87000 21.53300
H  13.63500 -1.52000 21.78000
H  13.29900 -0.65600 23.19800
H  12.21100 -2.23500 24.17300
H  13.77300 -3.04500 24.41400
H  12.73900 -3.48800 23.02100
H  11.70600 1.83800 27.06700
H  12.54300 2.02100 25.64500
H  12.73300 3.33500 26.74100
H  14.00900 0.67700 31.95100
H  15.35500 4.70600 33.03600
H  16.66600 3.49200 33.45600
H  15.16000 3.81300 34.41800
Mg 45.86700 17.24200 29.00600
C  44.30500 16.83600 32.23500
C  48.16000 19.20900 30.51900
C  46.92300 17.88700 26.03100
C  43.07300 15.52000 27.66000
N  46.18800 17.92500 31.03400
C  45.42500 17.65100 32.21600
C  46.16300 18.15400 33.47400
C  47.38200 18.98100 32.88300
C  47.25900 18.75200 31.40000
C  47.39600 20.48600 33.17700
C  46.61600 17.09800 34.47900
C  46.20100 17.23300 35.98700
H  45.91000 18.64700 36.49000
N  47.37300 18.28600 28.37600
C  48.24500 18.96200 29.15600
C  49.41000 19.39800 28.38400
C  49.07500 19.04900 27.05600
C  47.71500 18.42200 27.09400
C  50.63900 20.08400 28.99400
C  49.89600 19.42900 25.81000
O  49.49000 19.11600 24.68100
C  51.18400 20.24600 25.82100
N  45.06500 16.76800 27.13800
C  45.67100 17.25900 26.05800
C  44.82500 17.04600 24.78500
C  43.81900 15.95900 25.24200
C  43.92200 16.11200 26.78300
C  44.17700 18.35100 24.25400
C  44.14900 14.47100 24.77600
C  43.71800 14.07500 23.36600
N  44.08500 16.25100 29.75700
C  43.04100 15.60600 29.05200
C  42.09000 15.15500 30.00100
C  42.59300 15.51600 31.25600
C  43.80100 16.22700 31.05400
C  40.83100 14.40800 29.64700
C  42.27000 15.51200 32.67600
O  41.36600 14.97300 33.29600
C  43.36100 16.45900 33.35000
C  42.72800 17.66400 34.01500
O  42.45200 18.69800 33.44400
O  42.49200 17.41000 35.33400
C  41.81800 18.42300 36.20000
H  48.95300 19.79800 30.98400
H  47.28900 18.03800 25.01400
H  42.32700 14.90600 27.15200
H  45.47800 18.91000 33.85600
H  48.31800 18.47900 33.13100
H  46.71700 20.84200 33.95200
H  47.30600 21.06800 32.25900
H  48.39700 20.70200 33.55000
H  47.69300 16.93900 34.42400
H  46.14500 16.18100 34.12300
H  46.94800 16.76400 36.62700
H  45.24400 16.71300 36.03400
H  51.51600 19.71300 28.46400
H  50.83600 19.88100 30.04600
H  50.60800 21.16600 28.86300
H  51.84500 19.65700 26.45700
H  51.03500 21.28900 26.10000
H  51.53700 20.23500 24.79000
H  45.38800 16.59200 23.97000
H  42.84400 16.17100 24.80500
H  43.90700 18.98900 25.09600
H  43.26300 18.12400 23.70400
H  44.72800 18.95800 23.53600
H  43.98800 13.72900 25.55700
H  45.22900 14.58900 24.68200
H  43.53400 15.01100 22.83900
H  42.80000 13.49600 23.46200
H  44.49700 13.46800 22.90500
H  40.78500 13.95900 28.65500
H  40.04900 15.15000 29.80800
H  40.70800 13.61800 30.38700
H  43.77800 15.77400 34.08800
H  42.11500 18.21800 37.22900
H  40.74500 18.23900 36.16900
H  42.21700 19.43000 36.07600

