158

Mg 29.35200 57.84200 38.84100
C  26.34300 56.09900 38.06900
C  31.21300 55.07700 37.89700
C  32.11200 59.68300 38.68200
C  27.36600 60.75500 39.01300
N  28.79800 55.83500 38.09200
C  27.54300 55.34900 37.84800
C  27.63400 53.94300 37.25900
C  29.07500 53.47800 37.75200
C  29.78900 54.89300 37.92000
C  29.00200 52.54300 39.04000
C  27.48700 53.99900 35.73900
C  26.24500 53.47600 34.99000
H  25.51800 54.37900 33.97100
N  31.45000 57.39800 38.36900
C  31.98900 56.24900 37.99200
C  33.43200 56.45900 37.82900
C  33.76600 57.77000 38.20800
C  32.45700 58.36200 38.41300
C  34.45500 55.36800 37.55900
C  35.11500 58.37200 38.55900
O  36.12000 57.62600 38.46300
C  35.34300 59.81900 39.08700
N  29.66600 59.89500 38.86200
C  30.91400 60.37700 38.92400
C  30.90100 61.96000 38.97500
C  29.43100 62.27600 39.22100
C  28.76400 60.89600 39.00500
C  31.86600 62.68300 40.05100
C  28.96300 63.48200 38.36500
C  28.21100 64.64600 39.06800
N  27.25300 58.36600 38.80700
C  26.65700 59.56600 38.92500
C  25.21200 59.35600 38.96800
C  25.00800 57.97200 38.57100
C  26.33200 57.44100 38.48600
C  24.14300 60.42000 39.05200
C  24.07500 56.93700 38.10100
O  22.87100 57.03000 37.82500
C  24.89500 55.67600 37.81500
C  24.42000 54.73100 38.85200
O  24.46900 54.93000 40.06500
O  23.95100 53.62100 38.28900
C  23.38400 52.65900 39.25300
H  31.81800 54.21300 37.61700
H  32.92100 60.41600 38.67400
H  26.84700 61.71600 39.00300
H  26.87200 53.26300 37.64000
H  29.58700 52.87100 37.00600
H  27.99100 52.24900 39.32200
H  29.30200 53.19000 39.86500
H  29.69500 51.70200 39.03300
H  28.24700 53.39400 35.24500
H  27.46900 55.00700 35.32300
H  25.54500 53.22400 35.78600
H  26.57200 52.55700 34.50200
H  34.10500 54.49000 37.01500
H  34.84600 55.08300 38.53500
H  35.24100 55.66500 36.86500
H  36.30700 59.73700 39.58900
H  34.64100 59.87300 39.92000
H  35.26800 60.69400 38.44200
H  31.22500 62.33800 38.00500
H  29.19800 62.57000 40.24400
H  32.23600 61.83700 40.63100
H  31.35800 63.42900 40.66200
H  32.77600 63.05500 39.58000
H  28.30600 63.14900 37.56200
H  29.76500 64.00900 37.85000
H  27.54500 65.22800 38.43100
H  28.88600 65.42600 39.41900
H  27.45900 64.24500 39.74800
H  23.19700 59.88200 38.99000
H  24.11800 61.15600 38.24800
H  24.20800 61.02300 39.95700
H  24.55700 55.26200 36.86500
H  23.60300 51.66800 38.85700
H  22.35800 52.84300 39.57200
H  24.05500 52.49900 40.09700
Mg -2.02800 34.64100 26.89200
C  -3.48400 32.80000 29.57900
C  -0.83400 36.86000 29.26400
C  -1.16700 36.55800 24.35400
C  -3.90400 32.57600 24.67700
N  -2.26600 34.79700 29.21700
C  -2.78600 33.90000 30.10700
C  -2.33100 34.27300 31.55000
C  -1.62600 35.62300 31.40500
C  -1.58700 35.82600 29.90100
C  -2.32700 36.79900 32.18400
C  -1.49000 33.07700 32.23100
C  -2.30500 32.37600 33.37400
H  -1.71700 32.13300 34.78500
N  -1.08700 36.34400 26.80100
C  -0.64800 37.10000 27.91500
C  0.23200 38.14100 27.43400
C  0.16900 38.13300 26.01400
C  -0.68800 36.98800 25.63900
C  1.07400 39.07600 28.27800
C  0.76500 39.06900 24.99800
O  0.67200 38.90000 23.76800
C  1.53400 40.31000 25.50500
N  -2.60500 34.65200 24.77600
C  -1.91800 35.45700 24.01100
C  -2.29300 35.14800 22.53100
C  -2.89900 33.71100 22.59500
C  -3.11200 33.60300 24.13100
C  -3.21800 36.16200 21.93100
C  -2.14000 32.62300 21.97200
C  -0.85900 32.18100 22.66600
N  -3.35700 32.95600 26.93900
C  -4.01500 32.24100 26.02800
C  -4.65300 31.13100 26.68700
C  -4.50100 31.35500 28.07400
C  -3.68200 32.51400 28.17600
C  -5.36400 30.02600 25.96600
C  -4.85700 30.82400 29.36400
O  -5.53700 29.83700 29.58700
C  -4.27600 31.75300 30.38600
C  -5.39400 32.35800 31.22700
O  -6.14000 33.28600 30.97300
O  -5.41900 31.57300 32.37900
C  -6.53200 31.72100 33.36800
H  -0.31300 37.42400 30.04100
H  -0.95400 37.14400 23.45700
H  -4.04800 31.74500 23.98200
H  -3.34200 34.38600 31.94400
H  -0.68700 35.61500 31.95900
H  -3.04900 36.24300 32.78200
H  -2.74400 37.46600 31.43000
H  -1.57200 37.35700 32.73800
H  -0.56100 33.42800 32.68100
H  -1.25600 32.30900 31.49400
H  -2.51300 31.34900 33.07400
H  -3.25800 32.89100 33.49500
H  2.13300 39.07900 28.01700
H  1.07900 38.74100 29.31500
H  0.73900 40.11100 28.33200
H  0.77200 40.90200 26.01300
H  1.81200 40.69400 24.52400
H  2.34600 40.05200 26.18500
H  -1.35700 35.14500 21.97400
H  -3.89600 33.62900 22.16200
H  -4.20100 35.73900 21.72400
H  -2.66900 36.57900 21.08600
H  -3.41800 37.00000 22.59900
H  -1.87200 32.90800 20.95500
H  -2.82300 31.77800 22.06000
H  -0.71000 32.73400 23.59300
H  0.09200 32.39200 22.17600
H  -0.92700 31.10200 22.80100
H  -6.44000 30.17400 25.87500
H  -5.45600 29.24500 26.72100
H  -4.88400 29.79400 25.01500
H  -3.50700 31.19900 30.92400
H  -7.21100 32.57300 33.34900
H  -6.08000 31.78300 34.35800
H  -7.18300 30.85500 33.24600

