158

Mg 49.20100 46.60900 42.90000
C  46.06100 47.35100 41.69000
C  49.20400 43.67200 41.00700
C  52.69500 46.28800 43.18300
C  49.60800 50.06900 44.01800
N  47.84700 45.66800 41.50400
C  46.60100 46.17100 41.14500
C  45.90600 45.22300 40.12700
C  46.84400 43.93100 40.10100
C  48.02300 44.42400 40.96600
C  46.31700 42.56400 40.56600
C  45.93200 45.90300 38.69300
C  44.54700 46.05500 37.98500
H  44.27100 45.58200 36.56000
N  50.68300 45.12100 42.39600
C  50.42200 43.96100 41.66400
C  51.62600 43.23000 41.57000
C  52.68600 43.87200 42.23200
C  52.05200 45.16400 42.61900
C  51.59500 41.90100 41.03100
C  54.02900 43.34900 42.43500
O  54.42000 42.23400 42.09500
C  55.09100 44.14900 42.90800
N  50.86300 47.96400 43.54300
C  52.22800 47.58800 43.58000
C  53.05000 48.71200 44.08100
C  52.07800 49.82300 44.46400
C  50.75900 49.22900 44.00900
C  53.99800 48.27900 45.27400
C  52.31700 51.27400 43.68700
C  52.34500 52.52200 44.54500
N  47.99600 48.33100 43.03900
C  48.32100 49.66500 43.44100
C  47.11400 50.54400 43.19000
C  46.19500 49.59100 42.66400
C  46.83400 48.36200 42.41800
C  47.10900 52.09600 43.37500
C  44.86900 49.48600 42.17800
O  43.94000 50.30000 42.04900
C  44.80300 48.10400 41.42800
C  43.64300 47.32900 42.00300
O  43.36600 47.24800 43.21000
O  42.95300 46.64800 41.00800
C  41.98300 45.68800 41.47900
H  49.17600 42.80800 40.33900
H  53.78500 46.29000 43.25600
H  49.75500 51.00900 44.55400
H  44.96700 44.97000 40.61800
H  47.25500 43.74600 39.10900
H  46.07600 41.95800 39.69200
H  45.34600 42.70200 41.04200
H  47.06500 42.03400 41.15400
H  46.55500 45.48000 37.90500
H  46.27200 46.91900 38.89100
H  44.19300 47.08500 38.01300
H  43.86100 45.40800 38.53200
H  52.52100 41.47800 40.64000
H  50.96500 41.96500 40.14400
H  51.20300 41.17700 41.74500
H  54.99000 44.18000 43.99300
H  55.04800 45.08000 42.34300
H  56.04600 43.64500 42.75700
H  53.62300 49.03100 43.21100
H  51.95000 49.87900 45.54500
H  53.73000 47.23700 45.44800
H  53.79300 48.88500 46.15600
H  55.06900 48.34600 45.08300
H  51.61900 51.32100 42.85100
H  53.28700 51.22200 43.19300
H  51.38600 52.47800 45.06100
H  52.34200 53.39700 43.89500
H  53.24600 52.43100 45.15100
H  47.44500 52.27600 44.39700
H  46.06200 52.32700 43.17800
H  47.83600 52.65100 42.78200
H  44.69100 48.36500 40.37600
H  42.46200 44.87000 42.01500
H  41.44600 45.26200 40.63200
H  41.34300 46.11700 42.24900
Mg -12.22700 16.75200 41.21800
C  -9.12400 14.99600 41.22300
C  -10.51400 19.66700 40.56700
C  -15.13700 18.09900 40.82700
C  -13.74300 13.56800 41.78700
N  -10.01800 17.19900 40.78300
C  -8.92800 16.35300 40.90400
C  -7.65000 17.13800 40.60500
C  -8.10700 18.68600 40.54700
C  -9.64100 18.53500 40.62900
C  -7.53800 19.43500 41.73400
C  -6.84500 16.59000 39.32600
C  -5.33700 16.94600 39.20600
H  -4.95000 17.57800 37.82900
N  -12.81000 18.69500 40.66500
C  -11.95400 19.83000 40.52400
C  -12.80500 20.93600 40.12200
C  -14.15300 20.44000 40.02000
C  -14.10300 19.02900 40.51300
C  -12.14500 22.29700 39.69600
C  -15.28800 21.20200 39.50200
O  -15.20200 22.38300 39.33600
C  -16.58600 20.49300 39.23000
N  -14.15100 15.96100 41.36100
C  -15.23200 16.79700 41.27700
C  -16.58000 16.04400 41.41500
C  -16.10700 14.61600 41.58900
C  -14.57800 14.69100 41.53800
C  -17.49500 16.78900 42.46300
C  -16.56400 13.52800 40.55200
C  -17.21900 12.30900 41.11600
N  -11.63700 14.63700 41.58000
C  -12.37700 13.48800 41.77300
C  -11.46100 12.37800 41.98600
C  -10.16700 12.95300 41.68300
C  -10.32600 14.31200 41.46500
C  -11.79500 11.04100 42.39500
C  -8.78100 12.62800 41.60100
O  -8.19700 11.54800 41.64900
C  -8.02200 13.95800 41.20200
C  -6.98600 14.26000 42.27100
O  -7.11800 13.98700 43.44700
O  -5.80300 14.82300 41.80900
C  -4.87000 15.26600 42.90000
H  -10.01800 20.63700 40.49100
H  -16.14700 18.50900 40.75800
H  -14.17700 12.59100 42.00900
H  -6.87500 17.01200 41.36200
H  -7.71700 19.16300 39.64800
H  -7.01800 20.35100 41.45400
H  -6.96500 18.79600 42.40600
H  -8.41100 19.71700 42.32500
H  -7.22400 17.06800 38.42300
H  -6.84300 15.51600 39.14000
H  -4.72700 16.07100 39.43100
H  -5.10200 17.66800 39.98800
H  -12.72500 22.76900 38.90300
H  -11.15000 22.10000 39.29700
H  -12.10900 22.95600 40.56400
H  -16.34900 19.48600 38.88700
H  -17.04400 20.96700 38.36200
H  -17.08000 20.44700 40.20100
H  -17.04000 16.12900 40.43000
H  -16.32700 14.32400 42.61600
H  -18.50200 16.91000 42.06300
H  -17.05000 17.74500 42.73700
H  -17.63300 16.12500 43.31700
H  -15.65100 13.19500 40.05700
H  -17.14900 13.95300 39.73600
H  -16.83400 12.18000 42.12700
H  -16.96000 11.40000 40.57300
H  -18.30500 12.39500 41.13200
H  -11.85100 10.43400 41.49100
H  -12.74700 10.86300 42.89600
H  -11.03600 10.55300 43.00600
H  -7.61300 13.78600 40.20700
H  -3.83400 15.48000 42.63800
H  -4.83900 14.57400 43.74200
H  -5.38300 16.11100 43.35900

