158

Mg 16.96200 51.72900 26.00600
C  18.58100 50.08300 28.69500
C  14.64900 52.85100 28.12600
C  15.38800 52.82700 23.34100
C  19.46700 50.41000 23.84600
N  16.72500 51.56400 28.10800
C  17.53200 50.94300 29.07700
C  17.10100 51.35700 30.43000
C  15.69500 52.05500 30.24500
C  15.67500 52.23900 28.70900
C  14.40900 51.34200 30.83300
C  18.22500 52.11500 31.26000
C  18.71300 51.47200 32.51100
H  17.95200 51.64600 33.82800
N  15.21400 52.72100 25.78700
C  14.37300 53.09700 26.74800
C  13.26800 53.82300 26.20900
C  13.51800 53.84800 24.77900
C  14.77400 53.09800 24.52700
C  12.13300 54.21500 26.96400
C  12.71200 54.44800 23.69000
O  12.93500 54.23300 22.54000
C  11.53400 55.39800 24.09100
N  17.31800 51.60500 23.92700
C  16.54500 52.13900 23.03500
C  16.99800 51.83100 21.59600
C  18.51100 51.61600 21.94400
C  18.41500 51.11000 23.33700
C  16.31200 50.54100 21.07200
C  19.40100 52.82700 21.72700
C  20.19300 52.77400 20.45300
N  18.67700 50.54200 26.19300
C  19.56200 50.08000 25.20100
C  20.55900 49.21700 25.85000
C  20.26500 49.35900 27.23000
C  19.03800 50.00800 27.37900
C  21.67100 48.40600 25.25500
C  20.76000 48.94600 28.55800
O  21.71300 48.22300 28.88200
C  19.61400 49.42900 29.53800
C  19.08500 48.35100 30.28300
O  18.16400 47.59400 30.01700
O  19.95800 48.33200 31.39100
C  19.83800 47.20000 32.17700
H  13.96200 53.26000 28.87000
H  14.97300 53.15600 22.38600
H  20.28000 50.01300 23.23400
H  16.74900 50.50400 31.01000
H  15.59400 53.01000 30.76000
H  13.71400 52.08500 31.22400
H  14.72200 50.51900 31.47500
H  13.95200 50.89700 29.94900
H  17.86900 53.10800 31.53100
H  19.10700 52.33300 30.65700
H  19.64800 51.99600 32.71000
H  18.89800 50.39700 32.50900
H  11.27800 53.73900 26.48400
H  12.03000 55.29700 26.88100
H  12.07800 53.91400 28.01000
H  11.10700 55.82200 23.18200
H  11.86900 56.16200 24.79300
H  10.72200 54.87600 24.59700
H  16.74800 52.58900 20.85400
H  18.92000 50.79300 21.35900
H  15.40000 50.37200 21.64400
H  17.01700 49.71300 21.15200
H  16.00600 50.60800 20.02900
H  20.01100 52.90300 22.62700
H  18.69200 53.65400 21.77500
H  21.16500 53.25800 20.55600
H  19.68200 53.35800 19.68800
H  20.46800 51.77100 20.12600
H  21.87800 47.61200 25.97200
H  22.56400 49.00000 25.06100
H  21.27400 47.88800 24.38100
H  20.09400 50.24000 30.08600
H  19.58500 47.49200 33.19600
H  20.75900 46.61800 32.21300
H  19.08300 46.45100 31.94300
Mg 9.48000 47.40000 26.77300
C  7.64700 47.32300 29.81900
C  12.20700 48.68900 28.55500
C  10.99400 47.44800 23.92900
C  6.45200 46.42700 25.13800
N  9.90400 47.83100 28.84900
C  8.99500 47.69300 29.92000
C  9.63600 48.10700 31.24400
C  10.77900 48.99400 30.70100
C  11.01600 48.49300 29.30500
C  10.43800 50.49900 30.68900
C  10.04100 46.92700 32.10100
C  9.56500 47.07100 33.60700
H  9.32300 45.83000 34.49000
N  11.39000 47.99500 26.32600
C  12.37400 48.44100 27.12600
C  13.53500 48.50100 26.27300
C  13.24800 48.09700 24.95700
C  11.81000 47.89200 25.01600
C  14.85200 49.08500 26.85500
C  14.19900 47.92800 23.65200
O  13.86600 47.57500 22.50900
C  15.64000 48.21500 23.78000
N  8.75500 46.92800 24.77800
C  9.63600 47.02100 23.78500
C  9.01700 46.62100 22.40100
C  7.57600 46.09600 22.90200
C  7.55100 46.56700 24.31500
C  9.12400 47.83400 21.43600
C  7.33700 44.59200 22.78500
C  8.24900 43.52000 23.40900
N  7.37700 47.09900 27.30400
C  6.26900 46.70900 26.52100
C  5.07300 46.74900 27.29500
C  5.58300 46.94900 28.65900
C  6.99700 47.12600 28.54300
C  3.69200 46.45500 26.76700
C  5.22900 46.99200 30.00900
O  4.12300 46.92800 30.62100
C  6.61500 47.11100 30.83600
C  6.61800 45.77200 31.59800
O  7.06600 44.69000 31.15100
O  5.97900 45.97600 32.73900
C  5.61200 44.75100 33.46100
H  13.09400 48.93000 29.14500
H  11.50500 47.43700 22.96400
H  5.51900 46.18000 24.62800
H  8.99100 48.80500 31.77900
H  11.71800 48.82800 31.22900
H  11.15400 51.19500 31.12500
H  9.52300 50.66900 31.25700
H  10.23800 50.83400 29.67100
H  11.12500 46.81400 32.06200
H  9.67300 46.01400 31.63500
H  8.68500 47.70500 33.71100
H  10.47600 47.48100 34.04300
H  14.83400 49.35200 27.91200
H  15.14300 49.94800 26.25700
H  15.64300 48.33900 26.78100
H  15.94900 47.88500 24.77300
H  15.81600 49.29000 23.76300
H  16.15900 47.60800 23.03800
H  9.53700 45.83900 21.84800
H  6.78000 46.61400 22.36800
H  9.39500 48.72600 22.00100
H  8.19500 48.04100 20.90500
H  9.90700 47.66100 20.69800
H  7.27900 44.36100 21.72200
H  6.32900 44.26900 23.04400
H  8.69100 44.00500 24.27900
H  8.91100 43.15700 22.62300
H  7.72400 42.65500 23.81400
H  3.27700 47.17400 26.06100
H  2.98600 46.22200 27.56400
H  3.68400 45.52100 26.20500
H  6.56600 47.96600 31.50900
H  5.59600 44.95400 34.53200
H  6.33300 43.95900 33.25500
H  4.62000 44.43000 33.14400

