158

Mg -2.77000 16.77800 26.69800
C  -3.18400 14.65200 29.46600
C  -3.08000 19.48400 28.81800
C  -2.35900 18.80000 24.01700
C  -2.67200 13.99700 24.53500
N  -2.97000 16.96900 28.91000
C  -3.13900 15.93100 29.82900
C  -3.23700 16.47300 31.22800
C  -3.26300 18.11800 30.95100
C  -3.06200 18.25400 29.46600
C  -4.60500 18.75200 31.37500
C  -2.21600 15.88100 32.22400
C  -1.71900 16.71200 33.32300
H  -1.36900 16.10000 34.64500
N  -2.84800 18.78900 26.46000
C  -2.94600 19.76500 27.44200
C  -2.81600 21.06900 26.88000
C  -2.59400 20.91000 25.48100
C  -2.64000 19.45400 25.22400
C  -2.78700 22.41200 27.64000
C  -2.18000 21.94400 24.39500
O  -1.97500 21.61900 23.23200
C  -1.80100 23.38400 24.85000
N  -2.40900 16.43900 24.63600
C  -2.30900 17.44900 23.79800
C  -2.15500 16.96400 22.31700
C  -2.16800 15.35200 22.48200
C  -2.38800 15.25200 23.98400
C  -3.38700 17.28900 21.44000
C  -0.84200 14.68700 22.01000
C  -0.98700 13.94100 20.66800
N  -2.95500 14.71800 26.93200
C  -2.94200 13.71500 25.92200
C  -3.19800 12.40000 26.59100
C  -3.24300 12.75100 28.01200
C  -3.05700 14.14200 28.18900
C  -3.44500 11.11700 25.99800
C  -3.48200 12.21800 29.33200
O  -3.63900 11.02900 29.68900
C  -3.40600 13.42700 30.34200
C  -2.26100 13.12400 31.25500
O  -1.09500 13.25400 30.88700
O  -2.58400 12.56900 32.51100
C  -1.44300 11.92300 33.19700
H  -3.02700 20.34200 29.49200
H  -2.21600 19.35600 23.08900
H  -2.54700 13.12400 23.89100
H  -4.23700 16.19300 31.56100
H  -2.36200 18.48200 31.44400
H  -4.39400 19.41200 32.21600
H  -5.30400 17.94300 31.58700
H  -5.06400 19.28500 30.54200
H  -1.34600 15.45300 31.72600
H  -2.71700 15.03700 32.69700
H  -2.38600 17.56000 33.48300
H  -0.77300 17.20200 33.08800
H  -3.03000 22.39400 28.70200
H  -3.46200 23.14000 27.18900
H  -1.77800 22.77100 27.44000
H  -2.68500 23.79000 25.34100
H  -1.58000 24.05100 24.01600
H  -0.88300 23.18800 25.40500
H  -1.29500 17.37900 21.79100
H  -2.94000 14.75300 21.99900
H  -4.22700 17.65100 22.03300
H  -3.83400 16.42100 20.95500
H  -3.03400 17.94900 20.64800
H  -0.36500 14.15300 22.83300
H  -0.13400 15.48600 21.78900
H  -1.97000 13.49100 20.52800
H  -0.27500 13.13500 20.84700
H  -0.58800 14.65900 19.95100
H  -3.63600 11.26800 24.93600
H  -4.29600 10.67700 26.51800
H  -2.55000 10.54700 26.24900
H  -4.31600 13.38300 30.94000
H  -1.66300 10.85900 33.28100
H  -1.43200 12.42100 34.16700
H  -0.48900 12.02400 32.68000
Mg 37.52300 50.22400 25.24700
C  38.03500 48.22400 28.18400
C  35.94400 52.52700 27.32200
C  37.08500 51.97100 22.62300
C  38.65100 47.43700 23.33000
N  37.05900 50.33400 27.51500
C  37.58700 49.51400 28.48400
C  37.29000 49.99500 29.88200
C  36.57400 51.35700 29.57600
C  36.51300 51.39400 28.05800
C  35.26000 51.56700 30.37300
C  38.53300 50.19700 30.77900
C  38.43700 49.54500 32.21500
H  37.15700 50.00000 33.02000
N  36.60700 51.97100 24.89700
C  36.01400 52.78800 25.87100
C  35.46800 53.94000 25.22500
C  35.68500 53.74900 23.82800
C  36.43500 52.49700 23.71600
C  34.78000 55.02900 26.03000
C  35.10100 54.61200 22.73600
O  35.32100 54.36900 21.56000
C  34.11000 55.76400 22.96600
N  37.77000 49.71300 23.32500
C  37.63500 50.69700 22.35700
C  38.16400 50.25700 20.93600
C  38.98400 48.99800 21.30000
C  38.35300 48.68300 22.73800
C  36.92500 50.04000 19.92700
C  40.55700 49.19500 21.32300
C  41.25900 48.30300 20.25400
N  38.17400 48.26200 25.62800
C  38.55200 47.24700 24.73800
C  38.83500 46.02500 25.49500
C  38.70500 46.39800 26.85600
C  38.29900 47.77500 26.84800
C  39.27500 44.76400 24.90800
C  38.80700 45.95700 28.22400
O  39.17300 44.87700 28.60300
C  38.40300 47.15100 29.08400
C  37.22600 46.54500 29.62300
O  36.19800 46.29200 28.99100
O  37.43300 46.32700 30.93800
C  36.38300 45.74800 31.65000
H  35.58800 53.27300 28.03500
H  36.98400 52.63100 21.75900
H  39.13600 46.70400 22.68300
H  36.71400 49.29200 30.48400
H  37.17900 52.21600 29.86700
H  34.80800 50.66500 30.78700
H  34.53900 52.14600 29.79600
H  35.64000 52.11700 31.23300
H  38.89800 51.21700 30.89600
H  39.39900 49.77700 30.26700
H  39.31900 49.85600 32.77400
H  38.57300 48.46600 32.14300
H  34.64900 54.85100 27.09800
H  33.76200 55.03000 25.64100
H  35.31300 55.97700 25.95000
H  33.16700 55.38000 23.35600
H  33.80800 56.26500 22.04600
H  34.48600 56.48000 23.69600
H  38.74900 51.07200 20.51100
H  38.75000 48.11700 20.70300
H  36.03200 50.41000 20.43200
H  36.82500 48.97400 19.71800
H  36.98600 50.50200 18.94200
H  40.94500 49.05400 22.33200
H  40.80200 50.23100 21.08900
H  41.95700 49.00400 19.79900
H  40.68500 47.78700 19.48400
H  41.85900 47.53300 20.74000
H  40.04100 44.19200 25.43100
H  39.48300 44.85000 23.84100
H  38.46400 44.06800 25.12200
H  39.09700 47.45700 29.86700
H  35.69900 45.20600 30.99700
H  35.74900 46.50800 32.10800
H  36.78100 44.97900 32.31200

