158

Mg 40.49900 9.34700 29.61900
C  42.16100 10.45800 32.37000
C  38.27000 7.52300 31.65300
C  38.90900 8.17700 26.90600
C  43.03200 10.61800 27.57500
N  40.29900 8.94300 31.76900
C  41.04200 9.66600 32.65100
C  40.54700 9.38500 34.08000
C  39.42000 8.30000 33.81900
C  39.29100 8.25300 32.33500
C  39.67900 6.84700 34.41100
C  39.90100 10.71500 34.77700
C  39.41800 10.49100 36.26700
H  39.99400 11.29000 37.41800
N  38.82100 8.03200 29.29900
C  38.00300 7.52000 30.22000
C  36.88700 6.85100 29.61500
C  37.00100 7.14800 28.19800
C  38.29400 7.78400 28.07900
C  35.84800 6.17400 30.43900
C  36.00000 6.90300 27.06600
O  36.14800 7.22600 25.89400
C  34.56700 6.27700 27.44700
N  41.07200 9.07200 27.55900
C  40.19000 8.76400 26.63300
C  40.70000 9.04400 25.26500
C  41.78100 10.14800 25.51900
C  41.96600 9.95800 27.02900
C  41.27100 7.77400 24.54000
C  41.32000 11.49600 24.99600
C  40.70800 12.55900 25.91700
N  42.34100 10.25700 29.85500
C  43.21500 10.73700 28.95800
C  44.26300 11.51500 29.67700
C  43.89100 11.35500 30.97400
C  42.72700 10.58800 31.06000
C  45.29600 12.39400 29.02200
C  44.21000 11.85300 32.30800
O  45.02600 12.72200 32.68100
C  43.11600 11.19700 33.24200
C  43.78500 10.42600 34.27400
O  44.68400 9.65600 34.06700
O  43.09800 10.69900 35.48900
C  43.75300 10.12300 36.65400
H  37.56700 7.09600 32.37100
H  38.44100 7.82400 25.98500
H  43.83500 11.07000 26.98900
H  41.30100 8.94900 34.73500
H  38.43200 8.52600 34.21900
H  38.83700 6.59600 35.05700
H  40.54000 6.92900 35.07500
H  39.73200 6.06200 33.65700
H  39.00700 10.93700 34.19400
H  40.63000 11.51400 34.64100
H  39.43200 9.41800 36.46100
H  38.36400 10.76600 36.22700
H  35.30000 5.41100 29.88700
H  35.06300 6.83900 30.79800
H  36.38100 5.64600 31.23000
H  33.83700 6.62300 26.71600
H  34.31300 6.81800 28.35800
H  34.61400 5.22700 27.73800
H  39.89600 9.49200 24.68000
H  42.81800 10.03100 25.20500
H  40.93000 6.83800 24.98200
H  42.35900 7.72400 24.58800
H  40.89100 7.76900 23.51800
H  40.58400 11.31600 24.21200
H  42.19200 11.96800 24.54400
H  40.88200 12.34700 26.97200
H  39.63000 12.70900 25.85300
H  41.15000 13.54800 25.79800
H  45.04100 12.89500 28.08800
H  46.11200 11.72600 28.74700
H  45.65400 13.15300 29.71700
H  42.48100 12.01500 33.58300
H  43.53700 9.05500 36.64100
H  43.58200 10.64200 37.59800
H  44.84100 10.17500 36.62100
Mg -2.08400 34.24400 26.53600
C  -3.77300 32.95100 29.29600
C  -0.60100 36.54000 28.65000
C  -0.53300 35.77300 23.84200
C  -3.84900 32.23500 24.44000
N  -2.27400 34.76700 28.68200
C  -2.89800 33.99500 29.64700
C  -2.44400 34.31100 31.05100
C  -1.60700 35.62300 30.79100
C  -1.51200 35.62700 29.25200
C  -2.09600 36.92500 31.38300
C  -1.64800 33.14600 31.76000
C  -1.01300 33.55000 33.09400
H  -1.46600 32.85700 34.34200
N  -0.79000 36.01400 26.25100
C  -0.21900 36.73600 27.25100
C  0.73000 37.70200 26.65300
C  0.74000 37.49500 25.20800
C  -0.20200 36.37200 25.00300
C  1.60000 38.64000 27.46800
C  1.43100 38.16400 24.09700
O  1.16600 37.90200 22.91000
C  2.49700 39.07200 24.40400
N  -2.28200 34.16900 24.41800
C  -1.52400 34.78900 23.53800
C  -1.52500 34.17400 22.16100
C  -2.48200 32.95900 22.33400
C  -2.92900 33.10700 23.85600
C  -2.17700 35.13200 20.97300
C  -1.77600 31.56100 22.10100
C  -2.83200 30.51800 21.69100
N  -3.59800 32.91200 26.72900
C  -4.13600 32.10700 25.79400
C  -4.93600 31.11500 26.42300
C  -4.89600 31.44300 27.83600
C  -4.07300 32.53100 27.93500
C  -5.67700 30.03900 25.73100
C  -5.39200 31.08600 29.15700
O  -6.17200 30.17400 29.52200
C  -4.59800 32.03800 30.16600
C  -5.57500 32.65700 31.00200
O  -6.70900 33.00500 30.60400
O  -5.22000 32.59200 32.31900
C  -6.36800 32.71100 33.28700
H  -0.04500 37.10400 29.40300
H  -0.06000 35.93700 22.87200
H  -4.48700 31.72000 23.71800
H  -3.40100 34.48800 31.54200
H  -0.63100 35.52900 31.26700
H  -2.57800 37.66700 30.74700
H  -1.30000 37.46900 31.89200
H  -2.85600 36.58400 32.08700
H  -0.94700 32.70900 31.04900
H  -2.40400 32.37500 31.90900
H  -1.03500 34.63200 33.22300
H  0.05700 33.34900 33.04100
H  2.62800 38.63800 27.10400
H  1.62400 38.30300 28.50500
H  1.14300 39.62900 27.46300
H  2.15000 39.94700 24.95300
H  2.86300 39.46700 23.45700
H  3.34800 38.60500 24.90000
H  -0.52500 33.90800 21.81800
H  -3.35200 33.04300 21.68200
H  -3.26400 35.09700 20.90000
H  -1.78400 34.89000 19.98600
H  -1.91500 36.18600 21.06200
H  -1.52700 31.28800 23.12600
H  -0.80600 31.52300 21.60500
H  -2.39400 29.92500 20.88800
H  -3.83800 30.92500 21.58900
H  -3.02000 29.75500 22.44700
H  -5.43600 29.09900 26.22700
H  -5.52000 29.87600 24.66400
H  -6.75700 30.12900 25.84400
H  -3.98900 31.37800 30.78400
H  -6.80000 31.73300 33.49800
H  -7.07400 33.43400 32.87800
H  -6.05800 33.26800 34.17100

