158

Mg 1.72700 -1.06900 43.98700
C  5.18900 -0.67600 43.47800
C  1.14100 1.70400 42.11800
C  -1.44100 -2.13200 43.78200
C  2.55000 -4.34900 45.39100
N  3.10000 0.30500 42.77700
C  4.42500 0.31100 42.77000
C  4.99200 1.58400 42.02400
C  3.65500 2.31000 41.63200
C  2.55500 1.44200 42.29500
C  3.53300 3.80900 42.14900
C  6.01000 1.22700 40.88300
C  5.86800 -0.03400 40.03000
H  5.69300 0.08700 38.50900
N  0.01200 -0.22100 43.23200
C  -0.01800 0.98300 42.59600
C  -1.32100 1.26700 42.19700
C  -2.11500 0.10400 42.47700
C  -1.22500 -0.84300 43.23300
C  -1.83400 2.48800 41.44100
C  -3.62500 -0.20000 42.17800
O  -4.24200 0.67200 41.60700
C  -4.36500 -1.42900 42.64800
N  0.70700 -3.08000 44.45900
C  -0.56700 -3.17300 44.38600
C  -1.11600 -4.58200 44.74200
C  0.11700 -5.11400 45.56700
C  1.20700 -4.16200 45.09700
C  -2.52700 -4.74400 45.31500
C  0.32300 -6.62300 45.28100
C  0.99000 -7.49400 46.43500
N  3.46400 -2.29300 44.39600
C  3.59200 -3.53700 44.95800
C  4.97000 -3.87900 45.06700
C  5.63000 -2.80000 44.54500
C  4.71600 -1.84500 44.09600
C  5.51600 -5.13300 45.68900
C  6.96100 -2.25700 44.25200
O  8.07900 -2.65800 44.57100
C  6.71800 -0.81300 43.63200
C  7.29400 0.20000 44.56900
O  6.99300 0.34500 45.72800
O  8.13300 1.10700 43.94300
C  8.63200 2.30900 44.68500
H  0.92300 2.62800 41.57800
H  -2.39500 -2.62500 43.58300
H  2.79400 -5.32200 45.82300
H  5.63300 2.25400 42.59600
H  3.60700 2.19800 40.54800
H  3.37100 4.00400 43.21000
H  2.68400 4.25600 41.63100
H  4.45700 4.24800 41.77400
H  6.94900 1.23900 41.43600
H  6.16400 2.08000 40.22200
H  4.92900 -0.49300 40.34000
H  6.61300 -0.74700 40.38200
H  -2.67200 2.97800 41.93600
H  -2.16100 2.37700 40.40700
H  -1.15800 3.34200 41.48100
H  -5.27200 -1.34200 42.04800
H  -4.52600 -1.53200 43.72100
H  -3.87700 -2.31800 42.25000
H  -1.24900 -5.06600 43.77400
H  -0.09900 -4.97100 46.62600
H  -3.25900 -5.13600 44.60900
H  -2.95500 -3.75400 45.47200
H  -2.51900 -5.26700 46.27100
H  0.99200 -6.74300 44.42900
H  -0.65400 -7.08000 45.12400
H  0.24000 -8.21800 46.75000
H  1.36600 -6.92300 47.28400
H  1.88400 -7.94300 46.00300
H  4.84900 -5.99300 45.62200
H  5.86800 -4.99600 46.71100
H  6.38900 -5.45900 45.12300
H  7.33900 -0.82000 42.73700
H  8.36000 2.33800 45.74000
H  8.32300 3.14800 44.06200
H  9.71900 2.29800 44.60100
Mg 5.22100 54.91100 41.60100
C  3.99300 51.58200 41.19500
C  8.31100 53.91000 40.37700
C  6.22200 58.18700 41.69900
C  1.95400 55.74000 42.69300
N  6.09900 52.97400 40.91300
C  5.36400 51.83300 40.70000
C  6.17100 50.88900 39.85800
C  7.65800 51.38000 40.10700
C  7.37400 52.83700 40.41600
C  8.48100 50.56100 41.14600
C  5.77100 51.02200 38.37700
C  5.54400 49.75800 37.47000
H  6.08900 49.76300 36.06100
N  6.85200 55.91000 40.94200
C  8.06400 55.27000 40.68600
C  9.12300 56.23100 40.55600
C  8.61600 57.54100 40.94400
C  7.17000 57.26400 41.23400
C  10.54800 55.89000 40.16800
C  9.45600 58.76000 41.16700
O  10.63800 58.65900 40.90000
C  8.83500 60.05900 41.68400
N  4.21700 56.68500 41.86700
C  4.87500 57.88300 42.01800
C  3.99200 58.98200 42.63800
C  2.58800 58.15300 42.83100
C  2.94600 56.75700 42.45300
C  4.51600 59.85600 43.86700
C  1.36300 58.74100 42.10800
C  0.11300 59.16400 42.98000
N  3.37700 53.88600 41.97700
C  2.16200 54.34000 42.45100
C  1.22500 53.24500 42.68800
C  1.92600 52.14300 42.29300
C  3.18900 52.58500 41.78800
C  -0.16900 53.34300 43.26900
C  1.86800 50.70800 42.09200
O  0.98600 49.89800 42.33200
C  3.26100 50.25200 41.43200
C  2.96700 49.26000 40.26700
O  2.43900 49.58700 39.21600
O  3.35300 48.01700 40.63900
C  2.77200 46.89100 39.84800
H  9.27400 53.51100 40.05200
H  6.54800 59.22100 41.83100
H  0.94400 55.90900 43.07400
H  6.15300 49.89700 40.30900
H  8.24500 51.31900 39.19100
H  9.41100 50.18000 40.72500
H  7.93100 49.68900 41.50100
H  8.77800 51.11600 42.03500
H  6.41400 51.79100 37.95100
H  4.83400 51.57900 38.40200
H  4.48800 49.61200 37.24400
H  6.12000 48.98300 37.97600
H  11.18200 55.73900 41.04100
H  10.89700 56.75100 39.59600
H  10.60500 55.03000 39.50100
H  9.70300 60.71400 41.77000
H  8.48700 59.94800 42.71100
H  8.12400 60.53100 41.00700
H  3.81800 59.73100 41.86600
H  2.37900 58.06900 43.89800
H  3.77000 59.85200 44.66200
H  4.71300 60.87300 43.52900
H  5.49400 59.48700 44.17500
H  1.05900 58.04700 41.32400
H  1.72300 59.69600 41.72700
H  0.13500 58.59300 43.90800
H  -0.83200 59.14400 42.43700
H  0.10500 60.20700 43.29800
H  -0.16300 52.81700 44.22400
H  -0.92400 52.90600 42.61500
H  -0.33200 54.37400 43.58200
H  3.84100 49.64900 42.13000
H  1.83600 46.55400 40.29500
H  3.44000 46.03000 39.86200
H  2.47300 47.27500 38.87300

