158

Mg 55.30000 23.26900 43.92500
C  52.63800 25.30700 42.72300
C  53.26700 20.49800 43.12700
C  58.02000 21.23900 44.22000
C  57.18600 25.98900 44.62700
N  53.26100 22.95400 42.88400
C  52.39400 23.93100 42.48100
C  51.10300 23.41100 41.95200
C  51.19200 21.95100 42.42500
C  52.64000 21.72700 42.90000
C  50.27100 21.73100 43.65400
C  50.87800 23.53400 40.40600
C  49.50200 24.13600 39.97300
H  48.86500 23.68800 38.63000
N  55.60200 21.14100 43.76000
C  54.60400 20.19200 43.48300
C  55.23800 18.88400 43.51200
C  56.66900 19.06600 43.79700
C  56.81700 20.50300 43.99300
C  54.59600 17.50600 43.20000
C  57.63100 17.93100 43.92600
O  57.34200 16.79100 43.83200
C  59.01200 18.17800 44.40300
N  57.30000 23.56900 44.38300
C  58.18200 22.56400 44.53200
C  59.58900 23.06300 44.82200
C  59.34300 24.58300 44.99300
C  57.86000 24.74000 44.74700
C  60.37100 22.48700 46.04700
C  60.17400 25.33900 44.01000
C  61.35500 26.15200 44.67800
N  55.01600 25.32000 43.68300
C  55.90000 26.29200 44.05700
C  55.23300 27.54100 43.91100
C  53.88200 27.24100 43.48700
C  53.86700 25.86000 43.20600
C  55.86700 28.88400 44.33000
C  52.49000 27.74000 43.18800
O  51.98300 28.83800 43.39100
C  51.72700 26.58300 42.58200
C  51.54300 27.01400 41.17800
O  52.19200 26.68100 40.23400
O  50.41900 27.74300 41.12100
C  49.89100 28.29800 39.88400
H  52.64900 19.60800 42.98900
H  59.00000 20.75600 44.21000
H  57.85100 26.84300 44.77800
H  50.32700 24.01000 42.42800
H  50.89000 21.27400 41.62600
H  50.51500 20.75600 44.07500
H  49.22300 21.82700 43.37200
H  50.48000 22.50400 44.39400
H  50.99900 22.57000 39.91200
H  51.61800 24.16500 39.91500
H  49.69800 25.19300 39.79600
H  48.72100 23.95600 40.71300
H  54.89700 17.24500 42.18600
H  53.52800 17.65500 43.03800
H  54.78400 16.73600 43.94900
H  59.72700 18.51500 43.65100
H  59.39200 17.25800 44.84600
H  58.88900 18.83200 45.26700
H  60.14700 22.77600 43.93100
H  59.57500 25.01400 45.96700
H  61.16200 21.91000 45.57000
H  59.79200 21.87500 46.73900
H  60.78100 23.33500 46.59500
H  59.71700 26.02500 43.29700
H  60.69400 24.79000 43.22500
H  61.23100 26.19300 45.76000
H  61.46600 27.07500 44.10800
H  62.27500 25.57900 44.56200
H  56.87000 28.76400 44.73900
H  55.38800 29.24300 45.24100
H  55.80400 29.61500 43.52300
H  50.70800 26.43100 42.93800
H  50.70000 28.83500 39.38800
H  49.10300 28.99700 40.16400
H  49.58300 27.42300 39.31200
Mg 47.80600 16.60300 27.74600
C  45.97900 16.26600 30.75400
C  50.20100 18.29300 29.45500
C  49.41300 17.05600 24.81900
C  45.10200 15.12900 25.98600
N  48.11400 17.05700 29.89700
C  47.26800 16.70200 30.95300
C  47.90000 17.10800 32.30100
C  49.22200 17.95300 31.85200
C  49.21200 17.72300 30.33500
C  49.21500 19.46200 32.29500
C  48.30800 15.96700 33.16800
C  47.52700 15.89100 34.59200
H  47.40400 17.22700 35.34800
N  49.64500 17.41800 27.26700
C  50.43400 18.11200 28.09000
C  51.70600 18.31300 27.38200
C  51.49500 17.96900 25.96700
C  50.11100 17.43000 25.98100
C  52.87700 18.93100 28.01500
C  52.48200 18.18200 24.82900
O  52.21300 17.96600 23.68000
C  53.83100 18.84400 25.04400
N  47.37200 16.14500 25.69500
C  48.16400 16.50500 24.64000
C  47.70400 15.88200 23.33600
C  46.24500 15.30200 23.69000
C  46.23500 15.48000 25.20500
C  47.66300 16.87100 22.12100
C  46.12700 13.81900 23.25000
C  44.95200 13.39300 22.41700
N  45.82000 16.06300 28.18600
C  44.90000 15.34200 27.39500
C  43.83300 14.89300 28.35000
C  44.18000 15.29600 29.62800
C  45.45400 15.89500 29.49700
C  42.66500 14.07700 27.98400
C  43.75300 15.29000 30.96700
O  42.73000 14.82600 31.45400
C  44.94500 15.72900 31.79900
C  44.38900 16.77000 32.68500
O  44.05500 17.87100 32.29800
O  44.06800 16.22000 33.87700
C  43.24100 17.08000 34.78400
H  50.88800 18.92700 30.02100
H  50.03700 16.97600 23.92700
H  44.33600 14.60600 25.41000
H  47.16600 17.75700 32.77900
H  50.13500 17.49900 32.23700
H  50.18600 19.68000 32.74100
H  48.47200 19.55100 33.08700
H  48.94100 20.07800 31.43900
H  49.37600 16.02700 33.37800
H  48.04900 15.12700 32.52400
H  48.05700 15.18800 35.23500
H  46.55100 15.42300 34.46500
H  52.82700 18.95900 29.10400
H  53.23500 19.90800 27.69100
H  53.77200 18.31900 27.89800
H  53.82900 19.89000 25.35100
H  54.40200 18.80200 24.11600
H  54.32000 18.25500 25.81900
H  48.42400 15.08600 23.15100
H  45.43300 15.92300 23.31200
H  47.91100 16.33300 21.20600
H  48.38300 17.68600 22.19100
H  46.68800 17.31400 21.91300
H  46.16600 13.25900 24.18400
H  47.08300 13.61100 22.77000
H  44.20300 14.16800 22.57700
H  44.57500 12.49700 22.91000
H  45.27000 13.25600 21.38300
H  42.55000 14.22700 26.91100
H  41.84400 14.56700 28.50700
H  42.87100 13.03700 28.23800
H  45.37100 14.91800 32.39000
H  42.37500 17.34800 34.17900
H  43.80800 17.98400 35.00800
H  43.15300 16.56300 35.74000

