158

Mg -1.24300 17.94700 27.35300
C  -2.21800 15.80400 30.08100
C  -1.53800 20.63200 29.31900
C  -0.95500 19.70500 24.56300
C  -1.46400 14.85000 25.34200
N  -1.85400 18.15300 29.41400
C  -2.05800 17.21200 30.40300
C  -2.37800 17.80600 31.76900
C  -2.31800 19.32900 31.39800
C  -1.82500 19.39700 29.99200
C  -3.68300 20.16100 31.74700
C  -1.27600 17.53700 32.87300
C  -1.71800 17.10000 34.20400
H  -0.61400 16.48100 35.14300
N  -1.16200 19.85800 27.01800
C  -1.27100 20.88000 27.96700
C  -1.04000 22.19600 27.31300
C  -0.91600 21.94300 25.93100
C  -0.97500 20.47600 25.76800
C  -1.20500 23.57700 27.98500
C  -0.82200 22.90000 24.68700
O  -0.87900 22.44500 23.52000
C  -0.67900 24.37800 24.89300
N  -1.53700 17.35100 25.23300
C  -1.17500 18.29500 24.33200
C  -0.90300 17.62300 22.91500
C  -0.88400 16.11600 23.27500
C  -1.33200 16.06500 24.74300
C  -1.80500 18.05700 21.75600
C  0.41800 15.34600 23.01100
C  1.68600 15.82900 23.77500
N  -1.79100 15.78200 27.59200
C  -1.68500 14.69800 26.73500
C  -2.00100 13.46000 27.40600
C  -2.26200 13.89100 28.73800
C  -2.15500 15.25300 28.80700
C  -2.07400 11.96800 26.81800
C  -2.70500 13.31600 30.03300
O  -3.00700 12.14900 30.34900
C  -2.67000 14.61600 30.91700
C  -1.66300 14.32700 32.01700
O  -0.46000 14.43700 31.82800
O  -2.22200 13.72000 33.10800
C  -1.27100 13.06000 34.08000
H  -1.71300 21.45100 30.02000
H  -0.82000 20.20700 23.60200
H  -1.63300 13.97400 24.71300
H  -3.33800 17.39100 32.07600
H  -1.64700 19.86400 32.07000
H  -3.90800 20.82000 30.90900
H  -3.44000 20.80500 32.59200
H  -4.48500 19.45100 31.95000
H  -0.78600 18.46200 33.17600
H  -0.42900 16.90900 32.59600
H  -2.40700 16.26800 34.05900
H  -2.29400 17.86100 34.73100
H  -1.86600 23.52400 28.85000
H  -1.72100 24.28200 27.33400
H  -0.25600 24.03100 28.27200
H  0.11800 24.38700 25.63600
H  -1.62200 24.77800 25.26500
H  -0.44300 24.84400 23.93600
H  0.07300 18.01000 22.62200
H  -1.64200 15.52400 22.76100
H  -2.86900 17.86400 21.88900
H  -1.61900 17.39100 20.91300
H  -1.57300 19.07900 21.45700
H  0.59600 15.43100 21.93900
H  0.22900 14.27900 23.12000
H  2.12300 14.84700 23.95800
H  1.44700 16.38900 24.67900
H  2.29800 16.35000 23.03800
H  -1.31200 11.35000 27.29300
H  -1.87500 11.99900 25.74700
H  -3.02600 11.53900 27.13000
H  -3.58300 14.77900 31.48900
H  -1.91300 13.07800 34.96100
H  -0.29200 13.49800 34.27600
H  -1.15100 12.02100 33.77500
Mg 25.24800 0.69300 30.05000
C  27.27000 0.82100 32.97000
C  22.47300 1.19100 31.99300
C  23.41500 0.78100 27.24400
C  28.11600 0.56200 28.12900
N  24.92900 0.69200 32.22800
C  25.85300 0.86100 33.19600
C  25.21100 1.09100 34.53600
C  23.70700 0.91700 34.19600
C  23.66800 0.85500 32.70000
C  22.97100 -0.22600 34.99900
C  25.49800 2.53900 35.08300
C  26.12300 2.63700 36.51500
H  25.43600 3.58200 37.61200
N  23.22100 0.84500 29.69900
C  22.24900 1.06800 30.60900
C  20.97900 1.15100 29.92000
C  21.23900 0.76800 28.53000
C  22.68300 0.80200 28.44500
C  19.67100 1.45800 30.64300
C  20.36000 0.50800 27.31500
O  20.73300 0.08200 26.23900
C  18.93900 0.67000 27.54100
N  25.65300 0.41900 28.04200
C  24.73500 0.52300 27.00100
C  25.34400 0.69800 25.64900
C  26.84100 0.56500 25.95100
C  26.86400 0.63100 27.48400
C  24.84200 -0.23900 24.49500
C  27.67800 1.71100 25.21800
C  28.04000 2.95800 25.90800
N  27.28100 0.45400 30.40400
C  28.31400 0.51300 29.56000
C  29.55600 0.51000 30.26600
C  29.25700 0.54900 31.60400
C  27.82600 0.60300 31.63200
C  30.97900 0.60100 29.73400
C  29.68800 0.79600 32.99100
O  30.80900 1.04300 33.38800
C  28.44000 0.96300 33.86900
C  28.44300 -0.09400 34.98100
O  28.40100 -1.31100 34.86500
O  28.68600 0.55500 36.14500
C  28.75500 -0.39200 37.28700
H  21.61000 1.47500 32.59800
H  22.90800 1.04700 26.31400
H  28.93900 0.68700 27.42200
H  25.59700 0.39700 35.28300
H  23.06100 1.76900 34.40700
H  22.30600 0.20600 35.74600
H  23.70400 -0.77900 35.58700
H  22.42400 -0.94000 34.38300
H  24.65400 3.22100 34.98400
H  26.13400 3.08300 34.38600
H  27.15500 2.94800 36.35100
H  26.13600 1.62500 36.91700
H  19.02800 2.09500 30.03600
H  19.76700 1.81900 31.66700
H  19.24600 0.45500 30.67800
H  18.33900 0.42600 26.66400
H  18.62400 1.68200 27.79600
H  18.56800 0.02400 28.33600
H  25.02500 1.71000 25.40200
H  27.17600 -0.45000 25.74000
H  24.13200 -0.95700 24.90500
H  25.61600 -0.82300 23.99500
H  24.41800 0.42500 23.74200
H  26.94900 2.04700 24.48000
H  28.58500 1.23000 24.85100
H  27.81300 3.81000 25.26800
H  29.11300 3.01100 26.09200
H  27.56300 3.12600 26.87400
H  31.06000 1.63100 29.38800
H  30.97500 -0.07800 28.88100
H  31.70500 0.20000 30.44000
H  28.57500 1.96200 34.28200
H  27.75700 -0.37700 37.72500
H  29.26000 0.02200 38.15900
H  29.21100 -1.36500 37.10400

