158

Mg 46.81700 25.04400 28.06300
C  47.43500 27.22400 30.70400
C  46.22200 22.54500 30.24300
C  46.68300 22.91500 25.44100
C  47.91200 27.51000 25.91600
N  46.85500 24.93200 30.27600
C  46.92700 25.99900 31.13500
C  46.69200 25.55600 32.52900
C  46.35500 24.06200 32.46000
C  46.45000 23.76800 30.90100
C  47.14000 23.08900 33.32600
C  45.54800 26.46400 33.25900
C  45.96500 27.28000 34.50500
H  45.04500 27.40000 35.69500
N  46.38000 23.04600 27.85500
C  46.17200 22.14900 28.89200
C  45.97200 20.84900 28.36300
C  46.10600 20.92300 26.95000
C  46.38200 22.34000 26.69200
C  45.54700 19.69500 29.35300
C  46.04800 19.73200 25.99500
O  46.24200 19.78300 24.77100
C  45.65900 18.41400 26.50400
N  47.46200 25.07000 25.97900
C  47.20100 24.13500 25.08900
C  47.75300 24.52400 23.69900
C  47.64000 26.09100 23.86200
C  47.64600 26.26000 25.37800
C  49.21100 24.11600 23.27000
C  46.37000 26.80300 23.19000
C  45.02600 26.38600 23.62800
N  47.60700 27.03800 28.18700
C  48.00800 27.95100 27.19200
C  48.42700 29.16900 27.80900
C  48.29400 28.93400 29.16300
C  47.68500 27.64800 29.33600
C  49.11900 30.26800 27.16400
C  48.30700 29.55700 30.40200
O  48.64500 30.69400 30.74700
C  47.85400 28.48300 31.49300
C  49.08400 28.17700 32.28200
O  50.16500 27.73400 31.95500
O  48.78800 28.53400 33.53300
C  49.86000 28.29900 34.55500
H  45.83500 21.89200 31.02800
H  46.47600 22.23000 24.61700
H  48.19300 28.30200 25.21900
H  47.64500 25.71200 33.03300
H  45.30400 23.92600 32.71400
H  47.87300 22.82100 32.56600
H  46.56600 22.26800 33.75600
H  47.69200 23.45800 34.19000
H  44.70400 25.82300 33.51200
H  45.17000 27.27500 32.63600
H  46.05600 28.31300 34.16800
H  46.96700 27.02300 34.84600
H  46.22400 18.85300 29.21000
H  44.59100 19.46800 28.88100
H  45.60100 19.88500 30.42500
H  46.32300 18.09200 27.30500
H  45.94900 17.70600 25.72800
H  44.60000 18.29800 26.73600
H  46.98600 24.30500 22.95600
H  48.53000 26.46300 23.35500
H  49.97100 24.18900 24.04700
H  49.40300 24.79200 22.43600
H  49.23500 23.08400 22.91900
H  46.32700 26.67600 22.10800
H  46.28900 27.84300 23.50600
H  44.88500 26.94500 24.55200
H  44.84400 25.33800 23.86800
H  44.17200 26.64500 23.00300
H  50.15800 29.93700 27.14300
H  49.06200 31.22600 27.68000
H  48.71000 30.52400 26.18600
H  47.00000 28.80500 32.08900
H  49.50700 27.43600 35.12000
H  49.99000 29.19400 35.16300
H  50.84800 28.01700 34.19000
Mg 25.49300 50.21300 27.08700
C  23.37900 51.54000 29.65700
C  27.62800 49.17200 29.69500
C  27.85200 49.59100 24.90700
C  23.46200 51.62200 24.75200
N  25.44300 50.31400 29.39800
C  24.41900 50.80900 30.13400
C  24.66700 50.47600 31.59600
C  26.00400 49.68800 31.68900
C  26.38100 49.68400 30.19500
C  27.10100 50.37400 32.68300
C  23.49400 49.61900 32.23900
C  22.96400 50.09200 33.59300
H  23.92100 50.77900 34.64800
N  27.50700 49.52400 27.28400
C  28.12900 49.15000 28.38200
C  29.45200 48.73800 28.00600
C  29.55900 48.68700 26.59300
C  28.31600 49.30500 26.21200
C  30.44200 48.13300 29.00000
C  30.57100 48.09600 25.62400
O  30.49100 48.23300 24.41700
C  31.66500 47.26500 26.23600
N  25.76300 50.88600 25.17100
C  26.76300 50.29700 24.39500
C  26.51800 50.44800 22.86900
C  25.02700 50.95500 22.90400
C  24.70800 51.17300 24.38300
C  27.54000 51.40800 22.24300
C  23.97400 49.88700 22.34200
C  23.37400 50.12000 20.99600
N  23.75000 51.22900 27.14200
C  23.04900 51.77400 26.08800
C  21.90700 52.57500 26.52100
C  21.98600 52.51200 27.95800
C  23.17000 51.80300 28.27000
C  20.85200 53.08800 25.60900
C  21.31100 52.84500 29.20300
O  20.22900 53.44600 29.33300
C  22.22800 52.23700 30.41000
C  22.63900 53.39700 31.18500
O  23.23000 54.34500 30.71600
O  22.29300 53.27500 32.47200
C  22.54800 54.35700 33.47400
H  28.29000 48.76300 30.46100
H  28.36300 49.05600 24.10300
H  22.79700 51.98300 23.96500
H  24.78800 51.42300 32.12200
H  25.86900 48.70800 32.14700
H  26.61300 51.02100 33.41200
H  27.77100 50.92200 32.02000
H  27.67200 49.59700 33.19100
H  23.69200 48.55100 32.31900
H  22.62100 49.66400 31.58800
H  22.46400 49.28700 34.13200
H  22.16000 50.77100 33.30900
H  30.45600 47.04300 29.00900
H  30.32700 48.56400 29.99500
H  31.42700 48.48300 28.69200
H  31.35000 46.60400 27.04400
H  32.50000 47.83500 26.64100
H  31.97600 46.50800 25.51600
H  26.62800 49.45900 22.42500
H  24.97100 51.86600 22.30800
H  28.36600 51.68000 22.90000
H  27.08200 52.35600 21.96300
H  27.94500 50.95800 21.33600
H  23.09600 49.73600 22.97000
H  24.37200 48.87300 22.33000
H  23.66900 49.32700 20.31000
H  23.80100 51.07900 20.70200
H  22.28600 50.13300 21.06000
H  19.87400 53.08000 26.08900
H  20.94000 52.51200 24.68800
H  21.11300 54.12300 25.38400
H  21.65900 51.56400 31.05000
H  22.17700 55.30500 33.08400
H  23.60800 54.48100 33.69700
H  22.16500 54.13200 34.46900

