158

Mg 2.18700 -2.08600 44.14900
C  5.68900 -1.52600 43.32900
C  1.48100 0.52400 42.06900
C  -0.89800 -3.14200 44.29200
C  3.31100 -5.23400 45.33800
N  3.48800 -0.67000 42.86900
C  4.84300 -0.71800 42.61300
C  5.22100 0.22500 41.49900
C  3.95500 1.11800 41.40200
C  2.87600 0.32000 42.14900
C  3.98200 2.60600 41.91700
C  5.57100 -0.54500 40.10200
C  6.75300 0.06000 39.37200
H  6.50900 0.57700 37.95300
N  0.45200 -1.34000 43.35200
C  0.32300 -0.27800 42.48800
C  -1.10100 0.03200 42.42800
C  -1.77500 -0.95500 43.17200
C  -0.75600 -1.82900 43.71700
C  -1.66600 1.14800 41.58900
C  -3.26200 -1.13600 43.17900
O  -3.95200 -0.37400 42.53600
C  -3.98800 -2.20900 43.99900
N  1.33000 -3.89800 44.93900
C  0.03600 -4.13400 44.63300
C  -0.36200 -5.59300 44.78300
C  1.00800 -6.27100 45.05800
C  1.95900 -5.08300 45.03000
C  -1.48200 -5.84700 45.92100
C  1.37600 -7.41100 44.06100
C  1.44200 -8.80200 44.66700
N  4.08100 -3.06900 44.60800
C  4.33400 -4.34200 45.07600
C  5.76600 -4.53500 45.20800
C  6.35900 -3.44900 44.56600
C  5.26300 -2.63200 44.09800
C  6.44400 -5.53900 46.07100
C  7.57200 -2.76800 44.19500
O  8.75800 -2.98600 44.43100
C  7.20300 -1.58100 43.26300
C  7.86800 -0.34100 43.77000
O  8.78500 0.23400 43.22800
O  7.28300 0.12000 44.92600
C  7.45100 1.58600 45.16100
H  1.24300 1.46800 41.57400
H  -1.91000 -3.55300 44.30200
H  3.64800 -6.23700 45.61000
H  6.10600 0.80300 41.76700
H  3.70500 1.20500 40.34500
H  3.63700 3.27400 41.12800
H  4.97200 2.91800 42.24900
H  3.29800 2.69700 42.76000
H  4.72200 -0.46500 39.42300
H  5.76000 -1.60200 40.29100
H  7.47500 -0.75600 39.39200
H  7.09300 0.93300 39.92900
H  -0.91000 1.86000 41.26100
H  -2.44600 1.72400 42.08700
H  -2.25500 0.67200 40.80500
H  -4.99800 -1.87600 44.23700
H  -3.44600 -2.35000 44.93400
H  -3.99800 -3.08200 43.34600
H  -0.80900 -5.88800 43.83400
H  0.81500 -6.66900 46.05500
H  -1.26400 -6.69600 46.57000
H  -2.47700 -5.89000 45.47800
H  -1.44200 -5.02500 46.63600
H  2.34600 -7.23800 43.59300
H  0.78700 -7.41000 43.14400
H  1.56200 -8.68200 45.74400
H  2.27400 -9.42800 44.34500
H  0.52000 -9.37700 44.58400
H  6.45000 -6.39500 45.39700
H  5.89900 -5.79500 46.98000
H  7.45800 -5.15500 46.18300
H  7.61500 -1.73700 42.26700
H  7.03800 1.92700 44.21100
H  8.48700 1.89600 45.29000
H  6.87500 2.07100 45.94900
Mg 41.88400 41.04700 27.39800
C  41.12100 43.53400 29.91700
C  42.75800 39.00600 29.95200
C  42.54700 38.83200 25.10000
C  41.45700 43.60200 24.97600
N  42.03500 41.38600 29.70900
C  41.53000 42.31200 30.52500
C  41.52700 41.86700 31.99100
C  42.32500 40.47800 31.93200
C  42.41700 40.28000 30.43700
C  43.68300 40.34500 32.55600
C  40.11400 41.84200 32.61300
C  39.97400 42.75000 33.89700
H  39.08500 42.07100 34.99900
N  42.52900 39.14700 27.50600
C  42.87400 38.35000 28.64100
C  43.28500 37.04000 28.20200
C  43.20600 37.05700 26.78700
C  42.70700 38.37600 26.40800
C  43.74000 35.97300 29.16200
C  43.48100 35.88200 25.87300
O  43.55700 36.05000 24.61900
C  43.89200 34.53500 26.31400
N  42.29300 41.34600 25.28900
C  42.32800 40.18200 24.60000
C  42.32600 40.47500 23.11100
C  41.83400 41.94800 23.05500
C  41.80100 42.34000 24.54400
C  43.62300 40.12900 22.33600
C  40.54300 42.24200 22.21800
C  39.30100 41.60000 22.78500
N  41.41200 43.06600 27.37900
C  41.24400 43.98000 26.32600
C  40.72500 45.23300 26.87300
C  40.71100 45.04100 28.23000
C  41.12900 43.72100 28.49900
C  40.42800 46.45300 26.17100
C  40.22300 45.73200 29.42400
O  39.77700 46.86800 29.62700
C  40.49700 44.69600 30.63500
C  41.42500 45.33900 31.62400
O  42.62100 45.41400 31.56800
O  40.78100 45.92400 32.64100
C  41.47900 46.79100 33.54700
H  42.85200 38.33200 30.80600
H  42.49800 38.04700 24.34300
H  41.31200 44.36900 24.21300
H  42.04400 42.57600 32.63800
H  41.67600 39.72700 32.38300
H  43.88300 41.21900 33.17600
H  44.41700 40.28700 31.75300
H  43.84600 39.45200 33.16000
H  39.92300 40.84600 33.01300
H  39.30200 42.08800 31.92900
H  39.40000 43.63900 33.63700
H  40.80100 43.30200 34.34300
H  43.04800 35.13400 29.08500
H  43.76100 36.36000 30.18100
H  44.70300 35.53400 28.90500
H  43.42300 34.14700 27.21900
H  44.95200 34.52300 26.56700
H  43.95800 33.81000 25.50300
H  41.60500 39.70700 22.83100
H  42.56900 42.60500 22.59000
H  44.40800 40.03500 23.08600
H  43.97500 40.90700 21.65800
H  43.63800 39.17200 21.81600
H  40.64100 41.98400 21.16300
H  40.36700 43.30900 22.08500
H  38.65300 42.41300 23.11200
H  39.48200 41.09600 23.73500
H  38.86300 40.98600 21.99900
H  41.21600 46.67800 25.45200
H  40.39100 47.24700 26.91700
H  39.47300 46.46000 25.64500
H  39.56700 44.37300 31.10300
H  41.86400 46.23800 34.40400
H  40.80900 47.60100 33.83400
H  42.30100 47.30100 33.04400

