158

Mg 24.19600 -5.01900 45.32800
C  26.42400 -2.64300 43.93600
C  21.60500 -3.68200 43.45400
C  22.33000 -7.46300 46.29200
C  27.10700 -6.28000 47.01200
N  24.13000 -3.41000 43.78500
C  25.14200 -2.58300 43.35000
C  24.65400 -1.60100 42.31600
C  23.04400 -1.73700 42.51200
C  22.84500 -2.99900 43.30600
C  22.41600 -0.50900 43.14500
C  25.10500 -1.97700 40.87500
C  25.64200 -0.80400 40.01400
H  25.36700 -1.03800 38.47900
N  22.23600 -5.42500 45.03200
C  21.35300 -4.81400 44.17600
C  20.04900 -5.47500 44.23500
C  20.24400 -6.55900 45.09800
C  21.67300 -6.52600 45.54500
C  18.86900 -4.98200 43.56700
C  19.13400 -7.67700 45.30500
O  17.97500 -7.48800 44.97600
C  19.45600 -8.95300 46.00800
N  24.64600 -6.55800 46.54500
C  23.67000 -7.46200 46.78900
C  24.22900 -8.80800 47.34100
C  25.71300 -8.34500 47.71400
C  25.82800 -7.01600 47.03500
C  23.49300 -9.43100 48.52700
C  26.82200 -9.31000 47.34600
C  27.14100 -10.31700 48.46500
N  26.31100 -4.54200 45.48700
C  27.35800 -5.13300 46.26200
C  28.60500 -4.37900 46.12400
C  28.22300 -3.32800 45.21800
C  26.87700 -3.54200 44.88000
C  29.88900 -4.64800 46.74400
C  28.69800 -2.16600 44.54300
O  29.76800 -1.55700 44.62300
C  27.56000 -1.69800 43.63400
C  27.38900 -0.20400 43.79300
O  26.67900 0.38800 44.62700
O  28.19300 0.41300 42.85800
C  28.45300 1.92600 42.95900
H  20.77100 -3.17000 42.96900
H  21.66300 -8.20200 46.74100
H  28.00100 -6.74600 47.43200
H  25.04200 -0.61300 42.56500
H  22.58300 -1.88900 41.53600
H  21.73900 -0.70200 43.97700
H  21.81400 0.10200 42.47300
H  23.28600 0.06800 43.46100
H  24.30900 -2.46900 40.31600
H  25.94100 -2.67400 40.83100
H  26.67800 -0.59000 40.27800
H  25.12200 0.10200 40.32300
H  17.98400 -5.61500 43.63400
H  19.02200 -4.47500 42.61400
H  18.67300 -4.12600 44.21200
H  18.62400 -9.64700 45.88700
H  19.69500 -8.63800 47.02400
H  20.30600 -9.43900 45.52900
H  24.20600 -9.56100 46.55300
H  25.74400 -8.07600 48.77000
H  22.72700 -8.79300 48.96800
H  24.30000 -9.73700 49.19200
H  22.92000 -10.34200 48.35600
H  27.72500 -8.80300 47.00500
H  26.44800 -9.81000 46.45300
H  28.11500 -10.80500 48.48100
H  26.37500 -11.07700 48.31000
H  26.99800 -9.81200 49.42100
H  29.86400 -4.16300 47.72000
H  30.75500 -4.24300 46.22000
H  30.03100 -5.71800 46.89600
H  27.78500 -1.88600 42.58400
H  29.38300 2.08700 42.41300
H  28.55900 2.26600 43.98900
H  27.64900 2.48000 42.47500
Mg -11.89800 17.56500 40.54900
C  -8.80800 15.62000 40.59900
C  -10.03000 20.16800 39.78700
C  -14.76200 19.09300 40.19400
C  -13.67200 14.47000 40.85000
N  -9.71200 17.75300 40.14800
C  -8.63000 16.97200 40.24600
C  -7.27400 17.76500 40.06600
C  -7.74300 19.25400 40.14000
C  -9.29600 19.04200 40.06800
C  -7.32900 20.13700 41.34000
C  -6.51000 17.44100 38.73700
C  -5.01100 17.36500 38.76500
H  -4.31800 17.17600 37.45500
N  -12.33800 19.47500 40.06700
C  -11.44600 20.44400 39.64800
C  -12.15100 21.67200 39.42100
C  -13.52300 21.34800 39.57000
C  -13.60100 19.92700 40.00500
C  -11.52100 23.04200 38.95600
C  -14.58100 22.32900 39.48000
O  -14.37900 23.54100 39.23800
C  -16.07600 21.94200 39.64900
N  -13.99500 16.83600 40.49300
C  -14.94600 17.73200 40.41900
C  -16.35700 17.06000 40.50000
C  -16.00900 15.53500 40.97700
C  -14.45300 15.58500 40.80500
C  -17.35000 17.75000 41.45800
C  -16.69500 14.50400 40.01800
C  -16.67800 13.06100 40.52100
N  -11.37800 15.49600 40.70500
C  -12.26800 14.43200 40.82900
C  -11.45700 13.18900 40.86900
C  -10.11100 13.67500 40.84300
C  -10.11300 15.05400 40.73100
C  -11.96700 11.78900 40.70500
C  -8.71500 13.22600 40.84400
O  -8.38700 12.07000 40.84200
C  -7.79900 14.48400 40.56800
C  -6.73500 14.59300 41.62400
O  -6.93700 15.28000 42.62600
O  -5.51100 14.01800 41.25800
C  -4.41700 14.23300 42.21300
H  -9.46200 21.09900 39.84200
H  -15.75900 19.53900 40.21300
H  -14.08200 13.49500 41.12000
H  -6.66100 17.40200 40.89100
H  -7.53300 19.85800 39.25700
H  -8.11300 20.10200 42.09700
H  -7.09700 21.18200 41.13300
H  -6.46300 19.55600 41.65700
H  -6.68400 18.18100 37.95600
H  -6.85700 16.53500 38.24000
H  -4.70800 16.55300 39.42700
H  -4.61000 18.27500 39.21000
H  -10.47500 22.91100 38.67900
H  -11.67700 23.76000 39.76100
H  -12.03100 23.34600 38.04100
H  -16.47900 21.26700 38.89400
H  -16.71400 22.82600 39.63700
H  -16.12900 21.45100 40.62100
H  -16.85600 16.96200 39.53600
H  -16.23300 15.38900 42.03400
H  -17.96500 17.05900 42.03500
H  -18.11500 18.25400 40.86800
H  -16.83800 18.54200 42.00400
H  -16.00500 14.65200 39.18800
H  -17.70200 14.87500 39.82700
H  -15.78200 12.62100 40.08200
H  -17.60700 12.57300 40.22600
H  -16.55500 13.00800 41.60200
H  -12.09300 11.43300 41.72800
H  -11.32400 11.13200 40.11900
H  -13.01500 11.82600 40.40900
H  -7.40700 14.46100 39.55000
H  -4.47000 15.10500 42.86500
H  -3.56200 14.26300 41.53800
H  -4.32700 13.29200 42.75600

