158

Mg 8.07000 2.45500 27.94900
C  9.70300 1.11400 30.83000
C  6.35500 4.70300 30.08300
C  6.56500 3.71200 25.27800
C  9.85700 0.13200 25.90000
N  8.04300 2.74700 30.29600
C  8.77900 2.08000 31.20500
C  8.59500 2.64700 32.61800
C  7.50400 3.72500 32.39600
C  7.31900 3.82600 30.83600
C  6.16200 3.73000 33.13100
C  9.92400 3.16900 33.22100
C  9.73800 3.92500 34.54000
H  10.29700 3.30900 35.82400
N  6.70300 4.01000 27.72400
C  6.20000 4.78500 28.69400
C  5.31000 5.79200 28.08600
C  5.33600 5.55500 26.67600
C  6.24400 4.40600 26.48100
C  4.59600 6.89200 28.95100
C  4.51700 6.28500 25.60000
O  4.57100 5.93400 24.43700
C  3.86900 7.57400 26.05400
N  8.04000 1.86800 25.88500
C  7.38900 2.63800 24.95300
C  7.52200 2.05200 23.53300
C  8.79300 1.09100 23.74900
C  8.90500 0.98500 25.26100
C  6.16800 1.39800 22.99500
C  10.08400 1.58700 23.07300
C  10.86500 0.60900 22.18600
N  9.23600 0.81200 28.16100
C  9.98800 -0.00600 27.26900
C  10.83700 -0.88500 27.98300
C  10.79700 -0.42700 29.31400
C  9.76900 0.57300 29.41000
C  11.80600 -1.88600 27.42800
C  11.39100 -0.70800 30.63600
O  12.16100 -1.57200 30.97200
C  10.68200 0.30000 31.64800
C  10.16100 -0.45100 32.74800
O  9.19400 -1.17200 32.73300
O  10.91000 -0.21900 33.90900
C  10.29100 -0.74900 35.10300
H  5.92300 5.46700 30.73200
H  6.01600 4.05400 24.39800
H  10.41400 -0.54400 25.24700
H  8.15500 1.93100 33.31100
H  7.89600 4.73600 32.50600
H  6.13400 2.87700 33.80900
H  5.34700 3.64700 32.41200
H  6.08300 4.62800 33.74400
H  10.33100 3.85000 32.47400
H  10.64800 2.38800 33.45600
H  8.69100 4.18200 34.70000
H  10.33000 4.82500 34.38000
H  4.85200 7.90300 28.63200
H  4.79300 6.99600 30.01800
H  3.52000 6.71800 28.96500
H  3.48700 8.05200 25.15200
H  4.70000 8.18000 26.41500
H  3.09800 7.29700 26.77300
H  7.81300 2.86700 22.87000
H  8.56400 0.07700 23.42200
H  5.41800 1.33100 23.78300
H  6.43100 0.44500 22.53600
H  5.69500 1.94600 22.18000
H  10.78300 1.97200 23.81600
H  9.77700 2.36400 22.37200
H  11.50600 1.07100 21.43600
H  10.06900 -0.01700 21.78100
H  11.51600 -0.06800 22.74000
H  12.69600 -1.47200 26.95500
H  11.20900 -2.42400 26.69100
H  12.07600 -2.50400 28.28400
H  11.38800 0.96400 32.14800
H  10.19600 -1.83300 35.15400
H  9.27900 -0.34500 35.07400
H  10.72500 -0.40400 36.04100
Mg 24.39600 -4.72900 45.64800
C  26.50700 -2.32700 44.41300
C  22.05500 -3.84600 43.06100
C  22.71800 -7.47300 46.33000
C  27.08700 -5.91000 47.77200
N  24.27500 -3.21100 43.90300
C  25.25700 -2.38300 43.67700
C  24.86900 -1.58500 42.38200
C  23.33800 -1.83200 42.25100
C  23.18200 -3.04400 43.08900
C  22.38900 -0.72000 42.78500
C  25.60300 -2.16200 41.03800
C  26.54700 -1.18200 40.42900
H  26.32700 -1.06300 38.94600
N  22.57900 -5.47600 44.89800
C  21.82800 -4.98800 43.87400
C  20.64500 -5.84200 43.81400
C  20.80200 -6.89900 44.70300
C  22.07100 -6.62700 45.39000
C  19.41800 -5.45200 42.92400
C  19.73900 -8.02200 44.91100
O  18.74900 -8.17900 44.20500
C  19.77900 -8.90400 46.16600
N  24.92900 -6.53000 46.79000
C  23.94000 -7.37000 46.94500
C  24.42800 -8.55000 47.79000
C  25.63700 -7.97800 48.54000
C  25.96200 -6.73800 47.66000
C  23.39500 -9.18100 48.84900
C  26.79700 -9.06800 48.74000
C  27.37400 -9.39000 50.11300
N  26.39200 -4.13000 46.18100
C  27.37300 -4.71500 46.99900
C  28.62600 -3.95500 46.90300
C  28.33900 -3.00000 45.85200
C  26.93900 -3.19500 45.44800
C  29.98300 -4.30700 47.66900
C  28.85100 -1.96000 45.08100
O  29.96100 -1.51300 45.07800
C  27.71000 -1.50100 44.08300
C  27.51000 -0.05000 44.31300
O  27.57300 0.51300 45.38700
O  27.50700 0.71600 43.10100
C  27.73200 2.14000 43.30000
H  21.31700 -3.68400 42.27300
H  22.17100 -8.35900 46.65800
H  27.87700 -6.07100 48.50800
H  25.21200 -0.57400 42.60000
H  23.00800 -2.01400 41.22800
H  22.96000 0.02000 43.34500
H  21.63700 -1.05700 43.49900
H  21.92600 -0.14700 41.98200
H  24.87300 -2.43900 40.27700
H  26.12500 -3.08100 41.30300
H  27.58400 -1.48800 40.56500
H  26.50000 -0.15700 40.79900
H  19.09400 -6.31300 42.33900
H  19.54100 -4.67400 42.17100
H  18.55100 -5.19100 43.53100
H  20.33700 -9.83500 46.06800
H  18.78600 -9.33200 46.30800
H  19.95400 -8.24900 47.01900
H  24.77600 -9.34300 47.12800
H  25.31000 -7.62800 49.51900
H  23.81400 -9.65400 49.73700
H  22.81000 -9.94900 48.34400
H  22.76600 -8.36800 49.21200
H  27.64300 -8.55900 48.27800
H  26.63700 -10.02400 48.24200
H  26.83000 -8.81300 50.86100
H  28.41300 -9.07100 50.20200
H  27.19700 -10.42800 50.39400
H  30.59200 -5.08200 47.20400
H  29.82100 -4.64300 48.69300
H  30.53300 -3.37600 47.81000
H  28.10400 -1.76600 43.10200
H  28.56200 2.29400 43.99000
H  26.93800 2.71500 43.77500
H  27.94000 2.57400 42.32200

