158

Mg 9.23100 4.10800 27.07700
C  10.55900 2.75000 30.08400
C  7.47700 6.25000 29.01600
C  8.09400 5.33300 24.23900
C  10.54200 1.39000 25.35200
N  9.03400 4.47900 29.39300
C  9.70600 3.90400 30.36000
C  9.41600 4.54400 31.75600
C  8.30300 5.57700 31.38700
C  8.20500 5.40100 29.86800
C  6.96900 5.48300 32.16200
C  10.63800 5.13400 32.47700
C  10.25700 5.83700 33.78600
H  11.20900 5.55500 35.00700
N  8.01800 5.53700 26.73600
C  7.29500 6.31800 27.58800
C  6.57600 7.32700 26.91300
C  6.98200 7.28400 25.58500
C  7.71900 6.01100 25.45200
C  5.55900 8.22000 27.49200
C  6.55100 8.11900 24.50000
O  6.85400 8.00100 23.31900
C  5.69300 9.33800 24.78000
N  9.60500 3.54600 25.03900
C  8.90600 4.14600 24.02900
C  9.08900 3.44100 22.69500
C  9.72700 2.11400 23.15900
C  10.00600 2.37400 24.57600
C  7.81500 3.38600 21.76300
C  10.87700 1.65200 22.19900
C  10.58200 0.40800 21.37800
N  10.26500 2.40600 27.54300
C  10.79200 1.42100 26.70800
C  11.52600 0.46100 27.56900
C  11.53900 1.04100 28.88300
C  10.71400 2.16800 28.79300
C  12.21500 -0.73200 27.20300
C  12.06000 0.79900 30.21000
O  12.77100 -0.04700 30.78600
C  11.42000 1.97600 31.06200
C  10.66500 1.25500 32.09700
O  9.63400 0.64000 31.74700
O  11.22600 1.50300 33.37500
C  10.41400 1.10100 34.46300
H  7.06100 7.07100 29.60300
H  7.71800 5.71000 23.28600
H  10.89000 0.52800 24.77800
H  9.06400 3.82400 32.49500
H  8.69800 6.56700 31.61700
H  6.90500 6.31500 32.86300
H  6.86000 4.52500 32.67100
H  6.13300 5.59300 31.47000
H  11.31600 5.70200 31.84000
H  11.25200 4.26900 32.72600
H  9.29400 5.40800 34.06200
H  10.18300 6.91300 33.63400
H  4.61600 8.08300 26.96400
H  5.86100 9.25900 27.35900
H  5.47000 7.93800 28.54100
H  5.77200 10.01800 23.93200
H  6.23700 9.98200 25.47100
H  4.65700 9.20400 25.09300
H  9.90400 4.01000 22.24800
H  8.89000 1.41500 23.15200
H  6.94600 3.77900 22.29000
H  7.77700 2.30000 21.67700
H  8.03200 3.83600 20.79500
H  11.74300 1.55400 22.85400
H  11.27100 2.41200 21.52500
H  11.23000 -0.44300 21.59100
H  10.84100 0.59200 20.33500
H  9.51600 0.18300 21.36800
H  11.89400 -1.60400 27.77400
H  13.29000 -0.56400 27.26300
H  11.95200 -1.12400 26.22000
H  12.26400 2.45900 31.55300
H  9.50300 0.63400 34.08800
H  10.23500 1.88300 35.20000
H  10.99000 0.31700 34.95400
Mg 16.64600 52.16000 26.39200
C  18.52300 50.78100 28.91600
C  14.23000 53.07400 28.88100
C  14.65300 53.47500 23.94900
C  18.76400 50.66300 24.05300
N  16.40100 51.92700 28.61300
C  17.35700 51.29500 29.39100
C  17.10200 51.57800 30.87400
C  15.55700 52.07100 30.87800
C  15.44300 52.49500 29.37600
C  14.52400 51.09700 31.44800
C  17.96400 52.68300 31.44700
C  18.10400 52.68900 33.00500
H  17.25800 51.75600 33.86800
N  14.62000 53.19100 26.41600
C  13.88200 53.48000 27.53200
C  12.77700 54.30900 27.11600
C  12.93900 54.45500 25.65800
C  14.12000 53.72600 25.26000
C  11.64500 54.71400 28.09900
C  11.99800 55.15800 24.58100
O  12.34800 55.35900 23.41500
C  10.58700 55.57900 25.02100
N  16.68600 52.02900 24.28300
C  15.81600 52.72200 23.54100
C  16.13700 52.52700 22.04800
C  17.46500 51.71700 22.10400
C  17.71400 51.47100 23.56200
C  15.00200 52.04900 21.11500
C  18.71400 52.43300 21.40600
C  19.35900 51.65800 20.22400
N  18.29300 51.06700 26.42500
C  19.10300 50.46100 25.42700
C  20.15100 49.61500 26.03100
C  20.00900 49.79900 27.42300
C  18.89100 50.73900 27.58300
C  21.15500 48.82000 25.33300
C  20.55600 49.51500 28.74200
O  21.50600 48.87100 29.01600
C  19.57000 50.01000 29.71300
C  18.97600 48.89700 30.48000
O  18.06800 48.25500 30.02600
O  19.53500 48.80900 31.70100
C  18.90500 47.79800 32.58100
H  13.56900 53.42400 29.67600
H  14.18900 53.88600 23.05100
H  19.38300 50.15400 23.31100
H  17.19000 50.69400 31.50500
H  15.39100 52.98400 31.44900
H  15.06400 50.25400 31.88000
H  13.84400 50.79500 30.65100
H  13.96500 51.59100 32.24200
H  17.63200 53.66300 31.10400
H  18.99900 52.48300 31.17000
H  18.08200 53.73400 33.31300
H  19.07900 52.22500 33.15600
H  11.40900 55.77400 28.00300
H  11.91300 54.58400 29.14700
H  10.72600 54.17900 27.86100
H  9.87600 55.26100 24.25900
H  10.54100 56.65000 25.22000
H  10.38500 54.99200 25.91600
H  16.29900 53.56200 21.74900
H  17.31100 50.70900 21.72000
H  15.22800 51.13800 20.56100
H  14.67800 52.83300 20.43100
H  14.16500 51.72200 21.73200
H  19.38100 52.59400 22.25300
H  18.52300 53.46600 21.11500
H  19.18600 52.16600 19.27600
H  18.96900 50.64500 20.12800
H  20.43400 51.59500 20.39200
H  21.84900 49.43100 24.75600
H  20.54700 48.26000 24.62300
H  21.81200 48.17900 25.92100
H  20.07200 50.60700 30.47400
H  18.92500 46.86600 32.01600
H  17.90000 48.01700 32.93900
H  19.55700 47.53600 33.41400

