158

Mg 25.91600 50.55100 26.24400
C  24.26100 52.20400 28.64000
C  28.27800 49.50700 28.66800
C  28.13700 49.34800 23.74400
C  24.01600 52.00100 23.76800
N  26.25800 50.90300 28.31000
C  25.32300 51.43300 29.14100
C  25.61600 51.02500 30.61200
C  27.06500 50.53400 30.57500
C  27.23400 50.19600 29.09400
C  28.11400 51.56100 31.02700
C  24.59200 50.09900 31.25700
C  24.43800 50.26400 32.78900
H  25.51100 50.77000 33.72300
N  27.87900 49.49900 26.18400
C  28.58600 49.21800 27.26600
C  29.75800 48.45900 26.83100
C  29.73400 48.42000 25.44800
C  28.55200 49.14600 25.04200
C  30.82000 47.94400 27.78800
C  30.68700 47.61000 24.52200
O  30.62100 47.65400 23.28500
C  31.70900 46.63000 24.99900
N  26.06400 50.55900 24.13900
C  26.93700 49.88500 23.31300
C  26.71100 50.23600 21.79400
C  25.18800 50.74600 21.94500
C  25.05900 51.11500 23.43100
C  27.77700 51.19100 21.27700
C  24.05000 49.81900 21.46300
C  23.31900 48.87900 22.48800
N  24.40900 51.90500 26.16600
C  23.73600 52.51500 25.09000
C  22.73300 53.41700 25.60100
C  22.88300 53.37900 27.03100
C  23.89000 52.42400 27.29500
C  21.77300 54.25800 24.88400
C  22.43800 53.88500 28.26500
O  21.56800 54.72500 28.52800
C  23.21200 53.07300 29.35200
C  23.74900 54.02900 30.27100
O  24.54200 54.89400 29.96300
O  23.32800 53.79100 31.52000
C  24.00900 54.44700 32.59300
H  28.86400 48.93600 29.39100
H  28.78100 48.91700 22.97500
H  23.39900 52.45600 22.99100
H  25.54500 51.93300 31.20900
H  27.29900 49.61700 31.11700
H  28.95400 51.64400 30.33700
H  28.43800 51.44700 32.06200
H  27.70700 52.55600 31.20300
H  25.02100 49.09900 31.20400
H  23.61300 49.99700 30.78800
H  24.05500 49.28100 33.06600
H  23.61600 50.97700 32.84700
H  30.83500 48.67300 28.59800
H  31.78700 48.12800 27.32100
H  30.71900 46.87400 27.97100
H  31.94700 45.84900 24.27800
H  31.20000 46.17600 25.84900
H  32.54000 47.30300 25.21000
H  26.67200 49.43100 21.06100
H  25.11300 51.67500 21.37900
H  28.67000 51.17400 21.90100
H  27.43200 52.17100 20.94600
H  28.21300 50.69300 20.41100
H  24.37600 49.17400 20.64700
H  23.28800 50.45700 21.01500
H  23.77000 48.83700 23.47900
H  23.43400 47.89100 22.04100
H  22.28900 49.17600 22.68800
H  22.22100 54.55400 23.93500
H  21.45900 55.06100 25.55200
H  20.82100 53.77300 24.66900
H  22.36900 52.55300 29.80700
H  23.84900 55.51500 32.44800
H  25.03000 54.08300 32.47500
H  23.60500 54.25600 33.58700
Mg -9.65500 40.55100 39.50600
C  -8.61700 37.38600 38.68300
C  -6.55300 41.71700 38.73100
C  -10.91900 43.65700 39.57200
C  -12.89400 39.23300 39.96300
N  -7.81200 39.57700 38.78400
C  -7.58300 38.24800 38.55600
C  -6.04500 38.00800 38.12900
C  -5.41900 39.41100 38.40400
C  -6.66300 40.29200 38.63800
C  -4.49800 39.48700 39.69900
C  -5.89300 37.45200 36.65400
C  -6.69700 38.26400 35.54400
H  -7.58500 37.42100 34.64000
N  -8.91200 42.45200 39.05500
C  -7.58500 42.72900 38.80800
C  -7.39300 44.13600 38.58000
C  -8.59300 44.78200 39.08800
C  -9.52600 43.66400 39.30600
C  -6.13400 44.77600 38.17900
C  -8.79300 46.23900 39.21400
O  -8.03400 47.03700 38.66000
C  -9.92100 46.75300 39.97000
N  -11.69800 41.30500 39.48000
C  -11.86000 42.60000 39.65100
C  -13.36700 42.92900 39.84800
C  -14.01300 41.53500 40.05800
C  -12.78700 40.58600 39.94800
C  -13.64400 43.81600 41.06200
C  -15.21400 41.11700 39.20000
C  -16.49500 40.71500 39.97300
N  -10.56600 38.69000 39.45600
C  -11.88900 38.35400 39.61300
C  -12.09300 36.93500 39.48300
C  -10.77900 36.45300 39.07700
C  -9.90000 37.61400 39.08100
C  -13.35900 36.14900 39.68100
C  -10.02600 35.27800 38.72900
O  -10.39600 34.10400 38.72300
C  -8.52100 35.85600 38.50000
C  -7.53800 35.05500 39.33700
O  -7.72100 34.90400 40.54300
O  -6.48300 34.48700 38.65800
C  -5.37500 34.03700 39.49000
H  -5.52500 42.08300 38.69200
H  -11.23600 44.67400 39.81000
H  -13.87200 38.75000 40.01100
H  -5.73100 37.23300 38.82700
H  -4.81500 39.72500 37.55200
H  -4.98600 40.13200 40.42900
H  -3.45600 39.71500 39.47300
H  -4.50700 38.45400 40.04700
H  -6.09400 36.38600 36.54900
H  -4.83900 37.55800 36.39900
H  -5.94800 38.59500 34.82500
H  -7.31300 39.06800 35.94600
H  -6.38400 45.56300 37.46700
H  -5.36200 44.04500 37.93800
H  -5.77400 45.31700 39.05400
H  -9.99000 46.16400 40.88500
H  -10.84400 46.59600 39.41200
H  -9.80400 47.82000 40.15700
H  -13.73900 43.34800 38.91300
H  -14.28900 41.38600 41.10200
H  -14.31100 43.42100 41.82800
H  -14.01000 44.80200 40.77500
H  -12.66600 43.89200 41.53600
H  -14.85400 40.28300 38.59800
H  -15.38000 41.92300 38.48500
H  -17.19600 41.50200 39.69400
H  -16.27700 40.62900 41.03700
H  -16.83100 39.79800 39.48700
H  -14.22700 36.29400 39.03900
H  -13.76300 36.53500 40.61700
H  -13.04600 35.10500 39.69900
H  -8.30500 35.57100 37.47000
H  -4.46800 34.22500 38.91600
H  -5.46300 32.97400 39.71500
H  -5.41400 34.54100 40.45500

