158

Mg 47.81200 25.03000 28.06600
C  48.96700 27.27500 30.64800
C  47.35600 22.79600 30.66200
C  46.92100 22.98500 25.67300
C  49.30100 27.17000 25.67400
N  48.23100 25.11600 30.41200
C  48.42600 26.20100 31.20400
C  48.09600 25.94100 32.68100
C  47.58200 24.48100 32.63700
C  47.76300 24.02200 31.11700
C  48.26900 23.57300 33.68700
C  47.07200 26.95300 33.14900
C  46.50400 26.59600 34.55600
H  46.87300 27.43400 35.77200
N  47.23700 23.19200 28.13000
C  46.99200 22.42800 29.25800
C  46.41300 21.15500 28.83100
C  46.19400 21.24000 27.44200
C  46.75200 22.51200 27.01700
C  45.93600 20.06700 29.85900
C  45.43100 20.31100 26.45600
O  45.44600 20.44200 25.22300
C  44.86300 19.06400 27.02700
N  47.90500 25.12300 25.98100
C  47.46600 24.12900 25.12500
C  47.94300 24.35800 23.65700
C  48.47800 25.82300 23.72400
C  48.55300 26.05400 25.19200
C  49.08100 23.46700 23.13100
C  47.61300 26.90600 22.97100
C  48.27800 27.85100 21.87900
N  48.83300 26.81500 28.04900
C  49.49700 27.53700 27.06100
C  50.09200 28.67200 27.55200
C  49.89700 28.64200 28.96000
C  49.13800 27.52100 29.22600
C  50.90900 29.59800 26.73400
C  50.23900 29.35800 30.15900
O  50.84400 30.46500 30.19800
C  49.56300 28.56600 31.31300
C  50.58000 28.25600 32.29100
O  51.45100 27.46100 32.20000
O  50.32300 28.92300 33.42700
C  51.05200 28.48100 34.64500
H  46.96700 22.11600 31.42300
H  46.70600 22.33400 24.82300
H  49.72400 27.74900 24.85000
H  49.04800 26.13300 33.17700
H  46.52000 24.56400 32.87100
H  48.99100 22.87100 33.27000
H  47.59600 22.92500 34.24800
H  48.76800 24.24500 34.38600
H  46.24100 26.83100 32.45400
H  47.46400 27.96900 33.18100
H  46.82200 25.58400 34.80500
H  45.42300 26.47300 34.48500
H  44.88000 19.80700 29.79500
H  45.97100 20.41300 30.89200
H  46.66200 19.26800 29.70700
H  45.57000 18.50100 27.63600
H  44.72600 18.42400 26.15600
H  43.95400 19.31400 27.57400
H  47.12400 24.28700 22.94200
H  49.50600 25.97500 23.39500
H  48.78300 22.53600 22.65000
H  49.74500 23.29000 23.97800
H  49.71100 23.95100 22.38500
H  47.20900 27.55500 23.74900
H  46.84900 26.33300 22.44600
H  47.71700 27.87300 20.94500
H  49.28900 27.47700 21.71200
H  48.51600 28.82700 22.30200
H  50.32900 29.75000 25.82300
H  51.93500 29.29000 26.53100
H  50.98100 30.54800 27.26300
H  48.84500 29.23300 31.78800
H  51.04200 29.30700 35.35600
H  52.06300 28.08400 34.54800
H  50.38700 27.73300 35.07600
Mg -5.19200 25.22200 26.30500
C  -3.89200 26.54200 29.04500
C  -7.27800 23.16200 28.22000
C  -6.41600 23.83600 23.43500
C  -3.03400 27.22000 24.19900
N  -5.39500 24.76600 28.35900
C  -4.84900 25.53100 29.29900
C  -5.34100 25.12000 30.72400
C  -6.14800 23.83100 30.40700
C  -6.23200 23.87400 28.89100
C  -5.47200 22.52700 31.01700
C  -6.11300 26.25400 31.46100
C  -6.16400 26.22300 32.98900
H  -5.51300 25.03400 33.72600
N  -6.69400 23.75100 25.85000
C  -7.44300 23.06000 26.77700
C  -8.43500 22.20200 26.07200
C  -8.18400 22.45000 24.68900
C  -7.07100 23.40100 24.60800
C  -9.45000 21.27300 26.73100
C  -8.96600 21.92500 23.46300
O  -8.69200 22.19300 22.30100
C  -10.15400 21.04800 23.65500
N  -4.69700 25.39200 24.03700
C  -5.38600 24.73700 23.12200
C  -4.82000 24.96400 21.74400
C  -3.93200 26.27500 21.92700
C  -3.93200 26.39800 23.46100
C  -4.01000 23.65900 21.28700
C  -4.51800 27.60400 21.32500
C  -3.66000 28.44800 20.35200
N  -3.72000 26.60900 26.55500
C  -2.95300 27.30000 25.63700
C  -2.03300 28.15200 26.45700
C  -2.37800 27.94700 27.77900
C  -3.42900 26.98600 27.79300
C  -1.02100 29.06900 25.96700
C  -2.13700 28.27300 29.15100
O  -1.32500 29.10000 29.57700
C  -3.14300 27.40500 29.98800
C  -2.15700 26.61900 30.80800
O  -1.22100 25.98600 30.34600
O  -2.39800 26.83400 32.16600
C  -1.34500 26.41900 33.13100
H  -7.96500 22.58700 28.84500
H  -6.84600 23.39700 22.53200
H  -2.36900 27.83500 23.59000
H  -4.43100 24.84700 31.25800
H  -7.13200 23.87500 30.87300
H  -4.62600 22.26200 30.38300
H  -6.14000 21.66600 30.99200
H  -5.24100 22.73200 32.06300
H  -7.10800 26.25600 31.01600
H  -5.60900 27.15600 31.11600
H  -7.22300 26.36600 33.20400
H  -5.67200 27.11600 33.37400
H  -9.11400 20.27100 26.46400
H  -10.49000 21.53700 26.53700
H  -9.21000 21.41000 27.78500
H  -10.73100 20.94400 22.73600
H  -10.87600 21.56500 24.28700
H  -9.90100 20.13900 24.19900
H  -5.69000 25.21600 21.13800
H  -2.90800 26.20700 21.56100
H  -3.17400 24.04700 20.70400
H  -4.79900 23.09100 20.79400
H  -3.56800 23.12100 22.12500
H  -4.93500 28.22300 22.12000
H  -5.40200 27.31600 20.75600
H  -2.67500 28.47500 20.81900
H  -4.11300 29.43800 20.29300
H  -3.55100 27.96800 19.38000
H  -0.55600 28.76100 25.03000
H  -0.20700 29.14400 26.68800
H  -1.45400 30.07000 25.97200
H  -3.74700 28.09400 30.57900
H  -1.68600 26.12800 34.12400
H  -0.69600 27.26500 33.35700
H  -0.77200 25.59900 32.69800

