158

Mg 0.66000 8.44100 27.63000
C  1.66800 10.73300 30.14700
C  0.68900 5.97000 30.03600
C  -0.02600 6.36100 25.15100
C  0.98100 11.12000 25.32600
N  1.12300 8.46700 29.84200
C  1.49600 9.46500 30.68400
C  1.59300 8.95100 32.14300
C  1.66200 7.41100 31.92400
C  1.03500 7.23800 30.53400
C  3.06300 6.76900 31.94000
C  0.31700 9.31200 33.00000
C  0.48400 9.49300 34.53500
H  -0.31200 8.52600 35.44900
N  0.24100 6.43100 27.61600
C  0.25000 5.59100 28.70900
C  -0.30300 4.32700 28.30900
C  -0.41700 4.40000 26.88700
C  -0.06100 5.74300 26.48500
C  -0.65700 3.19400 29.25000
C  -0.87400 3.28800 25.94700
O  -1.01700 3.45900 24.76500
C  -1.15600 2.04000 26.49500
N  0.77100 8.66700 25.52000
C  0.32000 7.67600 24.73300
C  0.07900 8.14800 23.30100
C  0.05200 9.69800 23.45600
C  0.61200 9.87900 24.89700
C  1.12500 7.44200 22.30900
C  -1.38600 10.24600 23.33200
C  -2.01400 10.38800 21.90100
N  1.26900 10.45800 27.61000
C  1.43300 11.44600 26.61600
C  1.77300 12.69700 27.21100
C  1.85600 12.50800 28.54300
C  1.55300 11.10400 28.77000
C  1.79400 13.81900 26.35100
C  2.06800 13.16500 29.81400
O  2.24000 14.36800 30.09000
C  1.78900 12.04900 30.89500
C  2.88300 12.12400 31.90900
O  4.06800 12.00400 31.68700
O  2.31900 12.39600 33.13200
C  3.24900 12.58200 34.29500
H  0.70300 5.15800 30.76600
H  -0.18100 5.62700 24.35700
H  0.78200 11.94500 24.63900
H  2.47000 9.32300 32.67300
H  1.10900 6.86300 32.68700
H  3.79000 7.53600 32.20800
H  3.33300 6.20600 31.04700
H  3.28600 6.09900 32.77000
H  -0.45200 8.55100 32.86600
H  -0.27600 10.16100 32.65700
H  0.26800 10.54200 34.74100
H  1.51500 9.35300 34.85900
H  -1.71500 2.93200 29.24800
H  -0.46400 3.59400 30.24500
H  0.04600 2.36300 29.18100
H  -2.10900 2.10300 27.02100
H  -0.23500 1.76800 27.01000
H  -1.26200 1.25300 25.74900
H  -0.90600 7.79500 22.99700
H  0.70600 10.02000 22.64600
H  1.94000 8.14500 22.13400
H  0.70300 7.20600 21.33200
H  1.39800 6.49800 22.78000
H  -1.42700 11.22400 23.81300
H  -2.06300 9.51400 23.77300
H  -1.31000 10.13100 21.11000
H  -2.36500 11.41500 21.79400
H  -2.91300 9.77400 21.84000
H  0.76900 14.11000 26.12100
H  2.46100 13.62900 25.51000
H  2.20700 14.68700 26.86500
H  0.82000 12.22600 31.36100
H  3.70200 13.56500 34.16700
H  3.98400 11.78200 34.38200
H  2.65500 12.45900 35.20100
Mg -10.50900 39.06100 40.48400
C  -9.47400 35.97500 39.60200
C  -7.53400 40.39700 39.11000
C  -11.79000 42.20300 40.37300
C  -13.61900 37.75200 41.45900
N  -8.74500 38.30000 39.38800
C  -8.54300 36.97000 39.22500
C  -7.07800 36.66900 38.67400
C  -6.41700 38.08100 38.95300
C  -7.63100 39.00200 39.07100
C  -5.58200 38.13400 40.24600
C  -7.12100 36.15200 37.13700
C  -7.86200 37.01900 36.08800
H  -8.62700 36.21500 35.07600
N  -9.71600 40.98300 39.97500
C  -8.50700 41.31600 39.43100
C  -8.35700 42.71500 39.37300
C  -9.59000 43.24700 39.75000
C  -10.45700 42.12700 40.01500
C  -7.06600 43.40700 38.82000
C  -9.84600 44.74300 39.94700
O  -9.08700 45.61800 39.41500
C  -11.01800 45.22000 40.65000
N  -12.43100 39.87700 40.97500
C  -12.71500 41.20300 40.70900
C  -14.19600 41.42900 40.94800
C  -14.88300 40.00100 41.11900
C  -13.57400 39.12800 41.26500
C  -14.53500 42.44900 42.07000
C  -15.79300 39.63500 39.92300
C  -17.23800 39.20400 40.30800
N  -11.35200 37.24900 40.64500
C  -12.66400 36.80300 41.07800
C  -12.72000 35.43800 40.98400
C  -11.47500 35.03100 40.45100
C  -10.69200 36.18300 40.26600
C  -13.94200 34.52800 41.13700
C  -10.73700 33.88500 39.93200
O  -11.03100 32.69700 39.94400
C  -9.40000 34.47900 39.41000
C  -8.33600 33.87700 40.24400
O  -8.41100 33.65600 41.42500
O  -7.15200 33.57300 39.51900
C  -6.03800 33.06100 40.24000
H  -6.62400 40.84900 38.71100
H  -12.38200 43.11800 40.29600
H  -14.56700 37.31700 41.78100
H  -6.67100 35.84900 39.26500
H  -5.81200 38.32600 38.08000
H  -4.52900 38.07300 39.97100
H  -5.84900 37.41200 41.01800
H  -5.74000 39.10000 40.72300
H  -7.55100 35.15200 37.08800
H  -6.11800 36.05700 36.72200
H  -7.19900 37.73900 35.60700
H  -8.67900 37.57400 36.54700
H  -6.89400 43.20300 37.76300
H  -6.26300 43.00000 39.43500
H  -6.98700 44.47800 39.00400
H  -11.25100 44.68500 41.57000
H  -11.79100 45.25900 39.88200
H  -11.01700 46.27400 40.92900
H  -14.51900 42.03700 40.10300
H  -15.49100 39.97200 42.02300
H  -15.56700 42.78500 42.17000
H  -13.91700 43.34400 41.99700
H  -14.12600 42.03000 42.99000
H  -15.31700 38.80900 39.39400
H  -15.86600 40.54700 39.33000
H  -17.88200 39.78400 39.64700
H  -17.46300 39.31700 41.36900
H  -17.49400 38.17100 40.07500
H  -13.77700 33.84100 41.96700
H  -13.89300 33.91200 40.23900
H  -14.94500 34.94800 41.05800
H  -9.12000 34.19600 38.39500
H  -5.17500 33.69400 40.03200
H  -5.76800 32.07800 39.85500
H  -6.14500 33.11500 41.32400

