158

Mg 0.38100 7.07700 25.92700
C  1.10100 9.12500 28.69800
C  1.27800 4.37600 27.95200
C  0.66000 5.03600 23.15600
C  0.58200 9.87100 23.85100
N  0.99400 6.80600 28.05100
C  1.08100 7.74100 29.03500
C  1.14500 7.14600 30.43900
C  1.23900 5.62200 30.16800
C  1.12600 5.58300 28.64800
C  2.50600 5.00400 30.70000
C  -0.06500 7.56900 31.39000
C  0.10000 7.63800 32.90500
H  1.30100 6.96200 33.56700
N  0.76300 4.91200 25.62200
C  1.04400 4.04100 26.58100
C  1.12000 2.69200 25.99400
C  0.90800 2.84400 24.61500
C  0.78100 4.29900 24.35300
C  1.33500 1.51800 26.76800
C  0.79000 1.75800 23.47900
O  0.77200 2.04000 22.28900
C  0.74600 0.27600 23.85900
N  0.61900 7.38600 23.82300
C  0.55900 6.40200 22.93500
C  0.31300 6.96700 21.48100
C  0.23000 8.51000 21.68200
C  0.42900 8.61900 23.24700
C  1.33100 6.48000 20.46300
C  -1.20500 9.09900 21.32000
C  -2.26700 9.26800 22.36400
N  0.65800 9.09200 26.19600
C  0.72400 10.12700 25.27600
C  0.84900 11.39300 25.97500
C  1.02400 11.05700 27.33300
C  0.87700 9.68300 27.38000
C  0.72300 12.66100 25.36300
C  1.25300 11.52000 28.64100
O  1.48000 12.60600 29.05700
C  1.12600 10.33800 29.57900
C  2.41500 10.43500 30.46000
O  3.60000 10.37700 30.00700
O  2.05500 10.82700 31.73800
C  3.13600 10.89500 32.71900
H  1.31600 3.51300 28.62100
H  0.59300 4.50400 22.20500
H  0.60700 10.75400 23.20900
H  2.06600 7.54800 30.86000
H  0.31700 5.08900 30.40100
H  2.28000 4.53100 31.65600
H  3.25300 5.78500 30.84800
H  2.97400 4.22200 30.10300
H  -0.84400 6.82000 31.24500
H  -0.61900 8.43600 31.03000
H  -0.81600 7.23000 33.33200
H  0.10400 8.68500 33.20800
H  0.81700 0.65100 26.35900
H  1.04000 1.62300 27.81200
H  2.41300 1.36600 26.72000
H  1.56700 0.04600 24.53800
H  0.80800 -0.39800 23.00500
H  -0.22000 -0.03800 24.25200
H  -0.65400 6.51500 21.25600
H  1.02900 9.00800 21.13300
H  1.73600 7.38200 20.00200
H  1.04200 5.74200 19.71500
H  2.13600 5.99800 21.01700
H  -1.76100 8.48500 20.61200
H  -1.04700 10.02200 20.76100
H  -2.02600 8.91500 23.36600
H  -3.17600 8.70900 22.14400
H  -2.54400 10.32200 22.36700
H  0.32500 13.38900 26.07100
H  0.18900 12.66700 24.41300
H  1.68500 13.08600 25.07600
H  0.11100 10.39300 29.97300
H  3.74700 10.00600 32.56200
H  2.86300 10.89200 33.77400
H  3.67300 11.82700 32.54400
Mg 47.15500 44.73500 43.06600
C  43.70200 43.80300 42.60500
C  48.06600 41.41200 42.47200
C  50.34700 45.71300 42.82400
C  46.09000 48.08900 42.99800
N  46.00600 42.86200 42.69000
C  44.64600 42.67700 42.61600
C  44.25900 41.25000 42.65900
C  45.63800 40.47200 42.84600
C  46.60600 41.60800 42.65700
C  45.74700 39.59900 44.10300
C  43.47300 40.90300 41.36100
C  43.92400 41.68200 40.07700
H  43.59600 41.04000 38.71400
N  48.99500 43.73600 42.61800
C  49.14300 42.39000 42.48900
C  50.63500 42.13300 42.35500
C  51.26600 43.40600 42.41700
C  50.18100 44.35800 42.61900
C  51.26900 40.65200 42.21300
C  52.72100 43.55900 42.16000
O  53.43700 42.55000 42.01200
C  53.38000 44.93000 41.94900
N  48.07800 46.61600 43.02700
C  49.43200 46.76300 43.03400
C  49.95600 48.25500 43.12900
C  48.53800 48.99000 43.02700
C  47.47700 47.82500 42.92700
C  50.68800 48.53500 44.44000
C  48.56700 49.94000 41.77200
C  48.99400 51.33700 42.09100
N  45.31100 45.77900 42.93000
C  45.02600 47.11900 42.83500
C  43.62200 47.45000 42.70900
C  42.99300 46.14300 42.70700
C  44.11200 45.15800 42.80400
C  42.93300 48.79300 42.67100
C  41.82700 45.36100 42.65300
O  40.60400 45.70000 42.66000
C  42.24600 43.86600 42.71900
C  41.78700 43.38700 44.00900
O  41.00600 42.42300 44.09400
O  42.27600 44.09000 45.09400
C  41.93700 43.56400 46.35100
H  48.34100 40.36100 42.58300
H  51.41300 45.94900 42.80900
H  45.68200 49.09700 42.90000
H  43.64600 41.07400 43.54200
H  45.76100 39.83300 41.97100
H  44.75500 39.28200 44.42200
H  46.25900 40.31000 44.75100
H  46.32700 38.69400 43.92200
H  42.46600 41.27200 41.55200
H  43.44600 39.82200 41.22600
H  45.01300 41.63800 40.09200
H  43.41000 42.64300 40.11500
H  52.15000 40.46100 41.60000
H  50.41300 40.05900 41.89200
H  51.47100 40.31600 43.23000
H  52.80400 45.51600 41.23300
H  54.37700 44.76400 41.54100
H  53.40200 45.51800 42.86700
H  50.55300 48.55200 42.26700
H  48.33000 49.56100 43.93200
H  51.75900 48.62000 44.25600
H  50.65000 47.65300 45.07900
H  50.37400 49.46500 44.91500
H  47.64400 49.86800 41.19600
H  49.26300 49.50800 41.05200
H  49.08500 51.48500 43.16700
H  48.12400 51.89100 41.73800
H  49.86300 51.62200 41.49900
H  43.61200 49.61400 42.43800
H  42.34500 49.09400 43.53800
H  42.30200 48.78500 41.78300
H  41.78500 43.32900 41.89000
H  41.81100 42.48100 46.36200
H  40.96600 43.95400 46.65700
H  42.63100 43.84600 47.14200

