158

Mg -2.05500 17.13500 26.10800
C  -2.17700 14.97800 28.90300
C  -2.92100 19.78200 28.24600
C  -2.67800 19.11700 23.48200
C  -2.07000 14.31400 24.10300
N  -2.45200 17.32800 28.35200
C  -2.32300 16.35800 29.32900
C  -2.60500 16.93400 30.73800
C  -3.11000 18.36800 30.40200
C  -2.82900 18.54400 28.87900
C  -4.64200 18.59300 30.69800
C  -1.53900 16.88500 31.89200
C  -1.72100 15.85600 33.04200
H  -2.14700 16.44900 34.42700
N  -2.38600 19.15700 25.92300
C  -2.64800 20.11200 26.87800
C  -2.64000 21.41900 26.29500
C  -2.49900 21.22500 24.90400
C  -2.52300 19.75300 24.69300
C  -2.79000 22.76300 27.07700
C  -2.30700 22.16400 23.85500
O  -2.33400 21.92700 22.64100
C  -1.90400 23.63600 24.20600
N  -2.45500 16.72700 24.08000
C  -2.72100 17.72900 23.21000
C  -2.90700 17.24600 21.74100
C  -2.48300 15.71500 21.93500
C  -2.31600 15.52700 23.47600
C  -4.36700 17.30300 21.21500
C  -1.32200 15.17500 21.07800
C  0.07200 15.61500 21.54900
N  -1.97600 15.11000 26.37600
C  -1.85300 14.05200 25.46700
C  -1.61800 12.75700 26.13500
C  -1.84300 13.13100 27.44100
C  -2.04400 14.49100 27.57100
C  -1.60600 11.31600 25.70300
C  -2.00400 12.53000 28.66800
O  -2.04900 11.32400 29.00400
C  -2.30700 13.72100 29.68500
C  -1.28100 13.50600 30.74400
O  -0.16000 13.89100 30.77500
O  -1.83200 12.59000 31.66600
C  -0.97100 12.18800 32.79000
H  -2.99300 20.53500 29.03400
H  -2.85600 19.65200 22.54700
H  -1.86400 13.48100 23.42800
H  -3.46800 16.35600 31.07000
H  -2.60400 19.16200 30.95100
H  -4.73300 19.57400 31.16500
H  -5.08000 17.79300 31.29400
H  -5.24100 18.73600 29.79800
H  -1.48700 17.89500 32.29900
H  -0.52600 16.62500 31.58700
H  -0.77000 15.35200 33.21400
H  -2.41000 15.03000 32.87000
H  -3.00900 22.57900 28.12800
H  -3.65900 23.32000 26.72800
H  -1.97800 23.49100 27.06700
H  -2.78800 24.12100 24.62000
H  -1.75500 24.20500 23.28900
H  -1.02000 23.63400 24.84400
H  -2.32700 17.77500 20.98400
H  -3.31500 15.07900 21.63300
H  -4.29900 17.61800 20.17400
H  -4.97600 18.09800 21.64500
H  -4.94400 16.38400 21.32300
H  -1.43300 15.43100 20.02400
H  -1.48100 14.10300 21.18900
H  0.57100 14.69200 21.84500
H  0.01600 16.25700 22.42800
H  0.64100 16.15300 20.79100
H  -1.15700 11.14800 24.72400
H  -2.64900 11.01100 25.60900
H  -0.99300 10.88000 26.49100
H  -3.35300 13.77700 29.98700
H  -0.88200 12.99600 33.51700
H  0.01500 11.94200 32.39700
H  -1.39000 11.27800 33.22000
Mg 25.47400 -0.20400 28.59500
C  27.53100 -0.22200 31.47900
C  22.79100 0.18600 30.74400
C  23.54000 -0.09700 25.92100
C  28.30500 -0.54900 26.60700
N  25.18400 -0.15000 30.85700
C  26.21400 -0.06800 31.82000
C  25.68200 0.08700 33.26000
C  24.14100 0.15600 33.00300
C  24.00100 0.07800 31.44200
C  23.34200 -0.93900 33.66900
C  26.20900 1.35600 34.06200
C  25.55500 1.60000 35.44400
H  26.45200 1.96500 36.61400
N  23.36900 -0.13800 28.42200
C  22.43400 -0.00300 29.42700
C  21.11900 0.08200 28.75900
C  21.32800 0.01800 27.37000
C  22.76900 -0.09800 27.19200
C  19.82100 0.33600 29.53400
C  20.35800 0.02600 26.19300
O  20.75600 -0.07800 25.05100
C  18.86700 0.24300 26.37400
N  25.83500 -0.46700 26.52400
C  24.86500 -0.26300 25.62500
C  25.53400 -0.06800 24.21100
C  27.05300 -0.11100 24.47700
C  27.07400 -0.50800 25.91900
C  24.98500 -1.09200 23.20300
C  27.76900 1.20400 24.28200
C  29.12200 1.33000 23.56700
N  27.50600 -0.45200 28.94900
C  28.57100 -0.58100 28.05400
C  29.78700 -0.75000 28.84300
C  29.42200 -0.60600 30.15100
C  27.98800 -0.42400 30.19000
C  31.18600 -0.90700 28.34200
C  29.95300 -0.54700 31.46100
O  31.09200 -0.61700 31.85700
C  28.73500 -0.27500 32.43900
C  28.61800 -1.14300 33.63300
O  28.46700 -2.35300 33.59600
O  28.97100 -0.51800 34.80900
C  28.81200 -1.28600 36.04400
H  21.91800 0.38800 31.36900
H  23.08900 0.02300 24.93400
H  29.29300 -0.45000 26.15500
H  25.93400 -0.86900 33.71800
H  23.78000 1.16400 33.20600
H  23.84500 -1.30200 34.56500
H  23.10800 -1.75100 32.98100
H  22.37900 -0.48300 33.90200
H  25.94600 2.21400 33.44400
H  27.29800 1.36400 34.10000
H  24.98400 0.72400 35.75300
H  24.78200 2.35700 35.31400
H  19.53100 1.38300 29.45300
H  19.72600 -0.02500 30.55800
H  19.03700 -0.22300 29.02200
H  18.42100 -0.42900 27.10700
H  18.42200 0.02700 25.40200
H  18.72200 1.24800 26.76900
H  25.25400 0.90700 23.81300
H  27.49600 -0.80400 23.76200
H  24.49800 -1.84600 23.82200
H  25.72900 -1.55300 22.55300
H  24.26900 -0.63100 22.52300
H  27.83600 1.74700 25.22500
H  27.11900 1.89100 23.74100
H  28.92100 1.66300 22.54900
H  29.57600 0.34500 23.46600
H  29.80700 2.00400 24.08200
H  31.21000 -0.57100 27.30500
H  31.59700 -1.91400 28.40100
H  31.75000 -0.27300 29.02700
H  28.91500 0.71400 32.86000
H  28.13000 -2.12900 35.93900
H  28.30500 -0.61100 36.73300
H  29.72800 -1.58000 36.55600

