158

Mg 24.85500 1.00900 29.36700
C  26.82300 0.80600 32.12700
C  22.05100 1.41600 31.33400
C  22.87700 1.14400 26.68900
C  27.60900 0.46300 27.40000
N  24.44400 1.06600 31.46900
C  25.44600 0.96000 32.40800
C  24.90300 1.21600 33.78500
C  23.34400 1.19300 33.61300
C  23.26300 1.21300 32.03400
C  22.50200 -0.07000 34.09000
C  25.62500 2.30100 34.59200
C  24.90000 3.06000 35.69600
H  25.71500 3.66200 36.90800
N  22.72600 1.24500 29.01300
C  21.77100 1.36400 29.99500
C  20.44900 1.57900 29.43000
C  20.63500 1.53300 28.00300
C  22.14500 1.29600 27.84100
C  19.15600 1.80100 30.23700
C  19.68100 1.57700 26.86900
O  19.91900 1.40700 25.70900
C  18.26400 1.98300 27.23500
N  25.14000 0.62100 27.33700
C  24.22400 0.83100 26.37800
C  24.78600 0.81400 24.94500
C  26.27700 0.84900 25.22000
C  26.39200 0.65500 26.73300
C  24.21200 -0.43600 24.16000
C  27.11800 2.06400 24.66600
C  27.42300 3.34100 25.47500
N  26.80700 0.58000 29.65000
C  27.85200 0.39200 28.81000
C  29.14800 0.27000 29.49200
C  28.76500 0.40300 30.79800
C  27.35400 0.63000 30.85500
C  30.43200 0.04200 28.75800
C  29.31900 0.45500 32.17500
O  30.45800 0.33300 32.58100
C  28.06800 0.70000 33.07600
C  28.08600 -0.31600 34.14000
O  27.44600 -1.35200 33.97500
O  28.76900 0.05900 35.30900
C  28.68700 -0.99100 36.37300
H  21.27400 1.65100 32.06400
H  22.47200 1.41400 25.71100
H  28.42800 0.32600 26.69100
H  25.16000 0.29800 34.31500
H  23.01400 2.12700 34.06900
H  21.96400 -0.61000 33.31000
H  21.84300 0.31300 34.86900
H  23.07400 -0.85200 34.59000
H  26.18500 2.95900 33.92800
H  26.35900 1.82700 35.24400
H  24.19200 2.36800 36.15200
H  24.38100 3.95800 35.36200
H  18.32600 1.25700 29.78600
H  18.89600 2.85500 30.33100
H  19.24500 1.31700 31.20900
H  17.77300 2.02300 26.26200
H  18.29700 2.93200 27.77100
H  17.77700 1.21800 27.83700
H  24.62000 1.78900 24.48500
H  26.66500 -0.14400 24.99200
H  23.61900 -1.02600 24.85800
H  25.05600 -1.03700 23.82200
H  23.68800 -0.24600 23.22300
H  26.88000 2.27600 23.62300
H  28.13100 1.67300 24.57300
H  28.45700 3.38000 25.81700
H  26.82900 3.35000 26.38900
H  27.23300 4.17000 24.79400
H  30.48500 0.69600 27.88800
H  30.54600 -1.00100 28.46200
H  31.27800 0.31900 29.38700
H  28.27700 1.62600 33.61100
H  28.80200 -2.02600 36.05200
H  27.70100 -0.89500 36.82900
H  29.51100 -0.72800 37.03600
Mg 48.80900 35.46900 27.57900
C  46.57500 33.79400 29.69100
C  49.13600 37.91900 29.88900
C  50.74500 37.09300 25.36300
C  47.89600 33.09200 24.97600
N  47.92500 35.77700 29.57900
C  47.09700 34.93400 30.26900
C  47.25500 35.24700 31.72100
C  47.61500 36.80700 31.61900
C  48.29500 36.89400 30.27700
C  46.41700 37.86100 31.72900
C  48.32300 34.37500 32.49800
C  48.24200 34.24600 33.99800
H  47.20700 35.08100 34.72400
N  49.92600 37.20700 27.65200
C  49.89200 38.12200 28.67500
C  50.77500 39.25400 28.26800
C  51.28800 38.98700 27.01100
C  50.59100 37.74800 26.56300
C  51.04100 40.34800 29.20200
C  52.20000 39.77900 26.08500
O  52.37600 39.61300 24.91300
C  52.96700 40.93400 26.70600
N  49.13900 35.18500 25.40900
C  50.17100 35.92000 24.79500
C  50.68000 35.21300 23.55800
C  49.66400 34.03500 23.29600
C  48.83600 34.07200 24.59200
C  50.69300 36.06900 22.25400
C  50.22900 32.65300 23.04300
C  49.67300 31.68200 21.91200
N  47.49600 33.80700 27.31700
C  47.27500 32.90200 26.23500
C  46.40600 31.81500 26.65800
C  46.11800 32.18300 28.03800
C  46.80800 33.36400 28.36800
C  45.96200 30.65200 25.81600
C  45.28200 31.73200 29.09500
O  44.54400 30.75600 29.18700
C  45.50900 32.79300 30.27600
C  45.89200 32.05100 31.57500
O  46.74600 31.16700 31.57400
O  45.08700 32.33200 32.62900
C  45.25600 31.40500 33.75000
H  49.33600 38.70300 30.62300
H  51.65200 37.39800 24.83500
H  47.63700 32.40700 24.16600
H  46.29000 35.29500 32.22500
H  48.41400 36.93600 32.35000
H  46.72400 38.62000 32.44900
H  45.46100 37.42000 32.01300
H  46.39300 38.34700 30.75400
H  49.28000 34.73800 32.12300
H  48.18200 33.36600 32.10900
H  49.28700 34.32500 34.29800
H  47.88000 33.22400 34.10900
H  51.91500 40.17300 29.82900
H  50.10900 40.46800 29.75400
H  51.18700 41.30600 28.70400
H  53.31000 40.54500 27.66500
H  52.24600 41.74400 26.80900
H  53.80700 41.22400 26.07500
H  51.60800 34.68500 23.77700
H  48.96700 34.15200 22.46700
H  50.20600 36.99200 22.57200
H  50.20100 35.62800 21.38700
H  51.74200 36.19200 21.98700
H  50.07800 32.11100 23.97600
H  51.31700 32.67500 22.97700
H  50.34100 31.63500 21.05300
H  48.63600 31.78400 21.59100
H  49.68200 30.65800 22.28400
H  46.81500 29.98100 25.71400
H  45.80800 31.05200 24.81400
H  45.06000 30.12400 26.12300
H  44.60200 33.38400 30.40000
H  45.70000 30.42900 33.55700
H  44.30700 31.24200 34.26000
H  45.92000 31.95100 34.42100

