158

Mg 23.71700 -6.22600 47.35600
C  26.30800 -4.41800 46.00700
C  21.54500 -5.08300 44.90200
C  21.37700 -8.74600 48.12600
C  26.02700 -7.83000 49.34800
N  24.06500 -5.01800 45.50000
C  25.15400 -4.36500 45.18800
C  24.89700 -3.27700 44.15200
C  23.35800 -3.61700 43.68300
C  22.92100 -4.63600 44.79400
C  22.48000 -2.31300 43.49900
C  25.88800 -3.44100 43.01200
C  26.83800 -2.18800 42.75500
H  26.78100 -1.62500 41.28500
N  21.65400 -6.72400 46.72700
C  20.95900 -6.04700 45.73200
C  19.63500 -6.64200 45.62400
C  19.57500 -7.79000 46.49000
C  20.87900 -7.78900 47.18300
C  18.59700 -6.25000 44.56300
C  18.44100 -8.81000 46.41400
O  17.51400 -8.63600 45.56300
C  18.38700 -10.08100 47.34900
N  23.74100 -8.10100 48.54000
C  22.63000 -8.85900 48.78800
C  22.99000 -10.02300 49.59900
C  24.43600 -9.66000 50.17200
C  24.80300 -8.50700 49.25700
C  21.93400 -10.36300 50.70000
C  25.45100 -10.87000 50.03100
C  26.72700 -10.91000 50.90400
N  25.78300 -6.09900 47.69600
C  26.48400 -6.69100 48.64800
C  27.78700 -6.01600 48.72700
C  27.72000 -5.06400 47.68600
C  26.51400 -5.22600 47.08100
C  28.89100 -6.31800 49.75100
C  28.49400 -4.02900 47.13500
O  29.64100 -3.63100 47.36300
C  27.52800 -3.50100 45.92400
C  27.29500 -2.08400 46.24100
O  26.40200 -1.64300 46.97300
O  28.12700 -1.22100 45.55600
C  28.02800 0.17600 45.76600
H  20.86800 -4.59600 44.19600
H  20.63900 -9.49500 48.42200
H  26.65100 -8.17000 50.17700
H  24.97700 -2.29000 44.60700
H  23.40500 -4.15300 42.73500
H  23.08700 -1.43400 43.71700
H  21.77400 -2.33600 44.32800
H  22.13600 -2.25500 42.46600
H  25.28200 -3.39700 42.10700
H  26.46800 -4.36200 43.06400
H  27.91300 -2.35800 42.81700
H  26.56400 -1.33300 43.37200
H  18.95500 -5.34000 44.08100
H  17.58900 -6.27300 44.97600
H  18.65200 -7.01900 43.79200
H  17.44000 -10.57400 47.13000
H  18.46300 -9.67400 48.35800
H  19.15200 -10.82900 47.14000
H  23.09500 -10.79900 48.84100
H  24.73700 -9.32000 51.16300
H  21.07600 -9.69200 50.67300
H  22.45500 -10.25800 51.65200
H  21.50700 -11.36500 50.65400
H  25.71300 -11.08100 48.99400
H  24.86900 -11.73900 50.33900
H  26.72400 -11.79600 51.53900
H  27.04400 -9.99800 51.41000
H  27.45600 -10.98300 50.09700
H  29.01800 -7.36200 49.46300
H  28.52500 -6.22800 50.77400
H  29.83000 -5.77000 49.68000
H  28.02200 -3.66900 44.96700
H  27.98300 0.33700 46.84300
H  27.11900 0.64300 45.38800
H  28.88100 0.65200 45.28200
Mg 40.30600 9.27500 28.96400
C  42.04800 10.51100 31.66700
C  38.39100 7.36000 31.20300
C  38.61600 8.03400 26.39900
C  42.69600 10.68400 26.80800
N  40.41200 8.85200 31.20200
C  41.01700 9.66700 32.07500
C  40.32000 9.68700 33.47000
C  39.15000 8.59300 33.28200
C  39.31500 8.17400 31.80600
C  39.25200 7.33600 34.17500
C  39.88200 11.12600 34.01700
C  38.86100 11.23600 35.15900
H  39.36900 11.98100 36.46500
N  38.67500 7.97900 28.85200
C  38.12500 7.27100 29.86500
C  36.98100 6.45100 29.24400
C  36.99900 6.67500 27.84200
C  38.11200 7.60400 27.64800
C  36.09100 5.46000 30.16700
C  36.08900 6.05600 26.83100
O  36.24700 6.20500 25.59400
C  34.92600 5.05400 27.17800
N  40.58100 9.42200 26.89800
C  39.79100 8.75900 26.05400
C  40.28300 8.84700 24.63100
C  41.51100 9.77200 24.75100
C  41.57000 10.07600 26.25500
C  40.48600 7.46800 23.92000
C  41.64300 11.01200 23.81600
C  40.65900 12.19300 24.01400
N  42.09400 10.25000 29.14200
C  42.91500 10.81600 28.14400
C  44.00600 11.50400 28.80400
C  43.66500 11.47200 30.14500
C  42.50200 10.68200 30.32800
C  45.31400 12.06800 28.14600
C  44.03000 11.87700 31.56800
O  44.95000 12.51800 31.94400
C  42.81400 11.51000 32.48900
C  43.51900 10.95600 33.75200
O  44.01200 9.89200 34.02600
O  43.48400 11.96600 34.67700
C  43.75400 11.52800 36.00000
H  37.74800 6.98700 32.00200
H  38.12000 7.59700 25.53000
H  43.40700 11.11400 26.09900
H  41.11800 9.29600 34.10200
H  38.20600 9.13700 33.31900
H  38.26300 7.03000 34.51500
H  39.78400 7.56700 35.09800
H  39.77000 6.48200 33.73800
H  39.53900 11.78300 33.21800
H  40.85000 11.56500 34.26000
H  38.50300 10.25700 35.48000
H  38.01000 11.80300 34.78200
H  36.46800 4.43800 30.12800
H  35.08500 5.37200 29.75500
H  35.93700 5.78200 31.19700
H  35.26200 4.33100 27.92100
H  34.62400 4.52200 26.27600
H  34.15100 5.65000 27.66000
H  39.56900 9.39700 24.01800
H  42.42400 9.19000 24.62700
H  40.00400 7.63200 22.95600
H  40.02800 6.71400 24.55900
H  41.54100 7.20500 23.84500
H  41.37600 10.69700 22.80700
H  42.62900 11.46900 23.90600
H  41.09800 12.98200 24.62400
H  39.82000 11.80700 24.59300
H  40.38800 12.73400 23.10700
H  45.30500 11.95000 27.06200
H  46.24200 11.58800 28.45800
H  45.25400 13.14400 28.30600
H  42.27000 12.43500 32.68200
H  43.16900 10.64700 36.26100
H  43.68300 12.37100 36.68700
H  44.81900 11.29800 36.03800

