158

Mg -1.52700 17.27000 26.16200
C  -1.83300 14.94500 28.86500
C  -2.05100 19.77800 28.32600
C  -1.46900 19.24000 23.49800
C  -1.55200 14.37700 23.96300
N  -2.19900 17.28800 28.42100
C  -1.97100 16.34100 29.30200
C  -2.01600 16.82300 30.68200
C  -2.18100 18.37500 30.52800
C  -2.19300 18.52400 29.02300
C  -3.51000 18.99200 31.03300
C  -0.81400 16.24200 31.62400
C  -0.45000 17.17100 32.78200
H  -0.28300 16.55900 34.19100
N  -1.76400 19.29600 25.90200
C  -1.81200 20.18500 26.97100
C  -1.78000 21.50500 26.40400
C  -1.45500 21.33800 25.01300
C  -1.59100 19.93500 24.72200
C  -2.10400 22.72300 27.30300
C  -1.10200 22.39700 23.97000
O  -0.81900 22.06000 22.79500
C  -0.98700 23.88300 24.44800
N  -1.52000 16.88600 24.06100
C  -1.52700 17.89100 23.15700
C  -1.61800 17.37200 21.65000
C  -1.35400 15.82800 21.93600
C  -1.53200 15.68000 23.41200
C  -3.01200 17.73100 20.83100
C  -0.03100 15.24200 21.37600
C  1.20000 15.67100 22.22200
N  -1.65000 15.10000 26.32300
C  -1.63800 14.10500 25.31100
C  -1.70300 12.79100 25.93300
C  -1.72100 13.02800 27.30000
C  -1.77400 14.47600 27.49400
C  -1.75700 11.43700 25.27400
C  -1.83600 12.43100 28.62900
O  -1.80000 11.26400 28.92600
C  -1.87300 13.59300 29.64300
C  -0.82800 13.34500 30.63700
O  0.39200 13.52800 30.48100
O  -1.31100 12.76300 31.80200
C  -0.31000 12.44300 32.86100
H  -2.10000 20.63700 28.99900
H  -1.58500 19.83700 22.59000
H  -1.44600 13.53000 23.28200
H  -2.89700 16.35100 31.11900
H  -1.39700 18.99400 30.96400
H  -4.24100 18.68400 30.28500
H  -3.41500 20.07200 31.13700
H  -3.72500 18.60200 32.02800
H  0.06600 16.16400 30.98500
H  -1.11400 15.28700 32.05600
H  -1.21600 17.92900 32.94300
H  0.52200 17.62600 32.59200
H  -1.37100 23.50900 27.12000
H  -1.97400 22.63500 28.38100
H  -3.13300 23.03700 27.12400
H  -0.02300 24.03000 24.93400
H  -1.90000 24.25500 24.91400
H  -0.94700 24.39500 23.48700
H  -0.74500 17.63500 21.05200
H  -2.20900 15.29700 21.51600
H  -3.40100 18.66300 21.24200
H  -3.75300 16.93900 20.93900
H  -2.86300 17.93800 19.77100
H  0.23300 15.75800 20.45200
H  -0.13000 14.17500 21.17700
H  0.96100 16.47800 22.91400
H  2.02000 15.99200 21.58000
H  1.54100 14.84800 22.85000
H  -0.86300 11.00200 24.82700
H  -2.50800 11.42700 24.48500
H  -2.15600 10.84300 26.09600
H  -2.84100 13.59300 30.14500
H  0.72600 12.27900 32.56400
H  -0.64500 11.55000 33.38900
H  -0.34300 13.28400 33.55400
Mg 6.16100 53.94900 40.95800
C  5.72400 50.46400 40.85400
C  9.41100 53.50600 39.95900
C  6.26100 57.28200 40.27300
C  2.67900 54.09600 41.44900
N  7.38000 52.28900 40.37900
C  6.97800 50.95900 40.43900
C  8.12100 50.05700 40.03100
C  9.39700 50.92000 40.25800
C  8.68000 52.33200 40.12100
C  10.12400 50.66800 41.62200
C  7.96700 49.42500 38.66300
C  7.55900 50.41300 37.47500
H  6.36300 49.99900 36.49000
N  7.67100 55.19600 40.28100
C  8.95900 54.85800 40.03600
C  9.68800 56.07200 39.68700
C  8.83800 57.20300 39.84100
C  7.52300 56.61300 40.13100
C  11.14900 56.00400 39.38200
C  9.25200 58.75000 39.75400
O  10.39100 59.03600 39.59400
C  8.23700 59.80300 40.06000
N  4.68900 55.40700 40.79500
C  4.99200 56.72100 40.54300
C  3.73200 57.63500 40.40000
C  2.60300 56.62200 40.78300
C  3.32800 55.27100 40.96100
C  3.69400 58.80000 41.40300
C  1.36900 56.70400 39.90200
C  0.00500 56.70800 40.69600
N  4.53800 52.60700 41.40600
C  3.21500 52.84100 41.65600
C  2.51800 51.56700 41.96200
C  3.51200 50.62400 41.65300
C  4.68700 51.28600 41.35100
C  1.08100 51.40300 42.33600
C  3.72700 49.22300 41.59800
O  3.01100 48.30200 41.92300
C  5.16500 49.03900 40.94600
C  4.89600 48.33500 39.65600
O  4.22800 48.79600 38.74000
O  5.32100 47.02300 39.71400
C  4.92000 46.25200 38.56400
H  10.47100 53.31200 39.78800
H  6.28500 58.37000 40.17900
H  1.61400 54.22000 41.65400
H  8.13900 49.23400 40.74600
H  10.13200 50.79000 39.46400
H  11.19900 50.70900 41.44500
H  9.95100 49.62200 41.87500
H  9.74100 51.32700 42.40100
H  7.22900 48.63400 38.79600
H  8.94400 49.01800 38.40000
H  8.47100 50.67300 36.93700
H  7.08100 51.31300 37.86100
H  11.63200 55.41200 40.15900
H  11.81000 56.87100 39.37700
H  11.38700 55.56300 38.41400
H  7.46900 59.95000 39.30200
H  8.65300 60.79100 40.25800
H  7.79600 59.54600 41.02400
H  3.69600 58.08000 39.40600
H  2.26000 56.78200 41.80500
H  4.04800 59.66900 40.85000
H  4.44000 58.63100 42.18000
H  2.70600 58.94000 41.84000
H  1.38600 55.83000 39.25100
H  1.36500 57.55200 39.21600
H  -0.59000 57.55100 40.34400
H  0.00600 56.60000 41.78100
H  -0.36100 55.74100 40.35300
H  1.08600 50.54200 43.00500
H  0.54800 51.11600 41.43000
H  0.67400 52.26800 42.85900
H  5.77300 48.49700 41.67000
H  5.27100 46.75000 37.66000
H  3.84200 46.29300 38.40800
H  5.33300 45.25300 38.70400

