158

Mg 47.29800 25.02400 29.01000
C  48.23100 27.49600 31.52400
C  46.30800 23.10600 31.59400
C  46.83900 22.65800 26.82400
C  48.61400 27.14400 26.63800
N  47.23400 25.35000 31.37100
C  47.49100 26.45800 32.15200
C  47.19200 26.17300 33.63500
C  46.87800 24.64600 33.58700
C  46.82600 24.30300 32.12200
C  47.76900 23.59400 34.34800
C  46.08600 27.15500 34.13400
C  46.57900 28.09300 35.23600
H  47.07700 27.43100 36.60600
N  46.50400 23.21100 29.18800
C  46.14700 22.53700 30.34400
C  45.69300 21.23500 29.95400
C  45.65000 21.14900 28.53100
C  46.34400 22.41900 28.09000
C  45.25000 20.29800 30.98500
C  45.17500 20.05700 27.64300
O  45.25600 20.14400 26.41300
C  44.64200 18.73300 28.17300
N  47.99500 24.84100 27.14800
C  47.57100 23.77200 26.38500
C  47.93000 23.96500 24.91300
C  48.40100 25.42300 24.81100
C  48.32100 25.85800 26.29900
C  48.94900 22.96700 24.25500
C  47.58400 26.42000 23.88700
C  48.43800 27.33400 23.03200
N  48.31000 26.87400 29.08300
C  48.73400 27.66900 28.02100
C  49.20300 28.87800 28.44400
C  49.04400 28.85000 29.84100
C  48.54500 27.60100 30.17900
C  49.74600 30.04700 27.55600
C  49.14100 29.68800 31.06600
O  49.67800 30.84700 31.10600
C  48.66500 28.74600 32.21800
C  49.80100 28.50600 33.16400
O  50.65600 27.66000 33.06200
O  49.81000 29.47000 34.14000
C  50.80100 29.15500 35.19600
H  45.85600 22.50000 32.38200
H  46.67500 22.01600 25.95700
H  48.83600 27.79000 25.78600
H  48.13400 26.48500 34.08600
H  45.88200 24.47600 33.99500
H  48.19100 22.93800 33.58700
H  47.15500 23.09700 35.09900
H  48.57000 24.15000 34.83500
H  45.24800 26.55000 34.48000
H  45.74400 27.74800 33.28600
H  45.74300 28.76200 35.43900
H  47.50500 28.60400 34.97100
H  44.23300 20.04600 30.68300
H  45.23000 20.67900 32.00600
H  45.76500 19.33800 31.03200
H  45.19200 18.39000 29.04900
H  44.55900 18.02500 27.34900
H  43.66800 19.01300 28.57400
H  46.96300 23.96600 24.41100
H  49.47200 25.36800 24.61600
H  49.95200 23.39500 24.23500
H  48.76600 22.48800 23.29400
H  48.99700 22.16200 24.98800
H  47.05800 27.13100 24.52300
H  46.91900 25.79400 23.29200
H  48.47800 26.98200 22.00100
H  49.42100 27.50200 23.47200
H  48.00300 28.33200 23.09100
H  49.43500 31.05600 27.82800
H  49.53600 29.92800 26.49300
H  50.82800 30.08000 27.68900
H  47.87800 29.28500 32.74600
H  50.50200 28.24900 35.72300
H  50.90500 29.97300 35.90800
H  51.81400 29.03900 34.81200
Mg 0.28300 43.70600 26.06900
C  2.35500 43.66300 28.97000
C  -2.40600 42.82100 28.01900
C  -1.38200 42.81000 23.38000
C  3.22500 44.16000 24.18100
N  0.04700 43.14600 28.27600
C  0.93000 43.43000 29.25800
C  0.20000 43.41900 30.60400
C  -1.21000 42.90900 30.30900
C  -1.21300 42.96200 28.76100
C  -1.52200 41.46600 30.80700
C  0.27100 44.82600 31.29800
C  1.01600 44.87000 32.67900
H  0.87300 43.72400 33.67900
N  -1.71600 43.27800 25.70200
C  -2.67700 42.86700 26.60400
C  -3.95400 42.63500 25.94500
C  -3.57300 42.57700 24.54100
C  -2.16300 42.86700 24.54200
C  -5.29500 42.54500 26.73700
C  -4.46300 42.14000 23.34100
O  -4.01200 42.11100 22.19100
C  -5.97800 41.82700 23.62400
N  0.82200 43.63600 23.98400
C  -0.10300 43.25800 23.16600
C  0.52000 43.07200 21.81200
C  1.95500 43.77600 21.93400
C  2.04500 43.87700 23.41200
C  0.63300 41.53600 21.36600
C  1.97300 45.16800 21.24700
C  1.67300 46.47700 22.03000
N  2.41300 43.88300 26.43400
C  3.43100 44.06000 25.57100
C  4.64300 44.37000 26.35400
C  4.25600 44.13800 27.66400
C  2.90100 43.86700 27.67400
C  5.91600 44.97100 25.84700
C  4.76700 44.10300 29.01700
O  5.89200 44.31800 29.46500
C  3.49500 44.03400 29.99800
C  3.77600 42.89400 30.89400
O  3.55400 41.68600 30.64600
O  4.42800 43.27900 32.08700
C  4.84200 42.14700 33.03200
H  -3.33300 42.53200 28.51800
H  -1.83900 42.41700 22.46900
H  4.17700 44.22400 23.65000
H  0.58000 42.72000 31.34900
H  -2.02400 43.55300 30.64200
H  -2.33500 41.44300 31.53200
H  -0.62100 41.04900 31.25700
H  -1.97700 40.92100 29.98000
H  -0.67800 45.32700 31.48900
H  0.83000 45.45800 30.60700
H  0.78300 45.75400 33.27100
H  2.08500 44.92700 32.47500
H  -6.15400 42.94000 26.19400
H  -5.15400 42.84400 27.77600
H  -5.41300 41.46900 26.86200
H  -6.13300 41.10300 24.42400
H  -6.43000 41.53100 22.67700
H  -6.47400 42.73400 23.96700
H  -0.15200 43.52300 21.08200
H  2.71300 43.08200 21.57200
H  0.23800 40.87100 22.13400
H  1.67400 41.26400 21.19000
H  0.15700 41.25300 20.42800
H  1.23800 45.21600 20.44300
H  3.00400 45.22800 20.90000
H  1.02000 46.39100 22.89900
H  1.32100 47.14900 21.24800
H  2.53000 46.96900 22.49100
H  6.51300 45.51700 26.57700
H  5.71800 45.64900 25.01700
H  6.50300 44.16500 25.40600
H  3.36900 44.92900 30.60800
H  5.92600 42.13000 33.14400
H  4.48400 41.16900 32.70800
H  4.40600 42.39800 33.99900

