158

Mg 2.06100 -0.96200 43.36200
C  5.45900 -0.69600 42.89300
C  1.48300 1.66600 41.33500
C  -1.37400 -1.50900 43.75400
C  2.61300 -3.96000 45.10300
N  3.29100 0.44600 42.33800
C  4.72000 0.33400 42.23800
C  5.24400 1.41200 41.37600
C  4.00700 2.28000 40.94700
C  2.90500 1.42600 41.53000
C  4.00500 3.76400 41.51800
C  6.06300 0.84800 40.14300
C  7.30400 1.68000 39.66000
H  7.12800 2.72700 38.51500
N  0.32100 0.00700 42.71600
C  0.30400 1.06400 41.88700
C  -1.04000 1.51100 41.74600
C  -1.91200 0.63800 42.48200
C  -0.99600 -0.29900 43.11800
C  -1.45100 2.78500 40.94400
C  -3.41600 0.72800 42.48900
O  -4.03800 1.56300 41.84000
C  -4.26000 -0.33300 43.34200
N  0.73300 -2.57700 44.37700
C  -0.63300 -2.58100 44.31400
C  -1.21700 -3.91200 44.82000
C  0.14400 -4.57400 45.36700
C  1.23600 -3.63800 44.92100
C  -2.44700 -3.95800 45.77700
C  0.35700 -6.05300 44.85200
C  1.07600 -6.95600 45.85200
N  3.64800 -2.14900 43.90100
C  3.76700 -3.29500 44.64700
C  5.08800 -3.70500 44.76100
C  5.86400 -2.71000 44.08300
C  4.90500 -1.79500 43.59500
C  5.54300 -4.88300 45.49100
C  7.13100 -2.25200 43.73800
O  8.25800 -2.60300 44.01800
C  6.97400 -0.88700 42.93300
C  7.65800 0.06200 43.82100
O  7.68100 0.06800 45.03900
O  8.32800 0.92700 43.03700
C  9.17300 1.95300 43.67800
H  1.30300 2.52100 40.68000
H  -2.42500 -1.72400 43.95900
H  2.84500 -4.88900 45.62800
H  5.77400 2.04800 42.08400
H  3.91200 2.37200 39.86600
H  3.68000 4.46600 40.75000
H  5.01400 4.12300 41.72300
H  3.48800 3.98000 42.45300
H  5.49100 0.80200 39.21700
H  6.34100 -0.19600 40.29200
H  8.04900 0.90400 39.48200
H  7.53500 2.31600 40.51400
H  -2.07100 3.49100 41.49700
H  -1.94200 2.52500 40.00600
H  -0.54000 3.31500 40.66700
H  -5.29600 -0.01300 43.23200
H  -4.22700 -0.19100 44.42300
H  -4.16600 -1.35500 42.97600
H  -1.49800 -4.45500 43.91700
H  0.01400 -4.58100 46.44900
H  -2.75700 -2.92700 45.94400
H  -2.26900 -4.50800 46.70100
H  -3.30900 -4.46900 45.34800
H  0.99800 -6.02600 43.97000
H  -0.54100 -6.53100 44.46100
H  0.41700 -7.80400 46.03800
H  1.27600 -6.49500 46.81900
H  1.95500 -7.38300 45.36900
H  5.49600 -5.77200 44.86400
H  5.02100 -4.99100 46.44200
H  6.61400 -4.91400 45.69000
H  7.58900 -1.08400 42.05500
H  8.56400 2.41400 44.45600
H  9.61000 2.65300 42.96600
H  10.01100 1.38700 44.08500
Mg 44.45200 4.07100 48.31600
C  41.94000 6.34800 47.42300
C  42.10800 1.61000 48.03000
C  46.90700 1.97900 48.40000
C  46.80700 6.79500 47.96500
N  42.28000 3.98500 47.61000
C  41.41100 5.06900 47.55200
C  39.99000 4.67700 47.19000
C  40.01600 3.10100 47.50300
C  41.57400 2.85500 47.68800
C  39.08600 2.69300 48.62100
C  39.60500 4.98600 45.72300
C  38.24700 5.60200 45.48500
H  37.79700 5.92300 44.01800
N  44.50300 2.03200 48.30200
C  43.49300 1.16200 48.25000
C  44.00100 -0.17900 48.38700
C  45.42400 -0.13600 48.55700
C  45.63300 1.38700 48.42100
C  43.05200 -1.35000 48.29400
C  46.30300 -1.37100 48.80300
O  45.83400 -2.52800 48.93900
C  47.84000 -1.23700 48.96200
N  46.63700 4.36900 48.20000
C  47.38600 3.29700 48.33900
C  48.88400 3.72600 48.44800
C  48.89400 5.26400 48.07800
C  47.39600 5.52600 48.14200
C  49.59600 3.39400 49.78100
C  49.52800 5.62600 46.72600
C  51.11700 5.61100 46.65500
N  44.42000 6.18800 47.98500
C  45.48700 7.06900 47.79000
C  44.89700 8.36700 47.47900
C  43.53300 8.10300 47.36800
C  43.21400 6.76900 47.57500
C  45.64200 9.70000 47.19700
C  42.28100 8.81300 47.12500
O  42.04700 10.02300 46.97500
C  41.18300 7.71000 47.28800
C  40.34900 8.10500 48.41400
O  40.41200 7.57100 49.48900
O  39.46700 9.19400 48.12200
C  38.67000 9.72800 49.21200
H  41.38800 0.79400 47.94600
H  47.76100 1.29900 48.38600
H  47.40800 7.70000 47.85400
H  39.25500 5.16600 47.83000
H  39.78500 2.50100 46.62300
H  39.66400 2.24900 49.43100
H  38.44100 1.98900 48.09600
H  38.47900 3.49100 49.04800
H  39.76600 4.17600 45.01100
H  40.24000 5.79600 45.36400
H  38.43700 6.59700 45.88500
H  37.52300 5.08600 46.11600
H  42.89500 -1.86300 49.24300
H  43.52500 -2.01100 47.56800
H  42.19100 -1.14400 47.65800
H  48.22400 -0.71300 48.08700
H  48.22900 -2.24300 48.81000
H  48.10500 -0.73100 49.89000
H  49.38400 3.16200 47.66200
H  49.54100 5.81900 48.75800
H  48.86900 2.91500 50.43600
H  50.17600 4.15900 50.29700
H  50.32400 2.60300 49.60000
H  49.13700 6.60400 46.44500
H  49.14400 4.97700 45.93900
H  51.39700 5.09600 45.73600
H  51.53200 5.16400 47.55800
H  51.37100 6.66600 46.54700
H  46.27500 9.66100 46.31000
H  46.19500 10.03200 48.07600
H  44.82700 10.39300 46.99100
H  40.50800 7.68400 46.43300
H  38.77900 9.21600 50.16800
H  37.61400 9.86500 48.98000
H  39.03400 10.74500 49.35100

