158

Mg 26.75500 50.61700 26.21700
C  24.44200 51.53100 28.83500
C  29.07600 49.79600 28.51300
C  28.75500 49.87200 23.70400
C  24.38500 51.77200 23.97700
N  26.76900 50.83500 28.45300
C  25.70400 51.08600 29.28800
C  25.99700 50.72800 30.72000
C  27.50000 50.25700 30.62200
C  27.85400 50.31200 29.07200
C  28.65700 50.96200 31.44900
C  25.01000 49.71000 31.33900
C  24.24800 50.33700 32.57500
H  24.11500 49.49700 33.87100
N  28.68300 50.04100 26.16800
C  29.52100 49.76900 27.21500
C  30.79600 49.31400 26.76600
C  30.82300 49.43900 25.39500
C  29.35700 49.84500 24.98400
C  31.77800 48.76400 27.66000
C  31.98700 49.34300 24.47100
O  31.85300 49.47700 23.29500
C  33.34900 49.14000 25.01000
N  26.53900 50.84200 24.13900
C  27.47700 50.21900 23.29700
C  27.04800 50.27600 21.84800
C  25.63900 50.92500 21.91300
C  25.47300 51.16500 23.43300
C  28.08700 51.12100 21.04200
C  24.61400 50.00200 21.27700
C  24.22600 50.22400 19.81900
N  24.84100 51.56800 26.33600
C  24.07400 51.96500 25.30300
C  22.82700 52.46900 25.82900
C  22.86300 52.33800 27.18200
C  24.11400 51.71800 27.50300
C  21.72500 53.04800 25.08000
C  22.25600 52.55700 28.49900
O  21.11900 53.03400 28.74600
C  23.25000 52.04700 29.61400
C  23.52400 53.10100 30.55900
O  24.35600 53.90800 30.30400
O  22.77500 52.91100 31.71700
C  23.07100 53.78600 32.85300
H  29.59500 49.36900 29.37300
H  29.35500 49.54400 22.85300
H  23.62500 51.91300 23.20500
H  26.12400 51.65700 31.27600
H  27.59100 49.25100 31.03000
H  29.61500 50.98100 30.93000
H  28.79000 50.52600 32.43900
H  28.44900 52.02600 31.56600
H  25.42900 48.88500 31.91500
H  24.31400 49.32400 30.59400
H  23.20600 50.49600 32.29600
H  24.61100 51.31600 32.88900
H  32.31000 47.88800 27.29000
H  31.37500 48.32500 28.57300
H  32.45300 49.56900 27.95400
H  33.93700 49.09400 24.09300
H  33.44900 48.17700 25.51200
H  33.61000 49.94400 25.69800
H  27.06600 49.27100 21.42600
H  25.46200 51.80700 21.29700
H  27.57600 51.91000 20.49000
H  28.64400 50.41100 20.43200
H  28.79600 51.57100 21.73600
H  23.70600 50.10500 21.87100
H  24.96400 48.96900 21.29200
H  24.74900 51.06500 19.36200
H  23.16000 50.44300 19.74600
H  24.61700 49.39300 19.23200
H  20.77600 52.97300 25.61000
H  21.63100 52.69600 24.05200
H  21.91500 54.11900 25.13700
H  22.91500 51.23800 30.26400
H  23.38000 54.78400 32.54400
H  23.82200 53.29300 33.47100
H  22.17400 53.89000 33.46400
Mg 10.24100 46.59300 25.67900
C  8.06400 46.87500 28.39900
C  12.60000 48.38100 27.35100
C  12.17200 46.80700 22.88200
C  7.49800 45.98300 23.71400
N  10.26900 47.59900 27.53600
C  9.38400 47.36200 28.61500
C  10.04800 47.80700 29.87300
C  11.23600 48.73200 29.39300
C  11.38800 48.19700 28.00300
C  10.96800 50.26800 29.45600
C  10.56400 46.64400 30.76100
C  10.46900 46.97200 32.26700
H  10.09900 45.73800 33.12700
N  12.21400 47.21300 25.30800
C  12.98000 47.94500 26.11000
C  14.30300 48.02800 25.58300
C  14.23700 47.46600 24.24000
C  12.80300 47.17500 24.07800
C  15.46700 48.62300 26.38400
C  15.40200 47.35200 23.23300
O  15.17000 47.02400 22.09100
C  16.81800 47.56900 23.70500
N  9.85900 46.36700 23.65900
C  10.82500 46.47900 22.65600
C  10.26600 46.21800 21.24000
C  8.74100 46.07400 21.51900
C  8.68800 46.06700 23.07100
C  10.62600 47.19200 20.10000
C  8.10400 44.91700 20.67600
C  6.91400 45.26700 19.75400
N  8.18900 46.28900 25.99500
C  7.22500 45.98800 25.13300
C  5.92000 45.90300 25.73600
C  6.20200 46.11400 27.08000
C  7.54200 46.43600 27.15400
C  4.55800 45.52700 25.16000
C  5.61400 46.16200 28.40300
O  4.51400 45.97900 28.81500
C  6.84000 46.70100 29.30000
C  7.01400 45.66500 30.35800
O  7.51800 44.56600 30.10600
O  6.44100 46.12900 31.55500
C  6.25500 45.08400 32.63900
H  13.31900 49.05300 27.82300
H  12.73400 46.86200 21.94800
H  6.57600 45.94100 23.13100
H  9.22600 48.25700 30.43000
H  12.03100 48.56800 30.12100
H  10.07600 50.49000 30.04200
H  10.81200 50.68300 28.46000
H  11.76700 50.81700 29.95400
H  11.62900 46.52300 30.56200
H  10.08600 45.69900 30.50400
H  9.79800 47.82300 32.38200
H  11.46500 47.24500 32.61500
H  15.15600 48.65400 27.42900
H  15.53400 49.66700 26.07800
H  16.40700 48.09500 26.22500
H  17.47500 47.54000 22.83600
H  17.08600 46.87300 24.50100
H  16.98100 48.50500 24.24000
H  10.75100 45.31400 20.87200
H  8.32600 47.01600 21.16100
H  11.05800 48.10500 20.51000
H  9.71500 47.41300 19.54400
H  11.26200 46.68700 19.37300
H  7.54800 44.29700 21.37900
H  8.79700 44.22000 20.20400
H  7.11400 44.94200 18.73300
H  6.74700 46.34300 19.69900
H  5.97500 44.83900 20.10300
H  3.94400 45.24500 26.01500
H  4.60300 44.80200 24.34700
H  4.15100 46.44200 24.73100
H  6.64300 47.64300 29.81200
H  5.18000 44.91000 32.67300
H  6.76400 45.45000 33.53000
H  6.69600 44.15600 32.27400

