158

Mg 25.49900 1.10200 28.68200
C  27.36200 0.77400 31.61300
C  22.81100 1.85400 30.61400
C  23.64300 1.03800 25.80200
C  28.20300 -0.11600 26.91200
N  25.16900 1.32900 30.86000
C  26.09300 1.28600 31.85100
C  25.41900 1.63800 33.21400
C  23.97400 1.85400 32.88400
C  23.96700 1.69000 31.33100
C  22.89400 0.91400 33.60800
C  26.12800 2.79900 33.99500
C  26.67400 2.43700 35.34900
H  26.64000 3.40700 36.55600
N  23.50200 1.51600 28.23900
C  22.56100 1.83900 29.18500
C  21.28900 1.95400 28.58200
C  21.43200 1.73100 27.13900
C  22.91300 1.46600 26.97000
C  20.01000 2.08900 29.38700
C  20.35800 1.75500 26.04900
O  20.66300 1.63600 24.86300
C  18.97200 2.00700 26.31700
N  25.91800 0.50600 26.67500
C  24.96700 0.68900 25.66700
C  25.64100 0.72300 24.27800
C  27.07700 0.16500 24.58500
C  27.11200 0.26100 26.11400
C  24.85200 -0.14800 23.28600
C  28.19300 0.88800 23.80200
C  28.64800 2.29800 24.32600
N  27.40800 0.31500 29.15000
C  28.38700 -0.06400 28.26800
C  29.46800 -0.53200 29.08000
C  29.15500 -0.11400 30.38300
C  27.84800 0.37700 30.36700
C  30.78400 -1.17500 28.74300
C  29.72200 0.03900 31.71100
O  30.84700 -0.33300 32.07600
C  28.57500 0.63400 32.57200
C  28.26700 -0.25100 33.63700
O  27.54600 -1.28200 33.69100
O  28.87800 0.17100 34.88200
C  28.52700 -0.69200 36.07900
H  22.05800 2.30000 31.26700
H  23.01900 0.91900 24.91400
H  29.14900 -0.45400 26.48400
H  25.57800 0.71000 33.76300
H  23.70500 2.90000 33.03100
H  23.35100 0.49300 34.50300
H  22.45700 0.11000 33.01600
H  22.15200 1.64300 33.93300
H  25.48300 3.66000 34.17100
H  26.88500 3.18300 33.31200
H  27.74000 2.30800 35.15900
H  26.28800 1.44700 35.59000
H  19.16600 1.46000 29.10300
H  19.60300 3.08300 29.20000
H  20.24100 1.74500 30.39500
H  18.38600 2.24200 25.42900
H  18.79200 2.82700 27.01100
H  18.50800 1.15500 26.81300
H  25.75100 1.74300 23.91200
H  27.20900 -0.89200 24.35200
H  24.12300 -0.76100 23.81600
H  25.62600 -0.74800 22.80800
H  24.40600 0.48600 22.52000
H  27.92400 1.07100 22.76200
H  29.06400 0.23400 23.77700
H  28.03400 2.66600 25.14800
H  28.58900 3.02100 23.51200
H  29.62700 2.13000 24.77300
H  30.76000 -1.62000 27.74900
H  31.05200 -1.88800 29.52300
H  31.59600 -0.45500 28.63600
H  28.95800 1.54700 33.02700
H  27.56100 -0.38600 36.48100
H  29.30300 -0.42700 36.79700
H  28.60800 -1.77300 35.96400
Mg 6.11200 53.25300 41.68400
C  5.78600 49.65600 41.56600
C  9.50700 52.59700 40.83200
C  6.42300 56.32200 40.74900
C  2.73200 53.40400 41.97700
N  7.39000 51.32100 40.98500
C  7.06100 50.04700 41.06500
C  8.19700 49.13200 40.78600
C  9.41600 50.05300 41.12800
C  8.72900 51.41000 41.08200
C  10.13400 49.93200 42.49900
C  8.11600 48.55000 39.30100
C  8.07000 49.52200 38.07400
H  6.91600 49.42300 37.11100
N  7.70300 54.33200 40.99300
C  9.03400 53.93500 40.76700
C  9.79800 55.05300 40.41300
C  8.93200 56.18400 40.50800
C  7.59700 55.67000 40.72000
C  11.26900 54.94400 40.14400
C  9.45700 57.63600 40.26700
O  10.60100 57.90500 39.88000
C  8.42900 58.74300 40.28500
N  4.77200 54.61700 41.10200
C  5.09000 55.90700 40.90600
C  3.91600 56.90600 41.11400
C  2.78300 55.88200 41.51000
C  3.44500 54.53900 41.49000
C  4.21500 57.98900 42.16300
C  1.40700 55.97400 40.80700
C  0.68200 57.34800 40.90800
N  4.55500 51.87600 41.93500
C  3.20500 52.10100 42.14400
C  2.56500 50.92200 42.54000
C  3.55600 49.92100 42.35900
C  4.71400 50.57300 41.89400
C  1.09400 50.72900 42.91600
C  3.78700 48.54100 42.46800
O  3.09700 47.64100 42.89200
C  5.20500 48.29000 41.78200
C  4.97300 47.60000 40.58100
O  4.34200 48.05900 39.57600
O  5.38100 46.28300 40.69500
C  5.03800 45.44300 39.51200
H  10.54800 52.30700 40.67800
H  6.38800 57.41300 40.72900
H  1.65200 53.49800 42.10600
H  8.03500 48.31300 41.48600
H  10.19400 50.04500 40.36400
H  9.94200 50.76800 43.17100
H  11.21400 49.86600 42.36800
H  9.75900 49.09400 43.08800
H  7.29600 47.83500 39.24200
H  8.91100 47.83500 39.09100
H  8.95700 49.14200 37.56700
H  8.40600 50.50400 38.40600
H  11.48300 54.07800 39.51800
H  11.81600 54.87100 41.08400
H  11.68500 55.81200 39.63300
H  7.59200 58.50300 39.62900
H  8.84500 59.74600 40.18900
H  8.26100 58.71500 41.36100
H  3.68800 57.44900 40.19600
H  2.67300 56.10800 42.57100
H  3.34600 58.28400 42.75000
H  4.41500 58.85300 41.53000
H  5.09200 57.66900 42.72700
H  0.76400 55.24500 41.30000
H  1.61600 55.69400 39.77500
H  0.92800 57.99300 41.75200
H  -0.40200 57.26900 40.99600
H  0.92700 57.84700 39.97100
H  0.54100 51.46400 42.33100
H  1.00400 50.76200 44.00200
H  0.67200 49.78000 42.58300
H  5.87300 47.78600 42.48100
H  3.95500 45.46100 39.38700
H  5.31400 44.40400 39.69000
H  5.40300 45.79600 38.54700

