158

Mg 54.10500 24.16000 44.91500
C  51.66300 26.47300 44.16300
C  52.39800 21.74900 43.17500
C  56.94200 22.18800 44.93200
C  55.93200 26.70000 46.29100
N  52.35400 24.17100 43.65300
C  51.45200 25.20100 43.60300
C  50.19300 24.80700 42.76200
C  50.34300 23.27500 42.83900
C  51.84900 23.03500 43.13500
C  49.50000 22.54100 43.96900
C  50.24000 25.36200 41.27300
C  50.87000 24.64300 40.08000
H  50.98300 25.41300 38.78700
N  54.64400 22.23400 44.28100
C  53.76100 21.42400 43.61400
C  54.30200 20.09200 43.46700
C  55.71300 20.21600 43.88400
C  55.82700 21.58900 44.42000
C  53.64900 18.99100 42.57000
C  56.78100 19.03400 43.72900
O  56.46900 17.98100 43.14600
C  58.22200 19.19100 44.25100
N  56.16900 24.39400 45.48700
C  57.09900 23.45100 45.48900
C  58.27300 23.90600 46.33400
C  57.80200 25.23600 47.01200
C  56.54700 25.51100 46.20300
C  58.72000 22.87800 47.39000
C  58.95000 26.23600 46.93700
C  58.99600 27.11200 45.67700
N  53.81500 26.22700 45.19400
C  54.68700 27.11900 45.78100
C  54.02700 28.42300 45.84700
C  52.80600 28.23800 45.22200
C  52.78800 26.88600 44.82900
C  54.51000 29.65000 46.51400
C  51.50700 28.82300 44.94800
O  51.09400 29.96000 45.25500
C  50.78000 27.69800 44.12600
C  50.44400 28.23000 42.81100
O  51.26300 28.72300 42.06600
O  49.16800 28.18800 42.45900
C  48.75700 28.68900 41.14200
H  51.78000 20.91800 42.83000
H  57.88500 21.63900 44.97600
H  56.49100 27.52100 46.74600
H  49.29200 25.02200 43.33700
H  50.18200 22.76200 41.89000
H  48.89200 23.25100 44.52900
H  50.17500 22.16800 44.73900
H  48.87700 21.78100 43.49900
H  50.89800 26.18200 41.55700
H  49.30400 25.76300 40.88300
H  50.28600 23.74000 39.90700
H  51.83000 24.22500 40.38300
H  54.15500 18.04300 42.74900
H  53.51100 19.21900 41.51300
H  52.65700 18.85800 43.00200
H  58.96600 18.42300 44.04200
H  58.08000 19.44100 45.30300
H  58.52200 20.04500 43.64300
H  59.14700 24.13200 45.72300
H  57.60100 25.19500 48.08300
H  59.80100 23.01300 47.38700
H  58.34100 21.88200 47.16200
H  58.37400 23.13900 48.39000
H  59.85500 25.64100 47.06600
H  58.87800 26.86100 47.82700
H  58.57200 26.58100 44.82500
H  60.02900 27.39400 45.47600
H  58.47200 28.05500 45.84000
H  55.59900 29.67800 46.54000
H  54.26100 29.54300 47.57000
H  54.14800 30.61100 46.14800
H  49.87900 27.53000 44.71700
H  49.52200 28.58800 40.37300
H  48.50400 29.74300 41.26200
H  47.86100 28.15700 40.82100
Mg 42.39700 41.69400 26.14000
C  41.79000 44.03300 28.62000
C  43.59100 39.51500 28.54700
C  43.24600 39.62800 23.55400
C  41.55900 44.12700 23.70100
N  42.44600 41.72100 28.35800
C  42.26700 42.80200 29.18200
C  42.34900 42.41900 30.67500
C  43.28200 41.16700 30.57500
C  43.01100 40.72800 29.06400
C  44.74100 41.25700 30.99500
C  40.99500 42.27300 31.48000
C  40.60000 43.34700 32.48400
H  41.50300 43.61800 33.71600
N  43.24500 39.81200 26.13000
C  43.66100 39.10100 27.18000
C  44.10200 37.82500 26.66800
C  43.97600 37.79600 25.26500
C  43.43200 39.12100 24.86300
C  44.63100 36.74000 27.58400
C  44.33500 36.69400 24.27600
O  44.07000 36.74000 23.04900
C  45.03900 35.39700 24.70600
N  42.25900 41.77700 24.01800
C  42.70000 40.84200 23.16800
C  42.67000 41.30700 21.70500
C  41.78500 42.54000 21.80400
C  41.82100 42.83900 23.32600
C  44.06700 41.54900 21.05300
C  40.29500 42.34400 21.46800
C  39.60200 41.16500 22.09500
N  41.78300 43.60800 26.15400
C  41.60100 44.49800 25.05700
C  41.30700 45.82000 25.59500
C  41.28400 45.59900 27.00900
C  41.64700 44.27200 27.28200
C  41.04000 47.10100 24.85700
C  41.06500 46.31600 28.27700
O  40.67600 47.46300 28.49600
C  41.32900 45.32300 29.40100
C  42.36100 45.87800 30.34500
O  43.52300 45.53400 30.39700
O  41.81500 46.92600 31.08600
C  42.79800 47.50900 32.02200
H  43.92600 38.77100 29.27200
H  43.55700 39.05200 22.68000
H  41.20200 44.89300 23.01000
H  42.93900 43.17400 31.19400
H  42.94700 40.32600 31.18200
H  45.03800 42.28200 31.21600
H  45.31700 40.74500 30.22400
H  44.89700 40.66300 31.89500
H  40.76000 41.32100 31.95500
H  40.32800 42.32900 30.61900
H  39.57700 43.11900 32.78400
H  40.63200 44.32400 32.00200
H  45.72000 36.70700 27.58200
H  44.28300 35.78800 27.18300
H  44.43900 36.86400 28.64900
H  45.26800 34.91200 23.75600
H  44.43800 34.65400 25.23000
H  45.93200 35.80500 25.17900
H  42.07100 40.49900 21.28800
H  42.23500 43.40000 21.31000
H  44.30200 42.49600 20.56800
H  44.12700 40.75400 20.31000
H  44.87900 41.24600 21.71500
H  40.20000 42.26600 20.38500
H  39.70600 43.23300 21.69600
H  38.65600 41.51100 22.51300
H  40.17200 40.68100 22.88800
H  39.37100 40.44300 21.31200
H  41.44900 47.13700 23.84700
H  41.37900 47.96600 25.42700
H  39.95200 47.16200 24.84000
H  40.37400 45.20300 29.91300
H  43.22600 46.77300 32.70200
H  42.11400 48.11000 32.62100
H  43.58700 48.02100 31.47100

