158

Mg 17.23900 -1.34100 28.40200
C  16.16600 0.64400 30.97900
C  19.46500 -2.96400 30.65300
C  18.89400 -2.79700 25.84300
C  15.68200 0.76600 26.16600
N  17.79900 -1.18500 30.53700
C  17.08000 -0.32900 31.43300
C  17.53800 -0.67100 32.92500
C  18.74300 -1.70100 32.75700
C  18.71500 -1.93700 31.18500
C  20.11200 -1.23000 33.26600
C  16.30000 -1.15700 33.81400
C  16.30200 -0.83600 35.33500
H  17.63800 -0.79400 36.06300
N  18.78600 -2.87700 28.32300
C  19.53400 -3.45600 29.31500
C  20.37000 -4.54000 28.81000
C  20.18100 -4.55200 27.35400
C  19.29500 -3.37400 27.12500
C  21.29700 -5.30800 29.75900
C  20.74000 -5.54400 26.30600
O  20.42400 -5.41800 25.12300
C  21.64500 -6.68500 26.69800
N  17.29500 -0.99100 26.32300
C  18.04500 -1.78400 25.49700
C  17.76700 -1.39200 23.95400
C  16.63500 -0.28800 24.02400
C  16.48900 -0.20800 25.57800
C  19.07700 -0.89900 23.21100
C  15.35600 -0.66000 23.25800
C  14.09500 -1.22200 23.98700
N  16.10700 0.41600 28.49600
C  15.49100 1.13500 27.53300
C  14.73500 2.20000 28.15400
C  15.02800 2.07100 29.52300
C  15.90500 0.93400 29.63800
C  13.82400 3.24700 27.48400
C  14.67100 2.67400 30.77100
O  13.91500 3.55500 31.14500
C  15.33700 1.69300 31.78000
C  16.26000 2.55900 32.66700
O  17.20100 3.16700 32.29800
O  15.92100 2.52400 33.98900
C  16.83500 3.24100 34.92300
H  20.02900 -3.43800 31.46000
H  19.35400 -3.29100 24.98400
H  15.05600 1.42800 25.56400
H  17.85600 0.26300 33.38700
H  18.47200 -2.62400 33.26900
H  20.43600 -1.83600 34.11300
H  19.98800 -0.20000 33.60000
H  20.83400 -1.18800 32.45000
H  16.44000 -2.23800 33.81600
H  15.41100 -0.84400 33.26600
H  15.67300 -1.65800 35.67700
H  15.70000 0.07200 35.38200
H  22.33700 -5.26800 29.43400
H  20.94000 -6.33100 29.87400
H  21.29600 -4.80000 30.72300
H  22.02500 -6.68000 27.72000
H  22.51000 -6.70200 26.03400
H  20.94000 -7.50800 26.58900
H  17.39700 -2.29300 23.46500
H  16.97900 0.70000 23.72000
H  18.94300 0.08300 22.75700
H  19.35000 -1.67200 22.49200
H  19.85800 -0.76200 23.95900
H  15.58000 -1.31900 22.42000
H  15.13300 0.28300 22.76100
H  13.26700 -0.51400 24.02100
H  14.38100 -1.52600 24.99400
H  13.79700 -2.04700 23.34000
H  12.92600 3.17700 28.09800
H  13.57700 3.06100 26.43900
H  14.39900 4.16800 27.57900
H  14.57400 1.20700 32.38700
H  16.22300 3.83500 35.60200
H  17.50900 3.90600 34.38300
H  17.45100 2.59400 35.54800
Mg -12.20100 39.42600 40.08100
C  -10.57400 36.22900 39.85000
C  -9.05200 40.91800 39.04500
C  -13.76700 42.15900 39.63800
C  -15.16300 37.64400 40.76400
N  -10.09500 38.63100 39.50100
C  -9.72300 37.27000 39.39400
C  -8.42700 37.15900 38.59300
C  -7.81000 38.53300 38.97600
C  -9.06900 39.46200 39.13000
C  -7.01200 38.49400 40.22500
C  -8.76500 36.92000 37.07700
C  -7.64800 36.20300 36.31900
H  -7.93800 35.49700 34.94600
N  -11.44300 41.26100 39.58100
C  -10.18400 41.68700 39.20300
C  -10.25000 43.09600 39.20100
C  -11.56900 43.56500 39.42700
C  -12.34200 42.27900 39.51400
C  -8.95000 43.97400 38.92100
C  -12.03500 45.02400 39.51200
O  -11.31500 46.00000 39.30900
C  -13.41700 45.33400 39.99900
N  -14.26000 39.82300 39.93500
C  -14.64300 41.09000 39.91500
C  -16.16900 41.18200 39.98500
C  -16.50800 39.78100 40.62100
C  -15.24900 39.04300 40.43900
C  -16.76600 42.43500 40.68300
C  -17.69200 39.06300 39.86500
C  -18.87800 38.45600 40.61400
N  -12.77800 37.37700 40.35300
C  -14.00300 36.82800 40.61200
C  -13.87900 35.43100 40.80900
C  -12.50100 35.16800 40.59600
C  -11.90200 36.37900 40.22700
C  -15.00900 34.52100 41.21000
C  -11.53300 34.04600 40.41100
O  -11.71100 32.79400 40.46800
C  -10.24300 34.77300 39.92500
C  -9.13500 34.50200 40.90900
O  -9.25800 34.51500 42.10400
O  -7.91700 34.28900 40.30300
C  -6.82000 34.17000 41.22100
H  -8.09900 41.43400 38.90800
H  -14.18300 43.14200 39.41100
H  -16.09500 37.16400 41.06900
H  -7.74500 36.41000 38.99500
H  -7.07900 38.84600 38.23000
H  -6.01800 38.81400 39.91400
H  -7.02200 37.55700 40.78200
H  -7.37100 39.29600 40.86900
H  -8.92000 37.88100 36.58700
H  -9.72200 36.41300 36.96200
H  -7.28600 35.48800 37.05800
H  -6.87900 36.95800 36.15700
H  -8.17400 43.41300 38.40100
H  -8.55100 44.30100 39.88100
H  -9.15500 44.92700 38.43300
H  -13.46800 46.34300 40.40700
H  -13.65700 44.60400 40.77200
H  -14.17000 45.20800 39.22100
H  -16.41900 41.22400 38.92500
H  -16.87000 39.91300 41.64100
H  -17.66900 42.67900 40.12400
H  -16.10900 43.30500 40.65900
H  -17.17500 42.13100 41.64700
H  -17.27500 38.27500 39.23700
H  -18.16400 39.80700 39.22200
H  -19.06500 37.47600 40.17500
H  -19.76900 39.08400 40.61700
H  -18.54400 38.38400 41.64900
H  -15.62700 34.98000 41.98200
H  -14.65900 33.61100 41.69600
H  -15.54700 34.29900 40.28800
H  -9.95300 34.21200 39.03700
H  -6.06400 34.25300 40.44000
H  -6.78200 33.13100 41.54700
H  -6.72700 34.91500 42.01100

