158

Mg 6.61500 53.10800 40.88500
C  6.54700 49.59900 40.52100
C  9.89500 53.02300 40.28600
C  6.50700 56.46400 40.71500
C  2.97500 53.00300 41.00000
N  7.99500 51.48000 40.32000
C  7.82700 50.10000 40.27800
C  9.09500 49.36900 39.82900
C  10.19800 50.51000 40.01700
C  9.29700 51.77500 40.25200
C  11.20700 50.27600 41.18400
C  9.21000 48.80900 38.34900
C  8.89100 49.74900 37.19800
H  7.52100 49.52600 36.45300
N  8.13500 54.65700 40.63700
C  9.41100 54.39500 40.34000
C  10.12900 55.55600 40.10100
C  9.08900 56.66500 40.25500
C  7.83600 55.98000 40.59500
C  11.60000 55.56300 39.93000
C  9.35900 58.17400 40.11400
O  10.52600 58.46400 39.91900
C  8.31200 59.16800 40.25100
N  4.95100 54.49800 40.82600
C  5.25400 55.88000 40.82100
C  4.01900 56.67300 41.04800
C  2.94100 55.59900 40.98800
C  3.64700 54.29200 40.92100
C  4.10100 57.47800 42.40500
C  1.94900 55.67400 39.73900
C  1.46800 57.07300 39.28000
N  4.96500 51.63100 40.77400
C  3.60300 51.70800 40.95300
C  3.21000 50.40200 41.10000
C  4.28500 49.56800 40.97500
C  5.35300 50.29600 40.75100
C  1.71000 50.05700 41.45900
C  4.69700 48.20400 41.06800
O  4.05300 47.23500 41.29000
C  6.17500 48.18400 40.66200
C  6.14400 47.36000 39.43400
O  6.10300 47.79600 38.27600
O  6.05300 46.02600 39.80400
C  5.89100 45.14600 38.56900
H  10.98400 52.97500 40.22600
H  6.31000 57.53200 40.60200
H  1.88800 53.00900 41.10100
H  9.16900 48.52600 40.51700
H  10.78900 50.72900 39.12800
H  12.17300 50.38600 40.69200
H  11.07200 49.28900 41.62500
H  11.10100 51.14100 41.83900
H  8.68500 47.85800 38.26100
H  10.28400 48.70000 38.19400
H  9.60900 49.82400 36.38100
H  8.71200 50.78500 37.48800
H  12.08700 56.32500 40.53800
H  11.69700 55.91600 38.90300
H  12.13000 54.61500 39.83800
H  8.78800 60.12900 40.05800
H  7.74500 59.06900 41.17700
H  7.59400 59.12400 39.43200
H  3.82000 57.42500 40.28500
H  2.35900 55.58400 41.91000
H  3.45500 57.02900 43.16000
H  3.79300 58.50600 42.21500
H  5.12900 57.52600 42.76500
H  1.03800 55.09700 39.89800
H  2.60800 55.35100 38.93300
H  1.92400 57.25400 38.30700
H  1.55900 57.98700 39.86800
H  0.38000 57.01100 39.25400
H  1.23400 50.95700 41.84900
H  1.66200 49.21300 42.14700
H  1.21700 49.80400 40.52000
H  6.72800 47.69400 41.46300
H  6.53300 45.47900 37.75400
H  4.83100 45.12700 38.31600
H  6.28000 44.17500 38.87500
Mg -12.01400 37.69300 41.92500
C  -10.23900 34.70000 41.29600
C  -9.39800 39.44500 40.55800
C  -14.09700 40.31900 41.68300
C  -14.64100 35.77600 42.95900
N  -9.99100 37.12600 41.11600
C  -9.50500 35.84700 40.90900
C  -8.09700 35.98700 40.21600
C  -7.71300 37.48500 40.39800
C  -9.12500 38.09200 40.79200
C  -6.53700 37.81100 41.41700
C  -8.12800 35.44200 38.72000
C  -6.97200 34.49900 38.52200
H  -5.79200 35.10500 37.79700
N  -11.76400 39.59600 41.25500
C  -10.60800 40.15600 40.73800
C  -10.81500 41.58600 40.50400
C  -12.23000 41.74600 40.56300
C  -12.78500 40.52300 41.14100
C  -9.67800 42.55400 40.00300
C  -12.94000 43.00500 40.20100
O  -12.21500 43.92600 39.78700
C  -14.36100 43.29200 40.36600
N  -14.14800 38.04600 42.38700
C  -14.74700 39.24600 42.26800
C  -16.29400 39.22400 42.48500
C  -16.38300 37.69800 43.09300
C  -15.00500 37.12400 42.75100
C  -16.90900 40.20500 43.46600
C  -17.53900 36.80500 42.45400
C  -17.84400 36.95300 40.96000
N  -12.39500 35.71900 42.14600
C  -13.46200 35.06800 42.71200
C  -13.18900 33.64700 42.79700
C  -11.92800 33.44700 42.22600
C  -11.48500 34.73000 41.81800
C  -14.11300 32.67200 43.46400
C  -10.87000 32.42300 41.83500
O  -10.79600 31.21200 41.90500
C  -9.71200 33.29500 41.14900
C  -8.35200 33.01100 41.71100
O  -7.49800 32.35700 41.15500
O  -8.23600 33.52000 43.02200
C  -7.25600 32.90300 43.86800
H  -8.58900 40.00400 40.08300
H  -14.72300 41.21300 41.63900
H  -15.51200 35.17900 43.24000
H  -7.48400 35.40700 40.90600
H  -7.30600 37.81500 39.44300
H  -6.94200 37.85200 42.42800
H  -6.02600 38.76700 41.30300
H  -5.73900 37.09400 41.22400
H  -8.11200 36.23100 37.96900
H  -9.04900 34.86100 38.66900
H  -7.31300 33.60500 37.99800
H  -6.48200 34.16200 39.43500
H  -9.71300 42.69100 38.92200
H  -8.66600 42.15500 40.07700
H  -9.79700 43.53800 40.45800
H  -14.91700 42.42900 40.00000
H  -14.75600 44.09700 39.74700
H  -14.53300 43.52300 41.41800
H  -16.80000 39.28800 41.52200
H  -16.55400 37.66900 44.16900
H  -17.66200 40.82500 42.97900
H  -16.17500 40.72200 44.08300
H  -17.42400 39.64900 44.25000
H  -18.44400 37.01800 43.02400
H  -17.34800 35.73800 42.56700
H  -17.01600 37.51200 40.52400
H  -18.79000 37.48200 40.84200
H  -18.01400 35.98200 40.49500
H  -15.02300 32.38100 42.93800
H  -14.31700 33.17300 44.41000
H  -13.56600 31.77100 43.74100
H  -9.75700 32.99800 40.10100
H  -7.30200 31.82400 43.72100
H  -7.45300 33.21600 44.89400
H  -6.25000 33.23600 43.61200

