158

Mg 17.45600 51.67600 26.43700
C  19.20100 50.32800 29.15800
C  14.86800 52.61200 28.62400
C  15.59500 52.57500 23.77900
C  19.86100 50.38800 24.33000
N  17.15000 51.49800 28.63100
C  18.03600 51.04000 29.53500
C  17.58800 51.36500 30.99200
C  16.05400 51.71500 30.76800
C  15.98600 51.93700 29.23300
C  15.10900 50.63500 31.15200
C  18.46400 52.44600 31.65300
C  19.06800 52.06500 33.05400
H  18.17400 51.26200 33.99500
N  15.52200 52.52700 26.22200
C  14.59100 52.79700 27.21600
C  13.42700 53.42100 26.60200
C  13.52300 53.28600 25.18600
C  14.88400 52.72200 24.99600
C  12.30200 54.04500 27.43200
C  12.60100 53.86200 24.06000
O  12.84000 53.73600 22.86200
C  11.29300 54.61700 24.46100
N  17.65600 51.41300 24.31200
C  16.82500 52.04400 23.47900
C  17.42500 52.14000 22.13000
C  18.92200 51.73800 22.34500
C  18.87400 51.22600 23.75900
C  16.61900 51.15300 21.12700
C  19.97400 52.90300 22.27200
C  21.09100 52.57500 21.33400
N  19.14700 50.59200 26.67600
C  20.00900 50.09400 25.75000
C  21.08700 49.31500 26.39100
C  20.81700 49.49500 27.75700
C  19.61500 50.17300 27.84000
C  22.08100 48.42700 25.76100
C  21.37800 49.17400 29.05000
O  22.43400 48.61200 29.37600
C  20.30600 49.68000 30.03300
C  19.75700 48.50900 30.81600
O  19.16200 47.57900 30.34800
O  20.12300 48.73900 32.12400
C  19.93400 47.59000 33.01800
H  14.08000 52.83600 29.34600
H  15.18900 53.02800 22.87200
H  20.63600 50.03400 23.64600
H  17.68200 50.48700 31.63100
H  15.82200 52.61800 31.33200
H  14.59800 50.21900 30.28400
H  14.29500 50.91800 31.81900
H  15.58300 49.81000 31.68300
H  17.96800 53.40700 31.79000
H  19.30400 52.72300 31.01600
H  19.30200 52.96600 33.62100
H  20.01000 51.51700 33.02900
H  11.83900 54.94500 27.02600
H  12.61300 54.06400 28.47700
H  11.62800 53.21600 27.64900
H  10.53500 54.74300 23.68800
H  11.54800 55.57400 24.91700
H  10.77300 53.97300 25.17000
H  17.23800 53.18700 21.89000
H  19.16500 50.98600 21.59500
H  15.63100 50.84700 21.47000
H  17.15800 50.22000 20.96700
H  16.51700 51.66500 20.17100
H  20.29600 53.28900 23.23900
H  19.36900 53.68700 21.81700
H  21.97900 52.98200 21.81700
H  21.00400 52.87600 20.29000
H  21.31400 51.50800 21.32800
H  23.02300 48.97300 25.71700
H  21.92700 47.91300 24.81300
H  22.20200 47.56400 26.41600
H  20.74600 50.48100 30.62700
H  19.31100 47.97000 33.82800
H  20.83000 47.18000 33.48300
H  19.35500 46.78500 32.56500
Mg -6.51600 24.92400 25.06300
C  -4.62400 26.22500 27.58100
C  -8.31300 23.00500 27.39500
C  -8.22300 23.48800 22.43300
C  -4.36200 26.47000 22.72300
N  -6.33500 24.60500 27.24500
C  -5.48600 25.25900 28.06900
C  -5.79800 24.93000 29.50100
C  -6.75200 23.64600 29.37300
C  -7.19200 23.73900 27.90000
C  -6.23400 22.24700 29.81200
C  -6.47500 26.11100 30.26100
C  -5.98600 26.31000 31.71600
H  -5.41300 25.07800 32.47900
N  -8.14600 23.48900 24.91100
C  -8.75300 22.86800 26.03600
C  -9.84700 22.14100 25.47700
C  -9.89100 22.30700 24.00000
C  -8.70100 23.09900 23.73100
C  -10.74800 21.51100 26.45900
C  -10.98000 21.90700 23.02200
O  -11.01500 22.37100 21.87300
C  -11.96500 20.87300 23.30200
N  -6.17000 24.85400 22.83800
C  -7.18600 24.36800 21.98100
C  -6.68300 24.62100 20.48700
C  -5.76500 25.82200 20.75200
C  -5.34000 25.65700 22.16400
C  -6.06800 23.39500 19.86600
C  -6.40800 27.21700 20.51600
C  -5.73500 28.02800 19.32900
N  -4.87500 26.13900 25.04800
C  -4.10700 26.69900 24.08500
C  -3.10900 27.61800 24.71900
C  -3.27000 27.43900 26.08000
C  -4.38200 26.58900 26.21900
C  -2.20100 28.46400 23.93100
C  -2.85400 27.87000 27.33300
O  -2.07100 28.76200 27.66400
C  -3.55400 26.95100 28.34800
C  -2.56000 26.08000 29.01500
O  -2.33800 24.91400 28.71400
O  -2.09000 26.68000 30.17000
C  -1.32600 25.90600 31.19200
H  -8.87700 22.48600 28.17300
H  -8.70100 22.94100 21.61800
H  -3.71400 26.82700 21.91900
H  -4.81100 24.74500 29.92500
H  -7.59700 23.80200 30.04300
H  -6.01300 21.73100 28.87700
H  -7.06100 21.67800 30.23600
H  -5.35900 22.25300 30.46200
H  -7.56400 26.10700 30.20600
H  -6.11100 26.97600 29.70700
H  -6.65400 26.77900 32.43800
H  -5.18600 27.04400 31.61700
H  -11.04800 20.58000 25.97900
H  -11.64600 22.12900 26.46800
H  -10.45500 21.20800 27.46400
H  -12.83300 21.38200 23.72000
H  -11.51400 20.14800 23.98000
H  -12.38500 20.37200 22.43000
H  -7.47300 25.05400 19.87400
H  -4.96300 25.70600 20.02300
H  -6.11600 22.48300 20.46100
H  -5.03400 23.57200 19.56900
H  -6.59500 23.20200 18.93200
H  -6.34900 27.92400 21.34300
H  -7.47300 27.06100 20.34100
H  -5.88400 29.10500 19.24900
H  -6.18300 27.56900 18.44800
H  -4.64900 27.93500 19.32000
H  -2.21700 28.42800 22.84100
H  -1.26500 28.10000 24.35400
H  -2.32500 29.51100 24.20700
H  -3.94500 27.67000 29.06800
H  -1.67200 24.87400 31.12600
H  -1.54000 26.35900 32.16100
H  -0.30400 25.90600 30.81600

