158

Mg 48.29500 15.94800 28.07800
C  46.11200 15.98900 30.94500
C  50.45700 17.85900 29.71700
C  49.87900 16.16100 25.16500
C  45.32400 14.68800 26.28600
N  48.18700 16.94700 30.06800
C  47.35800 16.65800 31.14600
C  47.98100 17.17700 32.42500
C  49.16500 18.05400 31.91400
C  49.30600 17.55500 30.52300
C  48.83300 19.54400 31.81600
C  48.36100 15.99600 33.34600
C  47.94600 16.15800 34.82700
H  47.28100 17.42500 35.41700
N  50.08500 16.71000 27.59700
C  50.80500 17.50000 28.38900
C  51.94200 18.01700 27.64000
C  51.82500 17.45800 26.33300
C  50.57600 16.65900 26.28500
C  52.95400 19.10600 28.16100
C  52.69000 17.64600 25.10000
O  52.46500 17.00200 24.07200
C  53.83200 18.49900 25.11200
N  47.64500 15.52500 26.03800
C  48.63800 15.56300 25.11300
C  48.07300 15.06600 23.79800
C  46.63300 14.61200 24.12300
C  46.48300 15.00400 25.52300
C  48.18900 16.17400 22.72700
C  46.45700 13.06500 23.92500
C  45.70600 12.65600 22.73400
N  46.14000 15.45200 28.44800
C  45.11700 14.93600 27.63100
C  44.02900 14.49900 28.45700
C  44.33900 14.84100 29.74800
C  45.63600 15.49800 29.70600
C  42.70200 13.91300 27.95100
C  43.94400 14.71600 31.12700
O  43.06100 14.09400 31.63900
C  45.07100 15.46700 31.94500
C  44.36600 16.50800 32.83300
O  44.51200 17.71900 32.85900
O  43.57500 15.83800 33.77900
C  43.07500 16.59200 34.98700
H  51.15300 18.53100 30.22400
H  50.38200 16.20200 24.19700
H  44.63300 14.06900 25.71100
H  47.26900 17.85300 32.90000
H  50.04000 17.86300 32.53500
H  48.00700 19.75300 31.13700
H  49.70400 20.12100 31.50500
H  48.60400 19.92600 32.81100
H  49.39900 15.67400 33.42200
H  47.94600 15.09500 32.89300
H  48.80400 16.00500 35.48200
H  47.39100 15.24900 35.05700
H  53.48100 19.64900 27.37700
H  53.79700 18.60900 28.64200
H  52.48600 19.77800 28.88000
H  53.60300 19.53000 25.38300
H  54.24100 18.42800 24.10400
H  54.52600 18.05300 25.82300
H  48.69800 14.23500 23.46800
H  45.86100 15.23500 23.66900
H  47.33400 16.08100 22.05800
H  48.91100 15.87000 21.96900
H  48.29600 17.18500 23.12000
H  46.10500 12.63700 24.86400
H  47.42500 12.58200 23.79100
H  45.31800 11.63800 22.77800
H  46.39900 12.80600 21.90600
H  44.89100 13.36000 22.56700
H  42.28900 14.68000 27.29600
H  42.05300 13.74600 28.81100
H  42.87600 13.03100 27.33400
H  45.55700 14.80700 32.66400
H  42.14000 16.07700 35.20500
H  42.73800 17.61200 34.80300
H  43.69300 16.46900 35.87700
Mg 6.46700 54.55900 40.43900
C  5.73700 51.09000 40.14600
C  9.66900 53.86900 39.96500
C  6.83300 57.59600 39.49400
C  2.98300 54.98500 40.90700
N  7.48200 52.75400 39.93200
C  7.04900 51.43400 39.92600
C  8.24200 50.42700 39.63100
C  9.38600 51.41100 40.05700
C  8.85200 52.77400 40.06200
C  9.98900 51.05900 41.48400
C  8.26700 49.95200 38.19300
C  8.01600 50.99300 37.09700
H  6.84100 50.65900 36.09800
N  8.15800 55.66500 39.99900
C  9.41900 55.26800 39.90400
C  10.28600 56.32800 39.64700
C  9.43800 57.50900 39.32400
C  8.05800 56.96500 39.56400
C  11.85600 56.26400 39.58900
C  9.90500 58.94400 38.98100
O  11.06900 59.25100 38.93900
C  8.97800 60.09600 38.95000
N  5.07400 56.06000 40.18000
C  5.52900 57.27000 39.81100
C  4.27400 58.27500 39.58900
C  3.09400 57.47400 40.17800
C  3.66400 56.07200 40.36200
C  4.51500 59.54500 40.49800
C  1.78800 57.47300 39.26900
C  0.43600 57.84900 39.84700
N  4.67900 53.30200 40.54600
C  3.43500 53.62500 40.92100
C  2.67600 52.47200 41.25200
C  3.53300 51.40300 40.84000
C  4.72800 51.98400 40.42600
C  1.23900 52.48100 41.65000
C  3.66500 49.91100 40.82100
O  2.96800 49.00600 41.28900
C  5.09900 49.73500 40.32800
C  5.02300 48.93500 38.99600
O  4.59800 49.45300 37.96000
O  5.37300 47.66500 39.20600
C  5.40000 46.89900 37.99000
H  10.71700 53.56800 40.02800
H  6.93000 58.60200 39.08000
H  1.97900 55.23900 41.25100
H  8.12300 49.60900 40.34200
H  10.27100 51.35100 39.42400
H  10.94700 50.58500 41.27400
H  9.35900 50.35100 42.02300
H  10.09700 51.89200 42.17900
H  7.58100 49.11500 38.06600
H  9.28500 49.65500 37.93900
H  8.91200 51.17300 36.50300
H  7.76400 51.93900 37.57600
H  12.25700 56.23100 38.57600
H  12.20400 55.40300 40.15800
H  12.36800 56.97000 40.24300
H  9.52200 60.99800 39.23100
H  8.19000 60.07100 39.70200
H  8.58200 60.14700 37.93600
H  4.22900 58.49100 38.52200
H  2.77700 57.83700 41.15600
H  4.16500 60.40600 39.92800
H  5.53200 59.60100 40.88600
H  3.93100 59.50900 41.41800
H  1.56100 56.43100 39.04100
H  1.92500 58.07500 38.37100
H  -0.38300 57.13200 39.79700
H  0.09100 58.66500 39.21200
H  0.61600 58.09200 40.89400
H  1.12000 53.32100 42.33400
H  0.90300 51.66100 42.28500
H  0.55600 52.64000 40.81600
H  5.59700 49.05300 41.01700
H  5.76500 47.49900 37.15800
H  4.36500 46.60100 37.82400
H  5.96700 45.97800 38.13300

