158

Mg 0.96100 6.86400 26.20300
C  1.99000 9.37600 28.66500
C  1.00000 4.61200 28.71000
C  0.24000 4.77300 23.92400
C  1.68000 9.47400 23.76400
N  1.44700 7.04100 28.45200
C  1.75000 8.07800 29.25300
C  1.56200 7.76000 30.68500
C  1.52300 6.19000 30.66500
C  1.31600 5.91400 29.17400
C  2.79000 5.46200 31.18200
C  0.28000 8.49900 31.41000
C  0.45400 8.72700 32.97000
H  1.75500 8.36900 33.72600
N  0.63300 4.96900 26.28300
C  0.74600 4.11100 27.38300
C  0.37600 2.72100 26.99900
C  0.01500 2.78900 25.60900
C  0.38500 4.17100 25.18000
C  0.19000 1.58100 28.06000
C  -0.50200 1.66300 24.71300
O  -0.95200 1.86600 23.61500
C  -0.52700 0.23800 25.26100
N  1.32200 7.00200 23.97000
C  0.65500 6.00100 23.33300
C  0.07400 6.48300 21.95000
C  0.58400 8.00400 21.88800
C  1.17500 8.24200 23.30900
C  0.45100 5.61200 20.72800
C  -0.43400 9.08100 21.49600
C  -0.05200 10.27500 20.62200
N  1.72100 9.00700 26.14500
C  1.92200 9.88700 25.08700
C  2.42300 11.10200 25.57300
C  2.38100 10.96100 26.93700
C  2.00200 9.66100 27.24900
C  3.08100 12.22800 24.72800
C  2.64300 11.71100 28.14200
O  3.00300 12.87700 28.25700
C  2.25300 10.76700 29.33100
C  3.40100 10.61900 30.20200
O  4.45700 10.08500 29.86200
O  3.14100 11.28600 31.40700
C  4.27400 11.50900 32.29900
H  0.99200 3.84300 29.48500
H  -0.09900 4.04400 23.18600
H  1.66100 10.28200 23.02900
H  2.40500 8.19900 31.21800
H  0.64700 5.92200 31.25700
H  2.52700 4.82600 32.02700
H  3.59000 6.14800 31.45900
H  3.08900 4.77200 30.39300
H  -0.62500 7.89500 31.47000
H  0.11900 9.46100 30.92500
H  -0.35500 8.17500 33.44900
H  0.20800 9.74300 33.28100
H  0.57300 0.61600 27.72900
H  -0.87900 1.50800 28.25900
H  0.56500 2.04300 28.97300
H  -0.96100 0.05600 26.24400
H  0.52700 0.04600 25.46300
H  -0.75200 -0.54900 24.54200
H  -1.01400 6.42300 21.97800
H  1.45000 8.04100 21.22700
H  0.98500 4.69500 20.97900
H  1.21900 6.11000 20.13700
H  -0.35300 5.36500 20.03500
H  -0.71700 9.45400 22.48100
H  -1.26300 8.64600 20.93900
H  -0.91100 10.75200 20.14900
H  0.63000 10.00800 19.81500
H  0.23400 11.07700 21.30300
H  2.38400 12.71900 24.04900
H  3.77600 11.77200 24.02200
H  3.47900 13.05500 25.31600
H  1.39600 11.03400 29.94900
H  4.83100 12.39500 31.99300
H  4.91900 10.65200 32.49200
H  3.83700 11.81400 33.25000
Mg 52.81000 23.57200 44.73400
C  50.22500 25.84000 43.78600
C  50.94700 21.12500 43.68900
C  55.60500 21.62600 44.79200
C  54.80600 26.37800 45.52500
N  50.79000 23.61300 43.79500
C  49.95700 24.57900 43.37600
C  48.75000 23.95800 42.66300
C  48.84800 22.43800 43.09200
C  50.26600 22.35500 43.54000
C  47.94500 22.09000 44.36500
C  48.59600 24.14900 41.12000
C  49.97700 24.26200 40.40500
H  49.89800 24.48200 38.88300
N  53.15400 21.63500 44.42800
C  52.22700 20.75400 43.99300
C  52.81600 19.45700 43.90300
C  54.16300 19.52900 44.33200
C  54.35700 21.01700 44.49100
C  52.00400 18.26200 43.54700
C  55.11100 18.36300 44.62800
O  54.87800 17.27600 44.12000
C  56.43700 18.50500 45.32000
N  55.03400 24.00400 44.81000
C  55.90100 23.03300 44.95200
C  57.29100 23.61200 45.36200
C  56.92500 24.99200 45.88300
C  55.52700 25.17500 45.36600
C  58.05200 22.75400 46.36000
C  57.95900 26.04300 45.44400
C  58.46600 27.08000 46.51800
N  52.62400 25.68600 44.68000
C  53.42300 26.66700 45.21400
C  52.62300 27.91700 45.41500
C  51.37800 27.62300 44.86000
C  51.39400 26.24700 44.44800
C  53.05400 29.14900 46.09800
C  50.03600 28.15600 44.56000
O  49.67300 29.30600 44.66500
C  49.25500 27.03000 43.81400
C  48.89000 27.48000 42.53400
O  49.65400 27.41900 41.59400
O  47.55300 27.94900 42.48200
C  47.20100 28.32800 41.20500
H  50.30000 20.31500 43.34600
H  56.41800 20.91500 44.95700
H  55.27100 27.16100 46.12700
H  47.88700 24.47600 43.08100
H  48.58500 21.85700 42.20800
H  48.53700 21.63500 45.15900
H  47.19300 21.37000 44.04300
H  47.50100 23.01300 44.73700
H  47.89900 24.98300 41.04000
H  48.00800 23.29500 40.78400
H  50.69000 23.46700 40.62400
H  50.41300 25.19400 40.76400
H  52.32800 18.03700 42.53100
H  50.95200 18.44200 43.77100
H  52.31900 17.37900 44.10300
H  56.38500 19.22200 46.14000
H  57.31600 18.85600 44.77900
H  56.72200 17.50000 45.63200
H  57.90900 23.78200 44.48000
H  56.75000 25.02300 46.95900
H  58.75500 23.27800 47.00800
H  58.71300 22.03000 45.88300
H  57.31400 22.24500 46.98000
H  57.62300 26.45700 44.49300
H  58.78100 25.37400 45.18900
H  59.43300 26.74800 46.89500
H  57.67600 27.03600 47.26700
H  58.65800 28.08100 46.13000
H  54.04400 29.44400 45.74900
H  53.05500 28.98800 47.17600
H  52.32800 29.92400 45.85600
H  48.28400 26.88400 44.28700
H  47.32700 29.41100 41.23200
H  46.19100 27.91900 41.20500
H  47.81000 27.86000 40.43200

