158

Mg 36.15500 2.57900 30.34600
C  33.87200 3.34600 32.95700
C  38.76900 3.03900 32.66000
C  38.42600 2.39000 27.94000
C  33.59900 2.71500 28.02900
N  36.22600 3.10200 32.60900
C  35.20800 3.36600 33.42300
C  35.67200 3.52400 34.89300
C  37.24700 3.50800 34.70000
C  37.43000 3.26900 33.19700
C  37.84900 4.96300 35.11800
C  35.27700 2.31800 35.80800
C  34.78200 2.68300 37.25600
H  35.59400 3.78000 37.99100
N  38.30100 2.37700 30.34100
C  39.13000 2.51500 31.37700
C  40.38300 1.97300 31.01500
C  40.34000 1.81500 29.62400
C  39.00500 2.24200 29.21200
C  41.43500 1.61700 31.99300
C  41.39600 1.32200 28.72000
O  41.23300 1.25900 27.51300
C  42.81900 0.86700 29.13800
N  35.97100 2.69200 28.22800
C  37.10200 2.50600 27.46200
C  36.66900 2.31800 25.96000
C  35.09900 2.27600 25.99900
C  34.87500 2.48800 27.50900
C  37.27500 3.22200 24.87100
C  34.46600 0.97000 25.59300
C  33.04600 1.09300 24.96200
N  34.12300 2.88100 30.43800
C  33.20300 2.92200 29.43300
C  31.87000 3.33800 29.97700
C  32.06700 3.43600 31.37100
C  33.45300 3.15800 31.58200
C  30.62700 3.80000 29.25500
C  31.52200 3.85500 32.61300
O  30.38800 4.19400 32.88300
C  32.56700 3.65300 33.77300
C  32.60500 4.91600 34.54000
O  33.13900 5.94900 34.10600
O  32.13000 4.76100 35.83600
C  32.16300 5.87500 36.71400
H  39.58000 3.10000 33.38900
H  39.10100 2.27600 27.09000
H  32.88000 2.72700 27.20700
H  35.31700 4.45800 35.32700
H  37.71800 2.68500 35.23700
H  38.44300 5.31400 34.27500
H  38.55600 4.73600 35.91600
H  37.07300 5.68600 35.36800
H  36.11700 1.64200 35.96500
H  34.39000 1.79200 35.45400
H  34.73400 1.73200 37.78700
H  33.74200 2.97700 37.11800
H  41.83200 0.61100 31.85600
H  41.10500 1.71800 33.02700
H  42.29200 2.27800 31.86200
H  43.40400 0.43700 28.32600
H  42.76700 0.03200 29.83700
H  43.36300 1.67600 29.62700
H  36.91800 1.30300 25.65000
H  34.71800 3.15400 25.47700
H  37.65300 2.66900 24.01200
H  38.07500 3.78300 25.35400
H  36.50800 3.89400 24.48700
H  34.52100 0.28100 26.43600
H  35.13800 0.53800 24.85100
H  32.86900 0.29700 24.23900
H  32.87000 2.14000 24.71200
H  32.35300 0.72900 25.72000
H  30.01600 3.72800 30.15500
H  30.43600 3.06400 28.47400
H  30.73900 4.76700 28.76500
H  32.23800 2.85000 34.43300
H  32.09800 5.63500 37.77600
H  31.47300 6.65900 36.40200
H  33.15000 6.32800 36.61900
Mg 47.74600 35.67900 26.93800
C  45.84400 34.33600 29.55200
C  48.27400 38.53300 28.71900
C  49.36800 36.99900 24.21100
C  47.11300 32.74100 25.11800
N  47.19400 36.29200 28.89400
C  46.50000 35.53000 29.91900
C  46.43200 36.25800 31.21700
C  46.92100 37.73800 30.72800
C  47.46200 37.49900 29.34000
C  45.84700 38.88700 30.86900
C  47.44900 35.53500 32.11500
C  47.28300 35.42700 33.63700
H  46.39800 36.46700 34.23300
N  48.81900 37.50100 26.55000
C  48.94300 38.57000 27.42400
C  49.83500 39.60100 26.78600
C  50.24000 39.08300 25.48100
C  49.46500 37.77200 25.38300
C  50.29400 40.86400 27.48100
C  51.12700 39.65700 24.45800
O  51.46400 39.07000 23.46500
C  51.89100 40.90200 24.71900
N  47.92700 35.12400 24.81100
C  48.75800 35.74900 23.95300
C  48.83100 34.97500 22.60900
C  48.55400 33.49100 23.12300
C  47.80300 33.76900 24.45100
C  47.81000 35.55000 21.61600
C  49.90800 32.64900 23.25100
C  50.16900 31.60100 22.12500
N  46.55900 34.02800 27.10900
C  46.44600 32.84700 26.34400
C  45.40700 32.00800 26.88800
C  45.15400 32.50000 28.17700
C  45.90600 33.77500 28.26300
C  45.00100 30.68400 26.27800
C  44.56100 32.19000 29.39700
O  43.78300 31.30400 29.76100
C  44.92100 33.42500 30.38500
C  45.41200 32.83600 31.66600
O  46.48300 32.25300 31.77000
O  44.48000 32.88400 32.70500
C  44.73400 31.98000 33.89300
H  48.49300 39.46800 29.23800
H  49.81100 37.44500 23.31800
H  46.93600 31.81600 24.56700
H  45.40600 36.21300 31.58400
H  47.71400 37.97600 31.43700
H  46.44600 39.69600 31.28800
H  45.02500 38.49600 31.46900
H  45.48300 39.18700 29.88600
H  48.41000 35.99200 31.87700
H  47.38200 34.48000 31.84900
H  48.28800 35.58500 34.02900
H  46.90800 34.51600 34.10300
H  50.05800 40.89900 28.54400
H  49.98800 41.81600 27.04600
H  51.37400 40.72800 27.52500
H  51.32300 41.82400 24.59100
H  52.75000 40.87900 24.04900
H  52.32500 41.07600 25.70400
H  49.84100 35.01600 22.20200
H  47.95200 33.07500 22.31600
H  47.55800 34.71800 20.95900
H  48.09800 36.45900 21.08700
H  46.82100 35.81800 21.98800
H  49.83700 32.16900 24.22700
H  50.81800 33.24600 23.31000
H  49.54200 31.71900 21.24200
H  50.13800 30.59600 22.54600
H  51.22900 31.75800 21.92400
H  43.93300 30.68800 26.05900
H  45.08400 29.95200 27.08100
H  45.54100 30.34100 25.39500
H  43.96800 33.90800 30.60300
H  44.27300 31.07900 33.48800
H  44.25300 32.44400 34.75400
H  45.79500 31.75600 34.00200

