158

Mg 54.75500 22.56600 44.53600
C  52.07200 24.73800 43.69700
C  52.64600 19.97300 43.49200
C  57.24500 20.41600 44.88800
C  56.70600 25.24600 45.32800
N  52.65500 22.38800 43.45100
C  51.75300 23.41100 43.21400
C  50.41700 22.92000 42.83700
C  50.47500 21.36500 43.17600
C  52.04000 21.21000 43.37400
C  49.70300 20.99800 44.59000
C  50.02100 23.22700 41.36300
C  48.54000 23.34200 41.21000
H  47.81000 23.23000 39.80700
N  54.94000 20.45000 44.31500
C  53.99100 19.63400 43.82800
C  54.53500 18.31600 43.85700
C  55.84000 18.31300 44.39100
C  56.12800 19.74100 44.48800
C  53.62900 17.20400 43.36800
C  56.79400 17.17500 44.68500
O  56.45500 16.05500 44.35100
C  58.13300 17.39000 45.29000
N  56.73400 22.81900 44.89600
C  57.48900 21.79000 45.23700
C  58.78100 22.25500 45.80400
C  58.61700 23.76400 45.90900
C  57.22000 23.94600 45.39100
C  59.13600 21.51000 47.16200
C  59.78200 24.66000 45.24600
C  60.04900 26.04600 45.81100
N  54.44900 24.63300 44.58500
C  55.36400 25.59400 45.03900
C  54.62300 26.85400 45.05600
C  53.37200 26.53700 44.61500
C  53.29200 25.15400 44.28100
C  55.16000 28.13500 45.64500
C  52.01600 27.07000 44.37300
O  51.52000 28.16500 44.55700
C  51.17400 25.93600 43.71700
C  50.81500 26.34700 42.31900
O  51.62100 26.50000 41.42400
O  49.43900 26.63700 42.14100
C  48.97500 27.02000 40.83000
H  51.88400 19.24200 43.21100
H  58.05700 19.70400 45.04900
H  57.23900 26.12400 45.69900
H  49.59500 23.34200 43.41500
H  50.01400 20.73500 42.41500
H  49.33200 21.86800 45.13200
H  50.33600 20.67300 45.41600
H  48.86200 20.31300 44.48800
H  50.28200 22.34000 40.78600
H  50.46500 24.16500 41.02700
H  48.25200 24.33300 41.56200
H  47.99900 22.64100 41.84600
H  53.29000 17.40100 42.35100
H  52.81200 16.93300 44.03800
H  54.30000 16.35100 43.27100
H  58.03000 17.93900 46.22600
H  58.87900 17.74400 44.57700
H  58.40600 16.40200 45.66100
H  59.63300 21.93500 45.20500
H  58.60400 24.06000 46.95800
H  60.18000 21.34200 47.42700
H  58.58100 20.57200 47.13700
H  58.76000 21.98200 48.07000
H  59.43700 24.70300 44.21300
H  60.69900 24.07200 45.21300
H  59.84100 26.83800 45.09200
H  61.05900 26.04300 46.22000
H  59.40600 26.33700 46.64200
H  54.87600 28.12400 46.69700
H  54.65400 28.98500 45.18700
H  56.23500 28.21600 45.48100
H  50.25000 25.71500 44.25100
H  49.67500 26.90000 40.00300
H  48.74400 28.08000 40.93400
H  48.01700 26.55200 40.60100
Mg 16.21200 52.37600 25.13700
C  17.48300 50.84500 27.87600
C  13.57700 53.45400 27.02500
C  14.61700 53.24600 22.31400
C  18.66800 50.79000 23.16300
N  15.75900 52.43700 27.24000
C  16.42700 51.72200 28.22000
C  15.86500 52.07600 29.63900
C  14.58600 52.95400 29.29100
C  14.59400 52.90400 27.76200
C  13.21100 52.45900 29.93100
C  16.95200 52.72000 30.52400
C  17.11200 52.16900 31.96000
H  15.96300 51.40600 32.59500
N  14.49800 53.43100 24.77300
C  13.46300 53.69400 25.64300
C  12.49200 54.46500 24.96700
C  12.68100 54.32400 23.58200
C  13.94200 53.62100 23.49100
C  11.21700 55.14500 25.69300
C  11.85100 54.67500 22.35900
O  12.17800 54.40900 21.19400
C  10.50900 55.36100 22.55100
N  16.63200 52.12500 23.02600
C  15.80500 52.57800 22.11600
C  16.39300 52.19600 20.76500
C  17.91800 51.86400 20.98800
C  17.75200 51.53200 22.46700
C  15.65100 51.08200 19.88900
C  18.91400 53.09500 20.94700
C  20.14200 52.83000 20.16000
N  17.75600 51.10500 25.44300
C  18.73100 50.62100 24.56000
C  19.65900 49.78400 25.28400
C  19.20100 49.94300 26.61100
C  18.02200 50.68400 26.60900
C  20.81900 48.99300 24.74300
C  19.47600 49.48500 27.92200
O  20.35200 48.74900 28.31600
C  18.42700 50.16200 28.83600
C  17.81600 49.11800 29.80100
O  16.64900 48.77500 29.87600
O  18.75000 48.73600 30.70500
C  18.28300 47.93600 31.84400
H  12.84400 53.86100 27.72500
H  14.27000 53.47800 21.30500
H  19.49200 50.46000 22.52600
H  15.50200 51.17000 30.12400
H  14.77400 54.01300 29.47200
H  12.63100 52.16600 29.05600
H  12.68600 53.26600 30.44300
H  13.31900 51.60500 30.59800
H  16.67700 53.73500 30.81000
H  17.97000 52.79300 30.14400
H  17.36400 53.00900 32.60800
H  17.94600 51.46600 31.96900
H  10.24200 55.06100 25.21300
H  11.51400 56.16900 25.92000
H  11.24600 54.74100 26.70500
H  9.63300 54.78400 22.84800
H  10.34100 55.61300 21.50400
H  10.65600 56.21600 23.21000
H  16.19900 53.11100 20.20500
H  18.28600 50.93800 20.54600
H  14.81900 50.84200 20.55000
H  16.37000 50.26400 19.84100
H  15.33900 51.37600 18.88600
H  19.26700 53.46400 21.90900
H  18.39700 53.96500 20.54300
H  19.98100 52.84600 19.08200
H  20.50600 51.85900 20.49400
H  20.98600 53.48100 20.38900
H  20.63700 48.64300 23.72700
H  21.11000 48.13800 25.35400
H  21.65500 49.67200 24.57400
H  18.94300 50.79900 29.55400
H  17.90900 48.48200 32.71000
H  19.02600 47.22800 32.21200
H  17.51200 47.23400 31.52800

