158

Mg 47.47100 16.76100 28.43700
C  45.64800 16.28300 31.39300
C  49.55800 18.89700 29.97300
C  48.95600 17.27900 25.34500
C  44.66600 15.30500 26.68000
N  47.57900 17.53600 30.49200
C  46.80600 17.11500 31.55100
C  47.39000 17.65600 32.89800
C  48.58000 18.65000 32.33200
C  48.64700 18.30300 30.85200
C  48.42300 20.16500 32.48800
C  47.99000 16.45900 33.73600
C  48.33200 16.89700 35.19800
H  48.19500 18.40100 35.56100
N  49.06500 17.79400 27.81000
C  49.86300 18.61400 28.57800
C  50.99100 19.05900 27.84700
C  50.95600 18.37900 26.61500
C  49.64100 17.70700 26.51900
C  52.08000 20.03800 28.45100
C  51.97600 18.41300 25.63500
O  51.90500 17.85400 24.50000
C  53.29900 19.10400 25.86100
N  46.88600 16.37800 26.38200
C  47.66400 16.79600 25.26300
C  47.00200 16.48200 23.92700
C  45.79100 15.70500 24.41300
C  45.67700 15.81000 25.93700
C  46.66900 17.72700 23.08400
C  45.68000 14.21800 23.87900
C  44.81300 13.96500 22.60700
N  45.55000 15.79600 28.85200
C  44.46700 15.32400 28.06200
C  43.37900 14.94000 28.88400
C  43.79200 15.20700 30.22000
C  45.11300 15.80500 30.15000
C  42.15300 14.28800 28.38100
C  43.41400 15.15600 31.62700
O  42.34300 14.77700 32.12000
C  44.57700 15.79300 32.38000
C  43.98200 16.90200 33.22000
O  43.22800 17.76000 32.81300
O  44.46200 16.92700 34.45200
C  44.02900 18.02600 35.35000
H  50.28900 19.35800 30.64100
H  49.44300 17.48300 24.38900
H  43.84900 14.90100 26.07800
H  46.65200 18.24600 33.44100
H  49.58000 18.41700 32.70000
H  49.24100 20.66400 33.00700
H  47.47600 20.30000 33.01000
H  48.28100 20.69600 31.54700
H  48.94700 16.17700 33.29500
H  47.37800 15.56500 33.85000
H  49.35400 16.55700 35.36800
H  47.72600 16.31800 35.89600
H  52.56000 20.75800 27.78800
H  52.78500 19.37500 28.95300
H  51.67400 20.57100 29.31000
H  54.02900 18.80000 25.11000
H  53.72500 18.70200 26.78100
H  53.23400 20.18900 25.78600
H  47.76300 15.83300 23.49400
H  44.88500 16.19800 24.05800
H  47.10500 18.57600 23.61000
H  45.62700 17.73800 22.76400
H  47.17000 17.65800 22.11800
H  45.22200 13.57400 24.63000
H  46.69500 13.84700 23.73200
H  44.13100 14.78400 22.37600
H  44.26400 13.02600 22.54300
H  45.57000 13.94200 21.82300
H  41.61500 13.89200 29.24300
H  42.45400 13.56200 27.62600
H  41.42800 14.93900 27.89200
H  44.94500 15.01200 33.04600
H  43.70200 18.93300 34.84100
H  44.80900 18.41100 36.00700
H  43.16900 17.73200 35.95200
Mg 42.62200 42.04900 26.84100
C  41.76200 44.17500 29.45000
C  43.52900 39.71200 29.23900
C  43.68100 40.07900 24.37400
C  41.80200 44.54900 24.53200
N  42.72900 42.09300 29.15800
C  42.31000 43.04400 29.97700
C  42.20400 42.54500 31.48700
C  43.07000 41.14800 31.31000
C  43.02300 40.87400 29.78700
C  44.52400 41.26500 31.85300
C  40.71200 42.31300 31.95500
C  40.47700 41.76300 33.41900
H  39.79000 42.58000 34.44300
N  43.65000 40.19400 26.83100
C  43.86100 39.38200 27.92800
C  44.34700 38.13900 27.49100
C  44.15700 38.15100 26.03300
C  43.85300 39.52700 25.68400
C  44.89400 37.10300 28.45500
C  44.22200 37.01400 25.02000
O  44.09300 37.17400 23.80800
C  44.59900 35.69600 25.40200
N  42.92900 42.29500 24.78300
C  43.23400 41.30000 23.94100
C  43.05500 41.58200 22.46800
C  42.39700 43.04100 22.54800
C  42.28300 43.27400 24.03900
C  44.51100 41.40900 21.77900
C  41.03900 43.14400 21.81600
C  39.97700 42.20600 22.49700
N  42.06500 44.01600 26.94600
C  41.79200 44.87800 25.88300
C  41.27800 46.09100 26.48600
C  41.17600 45.83100 27.86100
C  41.67700 44.57400 28.09900
C  40.96400 47.30400 25.79500
C  40.85200 46.42600 29.12600
O  40.35000 47.54000 29.42100
C  41.05700 45.31400 30.18300
C  41.80700 45.92800 31.30900
O  42.81700 46.59900 31.22100
O  41.03100 45.78300 32.48600
C  41.68100 46.21400 33.76200
H  43.67800 38.95300 30.01000
H  43.64700 39.37500 23.53900
H  41.41500 45.29600 23.83600
H  42.66400 43.21200 32.21600
H  42.51100 40.39100 31.86200
H  45.25700 40.90300 31.13200
H  44.60800 40.65600 32.75300
H  44.82200 42.29500 32.05100
H  40.36000 41.56200 31.24800
H  40.15600 43.24900 31.88500
H  41.43100 41.52400 33.88900
H  39.80900 40.90200 33.41100
H  45.16200 37.59600 29.39000
H  45.85600 36.71500 28.12200
H  44.25500 36.25100 28.68700
H  43.81400 35.14800 25.92400
H  45.41100 35.74000 26.12800
H  44.85400 35.11800 24.51400
H  42.31900 40.86300 22.10900
H  43.06000 43.74500 22.04500
H  44.77700 42.44900 21.59300
H  44.44100 40.87600 20.83100
H  45.19100 40.78500 22.36000
H  41.27900 42.70100 20.84900
H  40.60500 44.13800 21.71400
H  39.69900 41.44400 21.76900
H  39.13300 42.81600 22.81900
H  40.35400 41.62600 23.33900
H  40.24100 47.90400 26.34800
H  40.80100 47.19600 24.72200
H  41.84200 47.94600 25.86800
H  40.03100 45.13500 30.50600
H  42.75500 46.05700 33.65900
H  41.36900 45.49300 34.51800
H  41.37700 47.20900 34.08600

