158

Mg 17.04000 -1.59800 27.49800
C  15.98600 0.50300 30.33800
C  18.52700 -3.51500 29.89800
C  18.47800 -3.06200 25.07600
C  15.76700 0.88000 25.49500
N  17.25700 -1.38100 29.92300
C  16.76700 -0.52500 30.80800
C  17.02000 -0.93500 32.31400
C  17.81200 -2.28700 32.10300
C  17.91300 -2.38400 30.55700
C  19.23600 -2.42300 32.83100
C  15.77600 -1.04300 33.27000
C  15.70500 -0.17800 34.47500
H  16.93300 0.48200 35.16500
N  18.33600 -2.99800 27.40400
C  18.78500 -3.76800 28.52700
C  19.45200 -4.97800 28.01200
C  19.48400 -4.80800 26.54300
C  18.79300 -3.61700 26.29800
C  20.13100 -6.06200 28.80300
C  20.08500 -5.83200 25.56900
O  20.09800 -5.76100 24.34900
C  20.70000 -7.16600 26.03000
N  17.00400 -1.21100 25.50100
C  17.85900 -1.87000 24.64400
C  17.78200 -1.34500 23.17800
C  16.78600 -0.16400 23.36100
C  16.42800 -0.17900 24.88800
C  19.17900 -0.98500 22.65800
C  15.52500 -0.26400 22.45300
C  14.43700 -1.23000 22.86200
N  15.82900 0.30400 27.80200
C  15.41100 1.13200 26.82200
C  14.62600 2.19600 27.47600
C  14.87000 2.01900 28.88400
C  15.61600 0.83400 28.99600
C  13.71900 3.21600 26.85200
C  14.58400 2.48700 30.23400
O  13.94100 3.51100 30.43600
C  15.35300 1.60200 31.27800
C  16.25500 2.55500 31.98200
O  17.40900 2.83200 31.73600
O  15.50800 3.25200 32.93100
C  16.23000 4.33200 33.61000
H  18.95600 -4.23400 30.60000
H  18.78500 -3.69700 24.24300
H  15.35400 1.58500 24.77100
H  17.70700 -0.20900 32.74800
H  17.13900 -3.11800 32.31300
H  19.44200 -1.52300 33.41000
H  19.91500 -2.55500 31.98800
H  19.46100 -3.24200 33.51400
H  15.62400 -2.08200 33.56300
H  14.83000 -0.81700 32.77800
H  15.19600 -0.72400 35.26900
H  14.98500 0.61500 34.27500
H  19.63000 -7.02900 28.74300
H  20.29900 -5.72100 29.82400
H  21.15900 -6.05100 28.44000
H  19.85000 -7.58700 26.56700
H  21.63000 -7.00500 26.57400
H  20.97900 -7.78300 25.17600
H  17.29700 -2.11800 22.58300
H  17.36700 0.74500 23.21100
H  19.43600 0.03700 22.93600
H  19.19800 -1.01200 21.56800
H  20.01500 -1.60500 22.98200
H  15.87400 -0.52100 21.45300
H  15.18200 0.76300 22.32900
H  13.55400 -0.78700 23.32200
H  14.86900 -2.05800 23.42500
H  14.05800 -1.73000 21.97000
H  13.07700 2.70800 26.13200
H  14.26200 4.03500 26.38100
H  13.19900 3.61400 27.72300
H  14.59700 1.24600 31.97800
H  16.92800 4.85400 32.95600
H  16.68600 4.10100 34.57300
H  15.34500 4.93300 33.81800
Mg -1.25500 34.37400 27.13600
C  -3.17300 32.74700 29.69800
C  -0.18000 36.63500 29.50400
C  0.00600 36.11200 24.59400
C  -2.81000 32.17900 24.93800
N  -1.59300 34.60200 29.34100
C  -2.34700 33.79900 30.15200
C  -2.24300 34.26900 31.57400
C  -1.56700 35.66400 31.42900
C  -1.02300 35.63500 30.03100
C  -2.49100 36.88000 31.61400
C  -1.38200 33.38000 32.55400
C  -2.14500 32.74700 33.75400
H  -1.50400 33.03300 35.13200
N  -0.08200 36.05600 27.03700
C  0.28500 36.77300 28.12300
C  1.28800 37.73000 27.69100
C  1.39300 37.59600 26.23400
C  0.41400 36.54100 25.89500
C  1.88900 38.66800 28.76400
C  2.11700 38.50100 25.10700
O  2.01200 38.27900 23.90400
C  3.08700 39.56600 25.50800
N  -1.49300 34.29100 25.07800
C  -0.87300 35.12000 24.17200
C  -1.11800 34.70600 22.70400
C  -1.76800 33.29000 22.93800
C  -1.94800 33.14900 24.41800
C  -2.10800 35.66700 22.02100
C  -1.04700 32.05300 22.31400
C  0.21200 31.62700 23.00200
N  -2.64700 32.64300 27.26400
C  -3.17300 31.88700 26.27300
C  -4.13700 30.98000 26.83300
C  -4.08000 31.15400 28.22400
C  -3.29000 32.28000 28.38500
C  -5.09000 30.17600 26.01900
C  -4.53100 30.77100 29.52300
O  -5.21800 29.88400 29.91400
C  -3.94300 31.81400 30.55700
C  -5.16200 32.19000 31.32800
O  -5.91400 33.08600 31.02000
O  -5.31400 31.45200 32.48300
C  -6.38900 31.88300 33.38200
H  0.25200 37.26900 30.28000
H  0.33100 36.75500 23.77300
H  -3.13000 31.42300 24.21800
H  -3.23600 34.46300 31.97900
H  -0.74200 35.83000 32.12100
H  -3.42300 36.68900 32.14700
H  -2.85300 37.25500 30.65700
H  -1.97100 37.64900 32.18500
H  -0.58500 33.94500 33.03800
H  -0.92800 32.59300 31.95100
H  -2.16700 31.65800 33.77200
H  -3.16300 33.12900 33.83500
H  2.44800 39.41600 28.20200
H  2.64100 38.19700 29.39700
H  1.13100 39.21000 29.33000
H  3.66700 39.86600 24.63600
H  3.83700 39.10400 26.15000
H  2.74700 40.45100 26.04600
H  -0.13600 34.78000 22.23700
H  -2.83500 33.21400 22.72700
H  -2.31900 36.47400 22.72300
H  -3.03900 35.24200 21.64600
H  -1.73200 36.17300 21.13200
H  -0.76200 32.28800 21.28800
H  -1.63400 31.13600 22.36700
H  0.06900 30.60500 23.35100
H  0.47700 32.34200 23.78100
H  0.95200 31.53000 22.20800
H  -6.08000 30.55700 26.27000
H  -5.06600 29.12100 26.29000
H  -4.88600 30.20600 24.94800
H  -3.26300 31.37100 31.28500
H  -6.00200 32.49600 34.19600
H  -6.93600 31.06200 33.84500
H  -7.12400 32.57400 32.97100

