158

Mg -2.11400 17.68400 26.76100
C  -2.72100 15.56700 29.50000
C  -2.54400 20.40300 28.79800
C  -2.03200 19.60200 23.91100
C  -2.50300 14.88100 24.69200
N  -2.74100 17.88200 28.91500
C  -2.57000 16.92500 29.92400
C  -2.69400 17.49800 31.26800
C  -2.82300 18.97000 30.99900
C  -2.76900 19.14800 29.44400
C  -4.19900 19.53300 31.49200
C  -1.41800 17.14300 32.15100
C  -1.28900 17.94500 33.47400
H  -1.07800 17.17000 34.80600
N  -2.20700 19.70200 26.40400
C  -2.39600 20.65400 27.39500
C  -2.23700 21.95200 26.78500
C  -1.92500 21.73900 25.42700
C  -2.03600 20.28500 25.16100
C  -2.25700 23.26200 27.59800
C  -1.69900 22.83400 24.37900
O  -1.57700 22.54300 23.17000
C  -1.42800 24.24000 24.70300
N  -2.51800 17.33300 24.62800
C  -2.27800 18.25900 23.68200
C  -2.21700 17.69200 22.20800
C  -2.30700 16.14700 22.55000
C  -2.43700 16.13400 24.05000
C  -3.31500 18.18900 21.31500
C  -1.11300 15.27800 22.04200
C  0.14900 15.47400 22.76900
N  -2.48100 15.61300 26.96700
C  -2.56200 14.58100 26.04900
C  -2.76200 13.31600 26.78400
C  -2.76700 13.64900 28.13500
C  -2.67300 15.06000 28.19000
C  -3.00700 11.91900 26.18500
C  -3.00900 13.05800 29.44200
O  -3.27000 11.85900 29.72600
C  -3.00500 14.29400 30.37200
C  -1.98600 14.05100 31.33100
O  -0.77300 14.07600 31.10300
O  -2.60000 13.71900 32.55600
C  -1.71500 13.20900 33.60300
H  -2.40400 21.12200 29.60800
H  -1.82900 20.15400 22.99200
H  -2.43700 14.04300 23.99400
H  -3.60800 17.02100 31.62000
H  -2.00800 19.56100 31.41800
H  -4.68900 18.79000 32.12200
H  -4.83500 19.73100 30.63000
H  -4.03400 20.46300 32.03700
H  -0.46900 17.13600 31.61600
H  -1.57000 16.09500 32.40900
H  -2.14600 18.60500 33.61600
H  -0.37900 18.54300 33.49700
H  -2.98000 23.93700 27.14000
H  -1.27600 23.73400 27.53400
H  -2.49400 22.91300 28.60300
H  -2.39200 24.71900 24.87400
H  -0.88100 24.75200 23.91100
H  -0.87400 24.31100 25.63900
H  -1.18200 17.86600 21.91500
H  -3.19400 15.67000 22.13200
H  -3.88900 17.46400 20.73700
H  -2.91500 18.84700 20.54400
H  -4.00800 18.83200 21.85800
H  -0.93700 15.54000 20.99900
H  -1.37000 14.22100 21.98500
H  0.07900 15.93400 23.75500
H  0.86900 15.95300 22.10600
H  0.52900 14.47300 22.96900
H  -2.22200 11.80600 25.43700
H  -3.91000 12.02800 25.58500
H  -3.04000 11.23000 27.02900
H  -3.96100 14.33400 30.89400
H  -1.96100 13.71200 34.53800
H  -0.67400 13.49600 33.45700
H  -1.70600 12.12100 33.67000
Mg 6.27300 54.43700 40.21100
C  5.44800 51.00600 39.94200
C  9.42200 53.68300 39.11000
C  7.00400 57.72200 39.75100
C  2.89200 55.14400 40.74800
N  7.32700 52.56200 39.39300
C  6.85600 51.26300 39.45400
C  7.77800 50.28400 38.75200
C  9.11800 51.04600 38.94500
C  8.62100 52.52900 39.12500
C  10.01500 50.70200 40.08900
C  7.30400 50.09500 37.23400
C  7.56200 48.71400 36.57000
H  6.51600 48.10500 35.67000
N  8.05600 55.53800 39.68100
C  9.30500 55.01800 39.40400
C  10.29900 56.10400 39.36800
C  9.58500 57.31800 39.52400
C  8.13800 56.86600 39.61600
C  11.81000 55.90100 39.25100
C  10.20200 58.76200 39.45600
O  11.42900 58.92500 39.28900
C  9.42200 60.00500 39.86300
N  5.07000 56.14100 40.20000
C  5.63900 57.40200 40.05200
C  4.54100 58.48500 40.23900
C  3.24000 57.63700 40.44600
C  3.70400 56.21300 40.50000
C  4.83000 59.60500 41.32300
C  2.10200 57.81500 39.30500
C  0.71600 57.93200 39.89800
N  4.57500 53.38700 40.37800
C  3.28800 53.73100 40.75500
C  2.46200 52.56000 40.99300
C  3.24100 51.45800 40.73000
C  4.51700 52.02800 40.37200
C  1.02900 52.64900 41.32300
C  3.26100 50.06100 40.58300
O  2.32400 49.24700 40.63800
C  4.76800 49.66200 40.14500
C  4.66200 48.70700 39.03600
O  4.16600 48.83100 37.91600
O  5.02400 47.47500 39.57800
C  4.85200 46.24000 38.80900
H  10.46200 53.47800 38.84600
H  7.21700 58.79300 39.77300
H  1.82200 55.28200 40.91700
H  7.84100 49.34100 39.29500
H  9.69200 50.92700 38.02600
H  9.49200 50.25000 40.93200
H  10.48600 51.61000 40.46500
H  10.84800 50.09600 39.73300
H  7.88700 50.69900 36.54000
H  6.31000 50.44900 36.96200
H  7.78000 48.04700 37.40400
H  8.52800 48.90200 36.10200
H  12.01800 54.98900 38.69200
H  12.31500 55.67500 40.19000
H  12.35600 56.73900 38.81900
H  8.63600 60.41900 39.23100
H  10.15700 60.80600 39.93200
H  9.11800 59.86100 40.90000
H  4.52500 59.00600 39.28100
H  2.78900 57.84000 41.41700
H  4.08200 59.63200 42.11500
H  4.86400 60.54800 40.77800
H  5.84000 59.41800 41.68700
H  2.15700 56.96400 38.62700
H  2.30100 58.65500 38.63900
H  0.07800 57.19200 39.41400
H  0.36700 58.96000 39.99300
H  0.81000 57.65300 40.94700
H  0.57500 53.03700 40.41100
H  0.78700 53.20700 42.22800
H  0.58500 51.67000 41.50500
H  5.08600 49.04200 40.98300
H  3.89200 45.74600 38.95800
H  5.65300 45.50800 38.92200
H  4.83300 46.47300 37.74400

