158

Mg 18.01200 -1.22600 27.15700
C  17.00000 0.79400 29.86600
C  19.81800 -3.14800 29.29700
C  19.09200 -2.82100 24.46900
C  16.25800 0.96400 25.02700
N  18.46800 -1.04400 29.33300
C  17.84800 -0.28800 30.25600
C  18.28100 -0.62300 31.68400
C  19.26800 -1.82200 31.47400
C  19.24600 -2.06200 29.93200
C  20.67100 -1.60500 32.08000
C  17.12900 -0.92200 32.68600
C  17.09000 -0.23800 34.08600
H  18.42900 0.21800 34.64700
N  19.20300 -2.76500 26.88400
C  19.86600 -3.47600 27.92200
C  20.59000 -4.66900 27.37200
C  20.33400 -4.57300 25.92200
C  19.45900 -3.39300 25.69800
C  21.46400 -5.74600 28.18100
C  20.97200 -5.38900 24.83100
O  20.97100 -5.17600 23.67500
C  21.96600 -6.41800 25.17100
N  17.91500 -0.84000 24.99900
C  18.38700 -1.70400 24.13300
C  18.05300 -1.45200 22.65800
C  16.98100 -0.30000 22.90200
C  17.05500 -0.03500 24.43600
C  19.27300 -0.84900 21.81400
C  15.48700 -0.69100 22.40700
C  14.63100 -1.36900 23.45400
N  16.94200 0.49200 27.39200
C  16.31400 1.26100 26.38900
C  15.59200 2.36500 27.02200
C  15.81900 2.22100 28.38300
C  16.59700 1.05700 28.57900
C  14.82300 3.38000 26.33800
C  15.52600 2.76100 29.72000
O  14.74000 3.65700 30.14300
C  16.33600 1.86700 30.72700
C  17.15400 2.76500 31.64000
O  18.36400 2.93700 31.57900
O  16.29500 3.28400 32.61000
C  16.92300 4.16700 33.59900
H  20.40900 -3.84100 29.90000
H  19.40100 -3.40600 23.60000
H  15.66700 1.50500 24.28500
H  18.88200 0.22400 32.01500
H  18.96200 -2.71700 32.01600
H  20.74400 -0.69900 32.68100
H  21.34400 -1.43600 31.23900
H  20.96200 -2.53000 32.57900
H  17.02300 -2.00200 32.78600
H  16.24800 -0.51300 32.19100
H  16.57200 -0.94200 34.73600
H  16.40800 0.59600 33.91600
H  22.51500 -5.87600 27.92400
H  20.94800 -6.70300 28.24600
H  21.46600 -5.47500 29.23700
H  21.46700 -7.04700 25.90800
H  22.94800 -6.10400 25.52500
H  22.17200 -7.09300 24.34000
H  17.60000 -2.36200 22.26400
H  17.27300 0.63700 22.42700
H  20.16600 -0.89200 22.43700
H  19.13900 0.13700 21.36800
H  19.63300 -1.52900 21.04200
H  15.51300 -1.28800 21.49500
H  15.14800 0.31400 22.15700
H  14.16100 -0.61100 24.08000
H  15.16100 -2.14000 24.01400
H  13.82300 -1.88700 22.93700
H  13.79500 3.06400 26.16000
H  15.31600 3.50200 25.37300
H  14.92200 4.29300 26.92600
H  15.59600 1.38400 31.36500
H  16.95000 5.19700 33.24300
H  17.96000 3.84400 33.69800
H  16.27400 4.10900 34.47300
Mg 54.02100 24.92500 45.31100
C  51.15600 26.67200 44.11600
C  52.94400 22.12300 43.70400
C  57.10500 23.57900 45.72200
C  55.18600 27.95400 46.65800
N  52.27800 24.55200 44.04900
C  51.25700 25.35600 43.63600
C  50.47400 24.69500 42.50500
C  50.77400 23.15200 42.85900
C  52.08800 23.28700 43.63500
C  49.66700 22.39500 43.73300
C  50.97700 25.17500 41.09400
C  49.83500 25.25500 40.02700
H  50.24400 25.68300 38.69000
N  54.82600 23.03000 44.96200
C  54.22000 22.00900 44.36900
C  55.02900 20.85600 44.42500
C  56.21200 21.19600 45.15200
C  56.09400 22.67700 45.31600
C  54.74700 19.41300 44.05000
C  57.31700 20.23500 45.78200
O  57.31400 19.02200 45.47500
C  58.50100 20.78900 46.54200
N  55.90100 25.72400 45.92800
C  56.97300 24.96800 45.98100
C  58.18700 25.77000 46.28400
C  57.58800 27.18600 46.71900
C  56.12300 26.95500 46.46200
C  59.29500 25.14800 47.18300
C  58.19000 28.34000 45.91400
C  58.20200 29.79900 46.56500
N  53.32800 26.82700 45.57700
C  53.86400 27.92700 46.21000
C  52.93900 29.00400 46.30400
C  51.90400 28.59900 45.42100
C  52.19100 27.21900 45.04300
C  52.99900 30.22700 47.17900
C  50.64700 29.01500 44.73300
O  50.01600 30.07400 44.80600
C  50.09000 27.76500 43.92700
C  49.78000 28.14800 42.56000
O  50.47500 28.80900 41.83800
O  48.49800 27.74000 42.32400
C  47.79900 28.46800 41.18400
H  52.69900 21.21900 43.14300
H  58.08300 23.10200 45.81700
H  55.48000 28.94200 47.01700
H  49.43800 24.97000 42.70600
H  50.78900 22.60900 41.91400
H  48.68900 22.87500 43.76400
H  50.00600 22.53300 44.76000
H  49.54100 21.37100 43.38300
H  51.73000 24.51100 40.66900
H  51.57700 26.08300 41.15900
H  49.21800 25.97300 40.56700
H  49.43100 24.25300 39.88700
H  55.44100 19.21900 43.23200
H  53.72400 19.16900 43.76300
H  54.95500 18.81500 44.93700
H  58.12100 21.54800 47.22700
H  59.15100 21.40100 45.91700
H  59.06600 20.09200 47.16100
H  58.54100 25.90900 45.26200
H  57.66200 27.40100 47.78500
H  58.87800 24.45300 47.91200
H  59.77100 25.83500 47.88200
H  60.08600 24.78700 46.52600
H  57.65100 28.48500 44.97800
H  59.16900 28.10300 45.49700
H  57.68500 29.77500 47.52400
H  57.81300 30.61400 45.95500
H  59.22500 30.03100 46.86000
H  52.04200 30.74900 47.13600
H  53.80800 30.78800 46.71200
H  53.13300 30.02200 48.24200
H  49.14900 27.51800 44.41700
H  48.39000 28.28100 40.28700
H  47.73300 29.54700 41.32900
H  46.81800 27.99400 41.14500

