158

Mg 48.46500 34.98300 26.87500
C  46.27600 33.53900 29.38900
C  48.74600 37.71400 28.91400
C  49.67700 36.47500 24.21000
C  47.46900 32.25300 24.83200
N  47.69300 35.45900 28.91000
C  46.97600 34.68000 29.74100
C  46.94300 35.31300 31.18400
C  47.36000 36.85100 30.88800
C  47.93500 36.69200 29.46300
C  46.09900 37.79800 30.83800
C  47.89200 34.41900 32.03900
C  49.29500 34.91900 32.53900
H  49.58400 35.20600 34.00900
N  49.24400 36.74700 26.69100
C  49.36100 37.76700 27.63000
C  50.32000 38.73900 27.09800
C  50.49300 38.46000 25.67900
C  49.77800 37.16000 25.51200
C  50.83900 39.91000 27.86200
C  51.25900 39.32400 24.68200
O  51.34300 38.99400 23.53700
C  51.99500 40.53900 25.10100
N  48.55200 34.38700 24.77700
C  49.18000 35.24500 23.85800
C  49.27300 34.57600 22.48600
C  48.82900 33.11900 22.74300
C  48.25200 33.21600 24.22900
C  48.53300 35.24200 21.33200
C  49.95100 32.00300 22.69100
C  50.14800 31.46400 21.21300
N  47.17200 33.28300 27.01300
C  46.81900 32.35100 26.08500
C  45.86400 31.38000 26.57200
C  45.57400 31.81800 27.88400
C  46.37400 32.96800 28.13800
C  45.26000 30.23500 25.85600
C  44.76800 31.59600 29.08200
O  43.88000 30.74700 29.26500
C  45.11200 32.80800 30.05700
C  45.45600 32.26800 31.48100
O  46.30400 31.48800 31.88000
O  44.64600 32.98800 32.35300
C  44.78900 32.57600 33.77100
H  48.98800 38.54300 29.58200
H  50.17700 36.96400 23.37000
H  47.18800 31.44000 24.16000
H  45.91100 35.26600 31.53000
H  48.15300 37.23300 31.53100
H  46.00900 38.41400 31.73300
H  45.22900 37.15700 30.69600
H  46.25600 38.53300 30.04900
H  48.03400 33.49500 31.48000
H  47.34900 34.21900 32.96300
H  49.70400 35.80700 32.05800
H  50.04000 34.22100 32.15500
H  51.91800 39.82500 27.99400
H  50.47400 39.92800 28.88900
H  50.70400 40.85500 27.33700
H  51.30100 41.37400 25.19700
H  52.67300 40.86300 24.31200
H  52.60200 40.23900 25.95600
H  50.32400 34.48800 22.21000
H  47.99700 32.74800 22.14500
H  47.85100 34.57100 20.80900
H  49.19700 35.60600 20.54800
H  47.88500 36.01800 21.73800
H  49.64000 31.20000 23.35900
H  50.90500 32.38800 23.05200
H  51.16000 31.73000 20.90700
H  49.42600 31.91600 20.53400
H  50.02500 30.38700 21.09300
H  44.90000 30.45000 24.85000
H  44.40500 29.98500 26.48400
H  46.02300 29.45600 25.86900
H  44.24900 33.46800 30.14300
H  45.37600 33.28000 34.36100
H  45.18500 31.58000 33.97000
H  43.81500 32.62600 34.25900
Mg 9.71100 48.28100 25.80500
C  7.38700 48.54900 28.48000
C  12.23300 49.29000 27.84400
C  11.70800 48.11400 23.16600
C  6.95500 47.54000 23.69400
N  9.76800 48.83400 27.89800
C  8.77200 48.78100 28.85900
C  9.16700 49.16000 30.22100
C  10.64000 49.71200 29.90600
C  10.92600 49.22300 28.45400
C  10.99800 51.17300 30.25300
C  9.15800 47.92700 31.24700
C  8.67600 48.18400 32.68400
H  8.59900 47.04400 33.69100
N  11.68700 48.59400 25.56200
C  12.58100 48.97500 26.52900
C  13.94400 48.89200 26.01800
C  13.79800 48.59600 24.62500
C  12.33600 48.43100 24.37100
C  15.21600 49.16300 26.84100
C  14.94800 48.31900 23.58000
O  14.69200 48.06300 22.44800
C  16.40900 48.17900 24.09000
N  9.35400 48.00600 23.75300
C  10.34900 48.00500 22.88300
C  9.98500 47.48800 21.48500
C  8.44300 47.27800 21.72800
C  8.22900 47.65300 23.14600
C  10.31500 48.45400 20.29100
C  8.01600 45.76100 21.44300
C  8.67100 44.74000 22.40000
N  7.56700 48.05700 25.97200
C  6.58100 47.75600 25.05600
C  5.25000 47.71400 25.65700
C  5.59500 47.96900 27.00500
C  6.95600 48.21300 27.13700
C  3.95800 47.33200 25.09000
C  4.98400 48.00800 28.29300
O  3.81200 47.89700 28.67600
C  6.09900 48.43800 29.31200
C  6.10500 47.37900 30.34500
O  6.51300 46.24400 30.09000
O  5.48000 47.76800 31.50500
C  5.08400 46.65900 32.38700
H  12.93900 49.72300 28.55600
H  12.37600 47.82300 22.35200
H  6.23000 47.07200 23.02500
H  8.66700 49.97500 30.74400
H  11.35900 49.13800 30.49000
H  11.65300 51.25300 31.12100
H  10.07300 51.68200 30.52200
H  11.35500 51.67700 29.35500
H  10.17400 47.72200 31.58600
H  8.68500 46.97900 30.99300
H  7.76300 48.77900 32.65400
H  9.37200 48.91000 33.10300
H  14.92100 49.46500 27.84600
H  15.83000 49.93700 26.38000
H  15.80600 48.24700 26.86700
H  16.46500 47.58500 25.00200
H  16.72900 49.17000 24.41100
H  17.01400 47.81500 23.25900
H  10.56000 46.57700 21.32000
H  7.76400 47.91300 21.15900
H  10.76200 49.37300 20.67200
H  9.45900 48.85700 19.75000
H  11.01300 47.95500 19.61900
H  8.33000 45.52800 20.42500
H  6.93800 45.60500 21.39700
H  8.95700 45.24900 23.32100
H  9.56800 44.35800 21.91400
H  8.04800 43.90800 22.72800
H  3.53400 46.36300 25.35300
H  4.08900 47.28100 24.00900
H  3.09500 47.95700 25.31900
H  5.91800 49.37300 29.84200
H  4.09300 46.81900 32.81200
H  5.76000 46.55200 33.23600
H  5.15300 45.66600 31.94200

