158

Mg 17.23100 52.99700 26.39000
C  19.29800 51.48700 28.90800
C  14.77500 53.38500 28.72500
C  15.07500 53.36100 23.86300
C  19.59300 51.71700 24.02400
N  17.07400 52.37700 28.53300
C  18.08700 51.98200 29.41500
C  17.65700 52.00100 30.88200
C  16.10300 52.42200 30.71600
C  15.95500 52.80100 29.26500
C  14.99700 51.42200 31.24100
C  18.57900 52.99600 31.62400
C  18.73400 52.74800 33.13900
H  17.59100 52.06300 33.91500
N  15.27600 53.58400 26.32700
C  14.43700 53.68100 27.41700
C  13.20700 54.23900 26.94300
C  13.19500 54.07800 25.52800
C  14.49700 53.58400 25.13700
C  12.15300 54.77700 27.89200
C  12.11800 54.43300 24.54600
O  12.24800 54.16400 23.33000
C  10.86100 55.00700 24.98200
N  17.40800 52.80100 24.23500
C  16.41300 53.11600 23.44400
C  16.94200 53.18600 21.98100
C  18.34100 52.64900 22.06300
C  18.50700 52.39600 23.52800
C  16.09500 52.54600 20.84300
C  19.47600 53.50000 21.40100
C  19.93100 54.75000 22.24500
N  18.97500 51.82700 26.34900
C  19.82400 51.43600 25.34200
C  20.94800 50.65500 25.85200
C  20.77100 50.65100 27.25500
C  19.59300 51.39200 27.52100
C  22.11800 50.10100 25.14700
C  21.39800 50.26600 28.49200
O  22.38800 49.59100 28.68700
C  20.43700 50.78100 29.64900
C  19.85100 49.60700 30.40200
O  18.92200 48.88000 30.06500
O  20.50600 49.52800 31.61600
C  19.82500 48.75000 32.69400
H  14.08000 53.57400 29.54600
H  14.32600 53.37800 23.06900
H  20.24500 51.32700 23.23900
H  17.75900 51.01300 31.33100
H  16.04200 53.27100 31.39800
H  14.17500 51.92300 31.75300
H  15.48300 50.61700 31.79300
H  14.62600 50.94000 30.33700
H  18.13700 53.98300 31.48500
H  19.57300 53.05400 31.18000
H  18.94300 53.73900 33.54300
H  19.66400 52.18800 33.24100
H  12.05300 55.86000 27.82600
H  12.54400 54.57300 28.88900
H  11.16900 54.30800 27.87500
H  10.34400 54.22900 25.54200
H  10.34700 55.23400 24.04800
H  11.04400 55.76800 25.74100
H  17.06700 54.25700 21.82100
H  18.45800 51.69900 21.54100
H  15.36100 51.86100 21.26600
H  16.68800 51.85800 20.24100
H  15.60100 53.16000 20.09000
H  19.14200 53.69400 20.38200
H  20.37500 52.88400 21.41000
H  20.77800 54.51200 22.88900
H  19.13900 55.07600 22.91900
H  20.20500 55.55000 21.55700
H  22.30900 50.77500 24.31200
H  21.79700 49.19000 24.64200
H  22.84100 49.94300 25.94700
H  20.97200 51.45400 30.31900
H  19.83700 49.36600 33.59300
H  20.47000 47.87200 32.73900
H  18.85700 48.26400 32.56700
Mg -10.55000 37.75000 41.40600
C  -8.28600 35.05200 40.99700
C  -8.26500 39.75700 39.54700
C  -12.86900 40.20900 41.22300
C  -12.83800 35.56500 42.65200
N  -8.54400 37.38000 40.22400
C  -7.85400 36.19000 40.31900
C  -6.57000 36.30300 39.39700
C  -6.42400 37.86100 39.18600
C  -7.81900 38.40100 39.70000
C  -5.23200 38.62300 39.85200
C  -6.64600 35.51100 38.02100
C  -5.36900 34.79800 37.53200
H  -4.57100 35.57100 36.47100
N  -10.50500 39.70900 40.66900
C  -9.47800 40.34300 39.89700
C  -9.87000 41.76200 39.79300
C  -11.14200 41.96800 40.42000
C  -11.58500 40.58600 40.79200
C  -9.00600 42.76400 39.04500
C  -11.92300 43.28200 40.45600
O  -11.38900 44.35800 40.10900
C  -13.39500 43.32100 40.62800
N  -12.66100 37.83500 41.65800
C  -13.37700 38.96300 41.58300
C  -14.74400 38.76000 42.24700
C  -14.74200 37.25500 42.76700
C  -13.33400 36.86000 42.41000
C  -15.16800 39.63000 43.49100
C  -15.76100 36.40700 42.07200
C  -16.79500 35.53800 42.83200
N  -10.62600 35.69900 41.86000
C  -11.58100 34.93700 42.43900
C  -11.12700 33.57000 42.54800
C  -9.84700 33.59700 41.99900
C  -9.62200 34.93400 41.62500
C  -11.74200 32.37000 43.18600
C  -8.73000 32.81000 41.73500
O  -8.51500 31.64000 41.97400
C  -7.66200 33.62600 41.01500
C  -6.29600 33.48600 41.83200
O  -5.55300 32.53100 41.69100
O  -6.03600 34.65000 42.49200
C  -4.84400 34.59200 43.33100
H  -7.62600 40.46800 39.02000
H  -13.55700 41.03700 41.40500
H  -13.54700 34.86400 43.09800
H  -5.73100 35.92600 39.98200
H  -6.31300 38.00000 38.11100
H  -4.61500 37.82700 40.26900
H  -5.43600 39.34100 40.64600
H  -4.83900 39.19000 39.00700
H  -7.11300 36.18000 37.29800
H  -7.37500 34.70700 38.12300
H  -5.56200 33.78400 37.18400
H  -4.72900 34.77700 38.41500
H  -8.13300 42.29500 38.59200
H  -8.66000 43.42000 39.84400
H  -9.48600 43.31600 38.23700
H  -13.67900 43.17700 41.67100
H  -13.90900 42.63700 39.95300
H  -13.65300 44.35500 40.40100
H  -15.40400 38.87700 41.38700
H  -14.81600 37.10900 43.84400
H  -15.51500 40.55300 43.02700
H  -14.28500 40.12200 43.90000
H  -15.95000 39.27100 44.16000
H  -15.16400 35.76300 41.42600
H  -16.48100 37.04700 41.56300
H  -16.59300 35.45500 43.90000
H  -16.75400 34.50300 42.49200
H  -17.83100 35.80800 42.63000
H  -12.82800 32.42800 43.11600
H  -11.51800 32.25100 44.24600
H  -11.50300 31.42700 42.69400
H  -7.33000 33.21500 40.06100
H  -4.42600 35.55700 43.61900
H  -3.94600 34.14600 42.90400
H  -5.13200 34.05300 44.23400

