158

Mg 44.56200 4.04500 47.29700
C  42.40700 6.75400 47.00800
C  41.74500 1.88100 47.21800
C  46.61800 1.42000 47.22300
C  47.23500 6.23900 47.26800
N  42.37700 4.33200 47.01000
C  41.75700 5.49900 46.86800
C  40.32200 5.26800 46.68700
C  39.93600 3.77200 47.02600
C  41.41300 3.21100 47.11000
C  39.03900 3.56100 48.24000
C  40.01600 5.60800 45.14400
C  39.06300 6.67600 44.80100
H  39.42100 7.64300 43.66800
N  44.20900 2.00200 47.28200
C  43.05700 1.30600 47.28200
C  43.29500 -0.11800 47.08900
C  44.69800 -0.27100 47.19100
C  45.22000 1.10700 47.17600
C  42.30500 -1.15900 46.79900
C  45.44000 -1.60500 47.11100
O  44.88100 -2.67500 47.24900
C  46.88300 -1.73600 46.81200
N  46.67300 3.86400 47.25800
C  47.30000 2.65700 47.18800
C  48.86100 2.84500 47.20100
C  49.02200 4.37900 47.11500
C  47.59400 4.89700 47.25700
C  49.50800 2.34800 48.48100
C  49.62500 4.92000 45.76800
C  51.10300 5.43000 45.89600
N  44.83100 6.17400 47.12300
C  45.98600 6.90100 47.15100
C  45.56000 8.30200 47.14100
C  44.17100 8.34300 47.14200
C  43.77500 6.97700 47.12000
C  46.48000 9.55500 47.28000
C  42.97300 9.17700 47.16000
O  42.84200 10.36300 47.20900
C  41.80700 8.16000 47.05200
C  40.91100 8.25400 48.27100
O  41.07200 7.62000 49.33000
O  40.01500 9.25200 48.04900
C  39.01200 9.52500 49.05300
H  40.82900 1.28900 47.18200
H  47.32300 0.58700 47.18400
H  48.04600 6.95500 47.42000
H  39.70800 5.95800 47.26600
H  39.58400 3.14200 46.20900
H  38.57500 2.57500 48.23200
H  38.35600 4.40100 48.37300
H  39.76000 3.63300 49.05400
H  39.66500 4.73000 44.60200
H  40.95600 5.85500 44.65100
H  38.99100 7.42400 45.59000
H  38.12300 6.16500 44.59200
H  42.31100 -1.68900 45.84600
H  41.28300 -0.88200 47.05800
H  42.53400 -2.01800 47.42900
H  46.98200 -1.00100 46.01300
H  47.24700 -2.65800 46.35800
H  47.53200 -1.47500 47.64800
H  49.17600 2.19800 46.38100
H  49.47900 4.86100 47.97900
H  50.16700 1.52000 48.22200
H  48.75200 1.94700 49.15600
H  50.14900 3.10600 48.93200
H  48.92700 5.69300 45.44500
H  49.67000 4.13100 45.01700
H  51.61900 5.41700 44.93600
H  51.64800 4.75900 46.56000
H  51.09600 6.46400 46.24100
H  46.78800 9.75700 48.30600
H  46.08000 10.47400 46.85100
H  47.34200 9.27800 46.67300
H  41.30400 8.41900 46.12000
H  38.76100 10.58600 49.03700
H  39.34400 9.30700 50.06700
H  38.06000 9.01800 48.89400
Mg 36.76600 49.63900 23.79100
C  36.62300 48.33900 27.14600
C  35.43500 52.52500 25.16100
C  36.78600 50.86700 20.83600
C  37.52400 46.50500 22.62000
N  35.98800 50.23100 25.96700
C  36.15800 49.61700 27.13800
C  35.67400 50.50100 28.33000
C  35.19400 51.80800 27.68200
C  35.49800 51.51300 26.13800
C  33.69200 52.26900 28.01600
C  36.82100 50.69900 29.45800
C  36.53600 50.19200 30.83400
H  35.09700 50.41700 31.29600
N  36.08500 51.50200 23.04600
C  35.69100 52.57500 23.81800
C  35.58100 53.67500 22.86600
C  35.95600 53.19900 21.54900
C  36.30300 51.83700 21.76300
C  35.10400 55.12600 23.26900
C  35.91600 53.89500 20.19900
O  36.06900 53.29400 19.19200
C  35.56200 55.31400 20.15200
N  37.09600 48.79800 22.01000
C  37.20100 49.56100 20.88600
C  37.51800 48.69300 19.65100
C  37.71200 47.30400 20.26400
C  37.37500 47.49200 21.69000
C  36.51800 48.77400 18.46700
C  39.01300 46.49800 20.07800
C  40.37000 47.18200 20.49800
N  37.06200 47.75700 24.66100
C  37.34700 46.55800 23.99300
C  37.54200 45.49600 25.01700
C  37.26000 46.20500 26.22400
C  36.95200 47.54400 25.99200
C  37.83000 44.04200 24.70000
C  37.14600 46.05100 27.67200
O  37.45600 45.09000 28.34700
C  36.80200 47.39600 28.34300
C  35.46000 47.07000 29.05600
O  34.36300 47.23700 28.62200
O  35.84900 46.48800 30.24600
C  34.78400 46.11400 31.20800
H  35.11400 53.48400 25.57400
H  36.70200 51.29100 19.83300
H  37.73500 45.50100 22.24600
H  34.80700 49.97300 28.72900
H  35.81200 52.62500 28.05500
H  33.61800 53.28400 28.40800
H  33.20900 51.61100 28.73800
H  33.11700 52.29200 27.09100
H  37.13200 51.73000 29.62900
H  37.70700 50.24900 29.00900
H  37.25000 50.61000 31.54400
H  36.68100 49.11500 30.74500
H  34.25000 55.50100 22.70400
H  35.92000 55.84800 23.24700
H  34.74500 55.13200 24.29800
H  36.34800 55.86100 20.67100
H  34.57700 55.49300 20.58300
H  35.58800 55.51000 19.08000
H  38.43800 49.05400 19.19200
H  36.91300 46.72600 19.80100
H  35.53600 48.43600 18.79700
H  36.82400 48.10500 17.66300
H  36.50600 49.79100 18.07500
H  39.15800 46.30900 19.01500
H  38.99200 45.48600 20.48200
H  40.24800 48.12300 21.03500
H  41.01500 47.42700 19.65400
H  40.94500 46.49500 21.11800
H  37.34200 43.45800 25.48000
H  38.91700 43.97500 24.73900
H  37.47000 43.63300 23.75600
H  37.64000 47.72400 28.95700
H  34.33600 45.19400 30.83400
H  34.03000 46.90000 31.25200
H  35.27200 46.00000 32.17700

