158

Mg 41.06700 9.90300 30.28800
C  42.91300 10.51100 33.15100
C  38.68600 8.25700 32.30600
C  39.51300 8.83800 27.50100
C  43.62800 11.09800 28.29700
N  40.84700 9.45400 32.51800
C  41.76600 9.82500 33.48900
C  41.23700 9.38100 34.87000
C  40.06900 8.38600 34.50700
C  39.84300 8.73700 32.99500
C  40.22900 6.83600 34.76700
C  40.87200 10.65100 35.80500
C  41.43400 10.86400 37.19500
H  40.80300 12.00200 38.08100
N  39.27700 8.76200 29.91300
C  38.40100 8.33100 30.93900
C  37.32900 7.68100 30.28300
C  37.40200 7.94600 28.89300
C  38.80600 8.54700 28.68200
C  36.30400 6.88100 30.98100
C  36.43900 7.61100 27.74800
O  36.61900 7.84100 26.58600
C  35.06300 7.03700 28.12100
N  41.54800 10.00300 28.24400
C  40.74200 9.44800 27.29200
C  41.25400 9.69200 25.88500
C  42.33100 10.74900 26.15700
C  42.51900 10.65000 27.62800
C  41.73400 8.34500 25.30300
C  41.98000 12.13700 25.70200
C  40.70600 12.72100 26.34600
N  42.87800 10.68100 30.64200
C  43.83200 11.11700 29.73500
C  44.93200 11.70300 30.42700
C  44.60900 11.52900 31.76200
C  43.36300 10.83600 31.85000
C  46.12600 12.28500 29.98100
C  45.06300 11.75400 33.18400
O  46.11800 12.32000 33.59300
C  43.97700 11.12400 34.10900
C  44.70900 10.20100 34.96200
O  45.04000 9.08400 34.59700
O  44.88600 10.80500 36.22500
C  45.59200 9.98700 37.20200
H  37.99200 7.67900 32.92000
H  38.90200 8.66500 26.61300
H  44.45300 11.61200 27.79800
H  42.03700 8.82800 35.36300
H  39.24700 8.81600 35.08000
H  40.35100 6.27600 33.84000
H  39.31300 6.51600 35.26400
H  41.01500 6.74300 35.51700
H  39.80800 10.64600 36.04300
H  41.11600 11.48800 35.15200
H  42.45900 11.20600 37.05300
H  41.59200 9.94800 37.76400
H  35.29900 7.29600 30.90600
H  36.49600 6.89300 32.05400
H  36.24100 5.86800 30.58500
H  34.28700 7.18800 27.37000
H  34.80500 7.73000 28.92200
H  35.07200 6.01900 28.51100
H  40.44000 10.15400 25.32600
H  43.25900 10.57500 25.61200
H  41.41200 7.43200 25.80400
H  42.80900 8.26700 25.13900
H  41.30800 8.34100 24.30000
H  41.86600 12.14800 24.61800
H  42.90300 12.69500 25.85500
H  40.92900 13.68700 26.79900
H  40.18900 12.14200 27.11200
H  39.89400 12.76300 25.62100
H  45.96300 13.20500 29.41900
H  46.68100 11.49600 29.47300
H  46.76500 12.56400 30.81900
H  43.60300 11.97600 34.67800
H  45.17400 8.99000 37.06300
H  45.44500 10.34400 38.22100
H  46.67500 9.97300 37.07900
Mg 30.46200 58.12900 39.26000
C  27.82200 56.09100 38.03600
C  32.70000 55.58000 38.42000
C  33.07300 60.35600 39.43800
C  28.14900 60.75900 39.54000
N  30.24500 56.07000 38.34800
C  29.08500 55.49400 37.94700
C  29.36000 54.03800 37.60700
C  30.85700 53.76800 37.92300
C  31.32100 55.19900 38.35100
C  31.17100 52.74200 39.06800
C  28.90100 53.69000 36.23300
C  29.53000 54.48400 35.05800
H  28.62600 55.46600 34.21500
N  32.61700 57.96200 38.95300
C  33.32600 56.76800 38.74700
C  34.77600 57.09400 38.72200
C  34.89100 58.48500 38.99800
C  33.48500 59.00900 39.14500
C  35.91400 56.08000 38.55000
C  36.16700 59.25500 38.94500
O  37.25400 58.64200 38.82700
C  36.21800 60.83100 38.88300
N  30.58300 60.28300 39.18600
C  31.77500 60.91500 39.52500
C  31.54300 62.48000 39.58600
C  30.01300 62.52600 39.63000
C  29.50400 61.06100 39.48400
C  32.26600 63.30300 40.68100
C  29.26300 63.42800 38.57000
C  28.60600 64.68400 39.18300
N  28.34900 58.37400 39.06600
C  27.58600 59.47400 39.23100
C  26.18400 59.08900 39.06000
C  26.18400 57.78600 38.58300
C  27.55500 57.40200 38.51100
C  24.98200 59.91800 39.31200
C  25.35100 56.66600 38.17000
O  24.14200 56.55700 38.03900
C  26.44200 55.54900 37.70100
C  26.10500 54.37900 38.51400
O  26.50700 54.06900 39.63400
O  25.25200 53.59200 37.73000
C  24.54600 52.50100 38.37000
H  33.42300 54.80600 38.15300
H  33.83300 61.09800 39.69000
H  27.39700 61.55100 39.57300
H  28.83500 53.37200 38.29200
H  31.43600 53.32500 37.11400
H  30.51600 52.71700 39.93900
H  32.17800 52.93400 39.43600
H  31.22700 51.76600 38.58700
H  27.82700 53.73400 36.05200
H  29.12100 52.62700 36.13400
H  29.91300 53.77600 34.32400
H  30.41700 55.03900 35.36400
H  36.85300 56.35400 39.03200
H  36.07800 56.03200 37.47300
H  35.65600 55.08700 38.92000
H  37.14000 61.15300 38.39700
H  36.01200 61.17800 39.89500
H  35.39300 61.07800 38.21500
H  31.91900 62.92800 38.66600
H  29.81800 62.82100 40.66100
H  33.01700 63.93800 40.21000
H  32.98700 62.69200 41.22500
H  31.61700 63.88000 41.33900
H  28.41900 62.87800 38.15500
H  30.00200 63.86700 37.89900
H  29.10500 65.52200 38.69800
H  28.73900 64.72800 40.26400
H  27.52500 64.63700 39.04300
H  24.49800 59.61600 40.24000
H  24.16200 59.78700 38.60600
H  25.25200 60.96500 39.45400
H  26.32600 55.27900 36.65100
H  23.59600 52.44000 37.83900
H  24.33700 52.48800 39.44000
H  25.10800 51.58000 38.21300

