158

Mg 25.61600 2.02300 30.31000
C  27.74200 1.84200 33.03900
C  23.09600 2.49300 32.62100
C  23.32000 1.77900 27.78400
C  28.13300 1.28600 28.15200
N  25.41300 2.02500 32.69800
C  26.47300 2.13500 33.52200
C  26.00900 2.47000 35.02300
C  24.48600 2.69800 34.80700
C  24.27500 2.40100 33.29400
C  23.56800 1.78000 35.66000
C  26.80300 3.72900 35.57800
C  27.59600 3.60900 36.85400
H  27.32300 4.59700 37.94700
N  23.51800 2.00800 30.31700
C  22.64800 2.30300 31.31200
C  21.25900 2.27000 30.78900
C  21.31200 1.95300 29.45200
C  22.78900 1.84400 29.13400
C  19.98800 2.49000 31.62500
C  20.14900 1.61600 28.48400
O  20.38300 1.35100 27.31200
C  18.70200 1.71300 28.97200
N  25.66900 1.56100 28.22300
C  24.68000 1.73300 27.34900
C  25.19100 1.95800 25.88800
C  26.67200 1.53300 26.03900
C  26.87800 1.51700 27.54600
C  24.33100 1.21000 24.86100
C  27.67000 2.41900 25.33700
C  27.80400 3.87900 25.75100
N  27.53100 1.60500 30.48100
C  28.47900 1.33900 29.57300
C  29.74400 1.13200 30.21700
C  29.48500 1.22900 31.56000
C  28.14600 1.61600 31.70200
C  31.07900 0.66300 29.59800
C  30.09400 1.10800 32.87700
O  31.27000 0.85400 33.13200
C  28.97100 1.51500 33.95000
C  28.70500 0.44100 35.01400
O  27.83700 -0.40400 34.84100
O  29.50500 0.52300 36.10000
C  29.25800 -0.37600 37.19900
H  22.29000 2.79500 33.29200
H  22.55900 2.03000 27.04200
H  29.00100 1.20700 27.49500
H  26.26900 1.54500 35.53700
H  24.17800 3.74300 34.83600
H  23.40100 0.87000 35.08400
H  22.61200 2.30200 35.72100
H  23.89600 1.63600 36.68900
H  26.01800 4.45700 35.78300
H  27.48300 4.04900 34.78800
H  28.66200 3.65200 36.63100
H  27.39200 2.62500 37.27800
H  19.39100 3.31800 31.24300
H  20.11300 2.55700 32.70500
H  19.49700 1.54100 31.41000
H  18.03700 1.61300 28.11500
H  18.65700 2.65200 29.52500
H  18.37700 0.86600 29.57700
H  25.07400 3.02600 25.70600
H  26.69700 0.50200 25.68500
H  24.95200 0.51400 24.29800
H  23.85300 1.90100 24.16600
H  23.57500 0.58400 25.33500
H  27.55700 2.29500 24.26000
H  28.64500 1.95100 25.47600
H  28.80100 4.20400 26.04900
H  27.17400 4.13000 26.60500
H  27.47100 4.57700 24.98300
H  31.37200 1.32500 28.78200
H  31.00200 -0.35200 29.21000
H  31.82100 0.67100 30.39600
H  29.26100 2.45200 34.42500
H  28.77800 -1.26500 36.78800
H  28.66100 0.09200 37.98200
H  30.26300 -0.53500 37.58800
Mg 35.44800 2.29700 29.67700
C  33.79400 3.36400 32.54600
C  38.26200 2.10200 31.70400
C  37.41300 1.76900 26.94800
C  32.79900 3.37600 27.66400
N  35.99400 2.66600 31.94700
C  35.07900 3.04300 32.89900
C  35.72700 2.96300 34.36200
C  37.23100 2.78800 33.95600
C  37.21600 2.49800 32.47600
C  38.22500 3.96700 34.23500
C  35.15300 1.81300 35.17900
C  34.66900 2.18600 36.53500
H  35.35900 3.28700 37.31700
N  37.52800 1.91500 29.33300
C  38.47300 1.79200 30.33500
C  39.71700 1.31600 29.73000
C  39.45900 1.17600 28.34500
C  38.10100 1.66000 28.14000
C  40.88600 0.94400 30.49700
C  40.31100 0.68400 27.17700
O  39.97300 0.61300 25.97200
C  41.71500 0.29600 27.49100
N  35.13000 2.52400 27.55100
C  36.10600 2.19400 26.60900
C  35.43200 2.17600 25.23600
C  33.94900 2.54400 25.44300
C  33.93800 2.84300 26.91200
C  36.17400 3.11600 24.33200
C  32.94800 1.48000 24.89300
C  32.43300 0.32400 25.81200
N  33.65000 3.09200 30.01700
C  32.70100 3.47200 29.10500
C  31.50600 3.95800 29.83100
C  31.88200 3.89400 31.14200
C  33.18600 3.40200 31.24700
C  30.17200 4.45000 29.31300
C  31.47900 4.16200 32.46600
O  30.40700 4.60300 32.85300
C  32.62100 3.78500 33.41800
C  32.88800 5.04700 34.38000
O  33.58200 6.01700 34.12300
O  32.02900 4.92800 35.43700
C  31.92200 6.00800 36.38400
H  39.19300 1.95300 32.25500
H  37.95900 1.75400 26.00300
H  31.87500 3.63200 27.14100
H  35.53800 3.96800 34.73900
H  37.59600 1.89700 34.46700
H  38.72000 3.87900 35.20200
H  37.58700 4.85100 34.20700
H  38.95500 4.11100 33.43800
H  35.92100 1.06700 35.38200
H  34.32600 1.33200 34.65500
H  34.46200 1.32800 37.17400
H  33.66600 2.56300 36.33800
H  40.89100 -0.11400 30.76200
H  40.87000 1.40400 31.48600
H  41.82200 1.23400 30.01900
H  42.05700 1.26100 27.86700
H  42.29700 0.02600 26.60900
H  41.87700 -0.47500 28.24400
H  35.49100 1.12100 24.96800
H  33.75900 3.52500 25.00800
H  35.45700 3.78300 23.85500
H  36.59200 2.42800 23.59700
H  36.97400 3.68700 24.80400
H  33.37900 1.06400 23.98200
H  32.14500 2.09700 24.48800
H  33.10300 0.15200 26.65400
H  32.30000 -0.61700 25.27800
H  31.42100 0.58500 26.12200
H  29.72200 3.71600 28.64500
H  30.16900 5.38600 28.75500
H  29.56400 4.50300 30.21600
H  32.21900 2.94700 33.98800
H  30.87300 6.29700 36.45800
H  32.60400 6.83600 36.19500
H  32.15200 5.54200 37.34200

