158

Mg 40.16500 8.85200 30.11300
C  42.07100 10.17200 32.70600
C  37.75400 8.02900 32.37800
C  38.56200 7.25800 27.69300
C  42.72700 9.58800 27.91100
N  39.98900 9.10400 32.25500
C  40.87200 9.69100 33.11700
C  40.30500 9.80800 34.54800
C  39.00500 9.01100 34.42000
C  38.90300 8.64400 32.92300
C  38.95100 7.75300 35.34700
C  39.96000 11.34800 34.87400
C  39.59800 11.62800 36.33700
H  40.34500 12.60100 37.28400
N  38.41300 7.70600 30.02600
C  37.56800 7.47400 31.08200
C  36.43300 6.79500 30.59500
C  36.52200 6.73800 29.22000
C  37.88600 7.20600 28.90100
C  35.31700 6.30800 31.55300
C  35.54100 6.17800 28.24200
O  35.84000 6.05100 27.02100
C  34.17300 5.87200 28.68900
N  40.53300 8.48700 28.07700
C  39.80100 7.73800 27.31400
C  40.25000 7.68200 25.83800
C  41.52200 8.49900 25.85500
C  41.61600 8.89100 27.42200
C  40.46400 6.19300 25.41000
C  41.61700 9.70800 24.94800
C  40.81900 11.02900 25.32300
N  42.03300 9.71400 30.19600
C  42.95300 10.03400 29.18800
C  44.07800 10.71200 29.74600
C  43.75000 10.78500 31.13300
C  42.52000 10.16900 31.36100
C  45.29900 11.20400 28.99300
C  44.23600 11.17200 32.39000
O  45.30000 11.68900 32.67100
C  43.24000 10.73200 33.48700
C  43.94800 9.80300 34.44300
O  44.07200 8.56700 34.34900
O  44.36500 10.55400 35.47100
C  45.14000 9.83000 36.50000
H  36.95100 7.91500 33.11000
H  38.13800 6.83000 26.78200
H  43.58200 9.85000 27.28500
H  41.13200 9.44400 35.15900
H  38.14700 9.59900 34.74400
H  39.53200 7.93200 36.25100
H  39.32900 6.92900 34.74100
H  37.89200 7.58000 35.54100
H  39.09100 11.50100 34.23400
H  40.77200 11.97900 34.51200
H  39.42800 10.70300 36.88700
H  38.57200 11.99400 36.38600
H  35.56900 6.72400 32.52900
H  35.19400 5.22600 31.49400
H  34.33500 6.67700 31.25800
H  33.72000 5.40700 27.81400
H  33.62800 6.79400 28.89500
H  34.27200 5.20700 29.54700
H  39.54600 8.19800 25.18500
H  42.45200 7.93900 25.75100
H  40.09300 5.61800 26.25900
H  41.49100 5.84900 25.28400
H  39.78800 6.06500 24.56600
H  41.23100 9.32000 24.00500
H  42.67500 9.94800 24.84700
H  41.41200 11.93500 25.19500
H  40.39800 10.97000 26.32700
H  39.98800 11.14200 24.62700
H  45.27600 10.83100 27.96900
H  46.23300 10.81800 29.40100
H  45.32600 12.28600 29.12300
H  42.97400 11.62900 34.04600
H  44.91600 10.40100 37.40100
H  46.20100 9.89000 36.26100
H  44.85000 8.78700 36.62100
Mg -10.69800 16.95900 40.17400
C  -7.27700 16.85400 39.91300
C  -10.59800 20.32900 39.64700
C  -14.10600 16.87100 40.03200
C  -10.72100 13.34200 40.00100
N  -9.12300 18.35400 39.65100
C  -7.79000 18.06600 39.60500
C  -7.01600 19.28200 39.14000
C  -8.00300 20.45400 39.50300
C  -9.36700 19.71400 39.66200
C  -7.56900 21.21300 40.77800
C  -6.69000 19.26500 37.66800
C  -5.17900 19.33800 37.24000
H  -4.66500 17.92900 36.71000
N  -12.14400 18.43700 39.80900
C  -11.92900 19.77400 39.53400
C  -13.21700 20.46300 39.39200
C  -14.24700 19.54000 39.63500
C  -13.49300 18.18600 39.77500
C  -13.18700 21.92100 39.13400
C  -15.81400 19.78200 39.78000
O  -16.22900 20.94800 39.76800
C  -16.78700 18.62200 39.76600
N  -12.21800 15.32700 40.02200
C  -13.53100 15.57700 40.13500
C  -14.38800 14.32600 40.18200
C  -13.38000 13.23300 39.87100
C  -12.01400 13.95200 39.94900
C  -15.17900 14.12900 41.44400
C  -13.43600 12.53500 38.38600
C  -13.26700 11.04700 38.41700
N  -9.35300 15.38900 40.12900
C  -9.42800 14.02200 40.10400
C  -8.10200 13.43500 40.22600
C  -7.19700 14.54000 40.20800
C  -8.04600 15.70500 40.09000
C  -7.68400 11.98600 40.01800
C  -5.81800 14.94800 40.18900
O  -4.81100 14.29900 40.38200
C  -5.76300 16.49200 40.04600
C  -5.21300 17.21200 41.23700
O  -5.72900 17.17900 42.32100
O  -4.09400 17.88600 40.88600
C  -3.32000 18.66500 41.92200
H  -10.51400 21.39200 39.41200
H  -15.18500 16.94700 40.18400
H  -10.72200 12.25000 39.99200
H  -6.10600 19.19600 39.73400
H  -8.20200 21.14100 38.68100
H  -7.09000 20.62600 41.56200
H  -8.46400 21.64800 41.22100
H  -6.98100 22.04900 40.39900
H  -7.11500 20.15500 37.20500
H  -7.07500 18.30900 37.31300
H  -4.46500 19.63800 38.00800
H  -4.99100 20.11200 36.49600
H  -14.13000 22.41200 39.36900
H  -12.88700 22.02600 38.09100
H  -12.54200 22.54400 39.75400
H  -16.44100 17.99800 38.94200
H  -17.74600 19.05100 39.47500
H  -17.02500 18.23400 40.75600
H  -15.07000 14.38600 39.33400
H  -13.27400 12.47100 40.64300
H  -16.24500 14.03400 41.23700
H  -15.26000 15.06800 41.99200
H  -14.79900 13.22400 41.91800
H  -12.70100 12.94900 37.69700
H  -14.41600 12.81900 38.00200
H  -14.05800 10.50800 37.89500
H  -12.96900 10.80600 39.43700
H  -12.38300 10.81100 37.82400
H  -7.82900 11.52800 40.99600
H  -6.69100 12.00500 39.56900
H  -8.42300 11.52600 39.36200
H  -5.13000 16.83500 39.22800
H  -3.57500 19.71900 41.81000
H  -2.27900 18.49800 41.64700
H  -3.54900 18.29000 42.91900

