158

Mg 8.27700 3.94500 28.07900
C  9.58400 2.49600 30.90600
C  6.43900 6.13100 29.94000
C  7.16200 5.33500 25.23700
C  9.99800 1.55500 26.22400
N  8.11300 4.30200 30.18800
C  8.72300 3.61300 31.15900
C  8.39400 4.29900 32.52500
C  7.25600 5.30300 32.19600
C  7.21100 5.19500 30.64500
C  5.91500 5.14100 32.85700
C  9.62100 4.85700 33.17600
C  9.46700 5.81400 34.36000
H  10.35200 5.62400 35.57100
N  6.99400 5.52700 27.63200
C  6.35600 6.31600 28.56200
C  5.59700 7.37800 27.86600
C  5.74600 7.10300 26.44500
C  6.63000 5.94800 26.35500
C  4.96300 8.53200 28.60200
C  5.13200 7.76300 25.20800
O  5.26700 7.38500 24.02400
C  4.12400 8.88800 25.39900
N  8.51800 3.53400 26.01200
C  7.92300 4.19300 24.99000
C  8.34700 3.69200 23.60100
C  9.35300 2.60300 23.97800
C  9.27800 2.50800 25.50400
C  7.16700 3.31100 22.75800
C  10.81300 2.87400 23.46000
C  11.34200 1.82700 22.39400
N  9.45500 2.23600 28.40200
C  10.15700 1.42400 27.58800
C  10.99600 0.49100 28.35300
C  10.86300 0.94200 29.66400
C  9.90900 1.98300 29.61400
C  11.82300 -0.57700 27.75500
C  11.31400 0.73600 31.09300
O  12.22900 0.08200 31.62000
C  10.46600 1.72500 31.88100
C  9.67200 0.85600 32.79000
O  8.60700 0.29100 32.48700
O  10.29700 0.75900 33.97000
C  9.56500 -0.05200 34.89000
H  5.86900 6.80100 30.58800
H  7.07700 5.93100 24.32600
H  10.56700 0.83000 25.63800
H  7.99100 3.52700 33.18100
H  7.75900 6.23900 32.43900
H  5.05100 5.24300 32.20100
H  5.84100 6.03000 33.48400
H  5.75700 4.40800 33.64900
H  10.15000 5.53000 32.50100
H  10.30600 4.06500 33.48000
H  8.43300 5.70500 34.68700
H  9.69000 6.79100 33.93200
H  5.12300 8.46800 29.67900
H  3.87400 8.48100 28.63300
H  5.42900 9.48200 28.34100
H  3.36200 8.58300 26.11700
H  3.61600 9.05100 24.44800
H  4.60000 9.81900 25.70600
H  8.89800 4.48500 23.09400
H  9.00800 1.62600 23.63900
H  6.15500 3.62300 23.02100
H  7.11000 2.23500 22.59700
H  7.32400 3.64800 21.73400
H  11.49700 2.88500 24.30900
H  10.86300 3.93000 23.19200
H  11.22700 2.19800 21.37600
H  10.85500 0.86100 22.52800
H  12.41500 1.66600 22.49700
H  12.46700 -0.16700 26.97600
H  11.16200 -1.38200 27.43300
H  12.46000 -0.93200 28.56500
H  11.15300 2.36700 32.43100
H  9.20900 -1.01500 34.52500
H  8.63300 0.37200 35.26300
H  10.12300 -0.23500 35.80800
Mg 16.82000 51.63500 27.06000
C  18.75800 50.44300 29.86300
C  14.36800 52.42900 29.34700
C  14.90100 52.23300 24.53900
C  19.35900 50.32500 24.95600
N  16.64500 51.44500 29.34500
C  17.57500 50.97400 30.26200
C  16.95700 51.21100 31.65100
C  15.46600 51.48700 31.39100
C  15.48700 51.83500 29.90100
C  14.46900 50.29500 31.67000
C  17.87300 52.36300 32.37300
C  18.02000 52.11900 33.94600
H  17.15200 52.93900 34.96200
N  14.88700 52.39000 27.00800
C  14.05000 52.72000 27.99700
C  12.76600 53.19300 27.40600
C  12.81600 52.99500 26.00100
C  14.21300 52.54400 25.77500
C  11.64700 53.61900 28.24900
C  11.70300 53.16900 24.91100
O  11.89100 52.87100 23.75700
C  10.43600 53.77000 25.22400
N  17.06300 51.28100 24.98500
C  16.15000 51.72200 24.15800
C  16.66700 51.68900 22.73100
C  18.03900 51.04600 22.84000
C  18.18600 50.88500 24.35700
C  15.76600 51.07700 21.61700
C  19.25200 51.78100 22.04600
C  20.15900 52.86400 22.73900
N  18.66700 50.58500 27.33900
C  19.58000 50.12600 26.34300
C  20.62500 49.42600 26.95300
C  20.38600 49.63300 28.34300
C  19.18800 50.27600 28.52100
C  21.72500 48.65900 26.29000
C  20.86900 49.35100 29.67600
O  21.78100 48.65700 30.03200
C  19.86300 49.96000 30.75000
C  19.37000 48.92500 31.79800
O  18.60400 48.02700 31.54200
O  19.77600 49.27400 33.07600
C  19.19900 48.38500 34.18800
H  13.58000 52.77700 30.01800
H  14.16500 52.37100 23.74400
H  20.07800 50.10300 24.16500
H  17.04800 50.22000 32.09500
H  15.11300 52.30800 32.01600
H  13.56900 50.29500 31.05500
H  14.04600 50.17000 32.66700
H  15.00700 49.38800 31.39500
H  17.28700 53.27500 32.25800
H  18.86200 52.46200 31.92600
H  19.05100 52.20000 34.29000
H  17.85200 51.07800 34.22100
H  11.43200 54.63300 27.91100
H  11.83600 53.49700 29.31500
H  10.72100 53.06400 28.09800
H  10.54200 54.83200 25.44600
H  9.80800 53.08200 25.79000
H  9.85200 53.79200 24.30400
H  16.92000 52.72000 22.48000
H  18.00200 50.04600 22.40700
H  14.90400 50.48600 21.92800
H  16.37400 50.44600 20.96800
H  15.43700 51.93800 21.03600
H  18.79900 52.37400 21.25100
H  19.84600 50.99000 21.58700
H  19.92400 53.72800 22.11700
H  21.23700 52.71100 22.69200
H  19.89400 53.17300 23.75000
H  22.46600 49.38300 25.94900
H  21.46700 48.17500 25.34800
H  22.14300 47.90000 26.95200
H  20.35900 50.78100 31.26800
H  19.73200 47.43500 34.22200
H  18.12400 48.22900 34.09400
H  19.30900 48.75500 35.20800

