158

Mg 36.07500 0.56400 29.43700
C  33.76000 1.85400 31.84500
C  38.51400 0.65700 32.05200
C  38.43300 -0.08800 27.15200
C  33.71900 1.10600 26.98500
N  36.11700 1.22200 31.66700
C  35.05700 1.62000 32.40700
C  35.36500 1.76200 33.86100
C  36.97300 1.60600 33.87000
C  37.26800 1.17900 32.43500
C  37.79600 2.77800 34.33100
C  34.67600 0.74300 34.78900
C  34.68500 1.03300 36.33000
H  35.18100 2.35800 36.85000
N  38.12000 0.19300 29.59200
C  38.97900 0.34600 30.68700
C  40.36500 0.00200 30.31900
C  40.37200 -0.26200 28.97500
C  38.91100 -0.02900 28.48500
C  41.42200 -0.07700 31.35500
C  41.49200 -0.71300 28.07500
O  41.32100 -0.86200 26.87200
C  42.85200 -0.87400 28.57000
N  36.05800 0.38400 27.33200
C  37.18300 0.07500 26.61600
C  36.91300 -0.01000 25.06000
C  35.30600 0.30400 25.03700
C  35.01500 0.64700 26.50100
C  37.74100 0.95500 24.28700
C  34.44600 -0.83700 24.51700
C  33.03600 -0.46700 23.95000
N  34.16900 1.33500 29.38900
C  33.32000 1.41700 28.26900
C  32.01900 1.85100 28.72500
C  32.19600 2.04200 30.14400
C  33.48000 1.74600 30.47600
C  30.77900 2.03400 27.90700
C  31.43900 2.45100 31.33800
O  30.32100 2.88800 31.45900
C  32.41800 2.35800 32.52500
C  32.44200 3.74400 33.06700
O  33.21000 4.63200 32.71000
O  31.58300 3.96700 34.07300
C  31.18700 5.31000 34.51800
H  39.20200 0.65500 32.89900
H  39.22700 -0.12700 26.40400
H  32.95400 1.39500 26.26100
H  34.98400 2.72500 34.20100
H  37.32800 0.79400 34.50400
H  37.20000 3.66500 34.54600
H  38.66300 2.95800 33.69500
H  38.32700 2.56800 35.25900
H  35.21400 -0.15100 34.47500
H  33.65500 0.72800 34.40800
H  35.14700 0.23100 36.90500
H  33.63800 0.96800 36.62600
H  42.13400 -0.88600 31.19100
H  41.09400 -0.28600 32.37200
H  41.94300 0.87400 31.24500
H  43.54300 -0.92500 27.72800
H  42.90100 -1.77300 29.18600
H  43.20900 -0.05600 29.19500
H  37.22000 -0.92400 24.55200
H  35.18100 1.19100 24.41600
H  38.47400 1.40800 24.95600
H  37.20600 1.83500 23.93000
H  38.39500 0.42800 23.59300
H  34.33100 -1.57100 25.31500
H  35.03700 -1.38700 23.78500
H  32.97300 -0.87900 22.94300
H  32.91500 0.61500 24.00300
H  32.26500 -0.83000 24.63000
H  29.92200 2.29000 28.53100
H  30.57500 1.08800 27.40500
H  30.88700 2.82500 27.16400
H  31.99100 1.65400 33.23900
H  30.58500 5.30100 35.42600
H  30.57200 5.73200 33.72300
H  32.04200 5.97900 34.62400
Mg -9.45100 39.95000 41.58000
C  -8.28800 36.88500 40.47900
C  -6.84600 41.39600 39.94900
C  -11.05000 42.95300 41.87500
C  -12.37400 38.43300 42.79400
N  -7.56400 39.12500 40.53500
C  -7.36000 37.87400 40.06200
C  -5.99100 37.76600 39.38200
C  -5.47600 39.19600 39.49000
C  -6.67600 39.98400 40.03300
C  -4.15000 39.42200 40.27200
C  -6.10100 37.16100 37.99600
C  -4.82600 36.50300 37.41000
H  -4.19100 37.28600 36.20500
N  -8.98100 41.93000 41.08700
C  -7.78700 42.33600 40.49300
C  -7.75600 43.76100 40.30400
C  -8.92600 44.26400 40.80600
C  -9.76300 43.01700 41.24100
C  -6.59400 44.52000 39.71100
C  -9.39000 45.71300 40.74100
O  -8.71900 46.70800 40.35900
C  -10.80600 46.03400 41.15700
N  -11.59900 40.53900 42.07800
C  -11.85300 41.88700 42.30200
C  -13.17100 42.05600 43.11000
C  -13.54000 40.53000 43.46300
C  -12.46000 39.80100 42.73300
C  -13.16900 42.94400 44.36600
C  -14.95100 40.04100 43.05100
C  -15.70700 39.04200 43.95000
N  -10.11900 38.02700 41.73600
C  -11.35500 37.60200 42.26500
C  -11.36500 36.08100 42.21400
C  -10.15100 35.77600 41.47300
C  -9.50700 36.99800 41.15500
C  -12.42800 35.18700 42.82800
C  -9.39600 34.68100 40.98500
O  -9.52000 33.47800 41.16900
C  -8.20900 35.33700 40.28000
C  -6.96100 34.85400 40.90300
O  -6.68200 35.23500 42.03900
O  -6.23300 34.06400 40.05500
C  -4.86500 33.88900 40.43300
H  -6.02800 41.92000 39.44800
H  -11.59200 43.88500 42.05200
H  -13.17000 37.82800 43.23300
H  -5.44300 37.18100 40.12000
H  -5.17900 39.46000 38.47500
H  -3.62400 38.52600 40.60100
H  -4.38800 39.99400 41.16800
H  -3.46500 40.10100 39.76300
H  -6.42400 37.97600 37.34900
H  -6.88100 36.40200 37.93900
H  -5.09500 35.56300 36.92900
H  -4.04700 36.28500 38.14100
H  -5.81100 43.82700 39.40400
H  -6.01800 45.34500 40.13000
H  -6.98100 44.86700 38.75300
H  -11.01700 45.74000 42.18500
H  -11.56000 45.49400 40.58400
H  -11.00500 47.10500 41.11500
H  -13.96900 42.47600 42.49800
H  -13.36300 40.27800 44.50900
H  -12.23700 43.47600 44.55600
H  -13.38000 42.37100 45.26800
H  -13.93800 43.68000 44.13100
H  -14.79100 39.58800 42.07300
H  -15.64400 40.87200 42.92300
H  -16.70800 38.95600 43.52700
H  -15.54500 39.46700 44.94100
H  -15.26400 38.04800 43.89000
H  -13.19900 35.08100 42.06500
H  -12.89600 35.44700 43.77800
H  -12.00800 34.19900 43.01300
H  -8.20400 35.11200 39.21400
H  -4.40300 32.97100 40.07000
H  -4.79200 33.85200 41.51900
H  -4.32100 34.78700 40.13900

