158

Mg 49.81900 46.67600 42.41300
C  46.42800 47.04000 41.83000
C  49.67600 43.45600 41.15200
C  53.18200 46.40200 42.74100
C  50.03500 50.05900 43.13100
N  48.20800 45.41700 41.46800
C  46.90300 45.85100 41.26500
C  46.02600 44.74600 40.58400
C  47.11400 43.56600 40.52100
C  48.41300 44.18500 41.09000
C  46.67900 42.36400 41.28400
C  45.42900 45.19400 39.25400
C  43.95300 45.31600 39.26400
H  43.17800 45.01700 38.02700
N  51.27000 45.14100 42.16400
C  50.97900 43.89000 41.55900
C  52.20100 43.07500 41.50000
C  53.27900 43.87900 42.09000
C  52.61000 45.15200 42.34600
C  52.31400 41.67900 40.84400
C  54.75900 43.51300 42.24700
O  55.10000 42.36300 41.95900
C  55.75200 44.38000 43.00400
N  51.37700 48.06600 42.58400
C  52.67000 47.70000 42.86800
C  53.60100 48.90400 43.20900
C  52.58700 50.13500 43.14300
C  51.25500 49.39800 42.92300
C  54.17700 48.76300 44.64600
C  52.78200 51.05000 41.95200
C  52.41900 52.52400 42.16600
N  48.51000 48.21100 42.48500
C  48.71500 49.54200 42.99100
C  47.47000 50.21800 43.03800
C  46.49300 49.30600 42.69200
C  47.18700 48.13600 42.30000
C  47.27000 51.64100 43.50700
C  45.09200 49.16500 42.36800
O  44.20000 49.95000 42.44700
C  45.05000 47.66200 41.80300
C  44.09900 46.86700 42.68400
O  44.32300 46.21600 43.76700
O  42.88400 46.98700 42.09800
C  41.77600 46.39100 42.76000
H  49.72900 42.42400 40.79900
H  54.25000 46.41200 42.96500
H  50.08800 51.12400 43.36500
H  45.22000 44.55900 41.29400
H  47.33800 43.27300 39.49500
H  47.04300 41.52000 40.69900
H  45.60000 42.25300 41.18000
H  47.01300 42.26900 42.31800
H  45.84100 44.55600 38.47200
H  45.86900 46.18200 39.11700
H  43.75500 46.35600 39.52200
H  43.47000 44.65800 39.98600
H  52.52400 41.00400 41.67300
H  53.15900 41.63900 40.15800
H  51.51300 41.32800 40.19300
H  56.00800 45.23400 42.37600
H  56.65000 43.79200 43.19400
H  55.40400 44.86400 43.91600
H  54.42100 48.99400 42.49800
H  52.52800 50.68800 44.08000
H  54.47100 47.77500 45.00000
H  53.59500 49.30000 45.39600
H  55.15500 49.21800 44.48700
H  52.13000 50.68000 41.16100
H  53.80100 50.93300 41.58200
H  53.24900 53.19300 41.93800
H  52.35200 52.61200 43.25000
H  51.60500 52.85400 41.52000
H  47.71900 52.33200 42.79400
H  47.72900 51.75100 44.49000
H  46.21400 51.80700 43.71800
H  44.68100 47.67000 40.77800
H  40.92300 46.10100 42.14600
H  41.42800 47.13700 43.47500
H  41.99300 45.51800 43.37500
Mg -5.34900 24.95300 26.12400
C  -3.98900 26.29300 29.12400
C  -6.93000 22.69100 28.06800
C  -6.48100 23.63700 23.34900
C  -3.02900 26.76400 24.34400
N  -5.53200 24.61200 28.40000
C  -4.91200 25.24000 29.38200
C  -5.41700 24.84400 30.73600
C  -6.18700 23.52200 30.42800
C  -6.26700 23.56300 28.88600
C  -5.62900 22.19700 31.06200
C  -6.25500 25.92700 31.47900
C  -5.86400 26.31500 32.86600
H  -5.01600 25.30100 33.76700
N  -6.64000 23.47100 25.74100
C  -7.24300 22.73700 26.70100
C  -8.37100 21.99000 26.12100
C  -8.18400 22.11700 24.72200
C  -7.04500 23.09500 24.53600
C  -9.35900 21.29300 27.03500
C  -8.95100 21.36600 23.63400
O  -8.84100 21.69700 22.45400
C  -9.63400 20.10900 23.99700
N  -4.74900 25.06500 24.06300
C  -5.36900 24.40700 23.08200
C  -4.84000 24.70700 21.63800
C  -3.62100 25.69000 22.04600
C  -3.86200 25.92600 23.56500
C  -4.37900 23.44200 20.91300
C  -3.72400 27.00600 21.14600
C  -2.54500 27.39800 20.13900
N  -3.85500 26.28200 26.63800
C  -2.95100 27.01500 25.75700
C  -2.13300 27.91100 26.53900
C  -2.50600 27.64200 27.87100
C  -3.49700 26.63500 27.90000
C  -1.09100 28.82700 26.02300
C  -2.23500 28.05500 29.26900
O  -1.48600 28.95400 29.74500
C  -3.11200 27.09500 30.17800
C  -2.05200 26.24700 30.81800
O  -1.57900 25.20500 30.43600
O  -1.67800 26.82900 31.95300
C  -0.47200 26.23900 32.61700
H  -7.34900 21.86800 28.65100
H  -6.97200 23.25500 22.45200
H  -2.27500 27.32600 23.78800
H  -4.54800 24.66200 31.36800
H  -7.18900 23.68700 30.82500
H  -5.26700 21.60000 30.22500
H  -6.31800 21.56900 31.62700
H  -4.79700 22.36400 31.74500
H  -7.20800 25.42000 31.62400
H  -6.36700 26.73100 30.75100
H  -6.78000 26.51200 33.42300
H  -5.25300 27.21600 32.81400
H  -9.55400 21.74300 28.00800
H  -9.22800 20.21400 26.95100
H  -10.27000 21.50200 26.47300
H  -10.64500 20.09400 24.40300
H  -8.90200 19.68200 24.68200
H  -9.72700 19.48500 23.10800
H  -5.59800 25.32300 21.15500
H  -2.68200 25.15900 21.88900
H  -3.32700 23.20600 21.07400
H  -4.55000 23.50800 19.83900
H  -4.90300 22.54900 21.25500
H  -3.79400 27.75500 21.93400
H  -4.65600 26.95300 20.58300
H  -2.87800 27.10700 19.14300
H  -1.64800 26.80500 20.32000
H  -2.34900 28.45700 20.31000
H  -1.50100 29.51400 25.28300
H  -0.39000 28.19200 25.48000
H  -0.74800 29.42600 26.86600
H  -3.71800 27.55300 30.96000
H  0.40700 26.73900 32.21100
H  -0.47900 25.15700 32.48000
H  -0.47700 26.40500 33.69400

