158

Mg 24.26100 -5.99900 46.29300
C  26.38100 -3.63700 44.58800
C  21.66600 -4.75900 44.40400
C  22.60400 -8.62900 47.23300
C  27.14700 -7.04000 47.98800
N  24.12700 -4.55300 44.36200
C  25.07400 -3.59000 44.03600
C  24.53400 -2.60400 43.02700
C  22.98100 -2.92200 43.23200
C  22.87600 -4.14600 44.05300
C  22.28000 -1.72700 44.04700
C  25.06200 -2.73200 41.56500
C  25.48900 -1.39400 40.87500
H  25.53200 -1.34900 39.32300
N  22.38500 -6.69000 45.84300
C  21.42800 -6.02800 45.10600
C  20.23000 -6.85000 45.14900
C  20.41700 -8.02900 45.93600
C  21.79800 -7.81800 46.38900
C  19.08300 -6.42000 44.29400
C  19.47200 -9.14400 46.35300
O  18.35700 -9.10400 45.83800
C  19.80100 -10.13000 47.35700
N  24.84000 -7.68200 47.35300
C  23.95100 -8.55100 47.75500
C  24.52900 -9.57900 48.78000
C  26.01100 -9.11400 48.89100
C  26.05000 -7.90200 48.03000
C  23.72300 -9.55300 50.12700
C  27.01500 -10.18600 48.50200
C  28.28500 -10.08900 49.32900
N  26.33400 -5.40700 46.39200
C  27.37000 -5.94700 47.11900
C  28.59900 -5.23600 46.86200
C  28.25000 -4.29100 45.86600
C  26.87700 -4.47900 45.59300
C  29.90000 -5.45200 47.42400
C  28.84100 -3.25900 44.98300
O  29.97200 -2.87600 44.81100
C  27.62500 -2.77200 44.20000
C  27.32400 -1.33700 44.51600
O  26.79400 -0.95900 45.52300
O  27.87600 -0.57300 43.57100
C  27.84600 0.90600 43.90600
H  20.81600 -4.32700 43.87200
H  22.16400 -9.54200 47.64000
H  27.97000 -7.27000 48.66900
H  24.83200 -1.62400 43.39900
H  22.50800 -3.10100 42.26600
H  22.92700 -1.30200 44.81500
H  21.48800 -2.13700 44.67300
H  21.90900 -0.89100 43.45400
H  24.29700 -3.24100 40.97900
H  25.87100 -3.46300 41.54800
H  26.53400 -1.16200 41.08200
H  24.89800 -0.56500 41.26300
H  18.65100 -5.52900 44.74900
H  18.29800 -7.16800 44.18900
H  19.53400 -6.15100 43.33900
H  18.99000 -10.82500 47.57300
H  20.16300 -9.59000 48.23200
H  20.53200 -10.69100 46.77600
H  24.54100 -10.62900 48.48600
H  26.20800 -8.78400 49.91200
H  23.37500 -10.53100 50.46000
H  22.80300 -8.97300 50.05700
H  24.30300 -9.10600 50.93400
H  27.32200 -10.12100 47.45800
H  26.51600 -11.15200 48.57400
H  28.83500 -11.03000 49.30200
H  27.99100 -9.90400 50.36200
H  28.97400 -9.34700 48.92500
H  30.60200 -5.99500 46.79100
H  29.92800 -5.84000 48.44300
H  30.30200 -4.43900 47.44100
H  27.84800 -2.91900 43.14300
H  28.11900 1.49900 43.03300
H  28.68000 1.01300 44.59900
H  26.88600 1.29800 44.24300
Mg 17.44600 -1.91800 28.19500
C  16.22700 -0.01100 30.81100
C  19.31800 -3.71000 30.51300
C  18.72600 -3.68600 25.66300
C  15.42100 -0.07300 25.99700
N  17.90400 -1.62900 30.43900
C  17.09200 -0.93500 31.33300
C  17.35000 -1.47000 32.80300
C  18.54600 -2.40600 32.63000
C  18.57500 -2.62000 31.06300
C  19.87800 -1.95300 33.42900
C  16.02000 -1.97700 33.45300
C  15.82200 -1.35500 34.83700
H  17.00200 -0.89300 35.69700
N  18.91900 -3.39400 28.10600
C  19.42500 -4.09600 29.09100
C  20.15900 -5.33700 28.64800
C  19.90200 -5.34700 27.22600
C  19.14300 -4.10200 26.95900
C  20.67400 -6.45200 29.53400
C  20.25000 -6.40600 26.22900
O  19.59300 -6.63100 25.21100
C  21.36200 -7.39600 26.52900
N  17.26700 -1.74200 26.15500
C  17.88400 -2.56900 25.29300
C  17.42900 -2.48200 23.81300
C  16.33600 -1.30600 23.87400
C  16.28500 -1.01600 25.42500
C  18.55600 -2.27000 22.74000
C  14.87800 -1.45000 23.35800
C  14.10100 -2.81200 23.53100
N  16.12700 -0.29400 28.28700
C  15.35600 0.32600 27.35500
C  14.49100 1.27200 27.94700
C  14.79000 1.16500 29.26500
C  15.82500 0.18700 29.46400
C  13.44400 2.12400 27.42800
C  14.37900 1.69000 30.60000
O  13.60900 2.55900 30.95600
C  15.38800 0.94700 31.60000
C  16.07200 2.07500 32.30600
O  16.71700 3.03800 31.80500
O  16.08200 1.81200 33.68700
C  16.79000 2.84700 34.38700
H  19.79700 -4.33200 31.27200
H  19.15800 -4.25200 24.83600
H  14.63300 0.52100 25.53000
H  17.64000 -0.53100 33.27500
H  18.13300 -3.30200 33.09200
H  19.81100 -0.88500 33.63700
H  20.78700 -1.96500 32.82900
H  19.96800 -2.36600 34.43400
H  16.08200 -3.04600 33.65700
H  15.17100 -1.68700 32.83300
H  15.38300 -2.13200 35.46300
H  15.09600 -0.54100 34.82500
H  20.17300 -7.39900 29.33300
H  20.43900 -6.18000 30.56300
H  21.76200 -6.49300 29.48600
H  22.13700 -6.80900 27.02200
H  21.69300 -7.69900 25.53600
H  21.07800 -8.23700 27.16000
H  16.81400 -3.36100 23.61600
H  16.77600 -0.37800 23.50900
H  18.53600 -1.30400 22.23700
H  18.55200 -3.04800 21.97700
H  19.46900 -2.16300 23.32600
H  14.96100 -1.20600 22.29900
H  14.20800 -0.69700 23.77300
H  13.03700 -2.63600 23.69000
H  14.42100 -3.47300 24.33700
H  14.26100 -3.32100 22.58100
H  12.81400 1.48700 26.80600
H  13.84800 2.77000 26.64900
H  12.93800 2.61200 28.26100
H  14.68400 0.55600 32.33500
H  16.48300 3.86800 34.15700
H  17.85400 2.71600 34.18700
H  16.58600 2.51200 35.40300

