158

Mg 7.79800 2.59300 28.69300
C  9.35000 1.41900 31.60700
C  5.59300 4.46600 30.54500
C  6.46400 3.54000 25.81800
C  9.86600 0.29400 26.77300
N  7.47200 2.85400 30.89000
C  8.36700 2.43000 31.86200
C  8.08600 3.18600 33.19600
C  6.83600 4.14200 32.84200
C  6.57900 3.80700 31.35500
C  5.53700 3.86600 33.69400
C  9.38400 3.88500 33.80700
C  9.74700 3.63600 35.29000
H  8.77000 3.20800 36.38200
N  6.14500 3.69600 28.24200
C  5.44000 4.49600 29.13400
C  4.54500 5.33000 28.42300
C  4.73000 5.09400 26.98700
C  5.80100 4.07900 26.96600
C  3.57800 6.17800 29.15000
C  4.05400 5.65000 25.81200
O  4.24900 5.33400 24.64700
C  2.97700 6.72300 26.00500
N  8.04700 1.86600 26.51500
C  7.49800 2.56400 25.54200
C  7.93700 2.09200 24.15300
C  9.20200 1.25000 24.53400
C  9.02700 1.14000 26.04100
C  6.90300 1.40600 23.23300
C  10.58200 1.72900 24.12000
C  11.15500 2.98400 24.85400
N  9.12900 1.01200 29.09100
C  9.88500 0.17700 28.25200
C  10.85600 -0.55900 29.05200
C  10.63200 -0.08300 30.36200
C  9.59500 0.84700 30.31700
C  11.86600 -1.51600 28.60100
C  11.20600 -0.18500 31.63600
O  12.17600 -0.79000 32.10600
C  10.37300 0.76400 32.58100
C  9.80800 -0.18300 33.61700
O  8.83800 -0.93800 33.42500
O  10.30800 0.11000 34.79700
C  9.55900 -0.50800 35.95800
H  5.05500 5.18100 31.17100
H  6.06900 4.02200 24.92000
H  10.54500 -0.37600 26.24200
H  7.68100 2.41000 33.84500
H  7.04500 5.21100 32.89500
H  4.70300 3.52500 33.08100
H  5.22700 4.74400 34.26000
H  5.81000 3.16600 34.48400
H  9.32900 4.96900 33.71100
H  10.23000 3.51800 33.22600
H  10.10000 4.59300 35.67400
H  10.57700 2.93500 35.20800
H  2.58300 6.23500 28.71000
H  4.06600 7.15100 29.09200
H  3.33300 5.77800 30.13400
H  2.59600 6.95600 25.01000
H  3.35100 7.57600 26.57100
H  2.13600 6.33800 26.58200
H  8.24900 2.92000 23.51700
H  9.19200 0.25500 24.09000
H  7.08700 0.33400 23.17000
H  6.95900 1.68700 22.18100
H  5.93100 1.72200 23.61300
H  10.57200 2.02400 23.07000
H  11.34500 0.95200 24.16600
H  11.21900 2.64700 25.88800
H  10.46900 3.82700 24.77600
H  12.10600 3.30100 24.42700
H  12.78300 -1.09400 28.19000
H  11.42900 -2.23400 27.90700
H  12.28800 -2.05100 29.45200
H  11.09500 1.47000 32.99000
H  9.62500 -1.59100 35.85300
H  8.54900 -0.22400 36.25200
H  10.21300 -0.25700 36.79300
Mg 17.83100 52.82200 26.48200
C  19.53900 51.03200 28.85500
C  15.36000 53.47700 28.73700
C  16.06500 54.21400 23.93300
C  20.18300 51.71600 24.03400
N  17.47800 52.28400 28.57300
C  18.36500 51.62000 29.36100
C  17.94700 51.69900 30.79400
C  16.46800 52.15000 30.68400
C  16.36000 52.69800 29.25000
C  15.39900 51.05100 31.17200
C  18.92400 52.66500 31.57700
C  18.77200 52.70800 33.09200
H  17.58400 51.97800 33.81600
N  16.06100 53.86300 26.36600
C  15.18500 54.01400 27.43400
C  14.05500 54.74400 26.96300
C  14.30300 55.05800 25.61200
C  15.50000 54.37800 25.20500
C  12.84100 55.05400 27.86600
C  13.41700 56.01000 24.69200
O  13.66300 56.26400 23.51300
C  12.24100 56.67700 25.38900
N  18.14500 53.14900 24.41200
C  17.20500 53.67300 23.53200
C  17.60100 53.41400 22.09400
C  18.95800 52.65700 22.14600
C  19.13100 52.51000 23.60500
C  16.44500 52.77100 21.23700
C  20.03000 53.54600 21.43400
C  20.33400 54.83200 22.21600
N  19.54000 51.59200 26.34300
C  20.44900 51.26700 25.37300
C  21.60400 50.59400 25.95100
C  21.23900 50.46400 27.32800
C  19.98800 51.05800 27.49900
C  22.79600 50.00900 25.29300
C  21.60200 49.81400 28.52400
O  22.51700 49.00600 28.72100
C  20.57600 50.21400 29.62100
C  19.98300 48.99200 30.31600
O  19.24600 48.12000 29.82800
O  20.43600 49.04300 31.64300
C  19.77600 48.14900 32.56300
H  14.64700 53.89500 29.45100
H  15.40600 54.67400 23.19300
H  21.04800 51.51000 23.40000
H  18.03500 50.67100 31.14700
H  16.34300 52.99500 31.36100
H  15.87100 50.13000 31.51400
H  14.69700 50.62100 30.45700
H  14.80500 51.46400 31.98600
H  18.64800 53.66200 31.23600
H  19.98900 52.48500 31.43000
H  18.87200 53.73800 33.43400
H  19.69700 52.22000 33.39900
H  12.83100 56.11200 28.12500
H  12.84000 54.63500 28.87300
H  11.90000 54.78800 27.38400
H  12.64800 57.10300 26.30600
H  11.46300 55.94400 25.60100
H  11.84200 57.52700 24.83600
H  17.68900 54.38800 21.61300
H  18.85400 51.66800 21.69800
H  15.71800 52.52900 22.01300
H  16.80800 51.81300 20.86600
H  16.08800 53.42500 20.44200
H  19.69300 53.80700 20.43100
H  20.87800 52.92700 21.14300
H  19.61100 55.59700 21.93500
H  21.36800 55.12800 22.04200
H  20.21700 54.62600 23.28000
H  23.13000 50.68700 24.50700
H  22.48100 49.12000 24.74600
H  23.59000 49.76900 25.99900
H  20.99900 50.78500 30.44600
H  20.18600 47.14000 32.60000
H  18.70800 47.99900 32.40300
H  19.88700 48.58400 33.55600

