158

Mg 36.06900 49.22200 26.24400
C  36.40000 47.02600 29.07800
C  35.02700 51.59100 28.48200
C  35.43800 51.05100 23.67300
C  36.91600 46.61600 24.16500
N  35.64900 49.19300 28.47400
C  35.96800 48.28400 29.44500
C  35.99100 48.84300 30.91900
C  35.26100 50.14700 30.67100
C  35.33300 50.37300 29.10800
C  33.78000 50.19400 31.09500
C  37.43900 49.12500 31.49600
C  37.65200 48.88000 33.00400
H  36.49500 49.19900 33.96600
N  35.38700 51.11200 26.07900
C  35.03100 51.93000 27.10600
C  34.60000 53.14900 26.54000
C  34.82500 53.11300 25.13800
C  35.28400 51.72900 24.93200
C  34.15700 54.21100 27.45700
C  34.55300 54.08400 24.00500
O  34.76900 53.86800 22.82300
C  33.99800 55.34900 24.45400
N  36.22600 48.87700 24.13200
C  35.79500 49.72500 23.28100
C  35.67100 49.23600 21.83600
C  36.18300 47.77400 22.05900
C  36.44300 47.71400 23.52800
C  34.31600 49.38200 21.12700
C  37.45400 47.44500 21.16200
C  38.83500 47.37300 21.79500
N  36.60700 47.23000 26.48400
C  37.01400 46.30100 25.52400
C  37.34400 45.14000 26.17500
C  37.06900 45.33500 27.58200
C  36.67700 46.65400 27.72900
C  37.70600 43.87700 25.50600
C  37.08700 44.67700 28.86500
O  37.44700 43.54300 29.11200
C  36.68100 45.76500 29.95100
C  35.52700 45.27500 30.65600
O  34.41800 45.13000 30.20500
O  35.90600 45.17700 31.97200
C  34.79200 44.70300 32.75900
H  34.62400 52.28200 29.22400
H  34.99600 51.70200 22.91600
H  37.23000 45.76000 23.56500
H  35.51700 48.13600 31.60000
H  35.64800 51.01100 31.21200
H  33.56100 49.50000 31.90600
H  33.13300 49.87500 30.27800
H  33.63100 51.22900 31.40300
H  37.77600 50.10700 31.16300
H  38.11200 48.38300 31.06700
H  38.36600 49.60900 33.38800
H  37.99400 47.86200 33.19000
H  33.53400 53.91000 28.30000
H  33.65200 54.97600 26.86700
H  34.99400 54.76200 27.88700
H  34.00800 56.03700 23.60800
H  34.66800 55.80000 25.18600
H  32.99900 55.14500 24.84000
H  36.34300 49.85300 21.23900
H  35.37300 47.06500 21.88900
H  33.69900 49.99600 21.78200
H  33.67600 48.51200 20.98100
H  34.55600 49.90100 20.19900
H  37.49300 48.16800 20.34700
H  37.17500 46.50900 20.67900
H  38.83700 47.47100 22.88100
H  39.39600 48.19300 21.34700
H  39.35100 46.41600 21.72200
H  36.78900 43.35900 25.22600
H  38.32200 43.32300 26.21400
H  38.40600 44.10000 24.70100
H  37.49800 45.89700 30.66000
H  33.82900 45.19100 32.61400
H  35.10000 44.99900 33.76200
H  34.71900 43.61900 32.66800
Mg -11.33700 38.29500 41.98300
C  -8.88400 35.70400 41.61000
C  -9.29600 40.15000 39.88200
C  -13.89500 40.44100 41.58400
C  -13.41400 35.90900 43.35400
N  -9.30700 37.91200 40.77000
C  -8.44900 36.90900 41.00300
C  -7.12200 37.17100 40.30200
C  -7.23000 38.64400 39.78900
C  -8.69600 38.96000 40.18700
C  -6.31400 39.67700 40.38200
C  -6.76400 36.15100 39.12400
C  -5.29500 35.80800 38.82600
H  -4.50200 36.28200 37.57500
N  -11.52700 40.08900 41.01100
C  -10.56900 40.71600 40.22600
C  -11.06400 42.01700 39.99100
C  -12.35600 42.17300 40.51400
C  -12.67400 40.85200 41.04900
C  -10.31600 43.10900 39.21300
C  -13.24500 43.48500 40.49700
O  -12.81600 44.52400 40.06000
C  -14.66800 43.60600 41.08300
N  -13.37500 38.19300 42.25600
C  -14.25400 39.21400 42.16600
C  -15.65500 38.86000 42.61600
C  -15.55700 37.31200 42.89700
C  -13.99500 37.10900 42.84400
C  -16.16200 39.65200 43.88100
C  -16.34900 36.38300 42.00500
C  -17.74900 35.96100 42.53500
N  -11.20600 36.23500 42.51200
C  -12.10200 35.46600 43.14800
C  -11.50300 34.13500 43.38300
C  -10.21300 34.21200 42.77900
C  -10.09100 35.52100 42.23700
C  -12.18300 33.10400 44.18800
C  -8.99200 33.47200 42.59300
O  -8.64300 32.32600 42.97900
C  -8.09800 34.42100 41.75300
C  -6.77400 34.56500 42.36900
O  -5.95400 33.63000 42.36000
O  -6.66200 35.62400 43.15000
C  -5.45700 35.71600 43.97300
H  -8.80000 40.87800 39.23600
H  -14.76600 41.09700 41.54100
H  -14.14700 35.26400 43.84400
H  -6.44400 37.16600 41.15600
H  -7.13500 38.78700 38.71300
H  -5.56900 39.81700 39.59800
H  -5.76800 39.29400 41.24400
H  -6.72700 40.68400 40.42900
H  -7.01400 36.66400 38.19500
H  -7.50800 35.35600 39.08100
H  -5.23300 34.72500 38.93300
H  -4.81200 36.23200 39.70600
H  -9.55400 42.72000 38.53800
H  -9.78400 43.86300 39.79300
H  -11.01800 43.66000 38.58600
H  -14.69800 43.08200 42.03800
H  -15.16500 42.94400 40.37400
H  -15.11400 44.59300 40.95600
H  -16.37100 39.10600 41.83200
H  -15.93400 37.01200 43.87500
H  -16.84900 40.47900 43.70200
H  -15.26700 40.00500 44.39300
H  -16.58000 38.97900 44.62900
H  -15.71400 35.55300 41.69600
H  -16.59600 36.92000 41.08900
H  -18.33900 36.87200 42.43200
H  -17.84200 35.58700 43.55400
H  -18.04800 35.10200 41.93400
H  -12.32500 32.17400 43.63800
H  -13.12400 33.48300 44.58800
H  -11.71200 32.83700 45.13300
H  -7.95200 33.98500 40.76500
H  -4.71200 35.08100 43.49400
H  -5.67900 35.30600 44.95800
H  -5.25100 36.78100 44.07300

