158

Mg 24.46000 -7.51100 46.11400
C  26.90200 -5.12700 45.05900
C  22.11400 -5.99100 44.13600
C  22.41400 -10.02300 46.78000
C  27.13300 -9.26100 47.63100
N  24.54200 -5.79400 44.81600
C  25.61100 -4.91800 44.60100
C  25.22900 -3.79000 43.59100
C  23.62900 -3.99600 43.41200
C  23.42800 -5.35500 44.27200
C  22.76100 -2.82600 43.91400
C  25.92800 -3.86300 42.30900
C  26.48100 -2.53000 41.76500
H  25.52000 -1.89500 40.73900
N  22.38000 -7.86300 45.68600
C  21.63500 -7.17000 44.82000
C  20.33900 -7.77500 44.78700
C  20.34200 -8.95300 45.59200
C  21.72600 -8.98700 46.11100
C  19.14800 -7.06300 44.16300
C  19.16600 -9.87900 45.83500
O  18.20000 -9.71200 45.07400
C  19.22300 -10.98900 46.77800
N  24.81100 -9.31600 46.97800
C  23.75400 -10.15700 47.12700
C  24.14100 -11.47100 47.89200
C  25.64200 -11.24700 48.23900
C  25.87700 -9.90000 47.52600
C  23.26000 -11.94000 49.13700
C  26.74000 -12.31000 48.08600
C  27.49300 -12.85700 49.31600
N  26.56500 -7.34000 46.28100
C  27.53700 -8.10900 46.97100
C  28.85400 -7.48900 46.88000
C  28.67600 -6.32800 46.11400
C  27.26900 -6.28900 45.77300
C  30.01500 -7.93000 47.67700
C  29.32000 -5.04900 45.63900
O  30.43100 -4.64300 45.87500
C  28.21900 -4.34100 44.79800
C  28.23100 -2.96600 45.05300
O  28.91500 -2.19800 44.35400
O  27.49000 -2.57500 46.13800
C  27.50700 -1.19300 46.45100
H  21.35700 -5.51400 43.51000
H  21.72100 -10.80100 47.10500
H  28.05000 -9.68300 48.04800
H  25.43600 -2.80200 44.00200
H  23.30800 -4.14000 42.38000
H  23.32100 -2.04600 44.42900
H  21.93300 -3.11800 44.56100
H  22.19800 -2.19600 43.22500
H  25.17300 -4.21100 41.60500
H  26.76900 -4.55700 42.31300
H  27.48000 -2.79100 41.41600
H  26.71100 -1.80500 42.54500
H  19.30600 -6.00500 43.95800
H  18.21900 -7.30100 44.68200
H  19.00600 -7.44800 43.15400
H  19.49500 -10.51900 47.72300
H  20.03000 -11.63100 46.42600
H  18.31200 -11.58100 46.86300
H  23.90200 -12.25100 47.16900
H  25.69100 -11.00200 49.30000
H  22.92300 -12.94800 48.89700
H  22.48100 -11.20700 49.34700
H  23.90900 -11.99100 50.01000
H  27.39500 -11.98500 47.27800
H  26.27600 -13.15500 47.57700
H  27.03900 -13.84800 49.33700
H  27.14000 -12.21700 50.12400
H  28.57100 -12.84200 49.15400
H  29.75400 -8.47200 48.58700
H  30.75200 -7.14800 47.85900
H  30.58300 -8.68300 47.13100
H  28.44500 -4.58500 43.76000
H  27.07000 -1.18700 47.44900
H  27.04900 -0.59400 45.66400
H  28.50400 -0.78800 46.62700
Mg -0.65500 43.80600 25.66400
C  1.88900 43.44700 28.06800
C  -3.00700 42.96500 28.21600
C  -2.93100 43.71000 23.42600
C  1.86300 44.30000 23.27500
N  -0.59200 43.37000 27.92300
C  0.61900 43.28700 28.64000
C  0.32000 43.05600 30.10100
C  -1.25000 42.67400 30.16000
C  -1.64500 42.98100 28.64400
C  -1.57600 41.17000 30.50200
C  0.65300 44.34000 30.87200
C  0.77900 44.32800 32.42800
H  0.81000 42.97800 33.16600
N  -2.70800 43.47300 25.85700
C  -3.50500 43.29900 26.96700
C  -4.89000 43.33500 26.53300
C  -4.82700 43.45700 25.05100
C  -3.47100 43.50600 24.71900
C  -6.08200 43.16000 27.41300
C  -5.97600 43.46400 24.04000
O  -5.91600 43.65400 22.84700
C  -7.41400 43.20700 24.61300
N  -0.45200 43.83100 23.61500
C  -1.62300 43.85700 22.89400
C  -1.39800 44.17700 21.41000
C  0.14400 44.42700 21.39100
C  0.54500 44.19800 22.83900
C  -1.89700 42.97400 20.55500
C  0.51500 45.77000 20.85400
C  0.19100 47.00200 21.71400
N  1.47100 43.96400 25.67300
C  2.35200 44.16900 24.61700
C  3.73400 44.17300 25.06700
C  3.63300 43.86300 26.45300
C  2.22600 43.76800 26.73300
C  4.90900 44.31600 24.18500
C  4.37500 43.59300 27.63200
O  5.54800 43.57500 27.89300
C  3.25700 43.39200 28.71200
C  3.51600 42.09500 29.47300
O  3.17700 41.01900 29.05200
O  4.09700 42.25700 30.71900
C  4.31500 41.01400 31.48000
H  -3.77100 42.77500 28.97300
H  -3.70200 43.88400 22.67300
H  2.68800 44.50000 22.58800
H  0.83300 42.15100 30.42700
H  -1.82400 43.35400 30.78800
H  -2.38100 41.21100 31.23600
H  -0.71500 40.57200 30.80100
H  -2.03400 40.64200 29.66600
H  -0.08900 45.10500 30.64700
H  1.53300 44.80800 30.43000
H  -0.01100 44.95900 32.83500
H  1.65300 44.83800 32.83100
H  -6.73700 42.32800 27.15500
H  -6.72900 44.03700 27.36400
H  -5.79600 43.05100 28.45900
H  -7.77200 43.90400 25.37100
H  -7.46200 42.16400 24.92600
H  -8.00200 43.32100 23.70300
H  -1.96000 45.04400 21.06300
H  0.63600 43.64400 20.81400
H  -2.04200 42.15700 21.26200
H  -1.14000 42.75600 19.80100
H  -2.84900 43.12300 20.04600
H  0.10200 45.91400 19.85600
H  1.60300 45.76200 20.78700
H  -0.21700 47.75300 21.03700
H  1.15100 47.42200 22.01500
H  -0.41100 46.78500 22.59700
H  4.89400 45.18800 23.53100
H  4.97500 43.46000 23.51400
H  5.83400 44.30800 24.76100
H  3.33500 44.24600 29.38500
H  5.33900 40.70900 31.26600
H  3.57300 40.24800 31.25300
H  4.30200 41.12800 32.56400

