158

Mg 46.66700 16.19100 27.56500
C  44.92900 15.80800 30.50600
C  48.97600 18.29900 29.13700
C  48.01800 17.14600 24.49400
C  44.15400 14.55700 25.88400
N  46.92900 16.95500 29.65400
C  46.16100 16.50900 30.72100
C  46.77800 17.01300 32.03500
C  47.99300 17.91900 31.55300
C  47.96400 17.75800 30.02000
C  47.92700 19.38600 31.96800
C  47.10300 15.83500 33.00000
C  46.39600 16.00100 34.38700
H  46.05100 17.40700 34.87900
N  48.32100 17.39500 26.92800
C  49.21700 18.00700 27.76600
C  50.27500 18.57600 27.01500
C  49.95500 18.45100 25.62300
C  48.69100 17.65600 25.64300
C  51.38800 19.42600 27.66000
C  50.72800 18.89900 24.36200
O  50.33900 18.57100 23.25300
C  51.93500 19.79800 24.56800
N  46.14200 15.88300 25.49700
C  46.89300 16.32100 24.44500
C  46.38900 15.77500 23.15600
C  45.15900 14.86700 23.53300
C  45.14900 15.00700 25.07300
C  46.12200 16.85800 22.06000
C  45.16000 13.44500 22.94600
C  45.22900 13.31100 21.38100
N  44.98100 15.15800 28.11500
C  44.02700 14.60800 27.29300
C  42.89000 14.10600 28.07500
C  43.30100 14.44700 29.37900
C  44.45300 15.24800 29.30400
C  41.60700 13.51300 27.53600
C  42.86100 14.53200 30.75600
O  41.81800 14.15000 31.29600
C  43.93800 15.35700 31.55500
C  43.12000 16.35600 32.34100
O  42.92400 17.49500 31.92200
O  42.80100 15.90500 33.58300
C  41.97400 16.70800 34.44400
H  49.77600 18.83600 29.64900
H  48.38800 17.37500 23.49200
H  43.32400 13.99900 25.44500
H  45.95200 17.61900 32.40500
H  48.92800 17.50000 31.92300
H  48.82200 19.51700 32.57500
H  46.99900 19.51500 32.52600
H  47.99400 20.07300 31.12400
H  48.17500 15.89700 33.18800
H  46.94300 14.89800 32.46600
H  47.08400 15.53500 35.09300
H  45.51200 15.36900 34.30900
H  51.45800 19.43800 28.74800
H  51.19700 20.48800 27.50400
H  52.32500 19.11500 27.19900
H  52.66900 19.25600 25.16400
H  51.54700 20.64800 25.12900
H  52.33500 20.09900 23.60000
H  47.25000 15.17600 22.85900
H  44.27800 15.33600 23.09400
H  45.19500 16.73600 21.50100
H  46.85200 16.71800 21.26300
H  46.22700 17.92200 22.27500
H  44.33100 12.79000 23.21300
H  45.98400 12.97200 23.48100
H  46.15100 12.75900 21.19500
H  45.21600 14.28000 20.88200
H  44.36000 12.77800 20.99600
H  41.97100 12.83400 26.76500
H  40.87000 14.26200 27.24500
H  41.22500 12.83300 28.29700
H  44.38500 14.79400 32.37400
H  42.45900 16.57800 35.41100
H  41.05100 16.16800 34.65500
H  41.63100 17.69000 34.11700
Mg 36.51500 49.37700 25.76300
C  37.00000 47.56300 28.80200
C  35.30000 51.98700 27.52800
C  35.73800 50.83500 22.80600
C  37.70100 46.58100 24.05800
N  36.27300 49.73900 27.91100
C  36.49300 48.90200 28.96200
C  36.18900 49.61600 30.31700
C  35.48300 50.95800 29.83400
C  35.66400 50.88200 28.30100
C  34.03800 51.13400 30.37800
C  37.44200 49.95400 31.21900
C  37.20700 49.70800 32.76400
H  35.88900 49.90800 33.48500
N  35.74600 51.28500 25.17600
C  35.25800 52.18000 26.09800
C  34.77500 53.32600 25.35000
C  34.98200 53.08400 23.93700
C  35.46400 51.67600 23.88200
C  34.18500 54.57200 25.98800
C  34.79100 53.94700 22.84200
O  35.18600 53.68600 21.72600
C  34.23800 55.28400 23.10600
N  36.59600 48.74600 23.75500
C  36.31500 49.59200 22.65500
C  36.63300 48.92700 21.35400
C  37.56000 47.78400 21.81600
C  37.35000 47.67700 23.28200
C  35.39500 48.52600 20.42300
C  39.09200 47.96500 21.54500
C  39.91100 46.70500 21.34000
N  37.07700 47.44100 26.27600
C  37.58300 46.45900 25.45300
C  37.74700 45.17200 26.21400
C  37.61600 45.62100 27.55400
C  37.21800 46.99900 27.53100
C  38.18300 43.85600 25.68600
C  37.69000 45.20600 28.95200
O  38.08900 44.14000 29.40000
C  37.28500 46.47900 29.90000
C  36.02500 46.01600 30.66900
O  34.87100 46.14100 30.27800
O  36.31100 45.41500 31.88400
C  35.15300 44.99100 32.71400
H  34.98200 52.87500 28.07700
H  35.71500 51.19500 21.77500
H  38.02700 45.83700 23.32900
H  35.42100 49.09900 30.89300
H  36.07200 51.76800 30.26500
H  33.92500 52.06400 30.93300
H  33.72200 50.29500 30.99800
H  33.27800 51.18800 29.59800
H  37.75400 50.99400 31.12000
H  38.34700 49.44800 30.88100
H  38.03800 50.26300 33.19800
H  37.45600 48.65200 32.86400
H  33.12600 54.68700 25.75500
H  34.78800 55.45600 25.78600
H  34.26000 54.33600 27.05000
H  33.22300 55.25700 23.50200
H  34.39700 55.86000 22.19400
H  34.90200 55.95400 23.65200
H  37.09200 49.65500 20.68600
H  37.16700 46.87500 21.36100
H  34.63000 48.29200 21.16400
H  35.51900 47.71800 19.70300
H  35.18000 49.41700 19.83400
H  39.39900 48.56000 22.40600
H  39.19800 48.58200 20.65300
H  39.21300 45.93300 21.01700
H  40.36800 46.39700 22.28100
H  40.62800 46.96500 20.56200
H  38.80200 44.02700 24.80500
H  37.33800 43.27800 25.31100
H  38.72700 43.43400 26.53100
H  38.11600 46.72400 30.56200
H  34.48400 44.31800 32.17800
H  34.53400 45.87500 32.86600
H  35.35900 44.37500 33.59000

