158

Mg 35.99900 49.57800 25.12200
C  36.47400 47.99300 28.24600
C  35.33700 52.45700 26.84200
C  35.70300 51.11400 22.19800
C  37.22300 46.86000 23.59600
N  35.88200 50.09900 27.20800
C  36.13000 49.37200 28.35200
C  35.75000 50.08800 29.64500
C  35.23400 51.49300 29.14700
C  35.49400 51.35200 27.62900
C  33.68900 51.73900 29.56000
C  36.95900 50.19500 30.64000
C  36.70200 49.57100 32.01500
H  35.28500 49.74400 32.68900
N  35.57700 51.52200 24.53500
C  35.36900 52.59100 25.46000
C  35.18600 53.74100 24.63600
C  35.24800 53.35000 23.30300
C  35.50000 51.96100 23.28600
C  34.73800 55.13400 25.22600
C  34.89700 54.20000 21.97000
O  34.86100 53.78000 20.81900
C  34.68400 55.67000 22.08200
N  36.31000 49.05700 23.25000
C  36.14900 49.87800 22.16200
C  36.41800 49.12200 20.89000
C  37.25800 47.88700 21.33700
C  36.73400 47.84200 22.79500
C  35.07300 48.77900 20.15300
C  38.79800 47.96100 21.24800
C  39.36400 46.84200 20.32000
N  36.43000 47.68400 25.70100
C  36.96900 46.67400 24.95100
C  37.26500 45.56000 25.78500
C  37.11400 46.07700 27.07400
C  36.60400 47.31200 26.98900
C  37.84200 44.24600 25.31500
C  37.26000 45.77500 28.48900
O  37.53500 44.70200 29.05100
C  36.75800 46.95800 29.25500
C  35.58700 46.46000 30.03800
O  34.47800 46.28400 29.55300
O  36.01300 46.11600 31.30200
C  34.92100 45.50200 32.12900
H  34.92100 53.35000 27.31500
H  35.72800 51.58000 21.21100
H  37.72800 46.07300 23.03200
H  34.89900 49.56200 30.07600
H  35.82500 52.26700 29.63800
H  32.95300 51.34800 28.85800
H  33.38600 52.77800 29.68600
H  33.63900 51.21600 30.51500
H  37.36400 51.18800 30.83700
H  37.77700 49.61000 30.21900
H  37.44400 50.00700 32.68300
H  36.97200 48.51900 31.92000
H  35.43600 55.79100 24.70600
H  34.72500 55.09100 26.31500
H  33.73700 55.35900 24.85900
H  33.69200 55.99700 22.39600
H  34.74700 56.09100 21.07900
H  35.47000 56.23400 22.58400
H  36.93900 49.73400 20.15400
H  36.90200 47.04100 20.74900
H  34.24800 49.26000 20.67700
H  34.86400 47.70900 20.17700
H  35.19700 49.14000 19.13200
H  39.22100 47.67300 22.21100
H  39.11400 48.95600 20.93700
H  39.75600 47.16400 19.35500
H  38.71800 45.96900 20.22800
H  40.14200 46.37300 20.92200
H  37.33500 43.50300 25.93100
H  38.90600 44.18400 25.54400
H  37.57200 44.11900 24.26700
H  37.58700 47.30600 29.87200
H  33.92200 45.80000 31.81400
H  34.96900 45.92400 33.13300
H  35.02400 44.41700 32.13200
Mg -11.04600 38.55500 41.49500
C  -9.04500 35.67400 40.91900
C  -8.50500 40.31900 39.57000
C  -13.21300 41.07900 40.93500
C  -13.63400 36.45500 42.44000
N  -9.06800 38.07900 40.38800
C  -8.50300 36.82600 40.23100
C  -7.17500 36.87200 39.53800
C  -6.91900 38.41400 39.32500
C  -8.15900 39.03100 39.93200
C  -5.64500 38.99200 39.99700
C  -7.16200 36.04000 38.21900
C  -5.89600 35.08000 38.17300
H  -4.78300 35.52800 37.14100
N  -10.82600 40.51400 40.56800
C  -9.75300 40.96800 39.83100
C  -10.04800 42.34000 39.46200
C  -11.31100 42.70200 40.03800
C  -11.85300 41.39800 40.57900
C  -9.08000 43.19500 38.69000
C  -12.04900 44.03200 39.96700
O  -11.54300 45.02700 39.43300
C  -13.43100 44.29800 40.81200
N  -13.03500 38.76400 41.60400
C  -13.70300 39.93700 41.49200
C  -15.22100 39.88400 41.86100
C  -15.43900 38.40400 42.21600
C  -13.93100 37.83800 42.12600
C  -15.57800 40.95900 42.97500
C  -16.54600 37.53500 41.50400
C  -17.40700 36.59800 42.45700
N  -11.26700 36.48000 42.00900
C  -12.36100 35.85900 42.41100
C  -12.02500 34.43000 42.61400
C  -10.66000 34.36800 42.07500
C  -10.30200 35.58900 41.59600
C  -12.86800 33.43400 43.28900
C  -9.45800 33.48600 41.79600
O  -9.18900 32.37200 42.17300
C  -8.57800 34.25800 40.82500
C  -7.14400 33.97300 41.18800
O  -6.57300 32.93600 40.89300
O  -6.66400 34.95200 41.99100
C  -5.27900 34.92800 42.48300
H  -7.75200 40.75300 38.90900
H  -13.91000 41.90000 40.75800
H  -14.53300 35.84000 42.52200
H  -6.41100 36.45500 40.19400
H  -7.02300 38.72800 38.28600
H  -5.91200 39.18400 41.03600
H  -5.33700 39.85400 39.40600
H  -4.76200 38.35400 39.96600
H  -6.95900 36.69700 37.37300
H  -8.07600 35.46000 38.08600
H  -6.26800 34.12400 37.80600
H  -5.42600 35.00300 39.15400
H  -9.52200 44.13700 38.36600
H  -8.88300 42.64000 37.77200
H  -8.28100 43.55700 39.33600
H  -13.31700 43.85800 41.80300
H  -14.21700 43.87600 40.18500
H  -13.54500 45.38000 40.87800
H  -15.87700 40.13900 41.02900
H  -15.70100 38.42400 43.27300
H  -14.67800 41.12100 43.56800
H  -16.36400 40.64100 43.65900
H  -15.96300 41.77100 42.35700
H  -15.99200 36.89300 40.82000
H  -17.16700 38.19100 40.89400
H  -17.62500 37.07000 43.41500
H  -16.89500 35.64000 42.54500
H  -18.28700 36.45500 41.83000
H  -13.88300 33.82900 43.33700
H  -12.48200 33.24500 44.29000
H  -12.68900 32.54900 42.67900
H  -8.64000 33.96900 39.77600
H  -5.15400 35.43100 43.44200
H  -4.52100 35.24500 41.76700
H  -5.08400 33.87300 42.67800

