158

Mg 16.03600 -1.62800 27.92200
C  15.13000 0.38600 30.57500
C  18.06400 -3.36000 30.02300
C  17.32300 -3.25400 25.28500
C  13.97700 0.15200 25.82500
N  16.56400 -1.45500 30.03000
C  16.11300 -0.55000 30.98500
C  16.64700 -0.79600 32.36200
C  17.70700 -1.96400 32.12300
C  17.31900 -2.44800 30.66000
C  19.17500 -1.54700 32.50100
C  15.50700 -1.09600 33.41300
C  15.28900 0.04800 34.49000
H  16.44800 0.92600 35.01900
N  17.36700 -3.24800 27.75300
C  18.13400 -3.81300 28.71700
C  18.91900 -4.90800 28.26900
C  18.67700 -5.02500 26.86400
C  17.76500 -3.80300 26.54700
C  19.77000 -5.63700 29.27600
C  19.23700 -6.03100 25.83200
O  18.89300 -5.94400 24.62800
C  20.13000 -7.18300 26.21800
N  15.69700 -1.45600 25.88800
C  16.52100 -2.12500 24.97500
C  16.23900 -1.73100 23.50400
C  14.94600 -0.89200 23.70200
C  14.74200 -0.77700 25.19900
C  17.43600 -1.06200 22.75700
C  13.68300 -1.21600 22.88100
C  13.70600 -1.19100 21.34400
N  14.84700 0.05700 28.08500
C  14.00100 0.63400 27.13100
C  13.22600 1.65500 27.71500
C  13.58400 1.51300 29.09400
C  14.63400 0.59700 29.23900
C  12.31100 2.69300 27.00500
C  13.32600 2.07000 30.39900
O  12.44900 2.87600 30.68500
C  14.31400 1.42400 31.38500
C  15.15500 2.55900 31.99600
O  16.34500 2.79400 31.76000
O  14.45800 3.37800 32.87400
C  15.25900 4.47100 33.49500
H  18.63600 -3.85300 30.81200
H  17.75100 -3.67600 24.37300
H  13.32900 0.74100 25.17200
H  17.09100 0.18200 32.54900
H  17.43200 -2.79000 32.78000
H  19.75500 -1.39400 31.59200
H  19.57800 -2.38100 33.07600
H  19.26900 -0.76000 33.25000
H  15.59300 -2.09900 33.83000
H  14.49800 -1.13400 33.00100
H  14.84500 -0.45200 35.35000
H  14.52600 0.75600 34.16600
H  20.73500 -5.13100 29.31500
H  19.81600 -6.69000 29.00000
H  19.29200 -5.58800 30.25400
H  20.90600 -6.71900 26.82600
H  20.46100 -7.71800 25.32800
H  19.39600 -7.78300 26.75700
H  15.92500 -2.59200 22.91300
H  15.20400 0.11300 23.36800
H  17.67200 -1.68800 21.89700
H  18.26500 -0.76200 23.39900
H  17.00600 -0.21300 22.22500
H  12.96100 -0.50600 23.28600
H  13.26000 -2.19200 23.11700
H  13.08900 -0.34700 21.03600
H  13.43900 -2.21300 21.07500
H  14.66300 -0.91700 20.89900
H  11.75000 3.24000 27.76300
H  11.60300 2.29700 26.27700
H  12.97700 3.33700 26.43000
H  13.66900 0.93800 32.11700
H  14.91000 5.45500 33.18100
H  16.34600 4.55200 33.48500
H  14.94800 4.42200 34.53900
Mg 24.67100 1.84700 29.45600
C  26.95900 1.61900 32.16100
C  22.10600 1.88400 31.69700
C  22.65000 2.00200 26.85800
C  27.38800 1.31400 27.32800
N  24.58900 1.74200 31.68100
C  25.63700 1.89300 32.56800
C  25.12200 2.11500 34.00600
C  23.57200 1.94300 33.89200
C  23.39500 1.89000 32.35300
C  22.81200 0.78200 34.73500
C  25.59500 3.36400 34.80100
C  24.97400 3.63800 36.20100
H  25.90300 3.40600 37.35700
N  22.69200 1.96000 29.34100
C  21.75600 1.90800 30.35100
C  20.41600 1.82300 29.77600
C  20.58100 1.80300 28.35000
C  22.03200 1.98000 28.12400
C  19.18600 1.80500 30.60600
C  19.48100 1.54300 27.30800
O  19.74900 1.57100 26.07600
C  18.00200 1.17700 27.78300
N  25.01300 1.80400 27.43900
C  23.99700 1.98000 26.49900
C  24.49100 1.87300 24.99900
C  26.10200 1.88900 25.24600
C  26.20100 1.59900 26.73500
C  23.98800 0.73000 24.22500
C  26.91000 3.16800 24.75900
C  26.68300 4.43500 25.53400
N  26.80300 1.53900 29.65700
C  27.71400 1.24700 28.67300
C  29.04500 1.04900 29.29500
C  28.78900 1.20600 30.73100
C  27.36600 1.43100 30.82800
C  30.37300 0.66900 28.62900
C  29.39900 1.20500 32.04200
O  30.57600 0.98500 32.30300
C  28.25300 1.57500 33.02000
C  28.19000 0.60200 34.11000
O  27.50400 -0.38600 34.20900
O  29.01600 0.95300 35.10800
C  29.19400 -0.02800 36.20400
H  21.31100 1.87300 32.44700
H  21.94900 1.98700 26.02100
H  28.18900 1.02300 26.64600
H  25.44600 1.22300 34.54300
H  23.04300 2.82500 34.25400
H  21.93900 0.96800 35.36100
H  23.57700 0.23600 35.28600
H  22.43800 0.14500 33.93400
H  25.33000 4.20000 34.15400
H  26.67900 3.24800 34.79200
H  24.09300 3.02000 36.37300
H  24.61100 4.66500 36.14700
H  18.83200 2.82900 30.48800
H  19.37100 1.79200 31.68000
H  18.51200 0.98800 30.34500
H  17.51700 1.92200 28.41300
H  18.14900 0.18200 28.20400
H  17.53700 0.83900 26.85600
H  24.21900 2.75400 24.41700
H  26.62300 1.11500 24.68400
H  23.00300 0.38900 24.54400
H  24.62100 -0.15700 24.27100
H  23.83500 0.92100 23.16300
H  26.47100 3.42700 23.79500
H  27.90900 2.88900 24.42600
H  26.37800 4.40700 26.58000
H  25.98900 5.08300 24.99700
H  27.67000 4.89600 25.54500
H  30.55100 1.33300 27.78400
H  30.44000 -0.33200 28.20400
H  31.12900 0.90600 29.37800
H  28.53200 2.54800 33.42600
H  28.49800 0.15300 37.02400
H  30.14600 0.09900 36.71900
H  29.15800 -1.03200 35.78000

