158

Mg 0.64200 7.18500 25.33000
C  1.29100 8.99900 28.25800
C  0.98800 4.30100 27.12500
C  0.37300 5.42900 22.38100
C  0.61000 10.17700 23.51700
N  1.15500 6.75500 27.43100
C  1.21500 7.60200 28.45500
C  1.13800 6.99900 29.75400
C  1.36800 5.47400 29.39400
C  1.12300 5.48600 27.86100
C  2.73800 4.92800 29.89900
C  -0.14700 7.24900 30.60100
C  0.01900 7.90200 31.98100
H  1.20100 7.39200 32.79100
N  0.82600 5.18800 24.85500
C  0.81500 4.12400 25.73200
C  0.82400 2.89100 25.06700
C  0.66100 3.15700 23.65900
C  0.57100 4.65600 23.55900
C  0.88400 1.57200 25.81700
C  0.42600 2.22400 22.49500
O  0.47400 2.59500 21.32800
C  0.33800 0.79000 22.75700
N  0.39400 7.71300 23.28300
C  0.26100 6.77200 22.25400
C  0.03500 7.50700 20.90600
C  -0.01500 9.03100 21.36000
C  0.31500 9.00800 22.83600
C  1.26200 7.31600 19.92500
C  -1.44800 9.62500 21.03900
C  -2.60200 9.11000 21.97100
N  0.72600 9.22600 25.75300
C  0.79700 10.32400 24.87800
C  1.17500 11.52800 25.66400
C  1.31300 11.00900 26.98500
C  1.11300 9.57900 27.00500
C  1.20100 12.94300 25.36200
C  1.52900 11.47800 28.36900
O  1.72100 12.59300 28.84100
C  1.53100 10.14900 29.19000
C  2.89200 9.96700 29.91500
O  3.79900 9.23400 29.57300
O  2.84700 10.75400 31.00300
C  3.82500 10.66000 32.15400
H  0.92600 3.39500 27.73200
H  0.45900 4.82600 21.47500
H  0.55300 11.08400 22.91100
H  1.94600 7.42300 30.35000
H  0.53600 4.96300 29.87800
H  3.05300 4.47100 28.96100
H  2.56400 4.11000 30.59900
H  3.48500 5.62400 30.28000
H  -0.82900 6.39900 30.60600
H  -0.73100 8.00200 30.07300
H  -0.86400 7.91200 32.62000
H  0.23100 8.95900 31.82500
H  0.47700 1.64200 26.82600
H  1.93300 1.27700 25.85200
H  0.32800 0.77700 25.31900
H  0.42000 0.29800 21.78800
H  -0.49200 0.29200 23.25900
H  1.20000 0.45800 23.33500
H  -0.89800 7.11300 20.50300
H  0.67500 9.73900 20.90000
H  2.05900 6.74300 20.39800
H  1.72100 8.24100 19.57700
H  0.93200 6.65200 19.12500
H  -1.55900 9.17800 20.05100
H  -1.37900 10.70900 20.94700
H  -3.36100 8.81700 21.24700
H  -2.97000 9.96600 22.53700
H  -2.30600 8.38800 22.73300
H  0.69600 13.16100 24.42000
H  2.23000 13.30000 25.34300
H  0.78600 13.50500 26.19800
H  0.70300 10.26200 29.88900
H  4.66800 11.35000 32.10100
H  4.21800 9.64500 32.10400
H  3.32300 10.59900 33.11900
Mg 26.06800 52.29200 25.56100
C  23.94200 52.95300 28.37900
C  28.46700 51.48100 27.76300
C  28.20100 52.33100 22.97300
C  23.56600 53.52000 23.45200
N  26.21600 52.36200 27.90000
C  25.18800 52.48700 28.75700
C  25.60600 52.05400 30.17900
C  27.12700 51.62000 29.95800
C  27.33700 51.82600 28.46100
C  28.09600 52.47100 30.81400
C  24.82500 50.94600 30.93400
C  24.25800 51.24600 32.34900
H  24.74500 50.47800 33.62500
N  28.11500 52.00700 25.42500
C  28.90900 51.65100 26.40500
C  30.21400 51.34600 25.85300
C  30.15900 51.57900 24.40300
C  28.81700 51.98300 24.22500
C  31.36100 50.67000 26.72500
C  31.22600 51.34100 23.32700
O  31.09500 51.59900 22.14800
C  32.54300 51.01900 23.83700
N  25.95800 52.79700 23.55400
C  26.93700 52.71400 22.62400
C  26.48200 53.17900 21.18600
C  24.95300 53.14600 21.40800
C  24.81500 53.20200 22.91700
C  26.98100 54.58100 20.78600
C  24.33800 51.86200 20.82600
C  23.92600 51.89200 19.38900
N  24.16600 53.05800 25.72100
C  23.19400 53.39500 24.75200
C  21.95100 53.71200 25.46600
C  22.23600 53.56900 26.85300
C  23.56200 53.15300 26.97500
C  20.64500 53.97200 24.81100
C  21.62700 53.61600 28.17900
O  20.54900 53.97700 28.63000
C  22.76800 53.11200 29.16500
C  22.86800 54.24200 30.10100
O  23.61200 55.20100 30.03400
O  22.04700 54.01000 31.15000
C  22.22700 54.86300 32.42400
H  29.19600 51.01000 28.42700
H  28.73100 52.36500 22.01900
H  22.77000 53.80800 22.76200
H  25.50000 52.99500 30.71900
H  27.30600 50.58200 30.23600
H  28.77500 51.85700 31.40600
H  27.51100 53.15900 31.42500
H  28.75800 53.09000 30.20900
H  25.43000 50.08300 31.21200
H  23.94300 50.72300 30.33400
H  23.17000 51.19000 32.39200
H  24.44000 52.29800 32.56800
H  31.73400 49.79300 26.19600
H  31.12900 50.40900 27.75700
H  32.21400 51.34300 26.81700
H  32.53700 49.97900 24.16500
H  32.76500 51.74600 24.61800
H  33.27600 51.27100 23.07100
H  26.72400 52.43400 20.42800
H  24.46300 54.01400 20.96700
H  26.90400 54.50300 19.70100
H  28.03500 54.58800 21.06200
H  26.41100 55.41300 21.20000
H  23.36900 51.77000 21.31700
H  24.89000 50.99700 21.19500
H  24.36400 52.70500 18.81000
H  22.84700 51.84600 19.23700
H  24.29400 51.02000 18.85000
H  20.70900 53.61900 23.78200
H  20.48900 55.03700 24.64300
H  19.90700 53.44100 25.41300
H  22.57600 52.24800 29.80100
H  22.91700 54.27400 33.02900
H  21.23300 54.96700 32.85900
H  22.57500 55.88000 32.24500

