158

Mg -1.71100 17.26400 25.89400
C  -2.23100 14.96600 28.46300
C  -2.95800 19.69700 28.08800
C  -1.55000 19.50300 23.40700
C  -1.25700 14.65900 23.68900
N  -2.53400 17.23100 28.06200
C  -2.52500 16.24100 28.89500
C  -3.07600 16.64400 30.29100
C  -3.76200 18.01200 29.96600
C  -3.03400 18.40200 28.61000
C  -5.30300 17.79900 29.69700
C  -1.95200 16.74900 31.37200
C  -2.17300 16.24700 32.78500
H  -0.97900 16.50200 33.74000
N  -2.14700 19.33200 25.75400
C  -2.57100 20.14300 26.79900
C  -2.68500 21.49600 26.34200
C  -2.24700 21.46800 24.98500
C  -2.01800 20.05000 24.63800
C  -3.14400 22.71800 27.21000
C  -2.00500 22.64000 24.12500
O  -1.74300 22.59200 22.90400
C  -1.77600 23.97600 24.76200
N  -1.39500 17.10100 23.83700
C  -1.41500 18.15200 23.02500
C  -1.10400 17.62200 21.62300
C  -0.67100 16.20900 21.78500
C  -1.13000 15.98100 23.17800
C  -2.19800 17.93700 20.53300
C  0.76200 15.69100 21.56700
C  1.89400 16.33900 22.32500
N  -1.72800 15.31000 26.02500
C  -1.56100 14.34000 25.01700
C  -1.67200 13.06100 25.59700
C  -2.02600 13.21200 26.94200
C  -1.93400 14.62200 27.18500
C  -1.46400 11.80800 24.81600
C  -2.34100 12.49900 28.14400
O  -2.37500 11.27900 28.41700
C  -2.47300 13.65300 29.20200
C  -1.55100 13.36000 30.31100
O  -0.46800 13.88500 30.40300
O  -2.03700 12.36600 31.05100
C  -1.26800 11.94500 32.24000
H  -3.28500 20.50900 28.74000
H  -1.33200 20.24700 22.63800
H  -0.94700 13.88600 22.98200
H  -3.71200 15.84900 30.67900
H  -3.62900 18.74000 30.76600
H  -5.64000 18.23900 28.75900
H  -5.81300 18.27000 30.53800
H  -5.44300 16.72300 29.79900
H  -1.60900 17.78300 31.40200
H  -1.04800 16.26900 30.99700
H  -2.44000 15.20000 32.93000
H  -2.98000 16.86500 33.17900
H  -3.92900 23.21700 26.64300
H  -2.34100 23.42000 27.43600
H  -3.60400 22.35200 28.12800
H  -2.62200 24.47900 25.22900
H  -1.34200 24.71200 24.08500
H  -1.06000 23.81800 25.56800
H  -0.21900 18.18400 21.32300
H  -1.30100 15.58500 21.15000
H  -3.08600 17.45000 20.93700
H  -1.93800 17.60800 19.52800
H  -2.29500 19.02200 20.49100
H  0.99400 15.67400 20.50200
H  0.87500 14.62500 21.76300
H  2.30100 15.70200 23.11100
H  1.58600 17.27400 22.79200
H  2.75300 16.49600 21.67300
H  -0.85400 11.87200 23.91500
H  -2.45500 11.63300 24.39800
H  -1.17100 10.94800 25.42000
H  -3.46700 13.68300 29.64800
H  -0.74800 12.80300 32.66700
H  -0.46900 11.24400 31.99800
H  -1.84800 11.54100 33.07000
Mg 48.48800 14.72700 28.01000
C  46.08000 14.75900 30.62300
C  50.30500 16.79900 30.02800
C  50.97100 14.36500 25.87000
C  46.28000 12.87100 25.98700
N  48.23700 15.61600 30.13600
C  47.23400 15.44700 30.96700
C  47.52700 16.05400 32.36200
C  48.81700 16.78000 32.11100
C  49.08600 16.47000 30.59800
C  48.77800 18.28600 32.27900
C  47.69700 14.89700 33.42500
C  47.42100 15.21700 34.93100
H  48.66200 15.14600 35.83200
N  50.32000 15.62300 27.91200
C  50.86800 16.42600 28.79400
C  52.17100 16.84500 28.36000
C  52.50900 15.98000 27.26600
C  51.26000 15.27700 26.96600
C  52.88300 18.07400 28.85000
C  53.76300 15.87600 26.39400
O  53.83700 15.07400 25.46700
C  55.02100 16.68200 26.68600
N  48.54400 13.86800 26.10000
C  49.78100 13.71700 25.46000
C  49.63800 12.71900 24.34500
C  48.11100 12.43300 24.21300
C  47.60000 13.15600 25.51200
C  50.31900 13.11500 23.08700
C  47.69100 10.94100 24.03600
C  46.81400 10.70100 22.80200
N  46.58600 14.00300 28.17500
C  45.81400 13.35300 27.26700
C  44.48300 13.15400 27.92000
C  44.54600 13.70300 29.16700
C  45.87800 14.13800 29.35800
C  43.33000 12.40500 27.31900
C  43.84800 13.93100 30.33400
O  42.65100 13.79200 30.51600
C  44.79800 14.51400 31.38400
C  44.22000 15.71400 31.98400
O  44.03100 16.78200 31.45000
O  43.88300 15.41900 33.29700
C  42.83400 16.30500 33.95700
H  50.98700 17.31000 30.71000
H  51.76000 14.17400 25.13900
H  45.57800 12.30500 25.37200
H  46.64900 16.61500 32.68300
H  49.69700 16.37000 32.60800
H  47.85700 18.56300 32.79100
H  48.85800 18.77300 31.30700
H  49.56200 18.74200 32.88300
H  48.76400 14.69600 33.32700
H  47.29200 13.96600 33.02800
H  46.72200 14.44600 35.25600
H  47.05800 16.24500 34.93900
H  53.65300 17.61000 29.46600
H  52.25700 18.67500 29.50900
H  53.32900 18.67700 28.05900
H  55.07400 17.65100 27.18400
H  55.45900 16.68500 25.68800
H  55.58500 15.96500 27.28200
H  50.07800 11.84700 24.82900
H  47.71400 13.12900 23.47400
H  51.30000 12.64700 23.00900
H  50.48500 14.19200 23.06300
H  49.66200 12.74400 22.30100
H  47.27800 10.62300 24.99400
H  48.62900 10.44300 23.79100
H  47.31400 10.10300 22.04000
H  46.63600 11.65600 22.30900
H  45.85400 10.22300 22.99600
H  43.66700 11.69300 26.56600
H  42.58800 13.06500 26.87100
H  42.82600 11.83000 28.09600
H  44.93200 13.76000 32.15900
H  43.26200 17.27200 34.22100
H  42.51000 15.69300 34.79900
H  41.92900 16.37400 33.35400

