158

Mg 8.18000 3.03100 27.06200
C  9.36200 1.50300 30.13500
C  6.31700 5.04600 28.99700
C  6.52600 3.82700 24.36200
C  9.89700 0.53900 25.37300
N  7.72000 3.07600 29.37100
C  8.54600 2.59800 30.34200
C  8.13000 3.17100 31.70000
C  7.08900 4.28100 31.29000
C  6.95200 4.07200 29.77500
C  5.67200 4.32000 32.05600
C  9.39200 3.82200 32.45700
C  9.69800 3.36700 33.95100
H  10.11900 4.43300 35.01600
N  6.81000 4.47500 26.64600
C  6.17000 5.27100 27.57200
C  5.17400 6.07800 26.86000
C  5.18700 5.73300 25.53300
C  6.21100 4.72500 25.42200
C  4.34200 7.11600 27.53700
C  4.39200 6.23400 24.32000
O  4.51100 5.86100 23.17500
C  3.33600 7.27200 24.51600
N  8.34700 2.43300 25.10200
C  7.49100 2.86200 24.18100
C  7.70700 2.07600 22.82400
C  8.98600 1.21700 23.12500
C  9.08600 1.38000 24.64300
C  6.40400 1.24900 22.48900
C  10.28500 1.55500 22.25300
C  11.17100 0.35700 21.87600
N  9.28000 1.35100 27.54900
C  10.00200 0.46900 26.78900
C  10.88200 -0.39500 27.51900
C  10.59500 -0.05200 28.87900
C  9.64600 0.99700 28.85900
C  11.83300 -1.42500 26.98900
C  10.88300 -0.43000 30.22000
O  11.56300 -1.29700 30.71000
C  10.15100 0.66500 31.14600
C  9.30100 -0.09500 32.05200
O  8.20100 -0.57700 31.73700
O  9.75200 -0.05400 33.31600
C  8.81400 -0.53300 34.36300
H  5.72000 5.68800 29.64800
H  5.93400 4.13000 23.49600
H  10.41200 -0.24600 24.81600
H  7.56600 2.41900 32.25300
H  7.60900 5.23500 31.38000
H  4.88600 3.93700 31.40500
H  5.56000 5.36900 32.33200
H  5.68500 3.68200 32.93900
H  9.15700 4.87200 32.63500
H  10.29600 3.89300 31.85200
H  10.57700 2.72500 34.00000
H  8.91600 2.66000 34.22900
H  4.43000 7.13000 28.62300
H  3.34000 6.77300 27.27800
H  4.54600 8.08900 27.08900
H  2.79800 7.46600 23.58800
H  3.71500 8.24600 24.82600
H  2.52200 6.91600 25.14900
H  7.95900 2.79400 22.04400
H  8.76500 0.15100 23.16500
H  5.73500 1.32800 23.34500
H  6.81600 0.24100 22.43800
H  5.98700 1.56200 21.53200
H  10.90900 2.14000 22.92800
H  9.92300 2.15200 21.41500
H  11.14300 0.16400 20.80400
H  10.70000 -0.50600 22.34900
H  12.08500 0.39000 22.46800
H  12.68200 -0.80000 26.71100
H  11.41100 -1.97800 26.15000
H  12.10500 -2.11600 27.78600
H  10.90900 1.24400 31.67200
H  8.43900 -1.54800 34.23300
H  7.95000 0.13200 34.39900
H  9.38300 -0.53300 35.29300
Mg 54.64200 23.99800 45.57400
C  52.23000 26.40800 44.64400
C  52.34200 21.50000 44.54900
C  57.05900 21.66400 45.67700
C  56.72900 26.47000 46.47400
N  52.60600 23.93300 44.51200
C  51.77700 25.08500 44.37800
C  50.45900 24.62500 43.74500
C  50.42600 23.12900 44.16400
C  51.87800 22.77900 44.42400
C  49.52800 22.75400 45.39600
C  50.47100 24.93100 42.22000
C  50.63800 23.76900 41.16300
H  51.85400 22.79900 41.17300
N  54.72100 21.82600 45.16200
C  53.67300 21.07500 44.76000
C  54.14300 19.68400 44.57500
C  55.54800 19.72500 44.87300
C  55.85800 21.08500 45.30400
C  53.25600 18.52400 44.15900
C  56.60400 18.53600 44.72100
O  56.31200 17.39700 44.29000
C  58.06000 18.64900 45.08100
N  56.61000 24.10500 45.77400
C  57.38400 23.02000 45.91300
C  58.87700 23.43400 46.21300
C  58.74400 24.93100 46.66400
C  57.26400 25.21400 46.24800
C  59.59300 22.60100 47.21900
C  59.76200 25.87400 45.88300
C  59.78600 25.99000 44.34000
N  54.48200 26.07600 45.75900
C  55.46900 26.99800 46.12900
C  54.83100 28.28800 46.23400
C  53.59500 28.14500 45.55900
C  53.44000 26.76700 45.32900
C  55.40500 29.54600 46.86800
C  52.37600 28.78300 45.11400
O  52.12200 29.97300 45.12500
C  51.55100 27.75500 44.42800
C  51.45800 28.04300 43.02200
O  52.43200 28.23900 42.27700
O  50.18400 28.08200 42.58800
C  49.95300 28.30100 41.11200
H  51.60200 20.73100 44.31800
H  57.98400 21.11200 45.85700
H  57.38200 27.20700 46.94700
H  49.72100 25.18900 44.31600
H  49.96700 22.35600 43.54700
H  49.07400 23.58900 45.93000
H  50.19700 22.18000 46.03700
H  48.75600 22.05200 45.08000
H  51.36600 25.55300 42.21600
H  49.57900 25.51300 41.99000
H  50.59500 24.26000 40.19100
H  49.73600 23.16400 41.25800
H  52.94100 18.69800 43.13000
H  52.44100 18.30300 44.84700
H  53.87400 17.62900 44.09000
H  58.55900 17.70500 44.86300
H  58.12200 18.89300 46.14100
H  58.52500 19.47800 44.54600
H  59.31100 23.45500 45.21300
H  58.77400 25.06900 47.74500
H  60.05600 21.74900 46.72100
H  59.07700 22.50000 48.17400
H  60.49300 23.11600 47.55400
H  60.73800 25.50700 46.19800
H  59.68800 26.87700 46.30300
H  60.74800 25.74700 43.88800
H  59.50200 27.02700 44.16100
H  59.12100 25.22900 43.93300
H  54.99300 29.69000 47.86700
H  55.15200 30.36300 46.19200
H  56.48800 29.48000 46.97400
H  50.58400 27.66000 44.92100
H  50.37700 29.28900 40.93300
H  48.89200 28.26600 40.86600
H  50.47200 27.54200 40.52700

