158

Mg 25.12200 -0.04000 29.10300
C  27.02500 -0.37800 32.04500
C  22.33900 0.43300 31.04500
C  23.38500 -0.10000 26.28700
C  27.95200 -1.12400 27.28600
N  24.72800 0.03500 31.32900
C  25.71600 0.02700 32.29800
C  25.14500 0.44700 33.69700
C  23.66700 0.61200 33.34000
C  23.52700 0.29600 31.82200
C  22.71900 -0.15400 34.24200
C  25.94900 1.58400 34.36700
C  25.21900 2.61000 35.27900
H  25.66900 2.69200 36.75900
N  23.17100 0.11900 28.71800
C  22.17500 0.27400 29.62100
C  20.96600 0.52600 28.88900
C  21.18900 0.38100 27.52500
C  22.62500 0.14700 27.45000
C  19.68600 0.94100 29.58900
C  20.28600 0.53600 26.32700
O  20.64900 0.61200 25.12300
C  18.76600 0.69700 26.66200
N  25.61700 -0.79500 27.15400
C  24.68700 -0.55800 26.15800
C  25.29900 -0.78100 24.77500
C  26.88700 -0.94700 25.02900
C  26.84300 -0.94900 26.56400
C  24.77500 -2.00400 23.99700
C  27.76300 0.15600 24.52500
C  27.54400 1.68200 24.87400
N  27.12800 -0.49200 29.49900
C  28.11700 -0.90200 28.66800
C  29.31200 -0.88600 29.40800
C  28.96900 -0.70700 30.68000
C  27.56500 -0.51100 30.75800
C  30.73800 -1.22700 28.85000
C  29.47400 -0.59300 32.02100
O  30.64700 -0.62600 32.42100
C  28.25400 -0.44200 32.97300
C  28.21100 -1.48100 33.99200
O  27.84900 -2.68800 33.90700
O  28.56800 -0.89200 35.11100
C  28.66400 -1.77000 36.27400
H  21.45600 0.66800 31.64300
H  22.90300 0.02900 25.31600
H  28.88800 -1.29600 26.75200
H  25.26500 -0.44600 34.31100
H  23.40500 1.66900 33.31500
H  23.07500 -0.17300 35.27200
H  22.54500 -1.15900 33.85800
H  21.73500 0.30000 34.12800
H  26.33500 2.13000 33.50600
H  26.76300 1.14000 34.94000
H  24.14200 2.44500 35.23900
H  25.37600 3.61900 34.89800
H  19.86900 1.56600 30.46300
H  19.21400 0.02600 29.94500
H  19.04000 1.54500 28.95200
H  18.53400 1.73200 26.90800
H  18.41600 0.00800 27.43100
H  18.18500 0.45800 25.77100
H  25.17400 0.13100 24.19200
H  27.18600 -1.93500 24.68100
H  23.93000 -2.36500 24.58400
H  25.40400 -2.89400 24.00300
H  24.41300 -1.69700 23.01600
H  27.64800 0.25700 23.44500
H  28.79100 -0.15400 24.71300
H  27.04000 1.66200 25.84000
H  26.90200 2.12600 24.11400
H  28.52000 2.16700 24.86600
H  31.02100 -0.49700 28.09200
H  30.73300 -2.07900 28.17000
H  31.51100 -1.17900 29.61700
H  28.40500 0.56700 33.35900
H  27.75300 -1.61400 36.85100
H  29.45000 -1.30500 36.87000
H  28.90000 -2.82600 36.14100
Mg 16.77100 51.83100 24.64200
C  18.55100 50.90100 27.41000
C  13.99000 52.31200 26.62900
C  14.78200 52.13100 21.80700
C  19.45100 51.09100 22.53100
N  16.41500 51.87200 26.86500
C  17.27600 51.40300 27.82800
C  16.68000 51.55500 29.23200
C  15.16000 51.90100 28.91000
C  15.17500 51.98300 27.36300
C  14.09100 51.03800 29.55400
C  17.39500 52.73200 30.00900
C  17.91200 52.47900 31.46800
H  17.11500 51.64500 32.53900
N  14.73000 52.28700 24.31100
C  13.80400 52.50900 25.23100
C  12.54100 52.93600 24.62500
C  12.76300 52.88900 23.14900
C  14.14000 52.38500 23.05900
C  11.33400 53.31400 25.40800
C  11.85500 53.27100 22.00900
O  12.05900 53.18000 20.77300
C  10.60100 53.96000 22.33700
N  17.11000 51.55000 22.36500
C  16.09800 51.79200 21.45300
C  16.67200 51.90800 20.07000
C  18.29100 51.68100 20.35100
C  18.35200 51.50700 21.80900
C  16.05300 50.91200 19.00900
C  19.21900 52.81200 19.80800
C  19.06400 53.13600 18.24400
N  18.57800 51.11700 24.83100
C  19.59900 50.81400 23.92500
C  20.68000 50.15900 24.60600
C  20.28400 50.23800 25.98500
C  19.06100 50.87100 26.11400
C  21.95500 49.58300 23.99000
C  20.73100 49.83200 27.31400
O  21.68600 49.24600 27.72000
C  19.69800 50.34700 28.23000
C  19.32000 49.23200 29.19500
O  18.65000 48.29200 28.90700
O  19.79200 49.63400 30.41400
C  19.56400 48.74800 31.53400
H  13.23600 52.57600 27.37400
H  14.12600 52.06200 20.93600
H  20.30900 50.92500 21.87600
H  16.82100 50.68200 29.86900
H  14.86300 52.90500 29.21400
H  14.56900 50.31400 30.21400
H  13.51100 50.57700 28.75500
H  13.39200 51.64100 30.13500
H  16.65600 53.52800 30.10100
H  18.22700 53.13200 29.42900
H  17.88900 53.48300 31.89300
H  18.98000 52.25800 31.48100
H  11.42600 53.04400 26.46000
H  10.50400 52.68500 25.08700
H  11.17400 54.38300 25.26300
H  9.95500 54.12300 21.47500
H  10.83100 54.91400 22.81300
H  10.03500 53.29000 22.98400
H  16.51700 52.93400 19.73900
H  18.71700 50.77500 19.92100
H  15.60300 51.40500 18.14700
H  15.26700 50.35300 19.51800
H  16.80700 50.20900 18.65600
H  20.25500 52.47800 19.85600
H  19.16300 53.78200 20.30300
H  18.74600 54.16300 18.06500
H  18.50500 52.36100 17.72000
H  20.00600 53.29100 17.71700
H  22.51400 50.36700 23.47900
H  21.55600 48.86800 23.27000
H  22.71900 49.15400 24.63900
H  20.24400 51.09400 28.80500
H  19.77200 49.23900 32.48500
H  20.22600 47.88200 31.52600
H  18.50700 48.49000 31.46100

