158

Mg 47.00600 17.30800 28.95800
C  45.02800 16.99700 31.78500
C  49.34200 19.18300 30.90800
C  48.72900 18.21200 26.14200
C  44.51700 15.88000 27.02000
N  47.09600 18.10900 31.05300
C  46.26700 17.66600 32.03100
C  46.75300 18.19500 33.44300
C  47.98500 19.11300 33.08100
C  48.19100 18.80600 31.57900
C  47.92900 20.68900 33.38900
C  46.97800 16.98800 34.37900
C  46.78500 17.25200 35.88700
H  46.42300 18.67600 36.37900
N  48.85000 18.56900 28.58200
C  49.62000 19.17100 29.49700
C  50.63600 19.94900 28.78600
C  50.46300 19.68800 27.35900
C  49.33600 18.77800 27.29900
C  51.59400 20.84100 29.49800
C  51.24700 20.18100 26.13500
O  50.99100 19.87900 25.00500
C  52.22900 21.36000 26.33900
N  46.74500 17.05900 26.93900
C  47.62300 17.31800 25.98000
C  47.25300 16.75900 24.60200
C  46.02000 15.85200 24.96600
C  45.72800 16.26700 26.44300
C  46.98300 17.88600 23.57200
C  46.30300 14.25100 24.81300
C  45.64000 13.56900 23.64800
N  45.19300 16.39200 29.32900
C  44.24900 15.88400 28.47300
C  43.10500 15.47000 29.22900
C  43.38600 15.85500 30.53900
C  44.63000 16.45900 30.55900
C  41.90300 14.87500 28.71800
C  42.97300 15.84200 31.96000
O  41.93200 15.43500 32.49400
C  43.90400 16.79400 32.78200
C  43.09100 18.04800 33.05400
O  42.95400 18.96200 32.28500
O  42.65500 17.97600 34.33400
C  41.97500 19.22700 34.80000
H  50.14300 19.54600 31.55600
H  49.28200 18.48300 25.23900
H  43.78000 15.31300 26.44900
H  45.96800 18.80800 33.88500
H  48.82000 18.76700 33.69100
H  47.78700 21.20100 32.43800
H  48.87300 20.98200 33.85000
H  47.06900 21.00100 33.98100
H  47.96700 16.56200 34.20700
H  46.20300 16.24200 34.20200
H  47.76000 17.00000 36.30400
H  46.07100 16.61200 36.40600
H  51.26600 21.84300 29.22300
H  52.61300 20.76800 29.11800
H  51.59200 20.77900 30.58600
H  52.86700 21.02000 27.15600
H  51.69200 22.24600 26.67800
H  52.80100 21.50600 25.42300
H  48.11300 16.22100 24.20200
H  45.10000 16.02300 24.40800
H  47.00200 18.86300 24.05600
H  45.92600 17.88200 23.30700
H  47.70500 17.74300 22.76700
H  45.95600 13.68900 25.68000
H  47.36100 14.08800 24.60900
H  46.32200 13.36500 22.82200
H  44.71900 14.11600 23.44700
H  45.26800 12.60200 23.98800
H  41.57600 15.42600 27.83600
H  41.17600 14.93500 29.52800
H  41.96900 13.82400 28.43700
H  44.09700 16.04900 33.55500
H  41.19800 19.69900 34.19900
H  42.71800 20.00000 34.99400
H  41.52300 19.04200 35.77500
Mg 36.25300 49.24200 24.25700
C  36.77600 47.65400 27.33700
C  35.02300 51.95400 25.74700
C  35.60700 50.61100 21.31100
C  37.48900 46.23600 22.62300
N  36.01700 49.70300 26.30700
C  36.28100 48.94900 27.42500
C  36.00500 49.69200 28.74500
C  35.42400 51.11800 28.20600
C  35.45900 50.89800 26.65500
C  33.97700 51.48300 28.73000
C  37.27000 49.83500 29.72100
C  37.04500 49.67700 31.20800
H  35.55300 49.64200 31.70000
N  35.40800 51.04600 23.61700
C  35.02000 52.07000 24.41300
C  34.64900 53.23100 23.60200
C  34.77200 52.81700 22.27100
C  35.28500 51.49400 22.34300
C  34.10100 54.61700 24.18700
C  34.45400 53.52100 20.96300
O  34.85900 53.11500 19.93900
C  33.73100 54.84300 21.02100
N  36.35300 48.44500 22.24000
C  36.05600 49.25100 21.21300
C  36.47400 48.65300 19.87300
C  37.16600 47.27100 20.28500
C  36.95400 47.28100 21.81600
C  35.31800 48.45200 18.89500
C  38.63500 47.05300 19.83300
C  39.69400 47.91800 20.52200
N  36.96400 47.34600 24.79000
C  37.43800 46.25200 24.01900
C  37.97800 45.25600 24.92000
C  37.72200 45.83100 26.20600
C  37.15600 47.06400 26.07200
C  38.60900 43.98200 24.71500
C  37.95800 45.56700 27.67600
O  38.63400 44.71800 28.24900
C  37.30100 46.71700 28.44000
C  36.28000 46.08000 29.29700
O  35.11500 45.76200 29.00000
O  36.80300 45.86900 30.57700
C  35.80100 45.27000 31.51800
H  34.55300 52.78100 26.28300
H  35.53300 51.12900 20.35200
H  38.04000 45.44200 22.11400
H  35.16600 49.20900 29.24600
H  36.00900 52.02200 28.37600
H  34.16000 52.43900 29.22200
H  33.60800 50.76500 29.46200
H  33.23000 51.66700 27.95700
H  37.71100 50.79800 29.46400
H  38.06200 49.12300 29.49100
H  37.65700 50.46400 31.64800
H  37.52900 48.75700 31.53600
H  34.41500 54.59800 25.23100
H  33.02100 54.76000 24.16000
H  34.52800 55.48600 23.68600
H  34.44200 55.61900 21.30500
H  32.97400 54.66200 21.78400
H  33.20100 55.04100 20.08900
H  37.16500 49.34500 19.39100
H  36.59800 46.46200 19.82500
H  34.35900 48.60700 19.38900
H  35.38500 47.46400 18.43900
H  35.36800 49.23200 18.13500
H  38.70500 47.18400 18.75300
H  38.83700 45.98200 19.86000
H  39.43200 48.37100 21.47900
H  40.14700 48.56400 19.77000
H  40.54700 47.27000 20.72600
H  38.20900 43.64600 23.75800
H  38.34200 43.16500 25.38600
H  39.68900 43.98700 24.86200
H  38.00900 47.18800 29.12200
H  35.86400 44.18700 31.41000
H  34.81000 45.70800 31.63900
H  36.31300 45.60100 32.42200

