158

Mg -2.70700 17.39600 25.61900
C  -2.55400 14.80900 28.14400
C  -2.76800 19.70400 27.94700
C  -2.83700 19.56300 23.13600
C  -2.85400 14.80700 23.21300
N  -2.87100 17.23200 27.85000
C  -2.63400 16.15500 28.67400
C  -2.68100 16.57700 30.17900
C  -2.81900 18.14300 30.04300
C  -2.74800 18.37300 28.49000
C  -4.09700 18.73700 30.58100
C  -1.37600 16.24400 31.01600
C  -1.18400 16.98600 32.35600
H  -0.78100 16.25500 33.63500
N  -2.69800 19.42300 25.56200
C  -2.79300 20.19200 26.64600
C  -2.70500 21.57900 26.26200
C  -2.88500 21.58000 24.90000
C  -2.81700 20.13200 24.44500
C  -2.62200 22.73700 27.26100
C  -3.09600 22.77000 23.99200
O  -3.12300 22.63400 22.79200
C  -3.33400 24.16100 24.51100
N  -2.91800 17.22600 23.44600
C  -2.86000 18.25200 22.62100
C  -2.73100 17.91100 21.11800
C  -3.07300 16.39900 21.15500
C  -2.94500 16.12400 22.74800
C  -3.68300 18.69200 20.25100
C  -2.09900 15.56800 20.14400
C  -2.84400 14.57800 19.20100
N  -2.54600 15.30700 25.62700
C  -2.64500 14.42400 24.56300
C  -2.48900 13.04200 25.05800
C  -2.41000 13.19800 26.47500
C  -2.51200 14.59100 26.75300
C  -2.36900 11.81700 24.21200
C  -2.32700 12.46100 27.69400
O  -2.03600 11.28100 27.91400
C  -2.54500 13.43700 28.83100
C  -1.41000 13.15600 29.73500
O  -0.27400 13.47400 29.54500
O  -1.88600 12.44600 30.83200
C  -0.90000 12.13900 31.84300
H  -2.73000 20.43100 28.76100
H  -2.87100 20.30800 22.33800
H  -2.89900 13.95500 22.53100
H  -3.53500 16.11600 30.67500
H  -2.00600 18.75400 30.43700
H  -4.86200 19.13600 29.91400
H  -3.86400 19.52600 31.29600
H  -4.57100 17.93000 31.14000
H  -0.58400 16.37500 30.27900
H  -1.20300 15.21600 31.33600
H  -2.13000 17.44000 32.64700
H  -0.54100 17.83600 32.12600
H  -3.56000 23.24800 27.47900
H  -1.83100 23.43700 26.99600
H  -2.29700 22.49600 28.27400
H  -3.96000 24.22500 25.40100
H  -3.74800 24.80200 23.73300
H  -2.40300 24.65700 24.79000
H  -1.69000 18.15300 20.90500
H  -4.12200 16.28100 20.88300
H  -4.52100 18.10200 19.88000
H  -3.14800 19.25500 19.48600
H  -4.24800 19.43900 20.80800
H  -1.33600 15.07300 20.74600
H  -1.64800 16.35300 19.53600
H  -2.40300 14.57200 18.20500
H  -3.88100 14.89200 19.08000
H  -2.80500 13.64900 19.77000
H  -3.34000 11.54200 23.80100
H  -1.85200 11.06200 24.80400
H  -1.82000 12.02800 23.29400
H  -3.52400 13.14100 29.20900
H  -0.56300 11.15300 31.52100
H  -1.45100 11.90300 32.75300
H  -0.02900 12.78900 31.93000
Mg -2.63100 34.97600 26.25800
C  -4.31900 33.03600 28.74400
C  -1.08800 36.72600 28.60700
C  -1.45300 36.81600 23.79600
C  -4.65300 33.19900 23.85500
N  -2.91100 34.99300 28.44100
C  -3.42200 34.04900 29.23200
C  -3.00700 34.30100 30.76700
C  -2.08100 35.48700 30.60800
C  -1.97300 35.73300 29.09400
C  -2.71700 36.81400 31.36300
C  -2.24200 33.07300 31.37900
C  -2.88000 32.52100 32.66000
H  -2.02100 32.42100 33.91700
N  -1.44500 36.65100 26.15600
C  -0.88200 37.17800 27.26400
C  -0.01800 38.28900 26.82600
C  0.07400 38.19200 25.38000
C  -0.97600 37.21400 25.04600
C  0.66000 39.22200 27.78800
C  0.98500 38.94100 24.39100
O  0.86200 38.66700 23.18000
C  2.13900 39.75500 24.83600
N  -3.18800 35.08600 24.10600
C  -2.41000 35.87600 23.35300
C  -2.81000 35.85200 21.85600
C  -3.54000 34.45000 21.81700
C  -3.85200 34.23300 23.32800
C  -3.73000 37.00900 21.36200
C  -2.70500 33.31600 21.12300
C  -1.53200 32.66200 22.00300
N  -4.17300 33.45300 26.21900
C  -4.82000 32.80200 25.19400
C  -5.63900 31.71600 25.64600
C  -5.46200 31.75200 27.06600
C  -4.53000 32.81600 27.35800
C  -6.37300 30.80000 24.79100
C  -5.73700 31.10800 28.30300
O  -6.46200 30.16900 28.56000
C  -5.02600 31.86800 29.45100
C  -6.04200 32.37600 30.39000
O  -6.89000 33.27200 30.27100
O  -5.85600 31.76900 31.61100
C  -6.71800 32.30800 32.69200
H  -0.44900 37.28100 29.29800
H  -0.96100 37.28700 22.94200
H  -5.16300 32.62100 23.08200
H  -3.89900 34.48500 31.36600
H  -1.08600 35.39100 31.04200
H  -2.88700 37.59100 30.61700
H  -1.98600 37.24200 32.05000
H  -3.67000 36.58000 31.83600
H  -1.20900 33.28400 31.65300
H  -2.15200 32.35000 30.56700
H  -3.22300 31.52000 32.39700
H  -3.85600 32.99300 32.77700
H  0.93100 40.18600 27.35700
H  1.59600 38.73300 28.05500
H  0.07700 39.30200 28.70500
H  1.95200 40.81800 24.99300
H  2.89300 39.83500 24.05200
H  2.64300 39.41300 25.74000
H  -1.89100 35.73500 21.28300
H  -4.45100 34.49800 21.22000
H  -4.77300 36.70100 21.42700
H  -3.46700 37.48700 20.41800
H  -3.56500 37.74100 22.15300
H  -2.24300 33.82600 20.27900
H  -3.29600 32.59400 20.56000
H  -1.70000 31.68300 22.45100
H  -1.34600 33.38600 22.79700
H  -0.57900 32.54400 21.48600
H  -6.07400 30.92100 23.75000
H  -7.40300 31.15200 24.84600
H  -6.45200 29.75100 25.07800
H  -4.38800 31.27400 30.10400
H  -6.16900 33.13800 33.13600
H  -6.91500 31.49100 33.38600
H  -7.70600 32.63800 32.37200

