158

Mg 25.20900 0.97400 28.85800
C  27.16000 0.70700 31.70600
C  22.41400 0.80500 31.15700
C  23.12200 1.15100 26.32200
C  27.92200 0.40200 26.86400
N  24.84500 0.61300 31.16200
C  25.85700 0.75100 32.11600
C  25.37300 0.76300 33.58100
C  23.78700 0.82800 33.35100
C  23.64700 0.68700 31.79400
C  22.89000 -0.17600 34.15700
C  25.83900 1.96600 34.42200
C  24.99300 2.44500 35.58400
H  25.61100 3.00900 36.86500
N  23.12000 0.94200 28.68300
C  22.19500 0.90100 29.71000
C  20.78300 1.04100 29.14000
C  20.94800 1.14300 27.72200
C  22.42400 1.09600 27.51400
C  19.53100 0.74700 29.88200
C  19.89500 1.14500 26.55400
O  20.20300 1.23100 25.37800
C  18.33600 0.99200 26.87600
N  25.43300 0.81300 26.88900
C  24.49700 1.01700 25.97500
C  25.05200 1.22200 24.60800
C  26.61900 1.19200 24.83700
C  26.68200 0.69100 26.25100
C  24.52200 0.21400 23.57300
C  27.37500 2.58100 24.67500
C  26.91900 3.70900 25.57000
N  27.19900 0.61000 29.13300
C  28.26000 0.40500 28.24000
C  29.50500 0.19600 28.97000
C  29.14300 0.35800 30.32200
C  27.70500 0.57100 30.36300
C  30.84400 0.06800 28.27500
C  29.64100 0.41000 31.68900
O  30.72000 0.25700 32.14200
C  28.36300 0.53200 32.56900
C  28.28600 -0.69400 33.39100
O  27.89500 -1.79100 33.09300
O  28.59500 -0.34800 34.68100
C  28.26400 -1.23000 35.84400
H  21.55300 0.81600 31.82900
H  22.57300 1.23400 25.38100
H  28.72000 0.16600 26.15700
H  25.73300 -0.14100 34.07400
H  23.41100 1.81300 33.62600
H  22.29100 -0.88200 33.58200
H  22.28100 0.40100 34.85200
H  23.56300 -0.86800 34.66300
H  25.90200 2.78900 33.71000
H  26.85800 1.91200 34.80500
H  24.28100 1.65400 35.82200
H  24.46400 3.36400 35.33400
H  18.73200 1.43900 29.61500
H  19.59200 0.77900 30.97000
H  19.16300 -0.20200 29.49300
H  17.74500 1.07300 25.96400
H  17.98600 1.65200 27.67000
H  18.29000 -0.00700 27.31000
H  24.73600 2.25700 24.47700
H  27.05900 0.37500 24.26400
H  23.99900 -0.69200 23.87900
H  25.35400 -0.00300 22.90400
H  23.75000 0.75500 23.02400
H  27.06700 3.04100 23.73600
H  28.43600 2.33600 24.63900
H  27.46500 3.52500 26.49500
H  25.83800 3.64900 25.69600
H  27.16800 4.68700 25.15800
H  30.88000 0.45700 27.25700
H  31.02400 -1.00700 28.30300
H  31.68200 0.39500 28.89100
H  28.42600 1.43800 33.17200
H  27.55700 -0.63100 36.41800
H  29.19600 -1.40400 36.38300
H  27.65400 -2.09500 35.58500
Mg 46.53500 26.02100 29.03500
C  47.65400 27.77600 31.92900
C  45.25000 23.66600 31.22700
C  45.94100 24.06600 26.50800
C  48.65300 28.06500 27.12600
N  46.47000 25.77800 31.30200
C  46.91900 26.63800 32.24400
C  46.55700 26.13300 33.58000
C  45.72200 24.86600 33.38300
C  45.90000 24.69000 31.90100
C  46.16200 23.65600 34.18000
C  45.86900 27.29300 34.47300
C  46.51900 27.50900 35.82400
H  45.82300 28.21500 37.03800
N  45.56600 24.20700 28.91500
C  45.00100 23.44200 29.89500
C  44.33100 22.26000 29.21200
C  44.50100 22.43700 27.83700
C  45.38300 23.58800 27.67900
C  43.73600 21.12200 30.00000
C  44.12700 21.59800 26.59800
O  44.35600 21.86600 25.40000
C  43.39000 20.34200 26.91500
N  47.35900 25.98000 27.07500
C  46.84600 25.11900 26.19900
C  47.41600 25.39500 24.77000
C  48.07500 26.88600 24.94500
C  48.04200 27.05200 26.48100
C  48.26000 24.19800 24.27100
C  47.22500 27.96600 24.24900
C  47.01900 27.69800 22.74700
N  47.82700 27.61700 29.41000
C  48.56400 28.40000 28.47500
C  49.14300 29.53900 29.16200
C  48.88200 29.29600 30.56900
C  48.05300 28.15000 30.60900
C  50.07000 30.52400 28.53800
C  49.12800 29.72500 31.87200
O  49.94100 30.58800 32.21500
C  48.43100 28.78700 32.80500
C  49.52700 28.09800 33.42100
O  49.96200 27.08100 32.90500
O  49.85300 28.55700 34.65300
C  50.77400 27.70900 35.35000
H  44.97700 22.75700 31.76700
H  45.67700 23.64400 25.53700
H  48.87600 28.75700 26.31100
H  47.54700 25.95300 33.99900
H  44.68700 25.03600 33.67900
H  47.15400 23.53200 33.74700
H  45.56200 22.76600 33.99000
H  46.43600 23.81100 35.22300
H  44.87900 26.91100 34.72300
H  45.74600 28.24100 33.95000
H  47.49600 27.97200 35.68500
H  46.75900 26.50800 36.18200
H  42.66700 21.30600 29.89500
H  43.91700 21.07300 31.07400
H  43.92000 20.10800 29.64600
H  43.90300 19.56000 27.47500
H  43.06900 19.86100 25.99100
H  42.55600 20.70500 27.51500
H  46.54200 25.39300 24.11800
H  49.07900 27.04300 24.55100
H  48.19000 23.22300 24.75300
H  49.28800 24.49700 24.48000
H  48.20500 24.16300 23.18300
H  47.80600 28.88300 24.34900
H  46.26400 28.07700 24.75200
H  47.52100 26.79200 22.40500
H  47.50300 28.46600 22.14300
H  45.95800 27.82400 22.53300
H  50.06800 31.55700 28.88700
H  49.63100 30.55400 27.54100
H  51.05900 30.14900 28.27400
H  47.90800 29.33000 33.59200
H  50.42300 26.86200 35.94100
H  51.33500 28.36600 36.01400
H  51.46900 27.36700 34.58400

