158

Mg 0.60300 7.64200 26.75200
C  1.42900 9.76900 29.55300
C  0.67100 5.03100 29.04100
C  -0.23100 5.58600 24.31100
C  1.13100 10.29100 24.63200
N  1.01900 7.45400 29.06100
C  1.21700 8.42300 29.94600
C  1.11700 7.93700 31.47600
C  1.24000 6.40900 31.21500
C  0.86500 6.26300 29.69500
C  2.66100 5.77200 31.55100
C  -0.28500 8.42400 32.01900
C  -0.47700 8.33900 33.54300
H  0.60500 7.62700 34.32100
N  0.18200 5.52800 26.63200
C  0.26200 4.65500 27.67000
C  0.06100 3.29100 27.20600
C  -0.27400 3.42700 25.84400
C  -0.18700 4.85500 25.53500
C  0.09200 2.04300 28.07800
C  -0.34000 2.41200 24.71700
O  -0.52500 2.68700 23.49900
C  -0.19300 0.95200 25.15400
N  0.54900 7.89700 24.77500
C  0.09800 6.89800 23.97200
C  0.12300 7.41100 22.52000
C  0.35200 8.96900 22.58600
C  0.76200 9.13400 24.06500
C  1.04900 6.71900 21.55100
C  -0.93900 9.79500 22.22300
C  -0.78900 11.23800 21.71700
N  1.22400 9.55900 26.95200
C  1.31600 10.52500 26.02400
C  1.59500 11.76800 26.68400
C  1.67400 11.47800 28.02400
C  1.43000 10.15000 28.17600
C  1.64000 13.07200 25.95900
C  2.00900 12.05600 29.33500
O  2.44700 13.16900 29.66500
C  1.69400 10.92000 30.38700
C  2.84400 10.90600 31.31000
O  3.86500 10.28000 31.17800
O  2.59700 11.73700 32.34000
C  3.42800 11.77200 33.51500
H  0.67900 4.20000 29.74900
H  -0.60100 5.14400 23.38400
H  1.32400 11.18600 24.03700
H  2.03800 8.28500 31.94400
H  0.49400 5.94900 31.86400
H  3.35700 6.43100 32.07000
H  3.09400 5.49400 30.59000
H  2.68600 4.77700 31.99400
H  -1.06100 7.74100 31.67300
H  -0.56600 9.40200 31.62700
H  -1.42400 7.81600 33.67100
H  -0.51400 9.31900 34.01900
H  -0.83000 1.46500 28.01000
H  0.32000 2.24200 29.12500
H  0.89100 1.36900 27.76700
H  -0.92300 0.67400 25.91300
H  0.83900 0.83000 25.48200
H  -0.12400 0.23400 24.33600
H  -0.87600 7.15200 22.17100
H  1.18600 9.19900 21.92300
H  1.86800 7.34900 21.20400
H  0.57900 6.10900 20.78000
H  1.62500 5.95800 22.07800
H  -1.56100 9.82000 23.11900
H  -1.35200 9.22400 21.39200
H  -0.94600 11.28100 20.64000
H  0.24200 11.53200 21.91500
H  -1.48400 11.79600 22.34400
H  1.27400 12.96000 24.93800
H  2.63400 13.51900 25.96700
H  0.91000 13.67400 26.49900
H  0.78900 11.07400 30.97600
H  4.19500 12.51800 33.30600
H  3.80100 10.78000 33.77100
H  2.68900 12.01700 34.27800
Mg 8.97200 47.53500 26.39200
C  7.19100 47.81100 29.48400
C  11.84700 48.57900 28.18800
C  10.62900 47.56000 23.54300
C  6.09900 46.77400 24.85000
N  9.44800 48.08700 28.57500
C  8.56300 48.03400 29.63200
C  9.26000 48.37600 30.94700
C  10.61000 49.09000 30.44900
C  10.68400 48.55500 28.97300
C  10.65200 50.58000 30.58600
C  9.50500 47.16800 31.88800
C  9.18900 47.39600 33.32700
H  9.17900 46.23300 34.41900
N  10.96200 47.93500 25.96300
C  12.02300 48.31300 26.82400
C  13.24900 48.54000 26.02800
C  12.90000 48.08200 24.68300
C  11.45300 47.93300 24.66900
C  14.57900 48.94200 26.74100
C  13.76600 47.91400 23.49100
O  13.28900 47.57000 22.43800
C  15.29500 48.16600 23.53300
N  8.36400 47.43100 24.48700
C  9.21500 47.41500 23.44900
C  8.50500 47.09800 22.13400
C  7.10700 46.61300 22.56000
C  7.17700 46.98000 24.03700
C  8.60800 48.10900 20.96000
C  6.84900 45.03100 22.41900
C  7.63000 44.06200 23.25500
N  7.05300 47.37000 26.97800
C  5.94300 47.08400 26.21800
C  4.80600 46.98000 27.03200
C  5.18700 47.27900 28.34700
C  6.58000 47.45900 28.25600
C  3.40200 46.61000 26.55000
C  4.80000 47.53000 29.73300
O  3.64500 47.68200 30.22300
C  6.13300 47.72100 30.55200
C  6.30800 46.51900 31.33400
O  6.59100 45.42200 30.81100
O  5.63600 46.61500 32.52400
C  5.52100 45.35800 33.29900
H  12.70300 48.95700 28.75200
H  11.07400 47.34400 22.56900
H  5.31600 46.31800 24.24100
H  8.57000 49.07500 31.42000
H  11.52100 48.74800 30.94000
H  9.80000 50.92700 31.17200
H  10.35900 50.91900 29.59300
H  11.60900 51.02200 30.86000
H  10.58200 47.00100 31.85400
H  9.12200 46.19700 31.57400
H  8.28400 48.00300 33.31600
H  9.94500 48.01300 33.81300
H  14.44400 49.35400 27.74100
H  14.99300 49.80400 26.21800
H  15.37300 48.20900 26.59700
H  15.56600 49.03600 24.13200
H  15.48900 48.39100 22.48500
H  15.68600 47.23700 23.94800
H  8.94600 46.19000 21.72200
H  6.31800 47.23200 22.13200
H  9.06900 49.05000 21.26000
H  7.63600 48.44700 20.60100
H  9.22600 47.65700 20.18300
H  6.95000 44.71200 21.38200
H  5.78500 44.85600 22.58100
H  7.04100 43.53000 24.00300
H  8.41500 44.59400 23.79300
H  8.24100 43.36700 22.67900
H  2.78000 47.50300 26.49400
H  2.92300 45.90700 27.23100
H  3.40400 46.22100 25.53200
H  6.18500 48.58800 31.21000
H  4.51500 44.98800 33.09900
H  5.58100 45.50000 34.37800
H  6.24000 44.59800 32.99100

