158

Mg -10.05900 38.28000 40.81400
C  -7.99800 35.46800 40.08600
C  -7.69300 40.23200 39.22900
C  -12.34900 40.81200 40.94500
C  -12.62600 35.96100 41.65000
N  -8.09300 37.85700 39.73900
C  -7.39800 36.70500 39.61600
C  -6.07300 36.87900 38.86900
C  -5.87400 38.41500 38.87100
C  -7.31600 38.86100 39.24000
C  -4.75000 39.04000 39.74000
C  -6.16300 36.28400 37.44300
C  -4.82100 35.56400 36.98600
H  -4.26900 35.79500 35.61200
N  -9.99600 40.23400 40.31800
C  -8.87100 40.91200 39.73600
C  -9.17100 42.29800 39.49300
C  -10.54800 42.43600 39.96500
C  -11.01800 41.14500 40.43800
C  -8.26200 43.34200 38.72400
C  -11.21600 43.82800 40.06000
O  -10.64500 44.77300 39.60600
C  -12.48400 44.02600 40.81900
N  -12.21300 38.34900 41.19700
C  -12.90800 39.53800 41.18500
C  -14.36700 39.27300 41.69500
C  -14.41300 37.72100 41.92200
C  -13.00000 37.32800 41.55800
C  -14.79800 40.07900 42.98900
C  -15.47300 36.99800 41.07900
C  -16.94000 37.34200 41.43800
N  -10.36600 36.13200 40.89000
C  -11.37800 35.38700 41.30300
C  -10.93800 34.05700 41.48400
C  -9.67700 33.96700 40.95400
C  -9.31000 35.31600 40.61300
C  -11.90300 32.92900 41.97100
C  -8.55000 33.19800 40.53500
O  -8.35800 32.03000 40.60300
C  -7.45400 34.11300 39.87500
C  -6.16700 33.91800 40.53600
O  -5.23600 33.34600 39.97600
O  -6.22000 34.22400 41.89000
C  -5.06600 33.83900 42.68500
H  -7.09200 40.95200 38.67000
H  -13.10400 41.60000 40.98400
H  -13.30700 35.25700 42.13400
H  -5.43300 36.42400 39.62500
H  -5.62000 38.61600 37.83000
H  -5.24000 39.48200 40.60800
H  -4.18000 39.68400 39.06900
H  -4.14100 38.36400 40.34000
H  -6.47700 37.03000 36.71300
H  -7.05300 35.66000 37.52800
H  -4.91000 34.48500 37.11300
H  -4.01600 35.79800 37.68200
H  -7.76300 43.94700 39.48100
H  -8.94300 43.92500 38.10300
H  -7.61100 42.81900 38.02400
H  -12.38100 43.66400 41.84200
H  -13.30900 43.51900 40.31900
H  -12.59900 45.10900 40.78000
H  -15.00100 39.63600 40.88600
H  -14.58600 37.45200 42.96500
H  -14.66600 41.15400 42.87100
H  -13.96400 39.96200 43.68300
H  -15.72800 39.75700 43.45700
H  -15.40900 35.91000 41.05600
H  -15.14200 37.32700 40.09400
H  -17.55200 37.47700 40.54600
H  -17.11000 38.16300 42.13600
H  -17.35300 36.49800 41.99000
H  -12.91200 33.07400 41.58400
H  -11.89500 32.82000 43.05500
H  -11.66900 31.95000 41.55200
H  -7.38000 33.70800 38.86600
H  -5.41100 33.96300 43.71100
H  -4.23200 34.53000 42.56800
H  -4.73200 32.80300 42.61800
Mg 1.60500 43.36600 26.92000
C  3.34400 43.34000 29.98400
C  -1.04900 41.95600 28.67100
C  0.13400 42.87100 23.93500
C  4.49700 44.52500 25.49600
N  1.22800 42.77600 29.12100
C  2.02900 43.03100 30.14800
C  1.28600 42.76100 31.50700
C  -0.10300 41.97600 30.99500
C  -0.00700 42.30500 29.49500
C  -0.01000 40.55400 31.36200
C  1.06100 43.90800 32.50600
C  1.60500 43.64900 34.00700
H  0.60300 43.26400 35.07400
N  -0.23100 42.65200 26.41400
C  -1.19800 42.16600 27.30900
C  -2.45900 41.82300 26.54300
C  -2.15900 42.20700 25.15600
C  -0.71900 42.64600 25.15200
C  -3.72600 41.18400 27.09500
C  -3.06900 42.10000 23.92300
O  -2.61800 42.54000 22.86200
C  -4.57300 41.71400 24.02400
N  2.24800 43.55700 25.00100
C  1.47300 43.32800 23.87500
C  2.29300 43.63500 22.55100
C  3.48500 44.43300 23.10000
C  3.40000 44.24600 24.60900
C  2.58800 42.36300 21.66600
C  3.52100 45.99200 22.63200
C  4.54800 46.28400 21.46500
N  3.56200 43.90100 27.51600
C  4.59400 44.28500 26.82900
C  5.74700 44.28600 27.61100
C  5.35000 43.90500 28.86300
C  3.99700 43.73700 28.77300
C  7.18200 44.63700 27.14600
C  5.77300 43.66000 30.18200
O  6.90000 43.79700 30.61300
C  4.46100 43.30500 31.04100
C  4.69100 42.06200 31.85000
O  4.74900 40.89700 31.40800
O  4.85600 42.42800 33.20200
C  4.93200 41.37900 34.21400
H  -1.96300 41.68800 29.20500
H  -0.42300 42.66800 23.01800
H  5.38700 44.93400 25.01200
H  1.99900 42.13800 32.04700
H  -0.92100 42.49500 31.49400
H  0.56700 40.12300 30.54300
H  -1.03100 40.18100 31.28200
H  0.36600 40.38600 32.37100
H  -0.02300 43.94400 32.60800
H  1.39400 44.81800 32.00600
H  2.17000 44.51700 34.34800
H  2.30000 42.81000 33.99500
H  -3.76700 41.20000 28.18400
H  -3.81500 40.14500 26.77900
H  -4.55700 41.78800 26.73000
H  -4.69400 40.68300 24.35500
H  -5.01300 41.78900 23.03000
H  -4.98900 42.46000 24.70200
H  1.72100 44.35800 21.96800
H  4.37300 44.01900 22.62200
H  3.66400 42.23900 21.54400
H  2.22200 42.31600 20.64000
H  2.14600 41.54300 22.23300
H  3.83400 46.47900 23.55600
H  2.50200 46.29700 22.39300
H  5.09900 47.22400 21.46900
H  4.08100 46.18600 20.48500
H  5.28200 45.47800 21.46400
H  7.88200 44.42100 27.95200
H  7.15100 45.68600 26.85200
H  7.57500 44.10300 26.28100
H  4.34200 44.08700 31.79100
H  4.76100 40.41900 33.72600
H  4.24000 41.69500 34.99400
H  5.92300 41.32000 34.66300

