158

Mg 26.06300 51.29500 26.28300
C  24.12800 52.17200 29.15400
C  28.77300 50.68600 28.43400
C  28.08300 51.29200 23.59000
C  23.33000 52.24000 24.24500
N  26.32700 51.42300 28.49400
C  25.38800 51.70200 29.46600
C  25.93000 51.38200 30.94100
C  27.49500 51.03600 30.60700
C  27.54700 51.03300 29.05600
C  28.62900 51.90000 31.28600
C  25.24200 50.27300 31.65500
C  24.57300 50.58400 33.00500
H  25.32500 51.32100 34.16200
N  28.09100 50.89000 25.99500
C  29.04700 50.59100 27.02900
C  30.37100 50.45400 26.39700
C  30.11900 50.64400 25.01100
C  28.70100 50.92500 24.78200
C  31.59200 50.17400 27.27000
C  31.10900 50.58800 23.80700
O  30.75900 50.67000 22.62200
C  32.54400 50.29800 24.15400
N  25.77100 51.89400 24.18800
C  26.76100 51.64800 23.29600
C  26.28100 52.13500 21.92100
C  24.74700 52.27800 22.01500
C  24.58300 52.18600 23.61100
C  26.91600 53.63200 21.68300
C  23.91500 51.30600 21.14700
C  23.89200 49.94500 21.76200
N  24.09000 51.97700 26.62300
C  23.08900 52.23900 25.68000
C  21.93300 52.66400 26.41100
C  22.27200 52.66100 27.77300
C  23.59300 52.27900 27.82400
C  20.55700 52.96100 25.88500
C  21.79000 52.93600 29.18000
O  20.68600 53.30500 29.60900
C  22.93900 52.51800 30.12600
C  23.24500 53.57000 31.03500
O  23.95300 54.48800 30.71500
O  22.55100 53.37400 32.21000
C  22.63400 54.42600 33.20100
H  29.51100 50.34000 29.16100
H  28.64300 51.24000 22.65300
H  22.41300 52.38500 23.67000
H  25.75700 52.24100 31.58800
H  27.60800 50.00200 30.93100
H  29.26100 51.26000 31.90100
H  28.19500 52.65500 31.94200
H  29.12500 52.55800 30.57200
H  25.90000 49.43000 31.87000
H  24.41400 49.86900 31.07200
H  24.33500 49.57600 33.34600
H  23.65800 51.15700 32.85100
H  31.27400 50.04300 28.30400
H  32.24700 51.04400 27.31100
H  32.11200 49.27400 26.94400
H  32.73600 49.30800 24.56800
H  32.82500 51.08100 24.85900
H  33.10000 50.34400 23.21800
H  26.57500 51.61100 21.01200
H  24.43600 53.29500 21.77600
H  27.87900 53.48000 21.19500
H  26.98200 54.22600 22.59400
H  26.26900 54.15800 20.98100
H  24.35200 51.29300 20.14800
H  22.90200 51.69300 21.03500
H  24.28700 49.27700 20.99600
H  22.86200 49.71900 22.03800
H  24.48700 49.78400 22.66100
H  20.42300 52.39800 24.96100
H  20.68200 54.01800 25.65000
H  19.70300 52.73700 26.52400
H  22.61000 51.60300 30.61900
H  22.26600 54.11800 34.18000
H  21.94300 55.15700 32.78200
H  23.61800 54.89400 33.19600
Mg 15.69000 51.04700 25.51000
C  17.72500 50.48800 28.30500
C  13.13100 51.86000 27.58800
C  13.78800 51.43200 22.78400
C  18.44700 50.27700 23.44100
N  15.52900 51.37000 27.71800
C  16.45100 50.94700 28.64500
C  16.01200 51.15100 30.09000
C  14.45000 51.30800 29.82400
C  14.35300 51.69200 28.29500
C  13.53400 50.07300 30.29800
C  16.68800 52.41700 30.72500
C  16.79400 52.53100 32.18800
H  15.84800 51.72600 33.08800
N  13.71200 51.53400 25.18300
C  12.75900 51.76900 26.16700
C  11.46900 52.00900 25.52800
C  11.65800 51.97900 24.14300
C  13.13500 51.55900 23.97400
C  10.20000 52.34400 26.28500
C  10.74200 52.15300 22.97300
O  11.06600 52.03800 21.80600
C  9.29400 52.45200 23.31000
N  16.08300 50.94700 23.42100
C  15.13100 51.15600 22.49600
C  15.72500 51.15900 21.01800
C  17.27500 51.03200 21.31900
C  17.30300 50.69500 22.83300
C  15.14000 50.02600 20.13300
C  18.18000 52.21400 20.92200
C  18.86200 52.21500 19.56300
N  17.70300 50.30200 25.74400
C  18.69900 50.09300 24.82600
C  19.85100 49.66700 25.57100
C  19.56600 49.89400 26.94000
C  18.20200 50.28600 26.99200
C  21.12900 49.36600 24.84800
C  20.13900 49.85400 28.29100
O  21.20000 49.49100 28.66100
C  18.97000 50.32400 29.14100
C  18.76300 49.44100 30.33000
O  17.99300 48.54900 30.27900
O  19.51400 49.82900 31.38100
C  19.37300 49.05000 32.59900
H  12.29900 52.05800 28.26600
H  13.22200 51.46400 21.85000
H  19.25600 50.17200 22.71400
H  16.17300 50.30600 30.76000
H  14.05300 52.16000 30.37600
H  12.80000 50.36000 31.05000
H  14.21100 49.31200 30.68600
H  12.89200 49.64400 29.52900
H  16.10100 53.30000 30.47300
H  17.69300 52.61800 30.35500
H  16.60500 53.55100 32.52400
H  17.82600 52.34300 32.48500
H  9.30100 51.73300 26.21100
H  9.89900 53.35200 25.99800
H  10.31800 52.32800 27.36800
H  9.12900 53.35900 23.89200
H  8.86300 51.54800 23.74000
H  8.87000 52.51100 22.30700
H  15.56500 52.11500 20.51900
H  17.68400 50.14500 20.83600
H  14.68400 49.22100 20.70800
H  15.90300 49.57500 19.49900
H  14.36900 50.50900 19.53200
H  18.98000 52.23500 21.66200
H  17.80300 53.21300 21.14000
H  19.71000 51.53600 19.65200
H  19.23900 53.20700 19.31800
H  18.22500 51.82200 18.77100
H  21.55800 50.21200 24.30900
H  21.05700 48.44600 24.26900
H  21.82500 49.13800 25.65500
H  19.38400 51.22800 29.58800
H  19.99100 49.58200 33.32300
H  19.67000 48.00400 32.66500
H  18.34600 49.09100 32.96100

