158

Mg 55.40300 24.04100 45.06300
C  53.03300 26.57700 44.21900
C  53.09000 21.76500 43.89100
C  57.87900 21.78100 44.95600
C  57.77200 26.59600 45.79000
N  53.34400 24.14300 43.99900
C  52.55700 25.29800 43.88900
C  51.13900 24.88300 43.44200
C  51.07900 23.37200 43.82500
C  52.56700 23.03000 43.84600
C  50.35400 22.88500 45.03600
C  50.94100 25.21200 41.92800
C  49.55100 25.57800 41.45600
H  49.19400 25.46400 39.93900
N  55.44400 22.07700 44.49400
C  54.36600 21.32300 44.11400
C  54.86300 19.94600 43.89300
C  56.25700 19.89300 44.12900
C  56.59900 21.28700 44.54500
C  53.83800 18.87300 43.41100
C  57.12600 18.68900 43.93400
O  56.63600 17.61300 43.57100
C  58.61300 18.74500 44.19800
N  57.58900 24.17900 45.31900
C  58.32600 23.04000 45.39200
C  59.78200 23.45800 45.76500
C  59.75900 25.01700 45.95600
C  58.25200 25.30100 45.71600
C  60.34700 22.74400 47.00800
C  60.75900 25.70400 44.89500
C  61.50900 26.95500 45.48600
N  55.41300 26.13500 45.11500
C  56.42700 26.97400 45.53600
C  55.83200 28.34300 45.55400
C  54.52600 28.20600 45.02800
C  54.31800 26.82900 44.80800
C  56.57100 29.54900 45.96700
C  53.28500 28.86900 44.81100
O  52.92100 30.04700 44.91300
C  52.40000 27.93200 44.03600
C  52.32200 28.37300 42.59900
O  53.16800 28.28200 41.73600
O  51.03300 28.94300 42.44800
C  50.76400 29.26800 41.06100
H  52.31700 21.01400 43.71300
H  58.71600 21.08600 45.04600
H  58.52000 27.34600 46.05400
H  50.33900 25.40200 43.96900
H  50.56900 22.92300 42.97300
H  49.83900 23.72800 45.49600
H  51.08600 22.46400 45.72500
H  49.67800 22.10300 44.69000
H  51.12000 24.27900 41.39400
H  51.57600 26.06400 41.68400
H  49.37900 26.63000 41.68200
H  48.73400 25.06100 41.95900
H  53.75900 18.64100 42.34900
H  52.82000 19.03600 43.76600
H  54.14600 17.92900 43.86100
H  59.14600 19.52000 43.64700
H  59.14400 17.85900 43.85100
H  58.73300 18.74800 45.28100
H  60.33200 23.16600 44.87100
H  59.89200 25.23700 47.01500
H  61.09900 21.97200 46.85000
H  59.53400 22.27300 47.56100
H  60.76100 23.49800 47.67800
H  60.11400 26.06300 44.09300
H  61.51100 25.04300 44.46400
H  62.47700 27.08700 45.00100
H  61.58800 26.85600 46.56800
H  60.85600 27.81000 45.30900
H  57.43800 29.89000 45.40200
H  56.83600 29.20100 46.96500
H  55.80600 30.32500 46.02600
H  51.41800 27.91100 44.50800
H  51.54300 29.92500 40.67400
H  49.76300 29.69900 41.03600
H  50.85000 28.33600 40.50200
Mg 47.69300 45.96600 43.59800
C  44.30600 46.06800 42.75700
C  47.95200 43.04500 41.87300
C  51.06700 46.19900 44.00800
C  47.51800 49.46500 44.29100
N  46.26500 44.64300 42.57000
C  44.97200 44.93600 42.31600
C  44.23800 43.85900 41.54700
C  45.40000 42.78400 41.38600
C  46.62200 43.52500 41.90000
C  45.10100 41.43600 42.07300
C  43.71400 44.34000 40.15100
C  42.38100 43.77900 39.69300
H  42.48100 42.82800 38.51100
N  49.27300 44.78800 42.94300
C  49.13900 43.52700 42.38200
C  50.40600 42.85300 42.21500
C  51.35600 43.76700 42.79100
C  50.62000 45.00700 43.25900
C  50.72700 41.57600 41.42400
C  52.87500 43.56300 42.80400
O  53.36300 42.58000 42.26400
C  53.80400 44.46200 43.55700
N  49.08400 47.66000 43.87700
C  50.37100 47.37600 44.25400
C  50.98500 48.56400 45.06400
C  49.99900 49.74200 44.63800
C  48.81800 48.91700 44.24600
C  50.88500 48.22200 46.56800
C  50.51400 50.63600 43.54100
C  49.73400 51.95500 43.37800
N  46.19700 47.49300 43.82100
C  46.27500 48.78700 44.08200
C  44.94200 49.36300 44.02900
C  44.11400 48.36200 43.56500
C  44.94700 47.23500 43.32900
C  44.53100 50.68400 44.53700
C  42.78500 47.96000 43.35200
O  41.70900 48.60200 43.41300
C  42.80800 46.42300 42.80400
C  41.97300 45.55300 43.64900
O  41.05400 44.79700 43.25500
O  42.47200 45.44900 44.91300
C  41.92000 44.35900 45.78800
H  47.98100 42.07300 41.37700
H  52.02400 46.00700 44.49700
H  47.47700 50.53900 44.48800
H  43.46900 43.48700 42.22400
H  45.70400 42.54500 40.36600
H  45.87000 40.87800 41.53900
H  44.15100 40.99100 41.77300
H  45.41700 41.40100 43.11600
H  44.51800 44.09300 39.45800
H  43.59100 45.42300 40.16500
H  41.69400 44.61100 39.54200
H  42.01600 43.19900 40.54100
H  50.73000 41.55200 40.33400
H  49.98600 40.89100 41.83600
H  51.70600 41.20000 41.71900
H  53.62100 44.50800 44.63100
H  53.81600 45.46700 43.13600
H  54.82600 44.10400 43.43700
H  52.00300 48.77000 44.73400
H  49.64400 50.38000 45.44800
H  51.86100 47.93600 46.95900
H  50.35600 47.28000 46.71800
H  50.34800 48.95400 47.17200
H  50.54300 50.22200 42.53300
H  51.49900 50.89500 43.93000
H  50.39800 52.79500 43.58400
H  48.87400 52.08300 44.03700
H  49.25300 51.92500 42.40000
H  44.61100 51.47800 43.79500
H  45.11000 50.85500 45.44500
H  43.46700 50.66000 44.77300
H  42.40000 46.46800 41.79400
H  41.58500 43.50900 45.19400
H  41.18900 44.76300 46.48800
H  42.78700 43.93400 46.29300

