158

Mg 34.71200 3.56800 29.74500
C  32.33400 4.16500 32.36800
C  37.08500 3.57000 32.28500
C  36.79700 3.17600 27.37300
C  32.10500 3.92900 27.51300
N  34.67200 3.81500 32.09800
C  33.59100 4.02600 32.86800
C  33.99200 3.90100 34.37400
C  35.56500 4.22900 34.33000
C  35.84600 3.88400 32.76200
C  36.01200 5.72500 34.64200
C  33.60600 2.55300 35.07700
C  33.06500 2.76800 36.48600
H  33.69800 3.90900 37.36000
N  36.72600 3.43400 29.84300
C  37.50200 3.35600 30.94400
C  38.90100 3.08300 30.50300
C  38.84900 3.02600 29.04900
C  37.47000 3.24600 28.65100
C  40.07700 2.78100 31.43900
C  39.91900 2.68700 28.08300
O  39.70200 2.64300 26.92400
C  41.29800 2.38600 28.70500
N  34.47800 3.65400 27.73300
C  35.50800 3.48400 26.94900
C  35.18400 3.56700 25.40100
C  33.66000 3.61400 25.49500
C  33.35100 3.76200 27.02000
C  35.77000 4.67500 24.58400
C  32.97900 2.28000 24.87100
C  32.63900 1.15100 25.76600
N  32.69400 3.93000 29.92100
C  31.75300 4.02800 28.86700
C  30.43200 4.25100 29.43800
C  30.66400 4.32400 30.85100
C  32.04900 4.15100 31.04900
C  29.16200 4.20500 28.65900
C  29.97800 4.44600 32.07700
O  28.85000 4.78500 32.34500
C  31.11500 4.30200 33.13900
C  31.13700 5.58400 33.93800
O  31.42900 6.73500 33.54800
O  30.67400 5.34100 35.16300
C  30.45700 6.58600 35.98600
H  37.80300 3.55800 33.10800
H  37.50100 3.00800 26.55500
H  31.42900 4.08100 26.66900
H  33.61700 4.68100 35.03800
H  36.04300 3.53200 35.01800
H  36.78600 6.06900 33.95600
H  36.30000 5.83100 35.68800
H  35.16800 6.39200 34.46300
H  34.45100 1.86500 35.06200
H  32.77300 2.19500 34.47200
H  33.25300 1.90000 37.11700
H  32.03000 3.10900 36.51400
H  39.72300 2.84400 32.46800
H  40.91900 3.44800 31.25100
H  40.42200 1.75700 31.29800
H  41.58000 3.27900 29.26400
H  42.05100 2.27000 27.92500
H  41.26600 1.45100 29.26300
H  35.64000 2.69500 24.93200
H  33.32800 4.50900 24.96900
H  35.03400 5.25500 24.02700
H  36.44800 4.22500 23.85900
H  36.30300 5.39700 25.20200
H  33.77500 1.85700 24.25900
H  32.13400 2.64700 24.28900
H  31.58100 1.11900 26.02700
H  33.15200 1.19300 26.72700
H  32.95800 0.16400 25.43100
H  28.62700 5.15400 28.65100
H  28.58400 3.42000 29.14700
H  29.35500 3.83700 27.65200
H  30.90700 3.40700 33.72600
H  29.74800 7.32400 35.61200
H  31.36100 7.11400 36.28700
H  30.14100 5.99000 36.84300
Mg 10.20300 47.51500 26.05000
C  8.17200 47.80000 28.89400
C  12.82000 48.77300 27.84400
C  12.02600 47.22100 23.28000
C  7.29500 46.55900 24.26400
N  10.46500 48.16100 28.09400
C  9.52700 48.12200 29.12200
C  10.18900 48.44400 30.47100
C  11.40000 49.28700 29.95400
C  11.63400 48.79600 28.58200
C  11.17600 50.88800 30.02200
C  10.61400 47.17000 31.26900
C  10.73400 47.28800 32.74500
H  10.46300 46.12700 33.74200
N  12.23500 47.94600 25.59700
C  13.16400 48.44000 26.48900
C  14.50800 48.35900 25.85700
C  14.22100 47.91800 24.51500
C  12.79200 47.65100 24.37100
C  15.71600 48.76500 26.63800
C  15.20100 47.78900 23.31300
O  14.87000 47.60800 22.12300
C  16.73600 47.94500 23.63600
N  9.70600 47.16400 23.94400
C  10.67100 46.97600 23.06200
C  10.01200 46.68700 21.64600
C  8.56200 46.31600 22.01800
C  8.50900 46.66700 23.47500
C  10.08500 47.93600 20.75300
C  8.10800 44.85100 21.70800
C  8.20600 43.67900 22.77900
N  8.09100 47.30000 26.45600
C  7.02300 46.89600 25.59900
C  5.81200 46.97800 26.36700
C  6.21500 47.19200 27.68200
C  7.59600 47.48100 27.69600
C  4.35400 46.58700 26.01900
C  5.77400 47.31900 29.06600
O  4.69600 47.06300 29.61400
C  7.07500 47.65700 29.97000
C  7.23400 46.42300 30.75100
O  7.34000 45.27800 30.30500
O  7.25800 46.76800 32.08900
C  7.20000 45.58400 33.02600
H  13.59900 49.18900 28.48600
H  12.48500 47.16500 22.29100
H  6.41000 46.30000 23.68000
H  9.43900 49.04700 30.98400
H  12.37800 49.19100 30.42400
H  12.12600 51.32300 30.33300
H  10.47900 51.14100 30.82100
H  10.85200 51.28600 29.06100
H  11.63000 46.93400 30.95500
H  9.98100 46.29200 31.13900
H  10.18500 48.08200 33.25100
H  11.75300 47.65000 32.88200
H  15.51200 48.53200 27.68300
H  16.01000 49.80300 26.48400
H  16.50500 48.06500 26.36400
H  16.91200 47.32700 24.51600
H  16.84300 48.93200 24.08600
H  17.34900 47.77200 22.75100
H  10.65100 45.87000 21.30900
H  7.80200 46.92700 21.53100
H  9.10300 48.13500 20.32300
H  10.83200 47.80400 19.97000
H  10.24900 48.89500 21.24400
H  8.66000 44.47500 20.84700
H  7.06500 44.89100 21.39400
H  8.38500 43.82700 23.84400
H  8.94400 42.90200 22.57800
H  7.26800 43.14500 22.63000
H  4.38100 45.60100 25.55400
H  4.02400 47.32900 25.29200
H  3.67200 46.61100 26.86800
H  6.89500 48.53500 30.59100
H  6.46700 44.80900 32.80600
H  6.99700 45.98900 34.01700
H  8.12200 45.00400 33.07100

