158

Mg 25.94400 0.12300 29.59500
C  27.70500 -0.51800 32.65700
C  23.01900 0.05900 31.66600
C  24.11100 -0.07200 26.84300
C  28.77200 -0.80500 27.89100
N  25.42600 -0.20600 31.91800
C  26.37200 -0.29500 32.93700
C  25.74300 -0.13700 34.27300
C  24.22400 -0.37300 33.93800
C  24.21600 -0.12900 32.41000
C  23.68200 -1.81600 34.12300
C  26.11600 1.26800 34.90000
C  26.55600 1.27500 36.37400
H  25.88000 0.39700 37.39000
N  23.89300 0.19500 29.27700
C  22.89500 0.21100 30.29100
C  21.59600 0.43100 29.61500
C  21.86200 0.48000 28.22800
C  23.36300 0.11600 28.08100
C  20.30000 0.68300 30.38300
C  20.86900 0.71300 27.10300
O  21.16200 0.57600 25.97400
C  19.33800 0.83200 27.45800
N  26.31500 -0.60500 27.62700
C  25.43000 -0.42700 26.64800
C  26.16900 -0.35900 25.24700
C  27.66000 -0.32400 25.72900
C  27.60900 -0.53800 27.17100
C  25.86900 -1.56100 24.26600
C  28.42900 0.96100 25.36900
C  29.78200 0.69600 24.60800
N  27.82200 -0.44100 30.08800
C  28.90200 -0.74500 29.30400
C  30.08900 -0.85700 30.06200
C  29.65300 -0.81900 31.38500
C  28.25000 -0.63300 31.35600
C  31.52000 -0.98600 29.61700
C  30.13500 -0.90600 32.78200
O  31.25700 -1.03200 33.22100
C  28.83800 -0.75900 33.67300
C  28.74700 -1.96400 34.46000
O  27.97300 -2.87400 34.23300
O  29.57900 -1.87500 35.55200
C  29.11500 -2.60600 36.68300
H  22.14000 0.22200 32.29300
H  23.59500 -0.09200 25.88100
H  29.70200 -1.00400 27.35500
H  26.14400 -0.93800 34.89400
H  23.61100 0.42800 34.35300
H  23.42100 -2.28300 33.17300
H  22.75200 -1.80200 34.69000
H  24.42500 -2.47300 34.57600
H  25.23000 1.89000 34.77100
H  26.86700 1.70400 34.24200
H  26.40400 2.26000 36.81400
H  27.62600 1.06900 36.36800
H  19.83600 1.61800 30.07300
H  20.51700 0.74400 31.44900
H  19.58900 -0.12700 30.21900
H  18.98600 -0.03600 28.01500
H  18.79400 0.61900 26.53800
H  19.00000 1.80200 27.82100
H  25.89200 0.57900 24.76700
H  28.07700 -1.27200 25.39000
H  24.79300 -1.69700 24.15800
H  26.42200 -2.43700 24.60500
H  26.30400 -1.38100 23.28300
H  28.62400 1.43600 26.33100
H  27.80000 1.63300 24.78700
H  30.56400 1.44700 24.71400
H  29.55900 0.73500 23.54200
H  30.07300 -0.33400 24.81400
H  31.58400 -1.25800 28.56300
H  31.89200 -1.84400 30.17700
H  32.25600 -0.26400 29.97200
H  28.91400 0.11200 34.32500
H  30.00400 -2.71200 37.30600
H  28.86800 -3.64800 36.47700
H  28.34000 -2.05000 37.21100
Mg 46.13700 35.49900 28.07300
C  44.73700 33.23600 30.47500
C  46.67200 37.72100 30.51400
C  47.61600 37.31700 25.76300
C  45.45100 32.98000 25.67000
N  45.66900 35.46100 30.30100
C  45.25600 34.42400 31.07000
C  45.43600 34.79500 32.53800
C  45.55900 36.36500 32.46700
C  45.99400 36.60700 30.98200
C  44.22300 37.15800 32.66800
C  46.73600 34.17900 33.11100
C  46.91200 34.02000 34.62600
H  46.08500 34.79500 35.60200
N  46.88300 37.43700 28.11700
C  47.18200 38.14200 29.23600
C  48.05300 39.25700 28.88700
C  48.27600 39.12800 27.49200
C  47.56700 37.93600 27.03300
C  48.67700 40.13200 29.98300
C  49.10500 40.05400 26.56600
O  49.32000 39.91700 25.34100
C  49.76600 41.29000 27.24400
N  46.29700 35.23000 25.99200
C  47.03500 36.18400 25.28700
C  47.28500 35.66700 23.79200
C  46.27000 34.44800 23.72600
C  46.04300 34.15600 25.20100
C  47.00700 36.75900 22.67000
C  46.78000 33.24700 22.92700
C  45.76200 32.59000 22.00400
N  45.31200 33.52000 28.08700
C  45.14800 32.66000 27.01200
C  44.53100 31.41700 27.52000
C  44.23200 31.73100 28.86900
C  44.76700 32.95000 29.10400
C  44.25000 30.22000 26.80500
C  43.52100 31.23500 30.01700
O  42.84500 30.25900 30.08800
C  43.75600 32.23400 31.20700
C  44.23400 31.55700 32.40600
O  45.11000 30.72200 32.39900
O  43.63200 32.08000 33.54600
C  43.89300 31.39000 34.76100
H  46.75200 38.46300 31.31200
H  48.32900 37.80000 25.09200
H  45.14000 32.18200 24.99300
H  44.57900 34.66000 33.19700
H  46.30900 36.59000 33.22500
H  44.18500 37.65800 33.63600
H  43.34400 36.51900 32.58300
H  44.10900 37.91500 31.89200
H  47.54800 34.75800 32.67000
H  46.81200 33.17400 32.69700
H  47.98800 34.19400 34.65100
H  46.64500 32.98800 34.85200
H  48.44900 39.98700 31.03900
H  48.22100 41.07300 29.67400
H  49.75600 40.18400 29.83500
H  49.02900 41.81300 27.85300
H  50.13100 41.95500 26.46200
H  50.56800 40.89200 27.86600
H  48.30300 35.28800 23.70200
H  45.33900 34.82300 23.30100
H  46.08300 36.58500 22.11700
H  47.82200 36.64600 21.95400
H  46.84100 37.78400 23.00100
H  47.33400 32.54300 23.54700
H  47.46200 33.56800 22.13900
H  45.74800 33.12200 21.05300
H  44.76400 32.84200 22.36300
H  45.97700 31.52300 21.93700
H  44.38500 29.50100 27.61300
H  45.06500 30.16800 26.08400
H  43.23200 30.20800 26.41600
H  42.81600 32.73000 31.44700
H  44.53000 30.50800 34.69100
H  42.98600 31.06100 35.26700
H  44.28400 32.12100 35.46900

