158

Mg 29.31800 58.73300 40.73700
C  26.12800 57.51800 39.74700
C  30.77700 56.00600 39.28900
C  32.30300 60.42300 40.78700
C  27.57700 61.83500 41.32500
N  28.53000 56.96900 39.70100
C  27.19900 56.68500 39.41900
C  27.14600 55.48700 38.38100
C  28.53900 54.82600 38.58900
C  29.39000 56.03400 39.12500
C  28.64400 53.60400 39.51500
C  26.78600 55.91700 36.89600
C  25.49800 55.27100 36.28200
H  25.66200 54.63300 34.84800
N  31.30600 58.20900 40.18600
C  31.74900 56.97200 39.71400
C  33.16700 56.94700 39.69200
C  33.63900 58.27800 40.08800
C  32.42200 59.03700 40.50000
C  33.85500 55.70600 39.24700
C  35.08500 58.64800 40.14500
O  35.87600 57.80900 39.86500
C  35.64900 59.99800 40.77200
N  29.83500 60.77500 40.95500
C  31.13800 61.19900 41.08800
C  31.21100 62.73000 41.38200
C  29.72600 63.01700 41.74700
C  28.96500 61.78200 41.29100
C  32.33200 63.16400 42.40500
C  29.21800 64.38000 41.11100
C  28.33500 65.31700 42.00100
N  27.28700 59.47600 40.91500
C  26.70700 60.76500 41.16100
C  25.25200 60.62200 41.27400
C  24.99000 59.35700 40.76100
C  26.27700 58.77200 40.44800
C  24.25600 61.72000 41.62400
C  23.90100 58.39300 40.49900
O  22.69700 58.54600 40.67700
C  24.59200 57.35100 39.66000
C  24.18200 56.11500 40.29900
O  24.41100 55.81900 41.47900
O  23.63000 55.26300 39.35800
C  23.10700 54.06100 39.96000
H  31.25400 55.05100 39.05800
H  33.25100 60.96300 40.75500
H  27.12600 62.79400 41.58700
H  26.39700 54.81300 38.79700
H  29.02100 54.46400 37.68100
H  29.41900 53.83000 40.24700
H  28.85200 52.68400 38.96800
H  27.67600 53.43600 39.98600
H  27.70800 55.78900 36.32800
H  26.58100 56.98600 36.83300
H  24.66800 55.97200 36.19200
H  25.09400 54.49800 36.93500
H  34.76800 56.05600 38.76500
H  33.21200 55.08800 38.62100
H  34.28600 55.06000 40.01300
H  35.38800 60.76600 40.04400
H  36.72700 59.94800 40.92700
H  35.08200 60.10600 41.69700
H  31.56400 63.27100 40.50400
H  29.56100 63.00100 42.82400
H  32.91100 63.90200 41.85000
H  32.84100 62.27200 42.76900
H  31.93000 63.75900 43.22600
H  28.48800 64.17700 40.32900
H  30.14400 64.92300 40.91900
H  28.04300 64.85500 42.94400
H  27.51200 65.59500 41.34300
H  28.98700 66.16200 42.22100
H  23.98400 62.17100 40.66900
H  24.74900 62.38500 42.33300
H  23.31300 61.33400 42.01000
H  24.25900 57.50200 38.63300
H  22.45300 54.24400 40.81300
H  23.88800 53.34500 40.21400
H  22.44100 53.65800 39.19700
Mg 25.90500 50.69000 26.03500
C  23.81300 51.79300 28.61800
C  28.03800 49.32800 28.42000
C  28.20600 50.14300 23.64700
C  23.62600 51.94000 23.83800
N  25.90900 50.58300 28.30800
C  24.95500 51.11400 29.17600
C  25.23500 50.92900 30.63300
C  26.60500 50.17200 30.48700
C  26.95100 50.01400 28.98300
C  27.82700 50.78700 31.26800
C  24.08300 50.16500 31.38700
C  24.41900 49.42000 32.73200
H  23.57600 49.80100 33.97400
N  27.81700 49.82200 26.03300
C  28.49500 49.29700 27.05300
C  29.77000 48.64300 26.58300
C  29.85900 48.87800 25.25100
C  28.61900 49.70000 24.89600
C  30.65000 47.80700 27.47000
C  30.87700 48.28800 24.32000
O  30.93400 48.70000 23.20100
C  31.96100 47.30300 24.71800
N  25.99600 51.08100 24.07600
C  26.98100 50.64700 23.26200
C  26.53800 50.87000 21.75600
C  25.05800 51.29700 21.77000
C  24.84600 51.38100 23.34300
C  27.39100 51.81200 21.01000
C  23.99000 50.19800 21.12800
C  23.65300 50.55900 19.68300
N  24.04300 51.55800 26.11200
C  23.20400 51.99600 25.14900
C  22.00000 52.47700 25.63600
C  22.23700 52.54900 26.99500
C  23.47400 51.91500 27.26100
C  20.72100 52.94900 24.86900
C  21.68600 53.02000 28.24800
O  20.64900 53.71400 28.44400
C  22.65800 52.45200 29.38300
C  23.09500 53.53600 30.33900
O  24.16300 54.12300 30.30400
O  22.13500 53.69500 31.28700
C  22.28200 54.62900 32.42000
H  28.55200 48.97500 29.31600
H  29.00200 50.08100 22.90200
H  22.87200 52.22200 23.10100
H  25.33900 51.90900 31.09800
H  26.44500 49.16900 30.88200
H  27.62100 51.52700 32.04100
H  28.63900 51.14500 30.63500
H  28.35500 49.98600 31.78500
H  23.93600 49.30800 30.72900
H  23.12300 50.67700 31.45200
H  25.44800 49.57700 33.05600
H  24.16400 48.36100 32.69900
H  30.52200 46.72900 27.37500
H  30.52400 48.06300 28.52200
H  31.67900 48.13700 27.32300
H  31.53500 46.35600 25.04900
H  32.33400 47.92200 25.53400
H  32.71600 47.14400 23.94800
H  26.69400 49.91400 21.25600
H  24.88400 52.28700 21.34900
H  28.16200 52.21900 21.66500
H  26.80500 52.58000 20.50500
H  27.91700 51.17600 20.29800
H  23.07800 50.30600 21.71400
H  24.62700 49.31600 21.20000
H  22.56800 50.66200 19.66800
H  24.02100 49.76100 19.03800
H  24.04500 51.51400 19.33500
H  20.78400 54.02300 24.69400
H  19.85900 52.84300 25.52700
H  20.60600 52.40900 23.93000
H  21.99900 51.70800 29.82900
H  21.40400 55.26400 32.30000
H  23.13200 55.30700 32.33900
H  22.37900 54.15300 33.39600

