158

Mg 0.81800 8.88200 26.71900
C  1.26700 10.91500 29.41600
C  0.55200 6.13500 28.98800
C  0.74700 6.75100 24.06000
C  1.09600 11.58100 24.59400
N  0.85400 8.58600 28.97800
C  1.08200 9.58900 29.84200
C  1.11400 9.08200 31.30700
C  1.13700 7.50700 31.14100
C  0.78100 7.37800 29.64200
C  2.45400 6.78000 31.43600
C  -0.01100 9.63800 32.23500
C  -0.28400 8.88500 33.61800
H  0.86800 8.42500 34.46100
N  0.61000 6.80600 26.54900
C  0.47700 5.90200 27.57500
C  0.22100 4.57800 26.98800
C  0.47100 4.61300 25.57400
C  0.57400 6.10800 25.35500
C  -0.00100 3.33500 27.82100
C  0.45900 3.45100 24.57500
O  0.54600 3.74300 23.42100
C  0.22400 1.99300 25.01300
N  0.79600 9.16300 24.63800
C  0.82300 8.14500 23.76800
C  0.92600 8.77700 22.33700
C  0.53400 10.18200 22.56400
C  0.83300 10.31200 23.98900
C  2.37300 8.56100 21.74400
C  -0.97900 10.44900 22.26700
C  -1.36800 11.35700 21.10100
N  1.23400 10.84800 26.89900
C  1.27500 11.85400 26.01300
C  1.69200 13.09600 26.67100
C  1.54400 12.76100 27.99300
C  1.34900 11.39300 28.06000
C  1.84200 14.43000 25.96300
C  1.73100 13.33000 29.30400
O  1.93700 14.46100 29.59600
C  1.45900 12.12100 30.24300
C  2.53400 11.96700 31.22400
O  3.67900 11.67500 30.94300
O  2.04500 12.25200 32.46300
C  2.93800 12.06500 33.63300
H  0.59200 5.25200 29.63000
H  0.60900 6.20500 23.12500
H  1.06300 12.41500 23.89100
H  2.10400 9.39000 31.64500
H  0.35500 7.00700 31.71100
H  3.30700 7.37400 31.76300
H  2.88100 6.53600 30.46400
H  2.27000 5.96900 32.14100
H  -0.89800 9.41900 31.64000
H  0.22000 10.66400 32.52100
H  -1.08300 8.15000 33.51500
H  -0.84500 9.67300 34.12100
H  -0.95700 2.91600 27.50500
H  -0.23900 3.57400 28.85800
H  0.85500 2.66000 27.83900
H  0.54600 1.24400 24.29000
H  -0.81300 1.88600 25.33200
H  0.93700 1.75000 25.80100
H  0.28500 8.26400 21.62000
H  1.27200 10.74900 21.99800
H  2.23500 8.06500 20.78300
H  3.00400 7.92600 22.36600
H  2.92600 9.48600 21.58100
H  -1.30200 11.09500 23.08300
H  -1.61200 9.56200 22.29100
H  -0.57900 11.46500 20.35700
H  -1.74700 12.31000 21.47200
H  -2.21000 10.81800 20.66600
H  2.40900 14.35500 25.03500
H  2.19800 15.10600 26.74000
H  0.84600 14.77400 25.68500
H  0.56000 12.36500 30.80900
H  3.57400 12.94000 33.76600
H  3.47100 11.11400 33.60800
H  2.31200 12.16100 34.52000
Mg 55.24900 24.03400 45.13700
C  52.95400 26.49400 44.05200
C  53.16300 21.61300 44.11300
C  57.92100 21.86800 44.92000
C  57.57100 26.57800 45.88500
N  53.27100 24.07000 44.12000
C  52.51000 25.15500 43.83600
C  51.07000 24.63500 43.36600
C  51.16500 23.15000 43.80800
C  52.61600 22.88900 44.02100
C  50.33300 22.74300 44.98100
C  50.67900 24.84600 41.88500
C  49.25500 25.19900 41.60600
H  48.57900 24.83900 40.27200
N  55.54900 21.98200 44.62200
C  54.48400 21.17200 44.39800
C  55.01200 19.81100 44.20800
C  56.39300 19.81300 44.50000
C  56.74100 21.23300 44.63600
C  54.09900 18.60800 43.73800
C  57.28700 18.61500 44.69500
O  56.94100 17.50200 44.29200
C  58.65900 18.69500 45.39900
N  57.50100 24.28400 45.16600
C  58.33700 23.21100 45.25900
C  59.77900 23.55400 45.52500
C  59.66700 25.06600 45.96200
C  58.16300 25.34100 45.67000
C  60.54800 22.78900 46.57700
C  60.65900 26.07500 45.30500
C  61.37200 27.14300 46.24600
N  55.22800 26.09100 45.27800
C  56.21500 26.97800 45.53800
C  55.60500 28.33400 45.48900
C  54.38200 28.18200 44.87600
C  54.18300 26.78300 44.71200
C  56.37200 29.55800 45.87800
C  53.25200 28.93200 44.31300
O  53.08800 30.11500 44.25100
C  52.28200 27.84900 43.75800
C  52.06300 28.23500 42.32800
O  52.94300 28.53500 41.53600
O  50.71800 28.30400 42.01600
C  50.30400 28.67700 40.61700
H  52.37700 20.87000 43.96500
H  58.79400 21.23700 45.09600
H  58.25400 27.29400 46.34500
H  50.41200 25.23200 43.99700
H  50.78500 22.64600 42.91900
H  49.61600 23.48300 45.33700
H  50.96500 22.42000 45.80800
H  49.84500 21.82200 44.66300
H  50.95700 23.99400 41.26500
H  51.31700 25.61800 41.45600
H  49.15600 26.28400 41.64600
H  48.63900 24.66700 42.33100
H  53.95000 18.04900 44.66200
H  54.53000 17.96500 42.97000
H  53.26100 19.07200 43.21700
H  59.45200 19.01400 44.72200
H  58.63600 17.70100 45.84700
H  58.49800 19.26000 46.31700
H  60.28000 23.47200 44.56000
H  59.75500 25.13900 47.04600
H  61.10200 22.01800 46.04300
H  59.93200 22.24100 47.28900
H  61.29400 23.46400 46.99700
H  60.18600 26.62100 44.48800
H  61.49100 25.53700 44.85000
H  61.09800 28.17400 46.02300
H  62.42800 27.01400 46.00900
H  61.34800 26.96400 47.32100
H  56.09100 29.98400 46.84100
H  56.20200 30.44100 45.26200
H  57.40500 29.34400 46.15300
H  51.31300 27.84500 44.25800
H  51.17300 29.02500 40.05800
H  49.54200 29.45600 40.63100
H  49.86200 27.80400 40.13700

