158

Mg 41.04100 41.77700 26.46900
C  40.36400 43.87500 29.26000
C  42.50500 39.65500 28.54100
C  42.06600 40.05500 23.71200
C  39.83300 44.34100 24.42400
N  41.39200 41.76700 28.68000
C  40.84800 42.63600 29.60700
C  40.97600 42.09900 31.01300
C  41.91600 40.84000 30.75700
C  41.93100 40.68400 29.23700
C  43.38600 40.92000 31.22700
C  39.65500 41.92100 31.82700
C  39.80900 41.26800 33.25000
H  39.00000 41.87800 34.34400
N  42.06700 40.08800 26.21500
C  42.58000 39.32000 27.16100
C  43.08000 38.09000 26.58800
C  42.87000 38.19800 25.20500
C  42.35800 39.50600 24.97800
C  43.68100 36.96900 27.38700
C  43.09300 37.14500 24.19300
O  42.84800 37.25200 23.00600
C  43.67200 35.82400 24.62400
N  40.90700 42.12700 24.40100
C  41.44000 41.29000 23.44700
C  41.25400 41.87100 22.01400
C  40.18700 43.02600 22.30000
C  40.27600 43.21600 23.78000
C  42.65200 42.38400 21.41100
C  38.70400 42.77300 21.84200
C  38.13900 41.46700 22.25400
N  40.26400 43.71300 26.68800
C  39.87800 44.65500 25.78900
C  39.62700 45.88700 26.43400
C  39.74200 45.62600 27.78700
C  40.15800 44.27700 27.92200
C  39.21400 47.14200 25.79100
C  39.63400 46.23100 29.09200
O  39.35600 47.31500 29.44200
C  40.02000 45.13300 30.13600
C  41.16600 45.57600 31.02000
O  42.31800 45.66000 30.64800
O  40.81200 45.87400 32.26000
C  41.92800 46.19800 33.20100
H  42.67500 38.81000 29.21100
H  42.29000 39.47800 22.81300
H  39.44000 45.17600 23.84000
H  41.62800 42.84800 31.46300
H  41.41700 39.96800 31.17700
H  44.16700 40.86900 30.46800
H  43.46700 40.10800 31.94900
H  43.47100 41.81600 31.84300
H  39.02500 41.34800 31.14700
H  39.18200 42.88000 32.04200
H  40.87900 41.27800 33.46000
H  39.48400 40.23000 33.17700
H  44.48000 36.59900 26.74400
H  42.88700 36.28700 27.69100
H  44.21200 37.42600 28.22200
H  43.21300 35.34000 25.48600
H  44.75700 35.91900 24.68100
H  43.56000 35.19300 23.74200
H  40.78400 41.11400 21.38600
H  40.57900 43.93500 21.84300
H  42.65900 43.47300 21.36300
H  42.82100 41.99200 20.40800
H  43.49600 42.13800 22.05600
H  38.60300 42.89700 20.76400
H  38.01100 43.53900 22.19100
H  37.12500 41.52800 22.64800
H  38.65700 40.97600 23.07800
H  38.18300 40.87200 21.34200
H  39.74200 47.22500 24.84100
H  39.44400 48.00800 26.41100
H  38.13900 47.28600 25.68800
H  39.17500 44.93900 30.79700
H  42.54600 46.96000 32.72700
H  42.40700 45.22700 33.32600
H  41.48000 46.63300 34.09400
Mg -4.38800 25.50100 26.02300
C  -3.48200 27.34900 28.98600
C  -6.32600 23.57200 28.08100
C  -5.01300 23.75800 23.37500
C  -2.23100 27.57000 24.25100
N  -4.78700 25.40900 28.25500
C  -4.32500 26.23900 29.28000
C  -5.03700 25.89300 30.55900
C  -5.75000 24.50000 30.31600
C  -5.54400 24.42100 28.80400
C  -5.08800 23.29700 31.06200
C  -5.89900 27.12700 31.06900
C  -6.51900 26.90600 32.45100
H  -6.02300 25.86500 33.51400
N  -5.56200 23.92100 25.72300
C  -6.35700 23.31100 26.67100
C  -7.15900 22.32700 26.00500
C  -6.71300 22.24900 24.66200
C  -5.70300 23.27700 24.53200
C  -8.17500 21.48100 26.75600
C  -7.26800 21.42400 23.52400
O  -6.85700 21.51000 22.37000
C  -8.40900 20.53500 23.77100
N  -3.66000 25.56400 24.13200
C  -4.10400 24.78200 23.17700
C  -3.35500 25.04800 21.84800
C  -2.77800 26.43600 22.12600
C  -2.87200 26.51700 23.60300
C  -2.31300 23.93700 21.51400
C  -3.63900 27.55000 21.37900
C  -3.04700 27.93300 20.06100
N  -3.15800 27.28300 26.49200
C  -2.24700 27.97100 25.64400
C  -1.61700 29.08200 26.39200
C  -2.04600 28.88300 27.73500
C  -2.91100 27.74700 27.72600
C  -0.71000 30.18300 25.83300
C  -2.00300 29.40200 29.10600
O  -1.42100 30.37700 29.56100
C  -2.89100 28.38500 29.98800
C  -2.02500 27.69200 30.93800
O  -1.02700 27.09200 30.59400
O  -2.54900 27.67400 32.22000
C  -1.87500 26.84000 33.18800
H  -6.92100 22.88100 28.68100
H  -5.28000 23.13600 22.51900
H  -1.64800 28.27000 23.64900
H  -4.24200 25.73400 31.28700
H  -6.81500 24.43900 30.53800
H  -4.32000 22.84500 30.43500
H  -5.80200 22.52200 31.34100
H  -4.67300 23.53600 32.04100
H  -6.69200 27.14700 30.32100
H  -5.25700 28.00300 31.16100
H  -7.58600 26.85400 32.23800
H  -6.32200 27.84400 32.97100
H  -9.10400 21.44600 26.18700
H  -8.45600 21.87500 27.73300
H  -7.76000 20.48300 26.89800
H  -8.31700 19.82400 24.59200
H  -8.41600 19.95800 22.84600
H  -9.34000 21.09600 23.85600
H  -4.10900 25.06500 21.06100
H  -1.74400 26.62900 21.84100
H  -1.24900 24.16400 21.44800
H  -2.71700 23.56100 20.57400
H  -2.36800 23.11500 22.22700
H  -3.76300 28.38600 22.06800
H  -4.60200 27.08300 21.17200
H  -3.73600 27.78400 19.23000
H  -2.27300 27.18500 19.88900
H  -2.70500 28.96700 20.03500
H  -0.24200 29.79200 24.92900
H  0.13300 30.41500 26.48400
H  -1.31400 31.08200 25.71000
H  -3.69400 28.89200 30.52300
H  -2.44000 26.71800 34.11200
H  -0.90900 27.28200 33.43500
H  -1.91500 25.82100 32.80300

