158

Mg 41.31000 9.46800 29.67300
C  42.97900 10.69000 32.41500
C  38.82000 8.18000 31.61800
C  39.86900 8.27800 26.82900
C  43.78500 10.87900 27.71100
N  41.01300 9.30700 31.74800
C  41.81300 9.91900 32.72600
C  41.19400 9.56700 34.10700
C  40.03900 8.60900 33.79600
C  39.96800 8.64300 32.27300
C  40.07700 7.15700 34.36600
C  40.85200 10.82500 34.99000
C  41.18300 10.63700 36.48900
H  40.96400 11.85400 37.42600
N  39.62500 8.35000 29.23300
C  38.74300 7.95000 30.24100
C  37.62900 7.28700 29.62600
C  37.84100 7.31900 28.18800
C  39.15100 7.97200 28.03200
C  36.51200 6.60800 30.43900
C  36.89200 7.01100 26.99700
O  37.20600 7.33000 25.86900
C  35.56600 6.31800 27.21200
N  41.77800 9.57600 27.59000
C  41.07300 8.95500 26.62600
C  41.69200 9.26700 25.24400
C  42.64700 10.51600 25.46000
C  42.70400 10.37900 26.98100
C  42.35700 7.95300 24.65100
C  42.21600 11.90700 24.95200
C  40.87200 12.43400 25.48300
N  43.11900 10.42700 29.95000
C  44.08100 10.83800 29.05500
C  45.11400 11.48100 29.71400
C  44.78800 11.43200 31.09300
C  43.49700 10.78200 31.17000
C  46.13200 12.15300 28.95200
C  45.17700 11.76300 32.49100
O  46.20000 12.30800 32.88700
C  44.01800 11.22400 33.41800
C  44.58400 10.14300 34.30300
O  44.43500 8.93100 34.21900
O  45.42000 10.67800 35.26400
C  46.20700 9.84100 36.23500
H  38.05300 7.73300 32.25400
H  39.44400 7.95700 25.87600
H  44.52000 11.33000 27.04000
H  41.87900 9.02800 34.76100
H  39.16000 9.14700 34.15100
H  39.15600 6.97300 34.91900
H  40.86300 7.12700 35.12100
H  40.17300 6.36600 33.62200
H  39.77000 10.94900 35.03000
H  41.30800 11.75000 34.63700
H  42.15700 10.23200 36.76400
H  40.50700 9.88800 36.90100
H  35.58600 6.63700 29.86400
H  36.40500 7.08400 31.41300
H  36.85100 5.59100 30.63700
H  35.14800 6.17500 26.21600
H  34.96200 7.00900 27.79900
H  35.67900 5.38800 27.77000
H  40.91300 9.50400 24.51900
H  43.62400 10.43900 24.98300
H  43.41600 8.13900 24.47400
H  41.92000 7.49600 23.76400
H  42.22100 7.09800 25.31400
H  42.11300 11.90300 23.86700
H  42.93000 12.66200 25.28000
H  40.28200 12.97600 24.74300
H  41.26700 13.04100 26.29700
H  40.15600 11.71300 25.87800
H  45.74400 13.00800 28.39900
H  46.59900 11.45900 28.25300
H  46.93500 12.55900 29.56800
H  43.67200 12.05000 34.04000
H  45.56700 9.02300 36.56600
H  46.77400 10.47400 36.91700
H  46.89800 9.41100 35.51000
Mg -1.37900 34.31800 27.98500
C  -3.02900 32.24300 30.14200
C  -0.09100 36.08500 30.58000
C  0.02600 36.48900 25.73500
C  -3.09300 32.74600 25.30300
N  -1.58900 34.17500 30.06000
C  -2.29300 33.20200 30.84000
C  -2.01900 33.38100 32.35800
C  -1.32600 34.79300 32.42900
C  -0.93400 35.00600 30.94600
C  -2.25200 35.99300 32.84200
C  -1.11500 32.19000 32.98000
C  -1.78100 31.57300 34.15100
H  -0.98300 31.66900 35.43700
N  -0.14100 35.99000 28.12000
C  0.27100 36.57100 29.29200
C  1.29800 37.65400 29.02000
C  1.40900 37.69100 27.61700
C  0.42600 36.67800 27.07200
C  2.02200 38.46400 30.14900
C  2.34100 38.69400 26.83100
O  2.45100 38.58500 25.57700
C  3.19500 39.67000 27.47300
N  -1.67400 34.62900 25.89200
C  -1.06900 35.64800 25.24900
C  -1.49600 35.71600 23.74300
C  -1.88700 34.21100 23.55200
C  -2.23500 33.78900 24.97300
C  -2.71300 36.65800 23.55700
C  -0.67800 33.40800 22.99400
C  -0.96100 31.96700 22.39400
N  -2.78600 32.86000 27.71200
C  -3.36500 32.28600 26.61200
C  -4.05900 31.06400 26.96000
C  -3.95300 30.98300 28.34700
C  -3.22600 32.09400 28.80400
C  -4.84100 30.18600 26.08100
C  -4.29500 30.24500 29.50800
O  -5.08000 29.31300 29.70800
C  -3.56300 30.96100 30.71800
C  -4.72300 31.17000 31.71100
O  -5.54300 32.03600 31.73600
O  -4.60300 30.13700 32.66800
C  -5.77600 30.05200 33.49900
H  0.38700 36.61600 31.40600
H  0.47700 37.18400 25.02400
H  -3.44500 32.20600 24.42200
H  -2.98500 33.41500 32.86100
H  -0.44900 34.78000 33.07500
H  -2.43500 36.71800 32.04900
H  -1.77500 36.40600 33.73100
H  -3.25800 35.69000 33.13300
H  -0.15400 32.61900 33.26600
H  -0.92100 31.44700 32.20600
H  -1.88900 30.53100 33.85300
H  -2.82300 31.84200 34.32500
H  1.53000 38.38900 31.11900
H  1.89600 39.49800 29.83000
H  3.06900 38.16100 30.17000
H  2.63400 40.45500 27.98100
H  3.75300 40.11900 26.65200
H  3.97400 39.32000 28.15100
H  -0.69900 36.08800 23.10000
H  -2.64100 34.02900 22.78600
H  -3.17000 37.00900 24.48200
H  -3.46900 36.21900 22.90600
H  -2.45500 37.56900 23.01500
H  -0.05100 33.20400 23.86100
H  -0.14900 34.05000 22.28900
H  -2.03700 31.84300 22.27300
H  -0.58200 31.29700 23.16400
H  -0.34300 31.84400 21.50400
H  -4.62900 29.19000 26.47000
H  -4.54800 30.23200 25.03300
H  -5.89900 30.35100 26.28800
H  -2.69200 30.43700 31.11200
H  -5.87400 28.97600 33.64500
H  -6.74800 30.28200 33.06100
H  -5.39200 30.58100 34.37100

