158

Mg 40.65700 9.03600 29.49700
C  42.14500 10.55100 32.20300
C  38.30500 7.64000 31.71600
C  39.03300 7.70200 26.93500
C  43.07000 10.35800 27.43300
N  40.32300 9.05200 31.73200
C  41.05400 9.77700 32.60500
C  40.50100 9.56700 34.00500
C  39.33900 8.51300 33.83800
C  39.34600 8.25300 32.35500
C  39.43200 7.26900 34.69100
C  40.11000 10.98300 34.65500
C  39.38600 10.90900 35.99900
H  39.78600 11.78500 37.21000
N  38.93000 7.82700 29.36800
C  38.15200 7.38600 30.33700
C  37.01700 6.71300 29.78600
C  37.20400 6.63700 28.37800
C  38.43200 7.39500 28.16100
C  35.89100 6.04800 30.62200
C  36.44800 5.87900 27.27800
O  36.80200 5.87800 26.14900
C  35.15100 5.18700 27.62200
N  41.04300 8.92400 27.38700
C  40.22800 8.33200 26.56700
C  40.75600 8.55700 25.08200
C  41.93100 9.54500 25.21600
C  42.01200 9.66800 26.75700
C  41.01700 7.21900 24.38600
C  41.60800 10.90000 24.43700
C  40.50600 11.82700 24.97200
N  42.29600 10.07200 29.71800
C  43.20600 10.49900 28.82100
C  44.21800 11.39500 29.43800
C  43.83100 11.46200 30.80200
C  42.68900 10.64600 30.92500
C  45.34900 12.12500 28.72300
C  44.17200 11.98000 32.04200
O  45.13900 12.59800 32.34100
C  43.08200 11.39400 33.05900
C  43.72200 10.47200 34.06600
O  44.26200 9.38200 33.81600
O  43.64400 11.05100 35.31400
C  44.20500 10.34300 36.42600
H  37.61500 7.19000 32.43200
H  38.39900 7.62300 26.04900
H  43.79700 10.68800 26.68800
H  41.32700 9.07800 34.52100
H  38.40100 8.99000 34.12200
H  40.27000 7.27400 35.38900
H  39.57100 6.46900 33.96500
H  38.51300 7.08200 35.24500
H  39.54900 11.48000 33.86400
H  40.90800 11.69600 34.86600
H  39.50100 9.86700 36.29800
H  38.30800 10.96200 35.84800
H  36.27200 5.76500 31.60300
H  35.55800 5.07700 30.25300
H  35.03500 6.70500 30.76900
H  34.45800 5.90900 28.05300
H  35.37500 4.37300 28.31100
H  34.71200 4.78300 26.71000
H  39.88100 8.89900 24.52900
H  42.87600 9.07700 24.93900
H  42.06700 7.15000 24.10000
H  40.41600 7.06400 23.49000
H  40.82800 6.39600 25.07600
H  41.45600 10.67600 23.38100
H  42.52900 11.45700 24.26600
H  40.88100 12.79000 25.32000
H  40.02900 11.39700 25.85300
H  39.69700 11.79000 24.24200
H  45.88600 12.74000 29.44600
H  44.92700 12.88500 28.06600
H  45.96100 11.41000 28.17400
H  42.43500 12.16400 33.47900
H  43.79900 9.33200 36.46100
H  44.05200 10.76600 37.41900
H  45.28000 10.18700 36.33500
Mg -2.19400 35.66400 27.21500
C  -3.54900 33.45800 29.51400
C  -0.62700 37.30900 29.64200
C  -1.11100 37.77900 24.85000
C  -3.99400 33.84600 24.71000
N  -2.29800 35.55900 29.34000
C  -2.79700 34.50000 30.09200
C  -2.59500 34.65600 31.59300
C  -1.64300 35.95000 31.61200
C  -1.60700 36.38900 30.18100
C  -2.01700 37.10700 32.69800
C  -1.89500 33.39100 32.20700
C  -2.63600 32.76100 33.40800
H  -1.75100 32.75700 34.67100
N  -1.03400 37.30400 27.20100
C  -0.42700 37.79000 28.32200
C  0.50200 38.87000 27.96500
C  0.52500 38.84900 26.57500
C  -0.58500 38.01800 26.16700
C  1.18800 39.63400 29.03500
C  1.26100 39.67900 25.63400
O  1.16800 39.67000 24.44600
C  2.39100 40.58100 26.20600
N  -2.61600 35.81700 25.12400
C  -2.04800 36.83600 24.36300
C  -2.32500 36.68900 22.85600
C  -3.20700 35.42200 22.78300
C  -3.32600 34.98900 24.31300
C  -2.93300 37.92300 22.16100
C  -2.61300 34.26700 21.93300
C  -1.45400 33.47000 22.52200
N  -3.66600 34.14400 27.12300
C  -4.24300 33.47200 26.07100
C  -4.98400 32.30900 26.58900
C  -4.79000 32.26800 27.97200
C  -3.85700 33.37300 28.23300
C  -5.83000 31.51100 25.66600
C  -4.97900 31.52800 29.19800
O  -5.43000 30.39900 29.39300
C  -4.35800 32.41300 30.25900
C  -5.50200 33.00600 31.05000
O  -6.26600 33.88400 30.64900
O  -5.58000 32.31800 32.23400
C  -6.52300 32.83200 33.17400
H  -0.04700 37.69800 30.48200
H  -0.70100 38.40900 24.05800
H  -4.58300 33.33000 23.94900
H  -3.56600 34.78000 32.07200
H  -0.59200 35.70200 31.76400
H  -2.23400 36.71500 33.69100
H  -2.83000 37.68600 32.26000
H  -1.09400 37.67500 32.81200
H  -0.94300 33.76900 32.58200
H  -1.55300 32.57100 31.57600
H  -2.91400 31.71500 33.27400
H  -3.52700 33.35200 33.61900
H  1.10500 39.20400 30.03400
H  0.75100 40.63000 28.97100
H  2.25600 39.81200 28.90600
H  2.86000 41.07800 25.35700
H  3.17700 40.10300 26.78900
H  1.91700 41.25400 26.92100
H  -1.41600 36.32400 22.37800
H  -4.26200 35.52900 22.52900
H  -3.80600 37.73700 21.53500
H  -2.19100 38.47400 21.58400
H  -3.23900 38.63900 22.92300
H  -2.22300 34.62600 20.98100
H  -3.42700 33.59600 21.65900
H  -0.65800 33.26500 21.80700
H  -1.82100 32.53800 22.95200
H  -1.02600 33.99000 23.37900
H  -5.39600 31.38200 24.67400
H  -6.62900 32.19000 25.36700
H  -6.32100 30.64900 26.11600
H  -3.73600 31.79500 30.90600
H  -7.35500 33.41200 32.77500
H  -6.04600 33.41700 33.96000
H  -7.16600 32.04100 33.56100

