158

Mg 0.40900 7.58800 26.08900
C  0.95600 9.83600 28.83200
C  0.73000 5.00500 28.47200
C  0.13500 5.41000 23.57400
C  0.73000 10.23100 23.80800
N  0.80500 7.52900 28.39600
C  0.90700 8.52400 29.32900
C  0.85600 7.98300 30.72600
C  1.12000 6.45900 30.62500
C  0.87800 6.32300 29.04000
C  2.42100 5.91700 31.11800
C  -0.47100 8.21200 31.56800
C  -0.38000 8.25200 33.14700
H  0.97500 8.15800 33.76000
N  0.35900 5.53600 26.04600
C  0.52900 4.65000 27.12100
C  0.33600 3.30600 26.63800
C  0.31400 3.32400 25.20500
C  0.25400 4.78700 24.89400
C  0.30200 2.09300 27.49100
C  0.34300 2.23800 24.16300
O  0.28800 2.45500 22.99800
C  0.43400 0.77700 24.56100
N  0.41000 7.84100 24.03300
C  0.10000 6.76900 23.19100
C  0.13100 7.20800 21.66600
C  0.18100 8.74500 21.81500
C  0.45700 8.99800 23.29400
C  1.37600 6.53700 20.85000
C  -1.03100 9.54000 21.19100
C  -0.71600 10.78400 20.38300
N  0.70800 9.57100 26.21800
C  0.80200 10.58400 25.20400
C  0.96500 11.87700 25.85600
C  1.03300 11.61200 27.23100
C  0.89500 10.20700 27.43400
C  0.93400 13.25100 25.22200
C  1.17800 12.30400 28.52900
O  1.37700 13.49700 28.83300
C  1.05600 11.10100 29.60400
C  2.11500 11.22600 30.57900
O  3.14100 10.63300 30.57200
O  1.78500 12.14200 31.57500
C  2.70100 12.19100 32.71600
H  0.88600 4.13300 29.11200
H  0.01300 4.74300 22.71700
H  0.74800 10.91300 22.95500
H  1.62700 8.57600 31.21800
H  0.23500 5.96700 31.02700
H  2.80700 5.12800 30.47300
H  2.44000 5.41600 32.08600
H  3.12300 6.75200 31.11700
H  -1.20200 7.46600 31.25700
H  -0.79500 9.16300 31.14500
H  -0.95400 7.35000 33.35900
H  -0.87600 9.16100 33.48600
H  0.99900 1.29300 27.24000
H  -0.68300 1.71700 27.21300
H  0.43800 2.31200 28.55000
H  0.59700 0.10700 23.71600
H  -0.45200 0.43200 25.09300
H  1.25300 0.58500 25.25500
H  -0.73900 6.84300 21.12000
H  1.09400 9.10500 21.34200
H  1.07900 6.46400 19.80300
H  1.74100 5.59700 21.26300
H  2.20800 7.24000 20.83900
H  -1.71900 9.75800 22.00800
H  -1.61900 8.99200 20.45400
H  -0.91900 10.46200 19.36200
H  0.37000 10.86800 20.43000
H  -1.30800 11.61400 20.76900
H  0.92100 13.45900 24.15300
H  1.78800 13.78400 25.63900
H  0.05800 13.78100 25.59600
H  0.11800 11.15000 30.15700
H  3.33000 13.08100 32.69500
H  3.40100 11.37500 32.89700
H  2.02900 12.16200 33.57400
Mg 16.81200 52.07100 26.83800
C  19.00500 50.73200 29.18800
C  14.56900 52.67000 29.37700
C  14.65300 53.10500 24.57200
C  18.95100 50.81300 24.33700
N  16.75300 51.63600 28.98100
C  17.87400 51.30500 29.77600
C  17.58100 51.43000 31.25200
C  16.07500 51.67500 31.31700
C  15.75800 52.03300 29.80900
C  15.28100 50.45300 31.79100
C  18.41000 52.67700 31.85300
C  19.01800 52.34000 33.19200
H  18.11300 51.75400 34.19700
N  14.94300 53.00200 26.95600
C  14.16800 53.07100 28.07500
C  12.94100 53.75400 27.74900
C  12.88600 53.88600 26.34500
C  14.20100 53.35300 25.87100
C  11.85500 54.18800 28.76600
C  11.72900 54.39300 25.44600
O  11.60500 54.17600 24.23400
C  10.54200 55.21500 25.99700
N  16.90700 52.06900 24.72100
C  15.85100 52.59100 24.05300
C  16.18700 52.66500 22.51900
C  17.54800 51.87600 22.39700
C  17.86300 51.58000 23.89000
C  15.15100 52.09100 21.48700
C  18.75100 52.51700 21.66000
C  19.46200 53.69100 22.37100
N  18.58800 50.98100 26.73200
C  19.25400 50.46100 25.68200
C  20.45100 49.71800 26.13200
C  20.36700 49.77200 27.50500
C  19.19600 50.51600 27.82500
C  21.58600 49.15400 25.31100
C  21.07800 49.43800 28.75900
O  22.10300 48.81700 28.91100
C  20.23300 50.11100 29.84000
C  19.90600 49.12700 30.91400
O  19.11500 48.19700 30.76300
O  20.64700 49.30700 32.01500
C  20.33800 48.43100 33.10800
H  13.77700 52.75200 30.12500
H  13.93200 53.46600 23.83400
H  19.71300 50.52300 23.61000
H  17.84200 50.48000 31.71700
H  15.79700 52.55800 31.89200
H  15.87700 49.81400 32.44300
H  14.93000 49.76100 31.02500
H  14.42100 50.78100 32.37500
H  17.82800 53.59700 31.80400
H  19.18300 52.89900 31.11800
H  19.38000 53.28200 33.60400
H  19.84500 51.63400 33.11500
H  11.59800 55.21100 28.49200
H  12.19700 54.19300 29.80100
H  11.14100 53.40900 28.49900
H  9.90200 54.68500 26.70200
H  9.88400 55.45500 25.16200
H  11.06700 56.08200 26.39900
H  16.26800 53.73400 22.32300
H  17.34900 50.86700 22.03500
H  14.45900 52.87200 21.17400
H  14.47400 51.36000 21.92900
H  15.60300 51.66000 20.59300
H  18.48400 52.84600 20.65500
H  19.41600 51.65700 21.58200
H  20.44500 53.42300 22.75900
H  18.82000 54.08200 23.16000
H  19.47500 54.49600 21.63600
H  21.27100 48.42000 24.57000
H  22.38200 48.70500 25.90500
H  21.89200 50.06800 24.80300
H  20.81100 50.92500 30.27800
H  20.88500 47.50900 32.91400
H  19.30500 48.11800 33.26100
H  20.58200 48.92000 34.05200

