158

Mg 17.32900 -1.47900 27.77800
C  16.16200 0.42200 30.57600
C  19.42300 -3.08500 29.72700
C  18.78800 -2.73200 24.96300
C  15.57300 0.87300 25.76900
N  17.77900 -1.28600 29.91400
C  17.12500 -0.59700 30.84400
C  17.63800 -0.93000 32.24300
C  18.88200 -1.87200 31.95400
C  18.66100 -2.11000 30.44400
C  20.31600 -1.27200 32.23900
C  16.49000 -1.46700 33.11300
C  16.33900 -0.84400 34.52500
H  17.65600 -0.29600 35.23700
N  18.71100 -2.94100 27.41200
C  19.43100 -3.51300 28.39800
C  20.20500 -4.60400 27.75100
C  20.12600 -4.42900 26.32900
C  19.18600 -3.33600 26.16300
C  20.96100 -5.57000 28.55500
C  20.69800 -5.26700 25.18700
O  20.62900 -5.06200 23.98000
C  21.55400 -6.44900 25.54100
N  17.16700 -0.98200 25.72600
C  17.94000 -1.63900 24.72300
C  17.67400 -1.03000 23.36200
C  16.39400 -0.17600 23.65400
C  16.37500 -0.04300 25.14300
C  18.91400 -0.36700 22.65100
C  15.13700 -0.91100 23.09800
C  13.81200 -0.10500 23.02200
N  16.10700 0.35300 28.05700
C  15.38200 1.05500 27.12600
C  14.50700 1.98500 27.79300
C  14.78900 1.79400 29.19800
C  15.79600 0.78800 29.27000
C  13.52900 3.01900 27.23500
C  14.44500 2.21600 30.53800
O  13.60900 2.96700 30.94700
C  15.40100 1.32000 31.54400
C  16.23600 2.28400 32.22300
O  17.40400 2.51800 32.04400
O  15.49500 2.91400 33.22400
C  16.29400 3.82500 34.04400
H  20.17800 -3.59800 30.32700
H  19.32100 -3.04500 24.06300
H  15.16600 1.69200 25.17300
H  18.00200 0.01300 32.65100
H  18.82500 -2.77800 32.55700
H  20.65000 -1.71400 33.17800
H  20.31200 -0.18300 32.28500
H  21.08400 -1.46800 31.49100
H  16.35200 -2.54800 33.10800
H  15.59600 -1.25500 32.52600
H  15.79200 -1.65500 35.00700
H  15.70000 0.03600 34.44900
H  20.52700 -6.57000 28.54500
H  21.04300 -5.17600 29.56800
H  21.94200 -5.58600 28.08100
H  22.60500 -6.16200 25.55600
H  21.54000 -7.14600 24.70400
H  21.12100 -7.05600 26.33600
H  17.34700 -1.93900 22.85800
H  16.45900 0.76600 23.11100
H  18.79200 0.71300 22.72600
H  18.96800 -0.59000 21.58600
H  19.87100 -0.64500 23.09300
H  14.91000 -1.74600 23.76000
H  15.38500 -1.28200 22.10300
H  13.89100 0.89400 23.45200
H  13.02800 -0.56900 23.62100
H  13.39400 -0.09900 22.01500
H  13.80800 3.08600 26.18400
H  13.66500 3.97100 27.74800
H  12.50200 2.67600 27.36300
H  14.75100 0.80800 32.25400
H  15.68800 4.16500 34.88400
H  16.59300 4.72400 33.50500
H  17.21200 3.40200 34.45100
Mg 6.36400 55.05100 39.92300
C  6.00900 51.60600 40.07400
C  9.79000 54.54700 39.24900
C  6.68800 58.35600 39.21700
C  2.89700 55.30000 39.95500
N  7.72900 53.21900 39.56900
C  7.39500 51.94700 39.75300
C  8.64600 51.02400 39.73400
C  9.83500 52.08100 39.75500
C  9.08100 53.37700 39.43000
C  10.70000 52.18100 41.05500
C  8.90100 50.05500 38.52400
C  9.32400 50.54800 37.12300
H  8.64500 49.90700 35.87500
N  8.01800 56.37400 39.36500
C  9.33400 55.91800 39.11800
C  10.06700 57.10000 38.88700
C  9.23200 58.25900 39.00200
C  7.93800 57.72400 39.22200
C  11.58400 57.05400 38.70100
C  9.76100 59.67200 38.86600
O  11.01100 59.91600 38.75900
C  8.90900 60.89100 38.87700
N  5.03100 56.55800 39.41800
C  5.42900 57.86500 39.32400
C  4.22600 58.87600 39.31600
C  2.97700 57.83800 39.36600
C  3.68600 56.46800 39.62200
C  4.28700 59.86700 40.48800
C  2.05700 57.80900 38.12900
C  0.58200 57.37200 38.41500
N  4.76300 53.78000 39.98400
C  3.38000 54.01100 40.16000
C  2.74100 52.76000 40.46500
C  3.77300 51.82500 40.52600
C  4.92200 52.49600 40.12100
C  1.28100 52.60000 40.90200
C  4.02900 50.43700 40.79100
O  3.28300 49.47800 41.12500
C  5.48200 50.18100 40.31300
C  5.43800 49.34200 39.10300
O  4.94500 49.73900 38.07200
O  5.90600 47.98200 39.32600
C  5.43000 46.95700 38.35800
H  10.86900 54.38400 39.19900
H  6.80500 59.44200 39.21600
H  1.81800 55.39100 40.09600
H  8.56400 50.41700 40.63500
H  10.44000 52.05400 38.84900
H  10.70000 53.17300 41.50700
H  11.75400 51.97000 40.87100
H  10.28000 51.45500 41.75100
H  7.99700 49.46100 38.38600
H  9.61400 49.33900 38.93100
H  10.39500 50.36500 37.03500
H  9.29100 51.63400 37.04100
H  11.95100 57.66200 37.87400
H  11.91800 56.02200 38.58700
H  11.93800 57.39500 39.67300
H  9.55500 61.73600 38.63700
H  8.34000 60.85200 39.80600
H  8.30800 60.70600 37.98700
H  4.24100 59.41600 38.36900
H  2.43700 58.09700 40.27700
H  5.19800 59.95300 41.08100
H  3.51500 59.74700 41.24800
H  4.17100 60.85000 40.03100
H  2.50200 57.11500 37.41600
H  2.00400 58.74800 37.57900
H  0.48200 57.29500 39.49700
H  0.44000 56.41200 37.91900
H  -0.18400 58.09600 38.13800
H  0.60600 53.45600 40.87700
H  1.16200 52.20900 41.91200
H  0.81200 51.79600 40.33500
H  6.04500 49.59000 41.03500
H  5.91900 47.00500 37.38500
H  4.34900 47.04200 38.24700
H  5.63200 45.94600 38.71200

