158

Mg 25.10500 -0.86300 29.09400
C  27.00100 -0.82400 32.04000
C  22.19800 -0.50000 31.24300
C  23.07200 -1.03000 26.44400
C  27.88300 -1.87500 27.27700
N  24.64900 -0.55100 31.36600
C  25.68300 -0.54100 32.30700
C  25.16400 -0.18100 33.66300
C  23.55700 -0.39200 33.40100
C  23.42500 -0.45800 31.88600
C  22.98400 -1.56900 34.22600
C  25.64200 1.25100 34.07800
C  26.64300 1.37600 35.26700
H  26.15600 1.98200 36.59800
N  22.95700 -0.61200 28.82900
C  21.98400 -0.51900 29.82200
C  20.73100 -0.27300 29.15100
C  20.91900 -0.39200 27.76300
C  22.39100 -0.71500 27.63400
C  19.40400 -0.22500 29.81000
C  19.89100 -0.27300 26.57900
O  20.24800 -0.47800 25.42200
C  18.51800 0.31400 26.86900
N  25.42200 -1.71900 27.12600
C  24.41900 -1.38800 26.18600
C  24.99600 -1.45600 24.74000
C  26.54400 -1.39900 25.05400
C  26.65800 -1.70000 26.55100
C  24.59500 -2.58300 23.81100
C  27.31000 -0.16900 24.48600
C  27.80700 0.98000 25.34900
N  27.07400 -1.32800 29.51300
C  28.11900 -1.69400 28.67500
C  29.34700 -1.75900 29.49400
C  28.95700 -1.42100 30.78300
C  27.53800 -1.23000 30.78100
C  30.72400 -2.11200 29.06000
C  29.40700 -1.20900 32.16000
O  30.57100 -1.17800 32.50900
C  28.22600 -0.86900 33.05700
C  28.04600 -1.87100 34.05600
O  27.40300 -2.89500 33.85300
O  28.72500 -1.46200 35.16300
C  28.52400 -2.37000 36.34300
H  21.37200 -0.48100 31.95700
H  22.39700 -0.90200 25.59600
H  28.84800 -1.95500 26.77400
H  25.52600 -0.89900 34.40000
H  23.04700 0.52700 33.69100
H  22.38800 -1.19400 35.05800
H  23.77900 -2.22500 34.58000
H  22.31100 -2.17900 33.62400
H  24.82700 1.87400 34.44500
H  25.94300 1.79900 33.18500
H  27.41500 2.06200 34.92000
H  27.17200 0.46300 35.53900
H  19.50500 -0.71700 30.77700
H  18.70300 -0.66400 29.10000
H  19.13300 0.81900 29.97000
H  18.27700 0.84400 25.94800
H  18.63500 1.10300 27.61200
H  17.84100 -0.47600 27.19100
H  24.69600 -0.48500 24.34600
H  27.13700 -2.18100 24.58000
H  24.45400 -2.37800 22.74900
H  23.72700 -3.04000 24.28600
H  25.41400 -3.30100 23.77600
H  26.76200 0.19700 23.61800
H  28.08500 -0.77000 24.01100
H  27.36500 0.90500 26.34300
H  27.46400 1.92000 24.91700
H  28.89400 0.94600 25.42100
H  30.63900 -2.48200 28.03800
H  31.15200 -2.95300 29.60600
H  31.30600 -1.19200 29.02600
H  28.39600 0.12600 33.46800
H  28.52700 -3.38700 35.95100
H  27.61200 -2.07700 36.86300
H  29.38500 -2.30600 37.00800
Mg 15.19400 51.20000 25.96400
C  17.68300 50.61800 28.45100
C  12.97000 51.58500 28.57600
C  12.98700 51.48700 23.66800
C  17.68900 50.65600 23.54700
N  15.38300 51.24500 28.24000
C  16.49200 51.05500 29.01500
C  16.25600 51.21200 30.53200
C  14.72300 51.12900 30.51600
C  14.32500 51.38300 29.07200
C  14.19000 49.78500 31.08000
C  16.79200 52.62100 30.99800
C  17.05200 52.83000 32.45300
H  16.34300 51.91200 33.47100
N  13.29200 51.44300 26.17000
C  12.48000 51.59900 27.23800
C  11.09200 51.67900 26.78200
C  11.02500 51.56900 25.34600
C  12.48100 51.46600 25.00800
C  9.89400 51.80900 27.75200
C  9.77500 51.56200 24.34100
O  9.99800 51.56600 23.15300
C  8.39600 51.56400 24.92300
N  15.39100 51.28600 23.85800
C  14.32100 51.42200 23.10000
C  14.60100 51.33800 21.61600
C  16.17500 51.35000 21.60600
C  16.45600 51.04900 23.09200
C  13.79300 50.15400 20.97500
C  16.80100 52.74200 21.23000
C  17.94000 52.69500 20.17900
N  17.23200 50.69800 25.90800
C  18.13700 50.47000 24.86300
C  19.42700 50.07700 25.32200
C  19.27700 50.12100 26.72200
C  17.94600 50.49700 27.06500
C  20.50900 49.70000 24.39000
C  19.99900 49.86700 27.97400
O  21.09500 49.38800 28.21500
C  18.99200 50.25900 29.16300
C  18.85500 49.11100 30.16400
O  18.22600 48.07600 30.08600
O  19.57500 49.51900 31.30200
C  19.34500 48.69800 32.52400
H  12.15600 51.64500 29.30200
H  12.26000 51.43900 22.85500
H  18.43600 50.54800 22.75800
H  16.68000 50.38200 31.09700
H  14.41300 51.95900 31.15100
H  13.28900 49.46700 30.55600
H  13.93300 49.81900 32.13900
H  14.99800 49.06000 30.98300
H  16.05900 53.41300 30.84900
H  17.68600 52.85900 30.42300
H  16.78700 53.85400 32.71700
H  18.13800 52.73900 32.47900
H  9.43300 50.82200 27.80200
H  9.16900 52.46400 27.26900
H  10.29900 52.07000 28.73000
H  8.11800 52.55100 25.29400
H  8.18000 50.88400 25.74700
H  7.63900 51.27000 24.19600
H  14.15200 52.25400 21.23200
H  16.62000 50.50900 21.07300
H  14.43200 49.48300 20.40100
H  13.06400 50.69700 20.37400
H  13.31700 49.52100 21.72400
H  17.29900 53.15100 22.10800
H  15.97000 53.39600 20.96500
H  17.40700 52.95900 19.26600
H  18.38200 51.70300 20.27000
H  18.60000 53.53300 20.40000
H  21.41200 50.17600 24.77300
H  20.30700 49.97400 23.35500
H  20.80500 48.65100 24.41700
H  19.53500 51.08200 29.62700
H  20.13900 48.96500 33.22200
H  19.35200 47.61000 32.46000
H  18.46200 49.11000 33.01300

