158

Mg 46.96000 17.01700 28.39600
C  44.95300 16.69600 31.07300
C  49.18700 18.83800 30.56200
C  48.72600 17.87700 25.67400
C  44.69500 15.43100 26.40500
N  47.06100 17.62800 30.56500
C  46.09200 17.34800 31.46600
C  46.51000 17.74400 32.90500
C  47.71700 18.72500 32.66400
C  48.09200 18.29500 31.21400
C  47.49100 20.30600 32.86400
C  46.80300 16.39200 33.71500
C  46.89400 16.48400 35.27400
H  46.47100 17.74200 35.97400
N  48.73600 18.08000 28.14200
C  49.44300 18.75200 29.15700
C  50.68700 19.26500 28.53400
C  50.64300 19.01900 27.07600
C  49.33500 18.32700 26.92000
C  51.76900 19.89200 29.42500
C  51.64500 19.46600 25.98400
O  51.51500 19.06600 24.86400
C  52.69100 20.55800 26.25500
N  46.85400 16.65100 26.37900
C  47.67100 17.05700 25.37700
C  47.36400 16.42200 24.02600
C  46.07500 15.50300 24.32400
C  45.89200 15.82000 25.81500
C  47.13400 17.52600 22.87000
C  46.40600 14.04600 24.17500
C  45.67100 13.36200 23.05200
N  45.06600 16.29600 28.55000
C  44.30800 15.55400 27.71600
C  43.13600 15.12500 28.42100
C  43.33100 15.56600 29.70800
C  44.53100 16.25600 29.75200
C  42.08000 14.42400 27.80000
C  42.80300 15.53200 30.99700
O  41.77600 14.98800 31.38300
C  43.76100 16.22200 31.94100
C  43.11700 17.29700 32.62800
O  42.61400 18.28700 32.04900
O  43.05200 16.99700 33.96000
C  42.16200 17.70200 34.81900
H  49.83700 19.48200 31.15700
H  49.25900 18.23800 24.79200
H  43.91600 14.89500 25.85900
H  45.64300 18.23900 33.34100
H  48.60300 18.49700 33.25600
H  48.30000 20.88800 33.30600
H  46.64600 20.48000 33.53000
H  47.17200 20.79500 31.94300
H  47.77700 16.13600 33.29600
H  46.12300 15.55500 33.55900
H  47.94200 16.30700 35.51600
H  46.24800 15.67300 35.60900
H  51.47600 20.89000 29.75300
H  52.71800 20.11600 28.93800
H  51.87800 19.27400 30.31600
H  52.87700 21.04300 25.29600
H  53.62700 20.14400 26.62900
H  52.37600 21.33200 26.95500
H  48.13700 15.76700 23.62500
H  45.15400 15.64200 23.75700
H  47.38000 18.49900 23.29500
H  46.08900 17.61700 22.57200
H  47.80700 17.34600 22.03100
H  46.26700 13.52400 25.12200
H  47.45300 13.85700 23.93800
H  45.04900 14.02800 22.45400
H  45.14500 12.53400 23.52700
H  46.34900 12.90800 22.32900
H  41.41900 14.84800 27.04400
H  41.31900 14.02200 28.46900
H  42.57300 13.60100 27.28300
H  44.13100 15.46500 32.63200
H  42.38800 18.76800 34.81200
H  42.29600 17.44200 35.86800
H  41.12000 17.68900 34.49900
Mg 43.51100 42.05200 26.23100
C  42.62000 44.53300 28.63100
C  44.66400 40.09300 28.84200
C  44.68700 39.95500 23.88800
C  43.32500 44.60100 23.86900
N  43.54200 42.23000 28.43800
C  42.95600 43.25100 29.21900
C  43.03400 42.91900 30.69900
C  44.13900 41.81400 30.73800
C  44.11300 41.29300 29.28800
C  45.50500 42.32300 31.11700
C  41.70200 42.45700 31.38000
C  41.26100 43.33500 32.60700
H  41.95200 43.12000 33.91000
N  44.38700 40.20000 26.32900
C  44.68600 39.56100 27.50400
C  45.12200 38.19000 27.12200
C  45.05700 38.13300 25.68400
C  44.66200 39.45700 25.23300
C  45.53300 37.15500 28.13700
C  45.33700 36.94500 24.80800
O  45.17900 36.93300 23.60600
C  45.88700 35.66900 25.50100
N  44.06600 42.20100 24.17400
C  44.44800 41.17700 23.37200
C  44.43300 41.59600 21.90900
C  44.00000 43.08100 21.98400
C  43.86000 43.38600 23.46200
C  45.82500 41.40500 21.13900
C  42.73500 43.36100 21.12700
C  41.31000 43.26900 21.76000
N  42.93800 44.08200 26.13000
C  42.91400 44.98900 25.12400
C  42.39100 46.26900 25.62000
C  42.27800 46.16700 26.98700
C  42.64600 44.79400 27.23300
C  41.83300 47.36600 24.68300
C  41.89600 46.84000 28.23900
O  41.34800 47.91500 28.43300
C  42.12300 45.82100 29.40100
C  43.07700 46.36100 30.29300
O  44.29500 46.29900 30.19500
O  42.38000 46.90700 31.41100
C  43.41300 47.20000 32.46500
H  45.01200 39.39500 29.60700
H  44.90600 39.14400 23.19000
H  43.18000 45.41800 23.15900
H  43.40100 43.84500 31.14100
H  43.84500 40.97600 31.37100
H  45.99100 41.49300 31.63000
H  45.46600 43.17500 31.79600
H  46.15200 42.68000 30.31600
H  41.74800 41.41700 31.70500
H  40.86600 42.48900 30.68100
H  40.20000 43.18700 32.81000
H  41.34600 44.41600 32.49600
H  45.14400 36.14800 27.98500
H  45.15300 37.56100 29.07500
H  46.62000 37.16300 28.21500
H  46.33700 35.04000 24.73300
H  45.05300 35.10300 25.91500
H  46.63100 35.94600 26.24800
H  43.67500 41.00300 21.39700
H  44.86300 43.63700 21.61600
H  45.61500 41.47200 20.07200
H  46.27900 40.46400 21.45000
H  46.53100 42.18200 21.43100
H  42.73200 42.65000 20.30100
H  42.78600 44.37200 20.72100
H  41.24500 43.07800 22.83100
H  40.60900 42.54300 21.34800
H  40.76900 44.20800 21.64500
H  42.62900 48.03800 24.36400
H  41.08100 48.04900 25.07800
H  41.33100 46.91700 23.82600
H  41.19600 45.54800 29.90600
H  44.31800 47.73200 32.17300
H  43.66900 46.30000 33.02500
H  42.89100 47.84500 33.17200

