158

Mg 25.67300 50.99600 26.06500
C  23.55300 51.96400 28.71600
C  28.00500 50.13100 28.49300
C  27.93700 50.49000 23.55000
C  23.28000 52.20000 23.73600
N  25.81800 51.11200 28.39100
C  24.73300 51.37300 29.24000
C  25.16100 51.08200 30.75700
C  26.69500 50.70300 30.57200
C  26.88100 50.64800 29.08300
C  27.75700 51.57300 31.27100
C  24.15400 50.10500 31.42100
C  23.52100 50.54500 32.72500
H  24.47700 51.28500 33.70900
N  27.69700 50.38000 26.01700
C  28.45500 49.97200 27.13900
C  29.68000 49.41600 26.71500
C  29.74400 49.52800 25.25900
C  28.44200 50.18200 24.85500
C  30.69300 48.72500 27.70600
C  30.78700 49.22400 24.38400
O  30.74200 49.34400 23.13400
C  32.00800 48.59500 24.83900
N  25.69600 51.40100 23.97500
C  26.75300 51.03800 23.11500
C  26.36300 51.25700 21.62300
C  24.86800 51.88200 21.64200
C  24.54700 51.75300 23.21600
C  27.41400 52.09000 20.82100
C  23.79700 51.25100 20.58900
C  23.77300 52.00200 19.20200
N  23.86500 52.02400 26.17500
C  22.98800 52.40300 25.15100
C  21.86800 53.15100 25.79600
C  22.02200 53.02300 27.20600
C  23.24000 52.27200 27.35600
C  20.82900 53.90400 25.08100
C  21.46900 53.36500 28.52100
O  20.50200 54.05900 28.84600
C  22.44900 52.67400 29.54100
C  22.98100 53.76500 30.41500
O  23.78100 54.64800 29.99900
O  22.39700 53.71900 31.71200
C  22.72300 54.82100 32.56700
H  28.60000 49.60900 29.24500
H  28.61300 50.28300 22.71700
H  22.40900 52.46000 23.13100
H  25.09900 52.07400 31.20400
H  26.78900 49.65100 30.84200
H  28.38200 52.06100 30.52200
H  28.27800 51.06700 32.08400
H  27.18400 52.33600 31.79800
H  24.60300 49.15600 31.71300
H  23.29200 49.93700 30.77400
H  23.26000 49.58200 33.16400
H  22.57900 51.05600 32.52400
H  30.33200 48.69400 28.73400
H  31.60000 49.32800 27.66700
H  30.98600 47.75600 27.30300
H  31.83100 47.57500 25.17800
H  32.41500 49.27100 25.59100
H  32.74200 48.60400 24.03300
H  26.35500 50.23300 21.24800
H  24.77600 52.95500 21.47600
H  28.24400 52.40700 21.45400
H  26.94200 52.95600 20.35700
H  27.83800 51.47000 20.03100
H  22.79800 51.35900 21.00900
H  23.98900 50.18900 20.43100
H  24.52100 51.54300 18.55500
H  24.10500 53.04000 19.18900
H  22.71500 51.98800 18.94100
H  19.92400 53.30100 25.00800
H  21.20400 54.16800 24.09200
H  20.69300 54.77700 25.72000
H  21.92700 51.91200 30.12000
H  22.87500 55.76700 32.04600
H  23.61000 54.51800 33.12300
H  21.89600 54.91300 33.27100
Mg 8.33400 48.28400 25.22600
C  6.37500 48.40200 28.17200
C  11.01000 49.10100 27.08900
C  10.10500 48.38700 22.47100
C  5.37700 47.90800 23.41100
N  8.57500 48.78400 27.34500
C  7.75500 48.56100 28.39300
C  8.44400 48.87400 29.71700
C  9.74800 49.43100 29.20600
C  9.83200 49.10900 27.77600
C  9.94500 50.99500 29.50700
C  8.63000 47.70500 30.76700
C  7.85600 47.75000 32.12600
H  7.59400 46.38100 32.92400
N  10.38300 48.62200 24.82600
C  11.31300 48.87900 25.74700
C  12.58200 49.02300 25.07100
C  12.38600 48.82700 23.70900
C  10.90800 48.64400 23.60200
C  13.88100 49.19300 25.79700
C  13.36400 48.68400 22.54800
O  12.96000 48.65600 21.36700
C  14.85800 48.80700 22.78100
N  7.78800 48.42800 23.22000
C  8.74300 48.32300 22.28100
C  8.12800 47.98600 20.91400
C  6.70900 47.72800 21.19100
C  6.58200 47.91400 22.70600
C  8.33700 49.05200 19.86800
C  6.25700 46.27200 20.72200
C  4.76600 46.08800 20.35200
N  6.26100 48.20300 25.64500
C  5.18600 48.14700 24.79200
C  3.93100 48.15800 25.52500
C  4.36400 48.19700 26.86200
C  5.72900 48.35100 26.87100
C  2.55100 47.79400 25.00100
C  3.94400 48.13900 28.24200
O  2.80100 47.98800 28.73900
C  5.24100 48.33600 29.17800
C  5.21100 47.20200 30.11400
O  5.78300 46.10700 29.87900
O  4.31700 47.46600 31.15800
C  4.01000 46.31100 32.08000
H  11.85400 49.39500 27.71700
H  10.68100 48.33100 21.54500
H  4.50800 47.85300 22.75200
H  7.76400 49.58100 30.19200
H  10.58900 48.94500 29.70100
H  10.95700 51.35300 29.31900
H  9.73500 51.21700 30.55300
H  9.32500 51.58000 28.82700
H  9.67800 47.49600 30.98300
H  8.25500 46.83200 30.23400
H  6.96800 48.38300 32.11400
H  8.58400 48.34500 32.67800
H  13.69600 49.50700 26.82400
H  14.47100 50.00700 25.37400
H  14.49400 48.29300 25.84300
H  15.10000 48.18400 23.64100
H  15.01800 49.87700 22.91700
H  15.53100 48.57500 21.95600
H  8.62000 47.07000 20.58600
H  6.00900 48.49200 20.85400
H  7.47500 49.67400 19.62600
H  8.61900 48.60800 18.91400
H  9.17300 49.61800 20.28000
H  6.32100 45.69900 21.64700
H  6.92600 45.73200 20.05200
H  4.68500 46.93300 19.66800
H  4.05900 46.12200 21.18100
H  4.70100 45.18000 19.75300
H  2.52800 47.77400 23.91200
H  1.81700 48.55700 25.26200
H  2.34600 46.82600 25.45900
H  4.96900 49.30800 29.58900
H  3.96600 45.36800 31.53500
H  2.98900 46.47000 32.42700
H  4.71500 46.19700 32.90300

