158

Mg 17.20500 -0.69900 27.79900
C  16.13300 1.07300 30.79500
C  19.55500 -2.15900 29.81600
C  18.57200 -1.52300 25.11900
C  14.84800 1.36500 26.05500
N  17.82000 -0.53900 30.05900
C  17.16400 0.10700 31.12600
C  17.71800 -0.25900 32.51300
C  18.98300 -1.17300 32.12000
C  18.71700 -1.36000 30.62500
C  20.33300 -0.56100 32.48800
C  16.59700 -0.85800 33.42000
C  16.53300 -0.36700 34.84400
H  17.85500 0.12300 35.47400
N  18.67100 -1.82300 27.54700
C  19.49400 -2.35700 28.41900
C  20.53000 -3.10900 27.68600
C  20.22500 -3.03400 26.33300
C  19.13600 -2.10400 26.26100
C  21.62900 -3.89100 28.31300
C  20.83700 -3.74600 25.18400
O  20.35100 -3.66600 24.04000
C  22.06200 -4.63400 25.33400
N  16.87900 -0.04300 25.83600
C  17.65700 -0.57600 24.86700
C  17.20700 -0.04700 23.42100
C  15.91000 0.80700 23.74200
C  15.86900 0.67800 25.29400
C  18.34100 0.75400 22.64100
C  14.59400 0.45400 23.00800
C  14.63600 0.70500 21.45300
N  15.65800 0.62400 28.27700
C  14.83100 1.40300 27.45400
C  14.08400 2.40000 28.15000
C  14.63600 2.26100 29.41100
C  15.56500 1.21000 29.49600
C  13.11700 3.46800 27.67200
C  14.56200 2.86300 30.73400
O  14.02200 3.92000 30.97000
C  15.42500 2.02700 31.74200
C  16.41800 2.96700 32.47100
O  17.56000 3.19000 32.13700
O  15.82700 3.45100 33.57300
C  16.45700 4.40000 34.43300
H  20.37200 -2.64300 30.35500
H  18.84600 -1.91200 24.13600
H  14.15300 2.02000 25.52500
H  18.08000 0.63500 33.02100
H  18.87900 -2.10100 32.68300
H  20.26200 0.41400 32.97000
H  21.00000 -0.44300 31.63300
H  20.87600 -1.20700 33.17700
H  16.70600 -1.94200 33.45800
H  15.55500 -0.69700 33.14500
H  16.20300 -1.18400 35.48500
H  15.73300 0.36600 34.94400
H  21.29900 -4.90900 28.51800
H  21.99600 -3.56600 29.28700
H  22.58100 -3.91500 27.78300
H  22.88700 -3.97600 25.60700
H  22.32400 -4.91700 24.31500
H  22.02500 -5.51100 25.98000
H  16.93300 -1.01300 22.99900
H  16.13300 1.85400 23.53600
H  18.68000 0.09100 21.84500
H  19.14400 1.08500 23.30000
H  17.84600 1.60700 22.17800
H  13.74500 1.00700 23.40800
H  14.47600 -0.62100 23.14400
H  14.29300 1.67700 21.09700
H  14.05100 -0.08600 20.98400
H  15.63900 0.59000 21.04400
H  13.19400 4.12800 28.53600
H  12.14400 2.97700 27.65600
H  13.38000 3.96000 26.73600
H  14.69000 1.64900 32.45300
H  16.37700 4.12700 35.48600
H  16.00200 5.37100 34.23600
H  17.53100 4.41200 34.24900
Mg 0.34100 43.72500 26.15700
C  2.47600 43.98000 28.91800
C  -2.26400 43.22700 28.24700
C  -1.56900 43.40200 23.48200
C  3.07700 44.33800 24.09900
N  0.16600 43.75200 28.37100
C  1.16700 43.87300 29.31800
C  0.64400 43.66200 30.76800
C  -0.84700 43.18000 30.46100
C  -1.00000 43.34300 28.92200
C  -1.16500 41.69600 30.91800
C  0.91800 44.86400 31.72000
C  0.95400 44.50500 33.26000
H  0.52600 43.07000 33.69000
N  -1.64100 43.34800 25.92000
C  -2.57900 43.22800 26.83300
C  -3.84600 42.92700 26.21100
C  -3.64200 42.95500 24.81900
C  -2.22500 43.20800 24.70500
C  -5.15000 42.76200 26.95700
C  -4.66600 42.64500 23.71800
O  -4.33500 42.57000 22.53800
C  -6.07300 42.45000 23.97800
N  0.71100 43.90000 24.07400
C  -0.24400 43.68900 23.15100
C  0.24000 43.94300 21.77200
C  1.59200 44.47300 21.99500
C  1.80300 44.26100 23.46300
C  0.07200 42.68900 20.83300
C  1.88600 45.93900 21.71600
C  2.10000 46.38300 20.25200
N  2.34600 43.99800 26.38200
C  3.35700 44.22100 25.44400
C  4.58000 44.35300 26.16500
C  4.30700 44.15700 27.50200
C  2.95800 44.00300 27.60400
C  5.83300 44.58500 25.38400
C  4.84300 44.03400 28.85000
O  6.00800 43.98800 29.21400
C  3.72500 44.01900 29.83000
C  3.84500 42.90400 30.80700
O  3.71800 41.74000 30.47500
O  4.17000 43.36900 32.08700
C  4.19000 42.32400 33.09500
H  -3.06000 42.89600 28.91800
H  -2.32900 43.36400 22.69900
H  3.99500 44.41800 23.51400
H  1.12500 42.74800 31.11500
H  -1.63800 43.77800 30.91300
H  -1.37200 40.93100 30.16900
H  -1.93000 41.72300 31.69400
H  -0.26500 41.32500 31.40700
H  0.15700 45.60700 31.48200
H  1.92200 45.22700 31.50200
H  0.29500 45.28900 33.63200
H  1.89900 44.73500 33.75200
H  -5.78500 43.64300 26.86000
H  -5.05800 42.42600 27.99000
H  -5.79200 41.97800 26.55600
H  -6.21600 41.54300 24.56400
H  -6.58300 42.34800 23.02000
H  -6.50200 43.34900 24.42000
H  -0.34500 44.76100 21.35300
H  2.23700 43.76700 21.47300
H  -0.94700 42.30300 20.87700
H  0.82600 41.94600 21.09300
H  0.21700 42.87100 19.76800
H  2.81200 46.23600 22.20600
H  1.08600 46.53600 22.15400
H  3.03000 46.93700 20.12300
H  1.35100 47.15100 20.06100
H  2.11000 45.52200 19.58400
H  6.54600 44.74000 26.19400
H  5.77200 45.33600 24.59700
H  6.12700 43.68000 24.85300
H  3.81600 44.93700 30.41100
H  5.19600 41.96700 33.31400
H  3.47300 41.52200 32.91700
H  3.87000 42.73600 34.05200

