158

Mg 26.79000 49.93300 26.67600
C  24.77700 51.27800 29.23800
C  29.08700 48.87700 29.04000
C  28.86900 49.24800 24.15000
C  24.46900 51.55600 24.37800
N  26.99600 50.15700 28.82100
C  25.95900 50.55100 29.64600
C  26.24600 50.21200 31.12800
C  27.64800 49.60900 31.08600
C  27.96600 49.46600 29.59200
C  28.78200 50.37700 31.90000
C  25.14800 49.28100 31.78100
C  24.39300 49.78800 33.01600
H  24.98600 49.55200 34.38100
N  28.70900 49.07000 26.64400
C  29.46300 48.71600 27.73200
C  30.71700 48.11000 27.23200
C  30.76100 48.33500 25.77500
C  29.39100 48.91800 25.47100
C  31.82100 47.49700 28.02800
C  31.82100 47.92100 24.76800
O  31.61300 48.02800 23.57100
C  33.12200 47.46400 25.25500
N  26.63400 50.29200 24.65300
C  27.64900 49.88200 23.75500
C  27.23200 50.18900 22.20800
C  25.84200 50.93500 22.41700
C  25.62500 50.93000 23.90900
C  28.23100 50.92800 21.34000
C  24.66300 50.27700 21.54100
C  24.29100 48.86700 22.00300
N  25.03300 51.21900 26.71400
C  24.12800 51.64700 25.71100
C  23.01400 52.33100 26.27000
C  23.23100 52.12700 27.67200
C  24.45700 51.50100 27.88900
C  21.87000 53.00500 25.58600
C  22.66300 52.36800 28.97900
O  21.58100 52.97100 29.20500
C  23.62300 51.85800 30.02200
C  24.10200 52.95700 30.93900
O  25.04000 53.80200 30.87700
O  23.31500 52.76500 32.03500
C  23.41800 53.68200 33.13800
H  29.77100 48.30900 29.67400
H  29.53800 49.22800 23.28700
H  23.80400 51.99900 23.63400
H  26.16000 51.16900 31.64300
H  27.69200 48.59600 31.48600
H  28.38400 51.24700 32.42200
H  29.63800 50.65300 31.28400
H  29.23600 49.83600 32.73100
H  25.56700 48.34800 32.15900
H  24.48600 48.98500 30.96700
H  23.31800 49.65100 32.90400
H  24.48500 50.87400 33.01400
H  31.54700 47.43700 29.08100
H  32.84100 47.88000 28.06100
H  31.93000 46.50600 27.59000
H  33.47100 48.25100 25.92400
H  33.71100 47.29100 24.35400
H  33.08900 46.50000 25.76200
H  27.05400 49.25700 21.67200
H  25.83300 51.93700 21.99000
H  29.18300 50.87600 21.86900
H  27.90400 51.91900 21.02600
H  28.26900 50.34000 20.42300
H  25.10300 50.13700 20.55300
H  23.85800 51.01000 21.49500
H  23.25900 48.71000 22.31700
H  24.89000 48.46800 22.82200
H  24.41000 48.11600 21.22200
H  22.18200 53.51500 24.67500
H  21.41500 53.76600 26.22100
H  21.14000 52.26200 25.26400
H  23.09500 51.14500 30.65500
H  24.13100 53.33900 33.88800
H  22.41400 53.71200 33.56300
H  23.60400 54.73200 32.91400
Mg 16.95500 51.73400 26.37200
C  18.92500 50.58100 29.08400
C  14.59100 52.49800 28.61700
C  15.38600 52.84700 23.88000
C  19.37400 50.20400 24.19700
N  16.85800 51.62400 28.58600
C  17.67800 51.02100 29.43100
C  17.06800 50.85300 30.85100
C  15.52900 51.12900 30.61300
C  15.62200 51.75100 29.18900
C  14.64100 49.88600 30.60700
C  17.69800 51.76400 31.91400
C  18.00400 51.23300 33.36400
H  17.13000 51.94900 34.34700
N  15.17100 52.63000 26.29900
C  14.38300 53.05300 27.30800
C  13.45700 54.01300 26.81700
C  13.65000 54.15900 25.44400
C  14.73600 53.15700 25.12300
C  12.43100 54.67500 27.74800
C  12.90700 55.05900 24.46600
O  13.25300 55.05900 23.29100
C  11.92600 55.98700 24.91700
N  17.18100 51.38800 24.32400
C  16.36800 51.93900 23.48600
C  16.76100 51.76500 22.01700
C  18.19700 51.09800 22.11800
C  18.27200 50.87400 23.60800
C  15.84500 51.09900 20.99500
C  19.35700 51.82700 21.53700
C  20.27800 51.20600 20.40600
N  18.77700 50.64000 26.56900
C  19.59700 50.04700 25.58800
C  20.74000 49.39700 26.24700
C  20.57000 49.60000 27.58200
C  19.27800 50.29900 27.75000
C  21.96000 48.72600 25.66100
C  21.12500 49.40700 28.87000
O  22.27500 49.04000 29.19800
C  20.05800 49.98100 29.89100
C  19.74300 48.70500 30.57200
O  19.12700 47.75900 30.14500
O  20.29000 48.76000 31.83800
C  20.10800 47.51800 32.58700
H  13.66300 52.54100 29.19100
H  14.90000 53.30600 23.01600
H  20.18500 49.89700 23.53300
H  17.18100 49.84500 31.25000
H  15.13200 51.79000 31.38300
H  14.92000 49.15300 29.85000
H  13.65000 50.23500 30.31500
H  14.61000 49.56000 31.64700
H  16.99500 52.58200 32.06900
H  18.51500 52.34500 31.48600
H  19.07800 51.33400 33.51800
H  17.82700 50.16600 33.23100
H  12.66900 55.72800 27.59800
H  12.35900 54.23100 28.74100
H  11.40000 54.56500 27.41400
H  11.21400 55.40300 25.50000
H  11.46200 56.26000 23.96900
H  12.31300 56.84500 25.46600
H  16.79400 52.80700 21.69900
H  18.08800 50.11200 21.66600
H  16.42200 50.41800 20.37000
H  15.13000 51.77500 20.52300
H  15.26600 50.40800 21.60800
H  20.00800 52.12100 22.36100
H  18.90900 52.69900 21.06100
H  21.31700 51.43300 20.64200
H  19.99900 51.65300 19.45200
H  20.19000 50.12900 20.26200
H  22.64600 48.28000 26.38200
H  22.44900 49.44100 25.00000
H  21.60800 47.87000 25.08600
H  20.40200 50.70000 30.63500
H  20.70800 47.75000 33.46700
H  20.35800 46.66900 31.95100
H  19.03400 47.48100 32.76700

