158

Mg 53.92200 24.98600 44.55600
C  51.27700 27.02000 43.39800
C  52.21800 22.26000 42.96200
C  56.71000 23.17500 44.83500
C  55.37000 27.69800 45.88800
N  52.11000 24.72200 43.21000
C  51.21100 25.71600 42.88700
C  49.93100 25.17100 42.10600
C  50.09500 23.61200 42.43000
C  51.60600 23.52500 42.87900
C  49.10200 22.95500 43.50100
C  49.86100 25.33400 40.61000
C  51.21300 25.40900 39.80800
H  51.25000 26.37300 38.65600
N  54.44600 23.01900 43.88800
C  53.56300 22.07900 43.33900
C  54.34600 20.87800 43.13400
C  55.60800 21.06900 43.73900
C  55.66600 22.44800 44.21200
C  53.81000 19.71600 42.35400
C  56.64000 19.99000 43.83200
O  56.31300 18.90000 43.41100
C  58.02800 20.18800 44.35100
N  55.98000 25.48600 44.87600
C  56.95300 24.56800 45.09000
C  58.18400 25.18800 45.63200
C  57.73800 26.57700 46.11600
C  56.25100 26.57200 45.67600
C  58.84900 24.45800 46.86100
C  58.44600 27.86200 45.53800
C  59.91100 28.05300 46.00800
N  53.41800 26.91600 44.83300
C  54.07500 27.91600 45.43100
C  53.24200 29.08900 45.55900
C  52.13100 28.79600 44.77400
C  52.30900 27.45700 44.27000
C  53.37600 30.24900 46.50000
C  50.82100 29.27100 44.29000
O  50.20500 30.29900 44.46900
C  50.18000 28.10400 43.45900
C  49.76300 28.60500 42.14600
O  50.50100 29.29400 41.46600
O  48.39700 28.52800 42.00300
C  47.90100 29.42800 41.01300
H  51.63600 21.39300 42.63800
H  57.55800 22.49800 44.96200
H  55.67300 28.54300 46.50800
H  49.04700 25.51500 42.64100
H  49.95200 22.98800 41.54800
H  48.48600 23.78000 43.86100
H  49.57900 22.53100 44.38400
H  48.45400 22.28300 42.93800
H  49.23800 26.19200 40.35900
H  49.46300 24.48500 40.05500
H  51.46000 24.40900 39.45100
H  52.00400 25.63700 40.52300
H  53.56400 18.88200 43.01100
H  54.33700 19.47400 41.43100
H  52.82000 19.93100 41.95200
H  58.56500 19.24800 44.21800
H  58.13100 20.44000 45.40600
H  58.39300 21.01700 43.74500
H  58.86400 25.31900 44.79000
H  57.72000 26.65700 47.20300
H  58.07200 23.72600 47.07900
H  59.00100 25.04500 47.76700
H  59.68500 23.80000 46.62200
H  57.94400 28.75200 45.91700
H  58.40900 27.86700 44.44900
H  60.52400 27.58800 45.23700
H  60.10500 27.40200 46.86000
H  60.26400 29.07800 46.11700
H  53.77300 31.17700 46.08700
H  53.91900 29.90800 47.38100
H  52.34900 30.45600 46.80000
H  49.30300 27.76400 44.00900
H  48.16600 29.12100 40.00100
H  48.26600 30.44600 41.15000
H  46.81300 29.41500 40.95000
Mg -11.44700 16.48200 41.16800
C  -8.37700 14.62600 40.84300
C  -9.91900 19.11200 39.62200
C  -14.49500 17.64900 40.37100
C  -12.91100 13.48800 42.41000
N  -9.39300 16.76400 40.38300
C  -8.34100 15.89400 40.19300
C  -7.14600 16.57900 39.51800
C  -7.61600 18.09300 39.44400
C  -9.05800 18.03100 39.84700
C  -6.90700 19.20700 40.26700
C  -6.73200 15.80400 38.22000
C  -5.21700 15.71900 38.05200
H  -4.79700 16.30500 36.66700
N  -12.15700 18.25800 40.30100
C  -11.33200 19.21100 39.77000
C  -12.18600 20.31400 39.21000
C  -13.50100 19.90300 39.47700
C  -13.45800 18.56500 40.00600
C  -11.51300 21.58500 38.57100
C  -14.70800 20.68100 39.03400
O  -14.61200 21.75500 38.43700
C  -16.09400 20.26600 39.39900
N  -13.39200 15.58500 41.18000
C  -14.52500 16.37900 40.95800
C  -15.85000 15.62000 41.20100
C  -15.38800 14.41400 42.02600
C  -13.77200 14.58200 41.99300
C  -17.05200 16.37200 41.76100
C  -15.88500 13.05500 41.47800
C  -16.47700 12.18300 42.56000
N  -10.76700 14.48900 41.76300
C  -11.50200 13.38300 42.19200
C  -10.56600 12.26500 42.29100
C  -9.34400 12.72100 41.82100
C  -9.54900 14.04700 41.42200
C  -10.93300 10.88400 42.75900
C  -7.99500 12.34800 41.65600
O  -7.47600 11.23800 41.86200
C  -7.28200 13.51500 40.89700
C  -6.11300 13.88000 41.61700
O  -6.07100 14.33900 42.74200
O  -4.98600 13.63600 40.81200
C  -3.67400 14.23800 41.34100
H  -9.44000 19.97500 39.15500
H  -15.48200 18.00600 40.07000
H  -13.41700 12.57800 42.74000
H  -6.34600 16.54100 40.25800
H  -7.53300 18.36200 38.39100
H  -7.56400 19.62700 41.02800
H  -6.59400 20.05000 39.65100
H  -6.09500 18.65900 40.74400
H  -7.10200 16.24500 37.29400
H  -7.13900 14.79500 38.16800
H  -4.87600 14.70700 38.27000
H  -4.74000 16.37200 38.78300
H  -10.56400 21.38500 38.07300
H  -11.29100 22.28600 39.37700
H  -12.16800 21.95700 37.78300
H  -16.68700 21.17500 39.29800
H  -16.15200 19.88000 40.41700
H  -16.45100 19.53100 38.67600
H  -16.08200 15.27300 40.19400
H  -15.76800 14.43900 43.04700
H  -17.92400 16.14900 41.14600
H  -16.85800 17.44300 41.81700
H  -17.13300 15.99100 42.77900
H  -15.07500 12.56400 40.93800
H  -16.75700 13.04300 40.82400
H  -17.55200 12.02900 42.47000
H  -16.31600 12.44800 43.60500
H  -15.99500 11.22700 42.35500
H  -11.78700 10.47000 42.22300
H  -11.09300 10.82400 43.83600
H  -10.10300 10.21400 42.53700
H  -7.07000 13.11800 39.90400
H  -2.79700 13.82300 40.84400
H  -3.53200 13.95700 42.38500
H  -3.75200 15.32300 41.26700

