158

Mg 9.38300 5.10500 27.73500
C  10.33600 3.13100 30.58200
C  7.10200 6.72400 29.73900
C  7.94100 6.39800 24.88600
C  11.10500 2.66000 25.83700
N  8.83600 4.97400 29.83900
C  9.51600 4.24600 30.87700
C  9.07500 4.82000 32.23800
C  7.83500 5.68200 31.92700
C  7.97000 5.84700 30.41600
C  6.41000 5.16000 32.37000
C  10.28000 5.52300 32.91200
C  10.73500 4.74300 34.24900
H  10.97400 5.64100 35.42200
N  7.85100 6.54300 27.37000
C  6.99100 7.01800 28.35100
C  6.16900 8.05900 27.76400
C  6.49000 8.05400 26.30000
C  7.41900 6.93900 26.11200
C  5.25300 8.83700 28.59800
C  5.98800 8.96400 25.18600
O  6.23500 8.75400 23.97900
C  5.09900 10.14900 25.40000
N  9.44000 4.47300 25.73800
C  8.78200 5.25600 24.75300
C  9.18700 4.78500 23.31200
C  10.32000 3.76100 23.59200
C  10.32500 3.59800 25.12300
C  8.05200 4.19300 22.55700
C  11.71400 4.09800 23.06100
C  12.04500 3.60600 21.71800
N  10.67000 3.45000 28.11100
C  11.19300 2.54200 27.22300
C  11.90100 1.46600 27.87300
C  11.68200 1.78600 29.21300
C  10.85300 2.88700 29.30100
C  12.38500 0.26100 27.21500
C  11.88500 1.28000 30.62700
O  12.55600 0.34600 31.03500
C  11.20400 2.24800 31.57200
C  10.33700 1.48000 32.48900
O  9.16700 1.17900 32.34600
O  11.06800 1.25700 33.60900
C  10.36100 0.65400 34.76900
H  6.54700 7.30800 30.47600
H  7.63900 6.94100 23.98800
H  11.46700 1.84100 25.21200
H  8.77500 3.90600 32.75000
H  7.89600 6.70700 32.29400
H  5.82400 5.88500 32.93500
H  6.45800 4.23000 32.93600
H  5.78500 4.97500 31.49600
H  10.04100 6.56300 33.13100
H  11.04900 5.56600 32.14000
H  11.56700 4.07100 34.03800
H  9.81800 4.26500 34.59300
H  5.84300 9.06500 29.48600
H  4.47000 8.16900 28.95800
H  4.71800 9.62400 28.06800
H  5.54700 10.70200 26.22500
H  4.11700 9.85500 25.77000
H  4.93600 10.81600 24.55400
H  9.60000 5.65000 22.79300
H  10.10700 2.75200 23.24000
H  7.15300 4.77400 22.76100
H  7.82600 3.17300 22.87100
H  8.12500 4.27600 21.47300
H  12.49600 3.86900 23.78400
H  11.66300 5.17600 22.90700
H  12.88900 2.93800 21.89100
H  12.27900 4.39600 21.00500
H  11.25100 3.02800 21.24400
H  11.55000 -0.15700 26.65300
H  12.69000 -0.52800 27.90300
H  13.19700 0.66600 26.61100
H  11.80200 2.93300 32.17300
H  11.06800 -0.08600 35.14200
H  9.35600 0.29600 34.54600
H  10.11700 1.42300 35.50200
Mg 41.18400 8.86900 29.39300
C  43.04200 10.03200 32.05900
C  38.89200 7.63400 31.70900
C  39.27100 7.69800 26.89600
C  43.71700 9.71100 27.12200
N  41.15800 8.70800 31.70400
C  41.91600 9.38000 32.56900
C  41.30500 9.41500 34.01300
C  40.17200 8.34300 33.83000
C  40.01000 8.24500 32.30800
C  40.44000 6.92400 34.39400
C  40.78300 10.81100 34.36700
C  39.86200 10.88300 35.67600
H  40.30300 11.82600 36.80800
N  39.32000 7.80900 29.37000
C  38.55400 7.45000 30.37400
C  37.33500 6.86600 29.89900
C  37.34800 7.05800 28.46400
C  38.65400 7.51800 28.24400
C  36.20200 6.34900 30.82000
C  36.28300 6.86900 27.45300
O  36.55500 6.99100 26.27200
C  34.86900 6.60600 27.92600
N  41.50600 8.69400 27.33700
C  40.51300 8.15600 26.49400
C  41.09600 8.05600 25.02600
C  42.33000 8.92300 25.08300
C  42.50700 9.17800 26.57900
C  41.28500 6.54300 24.58800
C  42.28100 10.17000 24.28100
C  41.65100 11.44700 24.87400
N  43.04000 9.69800 29.47800
C  43.96400 10.05400 28.50100
C  45.02200 10.83400 29.05000
C  44.67800 10.87000 30.44900
C  43.44800 10.10900 30.65200
C  46.13400 11.46100 28.31800
C  45.19500 11.25300 31.79000
O  46.23800 11.80300 32.01200
C  44.08400 10.80200 32.83500
C  44.80400 9.95900 33.84000
O  45.14800 8.81600 33.70000
O  44.82300 10.61100 34.99800
C  45.22900 9.89500 36.25000
H  38.24500 7.31700 32.53000
H  38.69800 7.58500 25.97300
H  44.50400 10.00700 26.42500
H  42.10400 9.01500 34.63700
H  39.24400 8.71900 34.26100
H  40.83600 6.34700 33.55900
H  39.64700 6.45700 34.97900
H  41.37200 7.05800 34.94400
H  40.27200 11.28300 33.52800
H  41.64900 11.43600 34.58400
H  39.68500 9.87800 36.05900
H  38.96500 11.42200 35.37100
H  36.56800 6.00800 31.78800
H  35.70900 5.45900 30.42600
H  35.38300 7.05300 30.96700
H  34.85500 5.56600 28.25100
H  34.13400 6.73200 27.13100
H  34.53000 7.36600 28.63000
H  40.32100 8.54500 24.43500
H  43.11600 8.35500 24.58400
H  40.78800 5.81700 25.23200
H  42.35900 6.36100 24.55700
H  40.85400 6.41100 23.59600
H  41.86200 10.10000 23.27700
H  43.30200 10.41800 23.99100
H  42.20300 11.76100 25.76000
H  40.60300 11.20500 25.05000
H  41.68000 12.22900 24.11500
H  45.74600 11.81000 27.36100
H  46.83300 10.66000 28.07500
H  46.61300 12.27500 28.86100
H  43.58200 11.68600 33.23000
H  44.46300 10.18300 36.97000
H  46.29800 10.02000 36.42200
H  45.04000 8.83600 36.07500

