158

Mg 53.50800 25.78200 45.87300
C  50.75500 27.65600 44.76100
C  52.16800 23.08800 44.16200
C  56.51200 24.15800 46.13100
C  54.96200 28.68600 46.92500
N  51.87100 25.52600 44.27700
C  50.83100 26.39000 44.16300
C  49.70400 25.75000 43.23000
C  49.96200 24.27700 43.58300
C  51.43900 24.27400 44.03500
C  49.01700 23.67900 44.66700
C  49.87100 26.05000 41.72400
C  48.66500 25.92500 40.75600
H  48.83800 25.27900 39.33000
N  54.20700 23.82600 45.35700
C  53.47400 22.87600 44.72100
C  54.21200 21.65800 44.70100
C  55.42600 21.95400 45.29900
C  55.41800 23.36600 45.67200
C  53.60300 20.36900 44.09600
C  56.58400 21.00400 45.37400
O  56.44900 19.91200 44.84200
C  57.90200 21.25800 46.03500
N  55.48000 26.31300 46.22800
C  56.49900 25.52500 46.33700
C  57.78800 26.20200 46.89100
C  57.31400 27.67700 46.96200
C  55.78300 27.60100 46.64300
C  58.52800 25.64000 48.18700
C  58.14300 28.65100 46.08400
C  58.38400 30.03400 46.64800
N  52.93700 27.80700 45.92100
C  53.55500 28.83800 46.55100
C  52.73900 29.95300 46.58300
C  51.57600 29.56400 45.91700
C  51.78200 28.22500 45.47500
C  53.02000 31.32500 47.20800
C  50.25200 29.99800 45.45800
O  49.62700 31.04500 45.62100
C  49.73900 28.78500 44.63400
C  49.66500 29.32900 43.27400
O  50.43300 30.04500 42.71600
O  48.40500 29.03400 42.77300
C  48.06200 29.62200 41.50700
H  51.57800 22.23800 43.81400
H  57.50000 23.69100 46.12500
H  55.42300 29.55000 47.40800
H  48.75200 26.05600 43.66500
H  49.80300 23.73700 42.65000
H  49.57400 22.95400 45.26100
H  48.18800 23.12000 44.23200
H  48.56000 24.42200 45.32100
H  50.66800 25.38900 41.38300
H  50.33800 27.01400 41.52300
H  48.27100 26.91300 40.51800
H  47.86000 25.35300 41.21800
H  53.94000 20.08100 43.10000
H  52.52900 20.41500 43.91500
H  53.68100 19.60000 44.86500
H  58.44300 20.34300 46.27600
H  57.73900 21.86700 46.92400
H  58.52100 21.80600 45.32500
H  58.41000 26.02200 46.01400
H  57.41900 28.02700 47.98900
H  58.30500 24.58500 48.34700
H  58.30000 26.20300 49.09200
H  59.60100 25.80700 48.08700
H  57.55600 28.71800 45.16800
H  59.05800 28.18200 45.72300
H  59.43300 30.32600 46.68600
H  58.01800 30.08800 47.67400
H  57.72400 30.68400 46.07400
H  52.11000 31.56400 47.75800
H  53.35400 32.08500 46.50200
H  53.78900 31.19600 47.97000
H  48.75700 28.49400 45.00800
H  47.08200 29.30400 41.15300
H  48.78400 29.61000 40.69000
H  47.74600 30.62900 41.77900
Mg 29.50600 58.50100 39.12700
C  26.86200 56.43500 38.33600
C  31.67600 56.00100 38.24400
C  32.11300 60.80900 39.14700
C  27.22200 61.10900 39.70600
N  29.24700 56.54000 38.12800
C  28.08300 55.90700 38.00200
C  28.30300 54.48300 37.46300
C  29.82600 54.29600 37.78700
C  30.29600 55.68900 38.09500
C  30.22200 53.18400 38.89800
C  27.93300 54.12900 36.00300
C  28.54400 55.08400 34.93900
H  27.69900 55.66700 33.87000
N  31.54300 58.44100 38.75400
C  32.29700 57.26900 38.51000
C  33.73200 57.55300 38.41200
C  33.85700 58.97800 38.63300
C  32.44600 59.47700 38.88500
C  34.74900 56.39900 38.21000
C  35.18300 59.66500 38.67000
O  36.25900 59.06500 38.43700
C  35.25700 61.19700 39.00400
N  29.61500 60.68800 39.31000
C  30.81500 61.39500 39.34300
C  30.54300 62.89600 39.50600
C  29.00000 62.97200 39.73000
C  28.57000 61.52700 39.55500
C  31.42400 63.59600 40.63600
C  28.25900 64.14300 38.93400
C  26.96100 64.65300 39.52700
N  27.50000 58.66900 39.31600
C  26.68200 59.79300 39.52300
C  25.33600 59.47700 39.36500
C  25.39100 58.14900 38.97500
C  26.68500 57.68200 38.93500
C  24.15300 60.32700 39.70200
C  24.57000 57.04600 38.53100
O  23.33300 56.99000 38.40500
C  25.47900 55.83800 38.03800
C  25.16900 54.60900 38.87400
O  25.82100 54.29400 39.85000
O  24.13200 53.93400 38.36000
C  23.60600 52.86000 39.23100
H  32.31300 55.13400 38.05500
H  32.86000 61.58500 38.96900
H  26.57000 61.94000 39.98300
H  27.73900 53.77400 38.06900
H  30.31200 54.09800 36.83100
H  29.36100 52.81000 39.45200
H  30.99900 53.65300 39.50100
H  30.55900 52.21700 38.52500
H  26.85200 54.23300 35.91300
H  28.19600 53.10800 35.72600
H  29.31800 54.43500 34.53000
H  29.07900 55.94300 35.34400
H  34.25500 55.47000 37.92400
H  35.30400 56.15500 39.11600
H  35.51100 56.68500 37.48500
H  36.30300 61.49800 39.06000
H  34.71500 61.44600 39.91700
H  34.77000 61.57800 38.10600
H  30.86100 63.40900 38.59900
H  28.89700 63.21800 40.78700
H  30.84400 64.09000 41.41600
H  32.09400 64.39600 40.32100
H  32.07900 62.95600 41.22600
H  27.80500 63.83600 37.99100
H  29.03700 64.77200 38.50100
H  27.15800 65.72400 39.57200
H  26.67600 64.24000 40.49500
H  26.06700 64.57900 38.90800
H  24.31400 60.87900 40.62800
H  23.27400 59.69600 39.83700
H  24.01200 61.07500 38.92100
H  25.30700 55.66700 36.97600
H  24.45800 52.28100 39.58800
H  23.01700 52.17100 38.62600
H  23.01600 53.17600 40.09100

