158

Mg 26.21200 51.77300 26.65100
C  23.80400 51.91100 29.29900
C  28.48800 50.47700 28.83000
C  28.33900 51.83600 24.05900
C  23.59400 52.36000 24.34200
N  26.13000 51.26500 28.83700
C  25.07100 51.47200 29.71300
C  25.52000 51.06800 31.07700
C  27.05700 50.77300 30.94100
C  27.29100 50.88200 29.42200
C  28.03100 51.42200 31.80700
C  24.71300 49.86400 31.66800
C  24.00100 50.05800 33.02600
H  24.74000 50.92000 34.13800
N  28.17700 51.28000 26.47600
C  28.89500 50.70100 27.50400
C  30.26800 50.53300 26.97500
C  30.32200 51.10200 25.66500
C  28.89000 51.45600 25.31700
C  31.39100 49.85900 27.74200
C  31.50200 51.28600 24.74700
O  31.33600 51.90000 23.67600
C  32.85800 50.81500 25.06100
N  25.97700 52.21800 24.48700
C  27.02200 52.06000 23.65400
C  26.60100 52.10900 22.11700
C  25.01800 51.92100 22.27600
C  24.86200 52.23500 23.78500
C  27.12300 53.32000 21.32800
C  24.43400 50.52700 21.94300
C  23.65900 50.42000 20.67500
N  24.17500 52.10300 26.75100
C  23.25100 52.34600 25.72700
C  22.03000 52.62700 26.34800
C  22.18600 52.45700 27.67300
C  23.50800 52.16900 27.92400
C  20.79600 52.93900 25.55900
C  21.48400 52.53600 28.95600
O  20.33200 53.01000 29.09000
C  22.46100 52.19800 30.06600
C  22.58200 53.39500 30.96200
O  23.19200 54.41300 30.72600
O  21.82300 53.20900 32.08500
C  21.76000 54.31700 33.12900
H  29.25800 49.97900 29.42200
H  29.02200 51.79200 23.20700
H  22.76500 52.34400 23.63100
H  25.40900 51.91300 31.75700
H  27.19900 49.71800 31.17700
H  28.90400 51.75000 31.24300
H  28.23900 50.76600 32.65200
H  27.44400 52.14000 32.37900
H  25.27200 48.93900 31.81000
H  23.91200 49.62800 30.96700
H  23.90800 49.09100 33.51900
H  22.98400 50.43100 32.90100
H  31.18300 49.42200 28.71800
H  32.17000 50.61800 27.81600
H  31.84400 49.07800 27.13200
H  32.85800 49.76500 25.35400
H  33.32100 51.41800 25.84100
H  33.51000 50.85300 24.18800
H  26.99500 51.20000 21.66400
H  24.50900 52.58800 21.58000
H  27.81100 52.83300 20.63700
H  27.75400 53.90000 22.00100
H  26.36600 53.97300 20.89400
H  23.79600 50.13700 22.73600
H  25.21400 49.77800 21.80700
H  24.07000 49.80300 19.87500
H  23.37700 51.35400 20.18900
H  22.68600 49.99500 20.92000
H  20.48100 51.95500 25.21100
H  21.07000 53.48000 24.65300
H  19.99700 53.38300 26.15200
H  22.06700 51.40300 30.70000
H  21.65900 55.28900 32.64500
H  22.73300 54.55500 33.55800
H  20.98100 54.22700 33.88700
Mg 8.69300 46.86600 26.34900
C  6.72200 46.92100 29.20200
C  11.35700 47.80300 28.33200
C  10.51700 47.07800 23.59200
C  5.75300 46.80600 24.34100
N  8.96600 47.24400 28.54100
C  8.01700 47.18700 29.48800
C  8.49200 47.61500 30.90900
C  9.96400 48.17000 30.52800
C  10.16200 47.73400 29.02800
C  10.03000 49.65800 30.69400
C  8.32100 46.41800 31.87900
C  9.34800 46.24700 33.03100
H  9.14400 45.32900 34.24300
N  10.77600 47.17700 26.01000
C  11.68500 47.54800 26.93600
C  12.99600 47.59600 26.30400
C  12.75000 47.27800 24.94900
C  11.30000 47.21300 24.80900
C  14.29100 47.90400 27.07700
C  13.83400 46.98500 23.82800
O  13.42800 46.78900 22.71200
C  15.34500 46.93800 24.10900
N  8.15600 47.06500 24.23800
C  9.15600 47.13900 23.29200
C  8.56300 47.17900 21.83400
C  7.09100 46.83700 22.08600
C  6.97500 46.89500 23.63100
C  8.85100 48.58800 21.20200
C  6.67800 45.53100 21.42400
C  5.31900 45.37300 20.69800
N  6.67600 46.79800 26.63300
C  5.59800 46.69700 25.77900
C  4.44700 46.47700 26.61500
C  4.83100 46.62400 27.90500
C  6.20600 46.80200 27.92300
C  3.06400 46.15200 26.24100
C  4.36200 46.60400 29.26400
O  3.23900 46.45800 29.78800
C  5.56100 46.81600 30.12700
C  5.57100 45.52200 30.89700
O  5.95300 44.43800 30.45600
O  4.99200 45.68600 32.17200
C  4.93100 44.40700 32.93900
H  12.22800 48.10700 28.91700
H  11.10900 47.02100 22.67700
H  4.85100 46.67500 23.74100
H  7.90800 48.45200 31.29100
H  10.74700 47.77700 31.17600
H  9.76500 49.81800 31.73900
H  9.34000 50.15500 30.01200
H  11.07400 49.96500 30.63200
H  8.28300 45.56700 31.19900
H  7.41800 46.53700 32.47900
H  9.62800 47.27300 33.27300
H  10.20700 45.92600 32.44200
H  14.04300 48.14200 28.11100
H  14.72800 48.84700 26.74900
H  14.96100 47.04500 27.03600
H  15.67500 47.94900 24.35000
H  15.92200 46.65500 23.22900
H  15.55300 46.29900 24.96700
H  9.23400 46.51300 21.29100
H  6.38900 47.60900 21.77000
H  7.97300 49.11700 20.83300
H  9.47300 48.47900 20.31300
H  9.21700 49.33900 21.90200
H  6.49900 44.82000 22.23000
H  7.51000 45.11000 20.86000
H  4.60700 46.07200 21.13600
H  4.87400 44.38700 20.83100
H  5.42800 45.60400 19.63900
H  2.26400 46.70400 26.73200
H  2.94900 45.09000 26.46000
H  2.85700 46.29100 25.18000
H  5.42700 47.60700 30.86400
H  4.76200 43.50900 32.34500
H  4.20700 44.52000 33.74500
H  5.90400 44.39400 33.43000

