158

Mg 16.22900 -1.66700 27.78100
C  15.20700 0.54400 30.23000
C  18.18000 -3.34400 29.98500
C  17.73200 -3.13700 25.13000
C  14.43700 0.30900 25.38900
N  16.76700 -1.30300 29.81300
C  16.12400 -0.42700 30.70100
C  16.59600 -0.62800 32.13900
C  17.51700 -1.89600 32.10000
C  17.49400 -2.24000 30.55200
C  18.93300 -1.76200 32.57300
C  15.46700 -0.80800 33.25700
C  15.71000 -0.29400 34.65400
H  17.13700 0.28100 34.96000
N  17.66600 -2.98800 27.53100
C  18.27700 -3.68600 28.60000
C  19.21100 -4.64100 28.05500
C  19.07100 -4.62800 26.66200
C  18.14400 -3.54800 26.38000
C  20.04800 -5.49700 28.97300
C  19.77300 -5.43000 25.62400
O  19.56500 -5.32800 24.40600
C  20.84800 -6.42300 26.02300
N  16.13400 -1.42000 25.51500
C  16.85600 -2.16900 24.65100
C  16.51600 -1.88600 23.12100
C  15.36900 -0.78000 23.40000
C  15.21200 -0.71900 24.87000
C  17.66700 -1.27900 22.30400
C  13.96000 -1.00200 22.65100
C  13.52300 -0.07300 21.52200
N  14.95000 -0.03800 27.75100
C  14.23900 0.54400 26.77500
C  13.34400 1.49300 27.31900
C  13.63100 1.50000 28.64600
C  14.66200 0.63500 28.89900
C  12.39300 2.45400 26.55400
C  13.28600 2.21300 29.84700
O  12.47300 3.10600 30.06800
C  14.26200 1.55300 30.97000
C  14.97800 2.65200 31.61600
O  15.71300 3.44300 31.10000
O  14.48300 2.85700 32.90000
C  14.79100 4.14600 33.47900
H  18.53600 -3.98600 30.79400
H  18.16700 -3.62900 24.25800
H  13.77400 0.77000 24.65400
H  17.24100 0.22900 32.33400
H  17.16900 -2.75600 32.67400
H  19.50000 -1.07700 31.94400
H  19.43800 -2.71700 32.71900
H  18.68100 -1.40700 33.57200
H  15.22100 -1.86900 33.30200
H  14.57600 -0.27600 32.92500
H  15.49500 -1.02800 35.43100
H  14.98200 0.51700 34.68600
H  19.60500 -5.52400 29.96800
H  21.04900 -5.06900 29.02200
H  20.06000 -6.51700 28.58900
H  20.51100 -7.23900 26.66200
H  21.65300 -5.89200 26.53100
H  21.18600 -6.81700 25.06400
H  15.98800 -2.65800 22.56200
H  15.71700 0.19300 23.05300
H  18.56300 -1.42000 22.90900
H  17.63400 -0.21000 22.09200
H  17.82100 -1.79600 21.35800
H  13.20600 -1.02100 23.43800
H  14.00100 -2.00200 22.21800
H  14.31100 0.67800 21.45100
H  12.60500 0.45900 21.77100
H  13.34100 -0.65700 20.62000
H  11.58200 1.84500 26.15400
H  12.96100 2.94000 25.76200
H  11.98200 3.24500 27.18200
H  13.58700 1.08900 31.68800
H  14.31300 4.95500 32.92600
H  15.86800 4.27300 33.37600
H  14.43700 4.22800 34.50700
Mg 28.33300 58.21700 43.07800
C  25.84000 56.40200 41.36300
C  30.70400 56.42600 41.19900
C  30.55700 60.71900 43.65700
C  25.82600 60.19300 44.51200
N  28.26300 56.68000 41.51000
C  27.16200 56.01300 41.04400
C  27.59400 54.91400 39.96100
C  29.07700 54.72400 40.22800
C  29.34300 56.05000 40.98700
C  29.50200 53.45500 41.03300
C  27.31100 55.39900 38.54000
C  26.83400 54.26600 37.53900
H  27.59300 54.15100 36.13800
N  30.40900 58.46800 42.54200
C  31.18900 57.58600 41.93300
C  32.52600 58.11000 41.93600
C  32.54400 59.30400 42.66100
C  31.11900 59.57200 42.96700
C  33.65200 57.41700 41.15700
C  33.78800 60.22700 42.83000
O  34.96200 59.95300 42.77600
C  33.59200 61.70000 43.19900
N  28.28300 60.25000 43.76000
C  29.26400 61.03200 44.09000
C  28.86800 62.26200 44.97300
C  27.36900 62.00600 45.15800
C  27.11300 60.72000 44.41100
C  29.68600 62.38600 46.33900
C  26.43100 63.22900 44.83600
C  25.80000 63.21200 43.51700
N  26.24800 58.14800 43.12200
C  25.38900 59.08800 43.69400
C  24.02000 58.65500 43.47200
C  24.22200 57.54900 42.55600
C  25.55700 57.33200 42.30500
C  22.78300 59.24000 44.02800
C  23.38900 56.57600 41.78300
O  22.18700 56.42900 41.75200
C  24.47500 55.79800 40.88800
C  24.33000 54.31300 41.05200
O  24.85600 53.68500 41.95500
O  23.55200 53.71800 39.99500
C  23.60000 52.25100 39.94900
H  31.44100 55.80200 40.68800
H  31.30600 61.36900 44.11600
H  25.09800 60.78300 45.07300
H  26.98700 54.05300 40.24200
H  29.60200 54.58600 39.28300
H  30.06700 53.70900 41.93000
H  30.02500 52.73800 40.40000
H  28.73800 52.79300 41.44100
H  28.18700 55.84800 38.07300
H  26.65100 56.26700 38.53500
H  25.85900 54.66500 37.26100
H  26.70100 53.28900 38.00300
H  33.55000 56.33500 41.24800
H  34.58400 57.73200 41.62400
H  33.67900 57.77900 40.12900
H  32.69300 62.11700 42.74600
H  34.44500 62.32100 42.92500
H  33.41400 61.67600 44.27400
H  29.06700 63.12100 44.33200
H  27.16500 61.83100 46.21400
H  30.50700 63.08800 46.19100
H  30.12400 61.40600 46.52600
H  28.96100 62.63600 47.11300
H  27.04800 64.12800 44.84700
H  25.63800 63.42600 45.55800
H  25.82000 64.20600 43.06900
H  24.72100 63.08400 43.60100
H  26.23200 62.40800 42.92100
H  22.26200 59.80600 43.25600
H  22.89200 59.81600 44.94700
H  22.19900 58.34000 44.22300
H  24.28500 56.07100 39.84900
H  24.67100 52.09800 39.81800
H  23.04800 51.78100 39.13500
H  23.29400 51.80000 40.89200

