158

Mg 26.59000 50.54900 26.30100
C  24.52100 51.89900 28.87500
C  28.75900 49.38300 28.73900
C  28.76400 49.93800 23.90300
C  24.63600 52.37400 24.01000
N  26.60900 50.68000 28.56000
C  25.57200 51.09300 29.39800
C  25.94400 50.78100 30.80800
C  27.32800 50.08100 30.76700
C  27.59400 50.02800 29.24400
C  28.44900 50.79900 31.59500
C  24.79300 50.04200 31.56400
C  24.48900 50.83800 32.92500
H  24.68400 50.02900 34.23300
N  28.51300 49.67500 26.35700
C  29.19400 49.29700 27.43700
C  30.53300 48.79600 27.05700
C  30.53300 48.98400 25.60300
C  29.23500 49.53500 25.21800
C  31.52300 48.19200 28.03700
C  31.55300 48.65300 24.60400
O  31.52200 48.90600 23.40700
C  32.60200 47.74500 25.07200
N  26.78500 51.31600 24.29900
C  27.73800 50.74800 23.45200
C  27.29400 50.68500 22.03500
C  25.97400 51.44200 22.06900
C  25.81200 51.81700 23.50700
C  28.41900 51.30500 21.13300
C  24.78800 50.55100 21.47300
C  24.09500 51.08800 20.15800
N  24.88000 51.89200 26.36600
C  24.17000 52.39600 25.35900
C  22.93400 52.96900 25.81100
C  23.06700 52.90500 27.20500
C  24.24300 52.18200 27.49000
C  21.87700 53.67500 25.04700
C  22.41000 53.24500 28.46600
O  21.43600 53.88900 28.75500
C  23.41900 52.69200 29.60400
C  23.92900 53.86100 30.38900
O  24.79200 54.63700 29.98600
O  23.17600 54.02000 31.47100
C  23.38500 55.16200 32.40400
H  29.39800 49.07700 29.57000
H  29.33900 49.43800 23.12200
H  23.87600 52.73700 23.31400
H  26.05600 51.79400 31.19300
H  27.28000 49.04800 31.11100
H  28.19700 51.68300 32.18000
H  29.28900 51.09200 30.96500
H  28.90100 50.09100 32.29000
H  25.13200 49.04600 31.85000
H  23.87300 49.91500 30.99400
H  23.42800 51.07400 32.84700
H  25.05400 51.76300 33.03300
H  31.19600 48.13900 29.07600
H  32.40200 48.82200 27.89700
H  31.96000 47.22700 27.78000
H  33.40800 47.60000 24.35200
H  32.10000 46.82200 25.36300
H  33.12300 48.31300 25.84200
H  27.09700 49.62800 21.85600
H  26.04000 52.33500 21.44800
H  29.30700 51.47800 21.74000
H  28.14100 52.26900 20.70700
H  28.73400 50.67800 20.29900
H  23.98300 50.43200 22.19900
H  25.15200 49.54400 21.26700
H  24.00000 50.13500 19.63700
H  24.67400 51.74000 19.50400
H  23.16300 51.55800 20.47000
H  22.24300 54.50900 24.44900
H  21.21400 54.16400 25.76100
H  21.34500 52.91600 24.47200
H  22.80000 52.12000 30.29500
H  23.89000 56.03300 31.98500
H  24.03000 54.78200 33.19600
H  22.46900 55.43100 32.92900
Mg 4.81300 55.01900 42.05700
C  2.87900 52.11100 41.90700
C  7.26500 53.25300 40.29600
C  6.34700 57.86600 41.16200
C  2.03100 56.72200 42.94000
N  4.96300 52.96300 41.18500
C  4.01300 51.97600 41.10800
C  4.38500 50.83300 40.20900
C  5.91400 51.05600 40.02200
C  6.08500 52.53300 40.52400
C  6.94900 50.11600 40.69400
C  3.54500 50.73700 38.85600
C  2.93000 49.33100 38.49500
H  3.48200 48.61000 37.28200
N  6.69400 55.49900 41.15400
C  7.53200 54.61400 40.52100
C  8.70400 55.34400 40.11100
C  8.46700 56.70300 40.43900
C  7.11900 56.71200 40.91700
C  9.94700 54.65600 39.46000
C  9.48000 57.84800 40.15100
O  10.54500 57.58600 39.51900
C  9.33700 59.28100 40.62200
N  4.27800 57.04300 41.89100
C  5.03300 58.04300 41.51900
C  4.25900 59.37200 41.62500
C  2.87300 59.02300 42.22000
C  3.01400 57.52400 42.36400
C  5.08000 60.47700 42.34900
C  1.54900 59.50500 41.49900
C  0.17900 59.55700 42.23700
N  2.84900 54.59000 42.52000
C  1.84000 55.32500 42.97400
C  0.75000 54.58300 43.36200
C  1.12000 53.29900 43.07800
C  2.41300 53.34000 42.47700
C  -0.45700 54.98400 44.08800
C  0.80500 51.84100 43.09300
O  -0.16700 51.21600 43.46500
C  1.86500 51.02100 42.27900
C  1.18400 50.27200 41.13400
O  0.70800 50.73300 40.10700
O  1.22500 48.90600 41.46900
C  0.48400 47.90800 40.70500
H  7.81400 52.60200 39.61300
H  6.87400 58.78200 40.88600
H  1.11200 57.19700 43.28900
H  4.23700 49.87900 40.71600
H  6.12800 50.86200 38.97100
H  6.56900 49.64600 41.60200
H  7.76900 50.67200 41.14800
H  7.31800 49.38400 39.97600
H  4.19300 51.06600 38.04400
H  2.75500 51.48400 38.78800
H  1.84500 49.27400 38.40800
H  3.06300 48.56900 39.26300
H  10.09600 53.59400 39.65500
H  10.84500 55.11900 39.86900
H  10.17500 54.79300 38.40300
H  10.28100 59.82500 40.59400
H  9.01000 59.26000 41.66200
H  8.62700 59.85100 40.02400
H  4.05600 59.64700 40.59000
H  2.90100 59.69000 43.08300
H  4.80800 60.50300 43.40400
H  4.74000 61.43800 41.96300
H  6.12600 60.48900 42.04100
H  1.38000 58.83600 40.65500
H  1.70700 60.50800 41.10200
H  -0.18300 60.58400 42.29200
H  0.21200 59.28700 43.29300
H  -0.59900 58.88700 41.87100
H  -0.49500 56.02700 44.40200
H  -0.37000 54.34500 44.96600
H  -1.26000 54.76900 43.38300
H  2.21800 50.20600 42.91100
H  -0.22000 48.51000 40.13000
H  0.24800 47.11300 41.41200
H  1.15700 47.44700 39.98200

