158

Mg 47.78300 34.49200 26.71400
C  45.99000 33.13900 29.40600
C  48.20000 37.20400 28.87500
C  48.96600 36.24600 24.16300
C  47.14500 31.70400 24.83100
N  47.32400 34.96400 28.99600
C  46.59000 34.28400 29.84500
C  46.63000 34.87400 31.25800
C  46.87300 36.38900 30.89500
C  47.59100 36.17600 29.56900
C  45.60800 37.26000 30.85200
C  47.80100 34.35100 32.13000
C  47.93200 34.53400 33.65600
H  46.88900 35.39100 34.46100
N  48.51400 36.48900 26.60600
C  48.73800 37.39700 27.60100
C  49.27500 38.60600 27.04700
C  49.40800 38.38800 25.63200
C  48.97600 36.98000 25.39900
C  49.47300 39.84500 27.99700
C  49.84400 39.31900 24.49200
O  49.98600 38.97500 23.31700
C  50.32900 40.70400 24.93200
N  47.99500 34.03600 24.81000
C  48.46600 34.95500 23.91400
C  48.67100 34.32400 22.51600
C  48.26800 32.83300 22.81300
C  47.77800 32.81500 24.23600
C  47.78400 34.98100 21.30500
C  49.38000 31.80500 22.54000
C  50.60400 31.81000 23.39700
N  46.74700 32.79200 26.94200
C  46.56500 31.73300 26.09400
C  45.82600 30.72100 26.85400
C  45.41900 31.33300 28.06200
C  46.08600 32.49800 28.11700
C  45.30200 29.43400 26.43900
C  44.64500 31.09100 29.25100
O  43.88900 30.22700 29.56300
C  44.92400 32.36900 30.14900
C  45.22100 31.86000 31.51600
O  46.22300 31.20700 31.85100
O  44.22100 32.26800 32.37800
C  44.52200 31.93800 33.80200
H  48.22200 38.04800 29.56700
H  49.43600 36.70500 23.29000
H  47.02600 30.74900 24.31400
H  45.74400 34.81200 31.89000
H  47.47700 36.86000 31.67000
H  45.79900 38.26300 31.23300
H  44.83300 36.73800 31.41300
H  45.19100 37.31800 29.84700
H  48.72500 34.66700 31.64600
H  47.89400 33.29600 31.87100
H  48.96600 34.83500 33.82100
H  47.91900 33.50100 34.00100
H  50.38700 40.36400 27.71000
H  49.63200 39.75500 29.07200
H  48.69600 40.56400 27.73700
H  51.21000 40.61400 25.56800
H  49.47100 41.13400 25.44800
H  50.59200 41.32700 24.07700
H  49.72900 34.50300 22.32300
H  47.41500 32.48400 22.23100
H  48.47800 35.52800 20.66800
H  47.09300 35.65900 21.80500
H  47.20900 34.24300 20.74600
H  49.77700 31.94400 21.53400
H  48.91800 30.82100 22.62300
H  50.96000 30.85300 23.77700
H  50.53400 32.46500 24.26500
H  51.39100 32.21100 22.75800
H  45.49900 29.36400 25.36900
H  44.24200 29.35200 26.67900
H  45.79000 28.56800 26.88600
H  44.04500 33.01300 30.19300
H  44.07700 32.77700 34.33800
H  45.56600 31.92500 34.11400
H  44.04200 31.01100 34.11700
Mg 0.30800 43.09200 26.53100
C  2.60700 43.09400 29.06300
C  -2.20400 42.51000 28.65200
C  -1.73400 42.33400 23.94600
C  3.02500 43.31500 24.22100
N  0.30300 42.75100 28.59800
C  1.30000 42.91800 29.53300
C  0.78100 42.89300 30.97100
C  -0.64500 42.36100 30.76600
C  -0.90800 42.47000 29.23300
C  -0.79400 40.89300 31.42700
C  0.75000 44.33100 31.61700
C  1.22100 44.26500 33.03800
H  0.87300 42.97100 33.77400
N  -1.70700 42.59400 26.30500
C  -2.61800 42.59300 27.33600
C  -3.93500 42.51000 26.75900
C  -3.80300 42.44100 25.37100
C  -2.34500 42.40000 25.14500
C  -5.20700 42.34500 27.53500
C  -4.81000 42.44200 24.22200
O  -4.52000 42.39500 23.01900
C  -6.23800 42.57300 24.51000
N  0.64300 42.56600 24.35300
C  -0.41100 42.31800 23.54900
C  0.04800 42.17900 22.13600
C  1.57500 42.65500 22.15500
C  1.77500 42.84400 23.65900
C  -0.07100 40.67200 21.62700
C  1.81800 44.06500 21.46800
C  1.26300 45.31100 22.20000
N  2.37400 43.32900 26.57600
C  3.38300 43.38100 25.57400
C  4.67200 43.54600 26.20900
C  4.39900 43.42900 27.62100
C  3.00600 43.34500 27.74600
C  5.96700 43.69200 25.53000
C  5.02000 43.36300 28.94900
O  6.19300 43.44000 29.26800
C  3.87700 43.26700 29.95300
C  4.10500 42.03300 30.81700
O  4.21700 40.90000 30.45600
O  4.05200 42.40000 32.16200
C  4.38700 41.36000 33.08400
H  -3.05700 42.26900 29.29000
H  -2.37100 41.91100 23.16600
H  3.90100 43.35800 23.57000
H  1.37400 42.14700 31.49900
H  -1.40200 43.03300 31.17100
H  -1.19800 40.19900 30.69000
H  -1.57900 41.05500 32.16500
H  0.10500 40.37100 31.75600
H  -0.27800 44.69000 31.66800
H  1.33500 45.03300 31.02200
H  0.77300 45.06300 33.63000
H  2.31000 44.30000 33.03700
H  -5.65200 41.36700 27.35500
H  -5.96400 43.06700 27.23000
H  -5.01200 42.35000 28.60800
H  -6.58900 42.06500 25.40900
H  -6.93400 42.25400 23.73400
H  -6.49400 43.62100 24.66400
H  -0.49700 42.70400 21.35200
H  2.26400 41.93600 21.71200
H  0.89500 40.24900 21.90300
H  -0.07500 40.83200 20.54900
H  -0.95600 40.17000 22.01800
H  1.32300 44.07100 20.49700
H  2.87200 44.31500 21.34800
H  0.95300 46.14400 21.56800
H  2.05300 45.56900 22.90500
H  0.49700 44.86900 22.83800
H  5.96300 43.55700 24.44800
H  6.69100 43.02600 25.99800
H  6.34300 44.70900 25.64600
H  3.82500 44.10800 30.64400
H  3.84000 40.41700 33.07200
H  4.27800 41.77600 34.08600
H  5.46400 41.30500 32.92400

