158

Mg -0.01000 7.40800 27.31800
C  1.08700 9.56600 29.91300
C  -0.12800 4.82200 29.73300
C  -0.65800 5.33700 24.82100
C  0.56600 9.95200 25.09300
N  0.60700 7.21800 29.56400
C  0.80300 8.31900 30.44700
C  0.64100 7.89900 31.89900
C  0.51100 6.36400 31.77800
C  0.36500 6.05700 30.26600
C  1.66100 5.58900 32.41400
C  -0.61800 8.58500 32.54400
C  -0.52800 8.91100 34.06900
H  0.66000 8.46700 34.91400
N  -0.35500 5.33200 27.25300
C  -0.35200 4.48400 28.28900
C  -0.59400 3.13000 27.77800
C  -0.74800 3.27400 26.35700
C  -0.55500 4.69800 26.08700
C  -0.54600 1.92100 28.68000
C  -1.08800 2.17200 25.38300
O  -1.20700 2.42800 24.19800
C  -1.33500 0.74500 25.81500
N  0.01200 7.59100 25.28000
C  -0.26400 6.58300 24.41800
C  -0.31500 7.02900 22.99500
C  -0.24100 8.59600 23.13500
C  0.09500 8.74500 24.58500
C  0.83200 6.48500 22.14400
C  -1.57300 9.37900 22.79000
C  -1.41500 10.62400 21.87000
N  0.78000 9.34700 27.37200
C  0.95000 10.25700 26.39500
C  1.33000 11.51200 26.96400
C  1.36900 11.30300 28.37100
C  1.04400 9.97200 28.57100
C  1.69900 12.75000 26.18600
C  1.68400 11.95200 29.65600
O  2.21500 13.03800 29.92900
C  1.39700 10.88500 30.75800
C  2.59300 10.82600 31.65300
O  3.40900 9.92300 31.62800
O  2.48300 11.73300 32.70600
C  3.46400 11.64900 33.76900
H  -0.30700 3.98200 30.40700
H  -0.91500 4.67200 23.99300
H  0.60300 10.79400 24.39800
H  1.55300 8.21500 32.40500
H  -0.36600 6.02400 32.32900
H  2.19800 6.16300 33.16900
H  2.25200 5.35100 31.52900
H  1.27100 4.67700 32.86500
H  -1.43200 7.88700 32.34700
H  -0.83500 9.46300 31.93600
H  -1.40600 8.45000 34.52200
H  -0.61900 9.99700 34.05600
H  0.20700 1.28000 28.22200
H  -1.53400 1.46000 28.63900
H  -0.31200 2.04900 29.73700
H  -1.85200 0.19100 25.03100
H  -1.88700 0.58200 26.74000
H  -0.32400 0.36800 25.96700
H  -1.27100 6.72300 22.56900
H  0.57600 9.04200 22.56900
H  1.68100 7.15100 22.29600
H  0.58100 6.39300 21.08700
H  1.11100 5.49000 22.48900
H  -1.99100 9.79600 23.70600
H  -2.30200 8.69300 22.35900
H  -0.37300 10.75400 21.57700
H  -1.72500 11.50700 22.43000
H  -2.10900 10.50800 21.03800
H  0.73600 13.10900 25.82400
H  2.21900 12.41300 25.28900
H  2.29200 13.43700 26.79100
H  0.61400 11.25100 31.42200
H  3.08400 11.11000 34.63700
H  3.77800 12.66500 34.00900
H  4.35400 11.12400 33.42300
Mg 9.51300 48.05800 25.34600
C  7.68300 48.10800 28.18300
C  12.14400 49.62900 26.84800
C  11.19700 47.97100 22.31700
C  6.72300 46.73500 23.58300
N  9.74700 48.99700 27.17600
C  8.88800 48.81000 28.29900
C  9.42100 49.57200 29.56500
C  10.81600 50.02100 29.01500
C  10.94200 49.61700 27.52100
C  11.13200 51.58300 29.14000
C  9.42100 48.76100 30.86600
C  10.50400 49.09400 31.93800
H  10.08300 49.09600 33.38600
N  11.48800 48.51800 24.76400
C  12.42000 49.13200 25.55400
C  13.65700 49.21900 24.81200
C  13.40400 48.72300 23.51000
C  11.93000 48.41900 23.48700
C  14.89300 49.86400 25.33400
C  14.21900 48.55400 22.27900
O  13.94500 48.19700 21.14000
C  15.64000 48.87000 22.37800
N  9.10200 47.38900 23.29100
C  9.92700 47.48700 22.18900
C  9.30000 46.90600 20.84800
C  7.96200 46.32000 21.36400
C  7.91200 46.75200 22.84600
C  9.27000 47.90700 19.70700
C  7.87900 44.75600 21.24300
C  8.70000 43.86000 22.16400
N  7.55600 47.64300 25.73100
C  6.58700 47.16400 24.91800
C  5.38500 47.04900 25.76300
C  5.77100 47.32100 27.06900
C  7.11200 47.65200 26.98500
C  4.03700 46.43800 25.35600
C  5.44400 47.26200 28.53400
O  4.44300 46.90500 29.14300
C  6.68200 47.76500 29.29000
C  7.06800 46.69200 30.17600
O  7.80400 45.73400 29.92900
O  6.64600 46.92600 31.43700
C  7.00800 45.88600 32.38300
H  12.98300 50.10900 27.35600
H  11.80400 47.80500 21.42500
H  5.88000 46.33800 23.01300
H  8.73400 50.40700 29.70300
H  11.54600 49.42100 29.55800
H  11.36800 51.93800 28.13600
H  12.07700 51.76200 29.65300
H  10.37300 52.21400 29.60300
H  9.53000 47.73200 30.52500
H  8.41600 48.94300 31.24700
H  10.78400 50.12200 31.70600
H  11.43700 48.55500 31.77400
H  15.47500 50.46000 24.63200
H  15.56600 49.05900 25.62900
H  14.67900 50.36900 26.27600
H  16.13200 48.63700 21.43400
H  16.03000 48.17900 23.12600
H  15.85000 49.92800 22.53200
H  9.99800 46.13000 20.53200
H  7.18300 46.80400 20.77400
H  8.77300 48.85000 19.93300
H  8.61300 47.45100 18.96600
H  10.28400 48.02500 19.32400
H  8.27800 44.54000 20.25200
H  6.82000 44.51200 21.15600
H  9.12500 43.02600 21.60500
H  8.01300 43.41800 22.88500
H  9.44800 44.39500 22.74900
H  3.47600 47.05200 24.65200
H  3.47600 46.24600 26.27100
H  4.22300 45.48600 24.85800
H  6.55400 48.59200 29.98800
H  6.15200 45.21100 32.40300
H  7.13600 46.27700 33.39200
H  7.94900 45.42000 32.09100

