158

Mg 17.60600 -0.55900 27.31000
C  16.16600 1.07100 30.09000
C  19.36700 -2.57200 29.33000
C  18.68700 -1.78900 24.58600
C  15.80800 1.83800 25.28500
N  17.81700 -0.64300 29.53800
C  17.08300 0.05300 30.48700
C  17.62400 -0.34300 31.95600
C  18.65200 -1.55900 31.59400
C  18.61800 -1.67900 30.06100
C  20.09700 -1.38000 32.07000
C  16.54200 -0.72900 33.02200
C  16.56300 -0.04300 34.43400
H  17.84300 0.60500 34.99600
N  18.86200 -1.96000 27.03300
C  19.45700 -2.70600 27.98200
C  20.33600 -3.64800 27.28100
C  20.12000 -3.53700 25.89800
C  19.13000 -2.39800 25.77700
C  21.21300 -4.70300 28.03500
C  20.42200 -4.44500 24.76200
O  20.00200 -4.19100 23.64800
C  21.26800 -5.69800 25.03500
N  17.38300 0.07800 25.23700
C  17.86400 -0.69400 24.31600
C  17.77900 -0.14300 22.87100
C  16.67800 1.02700 23.15400
C  16.68500 1.04900 24.64400
C  19.24300 0.40500 22.41800
C  15.27000 0.79100 22.48100
C  14.20300 -0.09300 23.19700
N  16.21600 1.04400 27.54200
C  15.58200 1.90100 26.63600
C  14.71000 2.73200 27.31000
C  14.84600 2.43600 28.68500
C  15.79800 1.39700 28.72800
C  13.87300 3.69100 26.69800
C  14.39100 2.74900 30.04800
O  13.51700 3.52400 30.50100
C  15.33100 1.97500 30.98000
C  16.22700 2.82300 31.74000
O  17.29100 3.33100 31.41300
O  15.53600 3.13800 32.87400
C  16.21600 4.03700 33.78500
H  20.09300 -3.19100 29.86000
H  18.99700 -2.15400 23.60500
H  15.18000 2.50000 24.68300
H  18.27700 0.44600 32.32900
H  18.27400 -2.53200 31.90800
H  20.38700 -2.33900 32.49700
H  20.22600 -0.50500 32.70800
H  20.78600 -1.15400 31.25600
H  16.52500 -1.79600 33.24300
H  15.54400 -0.66300 32.58900
H  16.25500 -0.73700 35.21700
H  15.77300 0.68900 34.26600
H  22.14800 -4.76200 27.47900
H  20.64000 -5.62900 28.08800
H  21.56900 -4.32500 28.99300
H  22.28500 -5.32800 25.16600
H  21.19800 -6.28900 24.12200
H  21.02900 -6.28500 25.92300
H  17.45200 -0.94700 22.21100
H  17.04100 2.00200 22.82800
H  20.07100 0.21400 23.10100
H  19.17600 1.47500 22.22100
H  19.51600 -0.11200 21.49800
H  15.37600 0.40100 21.46900
H  14.87900 1.77400 22.22100
H  13.48700 -0.53100 22.50200
H  13.59500 0.59500 23.78300
H  14.69300 -0.93300 23.69000
H  14.40400 4.51600 26.22400
H  13.32800 4.21100 27.48600
H  13.23000 3.34200 25.89000
H  14.81900 1.29700 31.66300
H  15.54400 4.77200 34.22900
H  17.01900 4.58600 33.29300
H  16.71000 3.42700 34.54100
Mg -12.06700 16.48300 41.14900
C  -8.93000 14.97000 41.00500
C  -10.85600 19.30500 39.99000
C  -15.25300 17.55000 40.94200
C  -13.29600 13.26100 42.12600
N  -10.09600 16.94400 40.39600
C  -8.91100 16.29100 40.53000
C  -7.74800 17.13600 40.16700
C  -8.39900 18.54700 40.15500
C  -9.90100 18.26300 40.14000
C  -7.95700 19.35600 41.38000
C  -7.05200 16.69100 38.84300
C  -5.50100 16.94100 38.76500
H  -5.02400 17.24400 37.30400
N  -12.99800 18.16900 40.47700
C  -12.30800 19.24300 40.00700
C  -13.20300 20.28200 39.68700
C  -14.52000 19.80900 39.93100
C  -14.31200 18.49200 40.50300
C  -12.62500 21.56200 39.14500
C  -15.72100 20.58600 39.73600
O  -15.78500 21.69700 39.20300
C  -17.04300 19.99600 39.92800
N  -14.09200 15.42400 41.16500
C  -15.17700 16.18900 41.29400
C  -16.36000 15.44600 41.95000
C  -15.67100 14.15000 42.43400
C  -14.26900 14.26100 41.80200
C  -17.20300 16.22900 43.00800
C  -16.43400 12.82500 42.25200
C  -16.76800 12.06300 43.52800
N  -11.34500 14.39700 41.37500
C  -11.92200 13.27900 41.87300
C  -10.93000 12.24200 42.15500
C  -9.67700 12.89200 41.83100
C  -10.02000 14.17900 41.35300
C  -11.24600 10.90000 42.62200
C  -8.24800 12.68800 41.76300
O  -7.53000 11.72500 42.08400
C  -7.71200 14.00700 41.06700
C  -6.53900 14.58800 41.79300
O  -6.55200 14.85600 42.95400
O  -5.42400 14.50200 41.00600
C  -4.20700 14.88900 41.66100
H  -10.40700 20.28500 39.81400
H  -16.23500 17.97200 41.16900
H  -13.79600 12.41100 42.59700
H  -7.00100 17.02300 40.95300
H  -8.11000 19.05700 39.23700
H  -8.83800 19.56600 41.98600
H  -7.44800 20.25400 41.02600
H  -7.29200 18.77800 42.02100
H  -7.53800 17.15200 37.98300
H  -7.17000 15.62100 38.67700
H  -4.95400 16.03200 39.01300
H  -5.41000 17.78800 39.44500
H  -11.72100 21.40200 38.55800
H  -12.34900 22.22200 39.96700
H  -13.31200 22.12100 38.51100
H  -17.85700 20.49300 39.39900
H  -17.21900 19.88500 40.99800
H  -16.92800 19.02800 39.44000
H  -16.98500 15.25300 41.07800
H  -15.40700 14.31700 43.47800
H  -16.73000 17.19600 43.17900
H  -17.22200 15.67600 43.94700
H  -18.15200 16.47100 42.52900
H  -15.82600 12.19400 41.60500
H  -17.36600 13.02900 41.72400
H  -16.51600 12.65900 44.40600
H  -16.30000 11.07900 43.50300
H  -17.84400 11.90700 43.60000
H  -10.30800 10.36400 42.76400
H  -11.92700 10.25500 42.06500
H  -11.77000 10.84800 43.57600
H  -7.35200 13.58500 40.12900
H  -3.57500 14.01200 41.52100
H  -4.17000 14.99000 42.74600
H  -3.82200 15.80100 41.20400

