158

Mg 48.82400 45.73700 43.34900
C  45.42100 45.94000 42.09500
C  48.99200 42.64400 41.70400
C  52.12400 45.86700 43.61500
C  48.55300 49.07900 44.12900
N  47.34000 44.43600 41.99400
C  46.07700 44.72600 41.64800
C  45.52800 43.67300 40.72100
C  46.50600 42.44100 41.00800
C  47.68600 43.16400 41.64200
C  45.90900 41.25800 41.85200
C  45.50300 44.02600 39.25600
C  44.20400 43.80400 38.49400
H  44.24400 42.72000 37.43600
N  50.29600 44.36500 42.95100
C  50.13400 43.15300 42.31800
C  51.45900 42.51800 42.25800
C  52.40100 43.37600 42.98000
C  51.61000 44.56500 43.30700
C  51.71100 41.09800 41.72100
C  53.79900 43.05500 43.39200
O  54.25000 41.91400 43.15300
C  54.65400 43.98900 44.20100
N  50.09500 47.18900 43.95800
C  51.45100 47.06700 43.94000
C  52.17600 48.41800 44.15400
C  51.00900 49.37900 44.30800
C  49.82700 48.49600 44.05900
C  53.21400 48.46900 45.33000
C  51.06400 50.65600 43.35000
C  50.56200 51.92000 44.09200
N  47.26600 47.24400 43.34000
C  47.31400 48.52700 43.72800
C  46.04800 49.08700 43.68100
C  45.25500 48.11200 42.95300
C  46.03600 46.97700 42.84500
C  45.69200 50.50800 43.97400
C  43.95400 47.87900 42.36200
O  43.02900 48.65100 42.03100
C  44.00800 46.47800 41.76600
C  42.96400 45.60800 42.30600
O  42.27200 44.92100 41.58900
O  42.73900 45.72500 43.68500
C  41.66100 44.77600 44.07700
H  49.12700 41.60900 41.38400
H  53.21000 45.97500 43.64000
H  48.49000 50.13000 44.41600
H  44.52700 43.42300 41.07400
H  46.82600 42.05700 40.04000
H  45.83200 40.31000 41.32100
H  44.90500 41.51600 42.19200
H  46.57100 41.09000 42.70200
H  46.30700 43.58100 38.66800
H  45.63500 45.10800 39.25700
H  43.77900 44.79600 38.34600
H  43.52100 43.33700 39.20400
H  52.63600 41.02200 41.14900
H  50.89200 40.66800 41.14500
H  51.78500 40.36300 42.52300
H  55.04500 44.80200 43.58900
H  55.46700 43.39000 44.61100
H  54.23500 44.34600 45.14100
H  52.71200 48.60000 43.22200
H  50.75300 49.63700 45.33600
H  54.04300 49.08900 44.98900
H  53.64300 47.59200 45.81600
H  52.68200 48.94400 46.15400
H  50.35000 50.52800 42.53700
H  52.00500 50.94400 42.87900
H  51.36900 52.57200 44.42400
H  50.10200 51.75700 45.06700
H  49.88500 52.49600 43.46300
H  46.39400 51.08100 44.58000
H  44.81600 50.50500 44.62200
H  45.53300 50.97500 43.00200
H  43.91700 46.42300 40.68100
H  40.64600 45.11200 43.86800
H  41.68500 44.61000 45.15400
H  41.89700 43.76400 43.74700
Mg 30.39300 58.21900 40.10200
C  27.58300 56.21200 39.34300
C  32.37900 55.52100 39.58700
C  33.00700 60.32300 40.11000
C  28.24400 60.88400 40.72100
N  29.98500 56.10200 39.52600
C  28.81100 55.50900 39.23600
C  29.08700 54.05700 38.75900
C  30.49900 53.78000 39.36200
C  30.99100 55.23700 39.55800
C  30.50500 52.96300 40.65400
C  29.05300 53.98600 37.20600
C  27.88700 53.09100 36.72400
H  27.00800 53.67700 35.59000
N  32.45600 57.94300 39.86000
C  33.07400 56.75600 39.65800
C  34.52500 56.99200 39.72700
C  34.70900 58.36400 39.77800
C  33.37300 58.97900 39.95900
C  35.59600 55.93800 39.58100
C  36.04900 58.99800 39.85300
O  37.14200 58.38400 39.74800
C  36.17600 60.46100 40.26200
N  30.58900 60.37900 40.27400
C  31.78400 60.95400 40.29800
C  31.59100 62.47600 40.53700
C  30.09400 62.59200 40.83100
C  29.56400 61.18400 40.61800
C  32.40000 63.17200 41.64400
C  29.26300 63.66500 40.04000
C  28.37400 64.50500 40.88200
N  28.32000 58.52500 40.10700
C  27.63300 59.67100 40.45100
C  26.26300 59.33800 40.37800
C  26.20100 58.03100 39.92600
C  27.47600 57.55500 39.75500
C  25.11500 60.23100 40.85500
C  25.34200 57.01200 39.61600
O  24.12300 57.04800 39.44800
C  26.10200 55.77600 39.24800
C  25.71600 54.73400 40.26800
O  26.29400 54.54600 41.38900
O  24.67600 54.01300 39.83100
C  24.21000 53.00500 40.77300
H  33.05000 54.66000 39.61200
H  33.79200 61.08200 40.12000
H  27.52900 61.69700 40.86100
H  28.41700 53.35600 39.25700
H  31.05600 53.27200 38.57500
H  29.54500 52.49700 40.87600
H  30.74500 53.42000 41.61300
H  31.19300 52.12900 40.51300
H  29.98700 53.59500 36.80200
H  28.84700 54.99300 36.84200
H  27.21600 52.80300 37.53300
H  28.28500 52.11400 36.45200
H  36.02600 56.06000 38.58700
H  35.08400 54.97900 39.66200
H  36.33200 56.04700 40.37700
H  35.80800 61.07700 39.44200
H  37.22800 60.70600 40.41400
H  35.58400 60.70900 41.14300
H  31.84000 63.01400 39.62200
H  30.01600 62.82500 41.89300
H  33.08200 62.46700 42.11900
H  31.80200 63.64200 42.42500
H  32.99800 64.01100 41.28900
H  28.61600 63.15800 39.32500
H  29.88200 64.25600 39.36500
H  27.43700 64.77600 40.39600
H  28.92100 65.41100 41.14300
H  28.08100 63.98500 41.79400
H  24.25100 60.03500 40.22000
H  25.31100 61.30300 40.87300
H  24.80700 59.99100 41.87300
H  25.75600 55.40700 38.28300
H  24.48200 52.01600 40.40600
H  23.15600 53.28100 40.72000
H  24.50900 53.09400 41.81700

