158

Mg 54.38000 24.32400 44.14600
C  51.69900 26.53200 43.41700
C  52.52100 21.69700 43.28800
C  57.32200 22.70500 43.80300
C  56.27600 27.31500 44.80200
N  52.34900 24.14100 43.31500
C  51.38000 25.14400 43.16700
C  50.02100 24.45100 42.89900
C  50.29500 22.94600 43.18600
C  51.80300 22.91400 43.22800
C  49.58600 22.48700 44.49800
C  49.51900 24.73600 41.37800
C  47.97700 24.94600 41.20400
H  47.45100 25.06700 39.80300
N  54.81700 22.35600 43.73100
C  53.87500 21.39900 43.42400
C  54.59200 20.14900 43.23500
C  55.96400 20.41800 43.53200
C  56.10500 21.88900 43.77400
C  53.94500 18.81900 42.87900
C  57.10800 19.42000 43.43700
O  56.85300 18.29000 43.03900
C  58.50600 19.69400 43.94700
N  56.56400 24.97300 44.18700
C  57.58200 24.08400 44.02000
C  58.96700 24.69600 44.30500
C  58.58500 26.22000 44.59100
C  57.07500 26.20700 44.54300
C  60.00400 24.05600 45.31900
C  59.20500 27.26800 43.58400
C  59.70800 28.63000 44.09000
N  54.07600 26.46800 44.26300
C  54.88000 27.51200 44.69900
C  54.09000 28.64600 44.92200
C  52.84700 28.39400 44.35700
C  52.89700 27.04600 43.96800
C  54.49700 29.97500 45.59800
C  51.52500 28.85600 44.09400
O  51.03000 29.90100 44.42600
C  50.82100 27.72000 43.29600
C  50.67100 28.17400 41.88400
O  51.57400 28.54200 41.20100
O  49.37700 28.13700 41.54900
C  48.87300 28.71900 40.31300
H  51.87900 20.82600 43.14300
H  58.28800 22.19600 43.78900
H  56.80400 28.19000 45.18700
H  49.19600 24.83700 43.49800
H  50.10500 22.24700 42.37200
H  50.30700 22.30200 45.29400
H  49.05600 21.57500 44.22500
H  48.78100 23.19600 44.69400
H  49.77500 23.84300 40.80700
H  50.03300 25.57700 40.91400
H  47.75600 25.79000 41.85800
H  47.34700 24.14700 41.59300
H  53.06400 19.14500 42.32600
H  53.62500 18.25100 43.75300
H  54.55200 18.16400 42.25400
H  59.10700 20.20500 43.19500
H  58.95900 18.71500 44.10100
H  58.38700 20.21600 44.89700
H  59.45600 24.64100 43.33300
H  58.88400 26.56300 45.58200
H  59.62100 23.10500 45.68800
H  60.05300 24.75400 46.15400
H  61.01300 23.92000 44.92700
H  58.51600 27.28800 42.74000
H  60.10100 26.82800 43.14800
H  60.67300 28.94100 43.69100
H  59.81700 28.64900 45.17400
H  59.01400 29.46300 43.97000
H  53.93500 29.96200 46.53200
H  54.07900 30.79600 45.01500
H  55.57600 30.11100 45.67000
H  49.86000 27.37200 43.67300
H  49.61100 29.18100 39.65800
H  48.15100 29.49300 40.57300
H  48.41000 27.91800 39.73500
Mg 48.69500 36.10300 27.34700
C  46.84200 34.18800 29.42800
C  48.96100 38.47000 29.86800
C  50.30900 38.09700 25.08200
C  48.38200 33.61100 24.94300
N  48.08300 36.21500 29.51800
C  47.36700 35.29500 30.16200
C  47.37600 35.58300 31.66800
C  47.73500 37.10100 31.67300
C  48.33900 37.29400 30.27700
C  46.56600 38.07700 31.93000
C  48.41800 34.62900 32.32700
C  48.40500 34.42200 33.84200
H  47.54500 35.18800 34.84700
N  49.48800 38.08400 27.47300
C  49.47000 38.86900 28.60200
C  50.35900 40.06400 28.37400
C  50.59700 39.97800 26.93600
C  50.11900 38.68900 26.40400
C  50.81100 41.07700 29.43900
C  51.35800 41.06400 26.09400
O  51.70400 40.89500 24.91100
C  51.66300 42.30800 26.79400
N  49.08300 35.96600 25.30300
C  49.79000 36.87600 24.58300
C  50.27000 36.33200 23.27100
C  49.82600 34.80900 23.27300
C  49.08100 34.74200 24.58500
C  49.79500 37.20100 22.03400
C  50.99800 33.82200 22.94600
C  51.18300 33.40300 21.50700
N  47.88300 34.20300 27.14300
C  47.79400 33.34300 26.14700
C  46.98800 32.19700 26.44000
C  46.56000 32.48200 27.76600
C  47.13400 33.73800 28.12200
C  46.61000 31.04300 25.69300
C  45.71100 32.01000 28.80100
O  45.13300 30.94300 28.83700
C  45.78400 33.13700 29.91600
C  46.06400 32.37900 31.09800
O  46.85300 31.41700 31.31400
O  45.24800 32.90600 32.15000
C  45.10600 32.10100 33.39300
H  49.21900 39.10700 30.71700
H  50.90300 38.61700 24.32700
H  48.29700 32.83600 24.17900
H  46.36100 35.33500 31.98000
H  48.50100 37.26200 32.43100
H  46.72300 38.83200 32.70000
H  45.60400 37.69200 32.26800
H  46.47500 38.55600 30.95500
H  49.40300 35.00900 32.05700
H  48.44200 33.65100 31.84500
H  49.38500 34.31900 34.30700
H  48.00800 33.41300 33.95100
H  51.86200 41.35600 29.37100
H  50.59700 40.77500 30.46500
H  50.27400 42.02000 29.34300
H  50.79300 42.61400 27.37600
H  51.88100 43.06500 26.04000
H  52.42900 42.04300 27.52200
H  51.35900 36.31700 23.32700
H  49.03200 34.63400 22.54800
H  49.32600 36.56600 21.28200
H  50.62400 37.77500 21.61900
H  49.03800 37.92400 22.33800
H  50.90100 32.85800 23.44600
H  51.91300 34.24000 23.36500
H  51.38900 32.33300 21.50100
H  52.10200 33.88400 21.17300
H  50.26500 33.53100 20.93300
H  45.84300 31.35000 24.98300
H  46.15600 30.36600 26.41600
H  47.44000 30.47400 25.27300
H  44.75100 33.48300 29.92300
H  45.54600 31.11000 33.28400
H  44.06500 31.82200 33.55500
H  45.54400 32.61900 34.24600

