158

Mg 49.20200 47.45100 43.43000
C  45.85100 47.38000 42.81400
C  49.47400 44.35900 41.80400
C  52.59500 47.70000 43.55000
C  48.94200 50.75400 44.47600
N  47.80700 46.04400 42.29500
C  46.49000 46.23900 42.26300
C  45.79400 45.06900 41.55700
C  46.96400 43.99400 41.47600
C  48.15400 44.80000 41.88100
C  46.77200 42.73000 42.24700
C  45.15600 45.45100 40.13900
C  43.64800 45.34000 39.86900
H  43.17000 45.21300 38.40800
N  50.83800 46.12600 42.79000
C  50.71500 44.91600 42.15900
C  52.04700 44.33100 41.98200
C  52.95900 45.28700 42.45900
C  52.17500 46.47300 42.99000
C  52.21200 42.98100 41.30700
C  54.46400 45.14200 42.45400
O  54.95800 44.26200 41.75700
C  55.48300 46.09100 43.15700
N  50.56700 48.98100 43.90900
C  51.88700 48.83700 43.86300
C  52.61100 49.99400 44.55400
C  51.46000 51.07400 44.64100
C  50.21800 50.20200 44.33700
C  53.14900 49.48000 45.87500
C  51.65700 52.35800 43.74200
C  51.88400 53.73500 44.38600
N  47.68600 48.84000 43.77500
C  47.69100 50.11800 44.20600
C  46.27500 50.55600 44.29800
C  45.52500 49.51800 43.82600
C  46.43600 48.51700 43.43200
C  45.90500 51.94900 44.76000
C  44.18100 48.99600 43.63100
O  43.08300 49.45300 43.89900
C  44.31000 47.69000 42.78500
C  43.52300 46.57500 43.31800
O  43.79600 45.91700 44.31000
O  42.32400 46.50800 42.66100
C  41.52600 45.31300 42.87700
H  49.67900 43.38700 41.34900
H  53.68300 47.78900 43.57900
H  48.82000 51.74100 44.92800
H  45.04600 44.60500 42.20100
H  47.03900 43.68000 40.43500
H  47.36400 42.77200 43.16200
H  47.27500 41.91500 41.72700
H  45.78400 42.52300 42.65900
H  45.68000 44.94100 39.33000
H  45.35600 46.51000 39.97500
H  43.25300 46.30500 40.18700
H  43.15600 44.68200 40.58500
H  52.26000 43.17800 40.23600
H  51.41600 42.30400 41.61700
H  53.16700 42.49600 41.50800
H  55.52900 47.07600 42.69100
H  56.49300 45.68500 43.21500
H  55.03200 46.16300 44.14600
H  53.34700 50.41200 43.86700
H  51.44600 51.30000 45.70700
H  52.54800 49.55900 46.78100
H  54.06600 50.05600 46.00000
H  53.32600 48.41600 45.72300
H  50.69700 52.52600 43.25500
H  52.39300 52.13200 42.97100
H  51.07100 54.43100 44.18000
H  52.86100 54.14100 44.12500
H  51.90200 53.39400 45.42100
H  46.00200 52.03300 45.84300
H  44.85400 52.08800 44.50700
H  46.51200 52.71700 44.28200
H  43.93500 47.94700 41.79400
H  42.18500 44.47000 43.09000
H  40.97100 45.00200 41.99200
H  40.83200 45.43400 43.70900
Mg 0.85900 42.03100 26.24000
C  2.17100 42.13200 29.51300
C  -2.03500 40.78900 27.80900
C  -0.24400 41.35600 23.29700
C  4.05000 42.65500 25.10100
N  0.13700 41.57500 28.45400
C  0.79700 41.94300 29.56100
C  -0.15800 41.78300 30.83400
C  -1.49100 41.21500 30.23200
C  -1.11000 41.21900 28.72500
C  -2.10300 39.91900 30.92500
C  -0.36800 43.09000 31.66400
C  -0.26800 43.02000 33.15300
H  -0.77500 41.72500 33.90000
N  -0.92100 41.21900 25.62400
C  -2.05800 40.89200 26.38500
C  -3.08200 40.48500 25.42400
C  -2.62600 40.67600 24.09500
C  -1.21300 41.07200 24.27900
C  -4.44400 39.95100 25.95200
C  -3.28300 40.53200 22.75700
O  -2.69900 40.68500 21.67500
C  -4.64000 40.01600 22.75000
N  1.77900 41.88700 24.44900
C  1.06700 41.72700 23.37100
C  1.99200 41.90500 22.12100
C  3.30300 42.48500 22.70700
C  3.03700 42.27000 24.16800
C  2.13200 40.62000 21.20000
C  3.61500 43.98700 22.37400
C  4.30400 44.21000 20.92700
N  2.76400 42.44100 27.08200
C  3.99700 42.72800 26.47100
C  4.97700 42.82900 27.45600
C  4.33500 42.56700 28.64900
C  2.96000 42.34300 28.37200
C  6.42800 42.97200 27.31000
C  4.47900 42.48300 30.08200
O  5.50300 42.63200 30.71900
C  3.18300 42.16300 30.71400
C  3.36500 40.82400 31.42100
O  3.44900 39.73300 30.85100
O  3.65600 41.07000 32.77700
C  4.30200 39.95300 33.59000
H  -2.95500 40.39600 28.24600
H  -0.52300 41.08300 22.27800
H  5.01200 42.85600 24.62500
H  0.31300 41.02000 31.45300
H  -2.29100 41.93700 30.40300
H  -3.04400 40.29500 31.32600
H  -1.40200 39.60400 31.69700
H  -2.21200 39.07700 30.24100
H  -1.38500 43.43100 31.46800
H  0.43000 43.75700 31.34000
H  -0.97800 43.74700 33.54800
H  0.74300 43.16800 33.53100
H  -5.33700 40.24000 25.39800
H  -4.55800 40.42500 26.92700
H  -4.45500 38.86600 26.05500
H  -4.87900 40.08400 21.68900
H  -5.33400 40.67300 23.27300
H  -4.61300 39.02300 23.20000
H  1.54500 42.70500 21.53000
H  4.08700 41.81500 22.35400
H  1.55200 40.74800 20.28700
H  1.71200 39.78700 21.76500
H  3.17500 40.39000 20.98500
H  4.19000 44.54000 23.11700
H  2.65500 44.50100 22.42800
H  3.46600 44.51100 20.29900
H  4.70500 43.24400 20.62300
H  4.97600 45.03300 21.17100
H  6.90300 42.02000 27.54900
H  6.81800 43.76700 27.94600
H  6.67300 43.11600 26.25800
H  2.96200 42.90500 31.48100
H  5.35400 40.04100 33.31800
H  3.91100 38.94800 33.43300
H  4.38300 40.21000 34.64600

