158

Mg 47.56300 25.69300 27.83500
C  48.62900 27.84800 30.37200
C  46.68300 23.44500 30.01800
C  46.97800 23.71500 25.28300
C  49.11700 27.98500 25.54100
N  47.47000 25.75500 29.99800
C  47.89200 26.72300 30.87400
C  47.38400 26.42800 32.30600
C  46.70700 24.95500 32.10800
C  46.99200 24.68500 30.62600
C  47.11800 23.91600 33.11800
C  46.31200 27.47300 32.82000
C  45.49900 27.15700 34.17400
H  45.38600 28.14900 35.31500
N  46.81900 23.83200 27.64700
C  46.54300 23.02000 28.69600
C  46.10300 21.72400 28.17200
C  46.08500 21.75600 26.78000
C  46.64800 23.13000 26.47000
C  45.59000 20.60000 29.03600
C  45.55100 20.81500 25.69100
O  45.50600 21.08500 24.51400
C  44.92100 19.53800 26.05300
N  48.33300 25.67000 25.67400
C  47.66600 24.80200 24.84000
C  47.92400 25.12200 23.30600
C  48.86700 26.43900 23.42600
C  48.79400 26.71300 24.95200
C  48.42200 23.97500 22.43800
C  48.57100 27.62100 22.45400
C  49.66700 27.84400 21.36200
N  48.58200 27.52000 27.89400
C  49.09500 28.38700 26.90500
C  49.68800 29.57300 27.47900
C  49.51600 29.39900 28.82800
C  48.87800 28.13400 29.04700
C  50.21800 30.70300 26.68700
C  49.72100 29.96400 30.11500
O  50.22600 31.05700 30.36300
C  49.06100 29.02200 31.15200
C  50.07300 28.71100 32.18100
O  51.07100 28.03200 31.98000
O  49.74600 29.37500 33.30700
C  50.72500 29.25000 34.44100
H  46.39000 22.66200 30.72100
H  46.75000 23.03800 24.45700
H  49.60800 28.67900 24.85500
H  48.24900 26.37600 32.96600
H  45.62000 25.03000 32.15000
H  47.64400 24.38100 33.95300
H  47.61900 23.16200 32.51100
H  46.27400 23.47400 33.64700
H  45.65600 27.70900 31.98200
H  46.86500 28.34200 33.17400
H  45.80700 26.17900 34.54300
H  44.48600 27.13600 33.77100
H  44.50500 20.69400 29.00900
H  45.90500 20.69900 30.07500
H  45.85700 19.59900 28.69800
H  45.60300 18.75400 26.38100
H  44.31300 19.17300 25.22500
H  44.21300 19.75400 26.85300
H  47.00900 25.48400 22.83700
H  49.89500 26.12900 23.23500
H  49.40200 24.34000 22.12900
H  47.85900 23.84000 21.51400
H  48.54600 23.11800 23.09900
H  48.55400 28.58000 22.97200
H  47.60000 27.54100 21.96600
H  49.19700 27.66400 20.39500
H  50.59600 27.28900 21.49100
H  49.99100 28.88400 21.41000
H  51.29600 30.60800 26.55900
H  50.02500 31.68700 27.11400
H  49.72300 30.62700 25.71800
H  48.23200 29.63500 31.50500
H  51.78500 29.20800 34.18600
H  50.57400 28.39700 35.10200
H  50.61900 30.22000 34.92800
Mg -11.03300 38.85600 41.12600
C  -9.23800 35.93400 40.50200
C  -8.37900 40.64000 39.72500
C  -12.98700 41.57100 41.23800
C  -13.82000 36.87000 42.14900
N  -9.08200 38.36600 40.01300
C  -8.53500 37.10300 39.96500
C  -7.24800 37.09200 39.17700
C  -6.81800 38.61600 39.23700
C  -8.16100 39.25100 39.71900
C  -5.58900 39.00300 40.18700
C  -7.34600 36.36900 37.84000
C  -6.34800 35.14400 37.66800
H  -5.09300 35.58000 36.86200
N  -10.71300 40.93200 40.60600
C  -9.51400 41.41600 40.05600
C  -9.71500 42.85400 39.90100
C  -11.07100 43.14000 40.25400
C  -11.71100 41.85100 40.68900
C  -8.70600 43.82400 39.27800
C  -11.79400 44.57200 40.08600
O  -11.19600 45.53700 39.65800
C  -13.17500 44.78100 40.41800
N  -13.14800 39.20400 41.56500
C  -13.64500 40.45400 41.63800
C  -15.20600 40.46400 41.82000
C  -15.48200 38.93500 41.99900
C  -14.10500 38.26200 41.85800
C  -15.69500 41.40300 42.98800
C  -16.47900 38.52400 40.90000
C  -17.06100 37.10200 40.95600
N  -11.42600 36.85900 41.42900
C  -12.55200 36.21300 41.92800
C  -12.24700 34.84100 42.00800
C  -10.97700 34.70400 41.41000
C  -10.51900 35.96700 41.08000
C  -13.17300 33.79200 42.38800
C  -9.91000 33.76700 41.03200
O  -9.89600 32.55200 41.02900
C  -8.78100 34.58000 40.32600
C  -7.53600 34.24300 41.06200
O  -7.11300 33.12500 41.03300
O  -7.05300 35.17200 41.87100
C  -5.93200 34.83300 42.70600
H  -7.66400 41.34800 39.30100
H  -13.55800 42.48400 41.41900
H  -14.65800 36.24300 42.46000
H  -6.43900 36.57600 39.69400
H  -6.53800 38.81800 38.20300
H  -4.96000 39.82300 39.84000
H  -5.09700 38.06700 40.44900
H  -5.98400 39.44100 41.10400
H  -7.07900 37.10900 37.08600
H  -8.36300 36.07900 37.57600
H  -6.82400 34.40400 37.02500
H  -6.00700 34.71200 38.60900
H  -9.14600 44.21100 38.35900
H  -7.85500 43.16900 39.09200
H  -8.56500 44.63800 39.99000
H  -13.38500 44.63800 41.47800
H  -13.56700 43.92300 39.87100
H  -13.72700 45.64700 40.05200
H  -15.64500 40.77300 40.87100
H  -15.94700 38.82400 42.97800
H  -16.64100 41.89900 42.76900
H  -15.02700 42.23700 43.20100
H  -15.90000 40.81400 43.88300
H  -16.09200 38.38700 39.89000
H  -17.41600 39.07900 40.84700
H  -18.14300 37.18200 41.06500
H  -16.53800 36.50500 41.70300
H  -16.73400 36.63100 40.02900
H  -13.23800 33.73500 43.47500
H  -12.80400 32.84400 41.99700
H  -14.15300 34.13700 42.05800
H  -8.62600 34.27200 39.29200
H  -5.63400 33.78500 42.65200
H  -6.23000 35.03800 43.73400
H  -5.13100 35.56900 42.63600

