158

Mg -0.05000 7.56300 26.76900
C  0.55500 9.76300 29.40500
C  0.48900 4.91000 29.09400
C  0.00500 5.35400 24.25400
C  0.24400 10.18600 24.53000
N  0.51000 7.37600 28.95400
C  0.54900 8.42400 29.81500
C  0.49000 8.00500 31.25800
C  0.92400 6.48100 31.09000
C  0.62800 6.19800 29.62100
C  2.40200 6.14600 31.49700
C  -1.01200 8.22500 31.89000
C  -1.17800 8.09500 33.43700
H  0.04900 7.89300 34.42300
N  0.10100 5.40300 26.68500
C  0.30100 4.52800 27.73500
C  0.25600 3.16100 27.27900
C  0.16300 3.24400 25.82800
C  0.11000 4.69600 25.52500
C  0.40900 1.93200 28.18400
C  0.05700 2.12400 24.80600
O  -0.06800 2.29500 23.59900
C  0.33000 0.68700 25.19700
N  0.19600 7.70400 24.72900
C  -0.06000 6.66600 23.92300
C  -0.35800 7.06500 22.38900
C  -0.19100 8.58100 22.54700
C  0.08700 8.87200 24.03600
C  0.66900 6.43100 21.36800
C  -1.31300 9.42400 21.86700
C  -2.58700 9.63500 22.64800
N  0.23700 9.61800 26.85500
C  0.36400 10.56700 25.93600
C  0.39300 11.87000 26.58400
C  0.49300 11.60700 27.96300
C  0.39800 10.21600 28.08100
C  0.49300 13.22700 25.82400
C  0.60300 12.19900 29.26100
O  0.95400 13.34800 29.47500
C  0.62800 11.01400 30.30500
C  1.85500 11.15100 31.16300
O  2.94000 10.81800 30.80200
O  1.46200 11.68300 32.39600
C  2.52800 11.96300 33.36700
H  0.59600 4.15200 29.87300
H  -0.08300 4.66700 23.40900
H  0.24200 11.05500 23.86800
H  1.13000 8.60600 31.90400
H  0.21500 5.88000 31.66100
H  2.93600 7.03600 31.83100
H  2.84800 5.62000 30.65300
H  2.23200 5.51400 32.36900
H  -1.58300 7.39000 31.48400
H  -1.44900 9.14400 31.50000
H  -1.77700 7.23200 33.72600
H  -1.70500 9.00600 33.72300
H  -0.42100 1.30600 27.85500
H  0.21000 2.23000 29.21400
H  1.39500 1.47100 28.12600
H  -0.46000 0.00500 25.51200
H  1.04000 0.82800 26.01200
H  0.68000 0.10400 24.34500
H  -1.38400 6.77300 22.16600
H  0.63100 8.86100 21.88700
H  1.15200 7.14600 20.70200
H  0.18900 5.72600 20.68900
H  1.37000 5.78500 21.89700
H  -1.61100 9.12800 20.86200
H  -0.78000 10.37500 21.87200
H  -2.60300 10.62600 23.10000
H  -2.67100 8.89300 23.44200
H  -3.48600 9.57900 22.03400
H  0.66100 13.08400 24.75600
H  1.33900 13.70600 26.31600
H  -0.40900 13.78500 26.07300
H  -0.11200 10.97600 31.10400
H  2.82100 13.01200 33.40500
H  3.45200 11.38400 33.37200
H  1.99000 11.78400 34.29800
Mg 35.47400 2.94100 30.49000
C  33.00400 3.92100 32.86600
C  37.85800 2.92600 32.82000
C  37.49500 2.43200 27.99300
C  32.80300 3.46000 27.99400
N  35.42400 3.42800 32.62900
C  34.29400 3.68800 33.39000
C  34.70600 3.64400 34.89200
C  36.28600 3.46500 34.85400
C  36.58200 3.30000 33.31600
C  37.04600 4.48200 35.61700
C  34.09200 2.33700 35.51600
C  33.37300 2.59100 36.85600
H  34.18400 3.45700 37.83700
N  37.47100 2.62300 30.40400
C  38.34800 2.53600 31.47300
C  39.59500 2.10000 31.02500
C  39.55400 2.06200 29.63200
C  38.14300 2.35000 29.26000
C  40.76700 1.99400 32.05600
C  40.57200 1.76000 28.57300
O  40.43200 1.82100 27.34500
C  41.90100 1.34100 29.06100
N  35.23000 3.02900 28.31500
C  36.20600 2.64100 27.56400
C  35.90300 2.74600 26.04600
C  34.30000 2.91500 26.04300
C  34.06700 3.12900 27.56500
C  36.60900 3.99100 25.40400
C  33.61700 1.61900 25.51000
C  32.27500 1.79800 24.81200
N  33.37100 3.51800 30.43700
C  32.43300 3.74300 29.37400
C  31.10200 4.20500 29.76700
C  31.29600 4.24000 31.19700
C  32.66800 3.86900 31.50400
C  29.90700 4.57600 28.96900
C  30.62000 4.44200 32.43300
O  29.41100 4.70200 32.60000
C  31.68900 4.17300 33.58600
C  31.75500 5.28100 34.56400
O  32.38100 6.35700 34.44100
O  30.94900 4.93000 35.62300
C  30.84600 5.91900 36.76200
H  38.58100 2.88700 33.63700
H  38.26200 2.17700 27.25800
H  32.04000 3.73800 27.26500
H  34.32800 4.50700 35.44100
H  36.57200 2.55700 35.38500
H  36.40600 5.12100 36.22600
H  37.64200 5.06100 34.91200
H  37.65500 3.91200 36.31800
H  34.83200 1.57400 35.75600
H  33.42200 1.88100 34.78700
H  33.01900 1.70100 37.37700
H  32.49900 3.19600 36.61200
H  40.47800 2.52600 32.96300
H  41.71600 2.43200 31.74700
H  40.88600 0.91300 32.13700
H  42.29600 2.22100 29.56800
H  42.54700 0.87200 28.32000
H  41.75500 0.60600 29.85300
H  36.19900 1.79600 25.60100
H  34.00300 3.76400 25.42500
H  36.46800 4.93800 25.92700
H  36.35400 4.11900 24.35200
H  37.67400 3.80000 25.53400
H  33.33700 0.97800 26.34700
H  34.17900 1.05600 24.76500
H  32.28100 2.71800 24.22800
H  31.39800 1.73900 25.45600
H  32.27600 1.10700 23.96900
H  29.35100 3.67000 28.72900
H  30.32200 5.08900 28.10100
H  29.33900 5.28800 29.56900
H  31.46700 3.28000 34.17000
H  30.37000 5.28400 37.51000
H  30.32200 6.86400 36.61700
H  31.89400 6.01700 37.04400

