158

Mg 25.81800 2.17800 29.03600
C  27.69600 1.54400 31.99800
C  23.05200 2.54200 30.97600
C  24.01900 2.34900 26.14800
C  28.75500 1.62900 27.18100
N  25.42100 2.14200 31.16600
C  26.31200 1.83600 32.21100
C  25.63500 2.06800 33.61700
C  24.10200 2.21800 33.21100
C  24.18500 2.33400 31.71000
C  23.15600 1.11500 33.72600
C  26.25600 3.23300 34.39600
C  26.86800 2.91300 35.69500
H  27.11100 4.19000 36.55600
N  23.86200 2.36800 28.67000
C  22.81500 2.41500 29.56100
C  21.59000 2.66400 28.88800
C  21.84600 2.49300 27.47700
C  23.33800 2.36500 27.38000
C  20.25400 2.78400 29.62200
C  20.87300 2.61000 26.27400
O  21.13700 2.34500 25.11200
C  19.43500 3.14300 26.49800
N  26.30000 1.94400 26.93500
C  25.40100 2.25500 25.97900
C  26.12500 2.51200 24.63400
C  27.65600 2.12500 24.86400
C  27.60000 1.85800 26.39700
C  25.37200 1.95400 23.41000
C  28.74700 3.09800 24.38700
C  28.96300 4.36400 25.25700
N  27.75800 1.68700 29.46800
C  28.80200 1.47800 28.59900
C  30.03000 1.22700 29.35700
C  29.63300 1.24500 30.67600
C  28.24600 1.51700 30.71100
C  31.46300 0.91800 28.84600
C  30.05400 1.09200 32.02800
O  31.15400 0.73900 32.48900
C  28.89000 1.34000 32.98000
C  28.62900 0.15900 33.87200
O  27.91600 -0.80000 33.54800
O  29.10300 0.40200 35.15700
C  28.76300 -0.62200 36.08100
H  22.14400 2.74600 31.54800
H  23.31700 2.49300 25.32300
H  29.73100 1.56800 26.69600
H  25.64400 1.16800 34.23200
H  23.73700 3.18500 33.55700
H  22.43900 1.69000 34.31300
H  23.67000 0.46200 34.43100
H  22.77300 0.54300 32.88100
H  25.52900 4.03200 34.54000
H  26.96900 3.77400 33.77400
H  27.85500 2.50000 35.48700
H  26.26500 2.13100 36.15500
H  19.75300 3.75100 29.56800
H  20.29700 2.45000 30.65800
H  19.73000 2.00300 29.07200
H  18.88300 2.46900 27.15300
H  18.99300 3.21500 25.50400
H  19.43600 4.14600 26.92200
H  26.08200 3.60100 24.61900
H  27.92200 1.20600 24.34300
H  24.75300 1.13300 23.77100
H  26.03700 1.58100 22.63100
H  24.71200 2.74100 23.04400
H  28.51500 3.40700 23.36800
H  29.67600 2.52800 24.42100
H  28.33600 4.41900 26.14600
H  28.60600 5.17200 24.61900
H  29.99800 4.54100 25.54900
H  31.68300 1.50300 27.95300
H  31.48500 -0.15700 28.66700
H  32.17300 1.13700 29.64400
H  29.10900 2.22500 33.57600
H  29.13900 -1.56200 35.67500
H  27.67900 -0.72500 36.05100
H  29.18900 -0.47100 37.07300
Mg -12.14700 16.38500 42.80800
C  -9.03800 14.83300 42.03300
C  -10.96900 19.18900 41.16000
C  -15.28400 17.52400 42.56100
C  -13.37800 13.13900 43.68200
N  -10.24100 16.86100 41.63900
C  -9.12300 16.15700 41.54800
C  -8.00600 16.97200 40.88800
C  -8.67400 18.36900 40.73800
C  -10.06600 18.10900 41.24700
C  -7.90900 19.47100 41.32300
C  -7.54200 16.24400 39.54600
C  -6.00300 16.12800 39.32700
H  -5.42600 16.62800 37.98500
N  -12.96400 18.15300 42.12100
C  -12.30300 19.19100 41.57900
C  -13.23900 20.31300 41.45200
C  -14.49200 19.88200 41.98000
C  -14.30400 18.46400 42.22400
C  -12.83600 21.64400 40.85400
C  -15.70900 20.73500 42.29200
O  -15.74500 21.90600 42.03200
C  -17.00100 20.26500 42.88800
N  -14.10000 15.42800 43.09300
C  -15.25000 16.16800 42.96100
C  -16.50300 15.30700 43.32400
C  -15.79300 13.90600 43.71500
C  -14.26300 14.17400 43.48200
C  -17.69500 15.80900 44.17800
C  -16.29700 12.71300 42.84000
C  -16.35600 11.32200 43.52300
N  -11.38400 14.38700 42.96200
C  -11.94200 13.25300 43.50800
C  -10.97000 12.15900 43.52100
C  -9.81700 12.83000 42.99800
C  -10.12500 14.14900 42.62000
C  -11.16000 10.79900 44.04400
C  -8.36600 12.63200 42.78200
O  -7.65500 11.67600 43.02900
C  -7.81900 13.90300 42.09800
C  -6.65900 14.49600 42.85500
O  -6.77700 15.19200 43.88000
O  -5.52000 14.20400 42.20700
C  -4.20500 14.42000 42.84100
H  -10.72900 20.11600 40.63700
H  -16.32100 17.85700 42.48100
H  -13.71700 12.20000 44.12500
H  -7.17400 16.99300 41.59200
H  -8.72200 18.68400 39.69500
H  -8.00100 20.48300 40.92900
H  -6.87700 19.14300 41.20200
H  -8.16600 19.52900 42.38100
H  -7.84000 16.76800 38.63700
H  -7.99700 15.25500 39.61300
H  -5.86300 15.05800 39.47900
H  -5.36300 16.54300 40.10600
H  -13.32500 21.81600 39.89500
H  -11.77100 21.73100 40.64000
H  -13.03200 22.46100 41.54800
H  -17.53100 19.87800 42.01700
H  -17.53200 21.14800 43.24300
H  -16.85500 19.63200 43.76300
H  -17.00400 15.00800 42.40300
H  -15.83000 13.66100 44.77600
H  -18.67500 15.76700 43.70200
H  -17.45800 16.86000 44.33800
H  -17.79900 15.29800 45.13500
H  -15.70300 12.54600 41.94100
H  -17.22600 12.80400 42.27700
H  -15.88500 10.61400 42.84200
H  -17.33500 10.95600 43.83200
H  -15.80300 11.28900 44.46200
H  -10.88000 10.75200 45.09700
H  -10.52600 10.08000 43.52400
H  -12.19400 10.49400 43.88500
H  -7.44900 13.49200 41.15900
H  -4.00200 14.03900 43.84200
H  -3.99200 15.48500 42.93000
H  -3.53000 13.97300 42.11100

