158

Mg 25.48300 1.30400 29.78400
C  27.57900 1.05200 32.50700
C  22.76000 1.81500 31.90700
C  23.45100 1.27100 27.10100
C  28.16400 0.36700 27.69100
N  25.22300 1.26900 31.93300
C  26.24000 1.29200 32.85100
C  25.73300 1.46900 34.31900
C  24.23800 1.79700 34.13100
C  24.04100 1.58500 32.63100
C  23.23300 1.06100 34.93400
C  26.50900 2.64800 34.93100
C  26.83200 2.44800 36.41600
H  26.62800 3.45400 37.50500
N  23.40300 1.61800 29.56400
C  22.51400 1.77600 30.51900
C  21.18000 1.89200 29.92200
C  21.34700 1.77700 28.58300
C  22.75700 1.55500 28.35500
C  19.94500 2.13700 30.72100
C  20.26800 1.86700 27.51100
O  20.57200 1.85300 26.32300
C  18.82700 2.01700 27.87400
N  25.72300 0.89400 27.73200
C  24.75900 1.02800 26.75800
C  25.29500 0.88400 25.31700
C  26.79900 0.68800 25.57500
C  26.92400 0.57400 27.13500
C  24.60100 -0.23400 24.57300
C  27.67300 1.82900 24.99100
C  28.60200 1.29900 23.87500
N  27.46600 0.56900 30.02700
C  28.39800 0.34100 29.08600
C  29.62900 0.17000 29.84900
C  29.42100 0.43100 31.17500
C  28.05600 0.73100 31.22300
C  30.95800 -0.17600 29.34700
C  29.98900 0.44700 32.47500
O  31.11200 0.17600 32.89000
C  28.79200 0.78300 33.46400
C  28.61900 -0.31300 34.43100
O  28.12700 -1.41200 34.19400
O  29.12500 0.07800 35.66700
C  29.06500 -0.96100 36.66900
H  21.99000 2.24500 32.55100
H  22.74700 1.37000 26.27200
H  29.06100 0.35500 27.06900
H  25.97100 0.51400 34.78800
H  23.89800 2.82800 34.22400
H  22.98800 1.79000 35.70600
H  23.70700 0.13000 35.24600
H  22.33800 0.78200 34.37700
H  25.83500 3.49700 35.03500
H  27.38400 2.83300 34.30700
H  27.87600 2.14300 36.48800
H  26.36600 1.52200 36.75100
H  20.11000 2.03800 31.79400
H  19.25500 1.33600 30.45500
H  19.38500 3.06800 30.63800
H  18.24300 2.39100 27.03200
H  18.62000 2.79200 28.61300
H  18.38800 1.05300 28.12900
H  25.10900 1.84200 24.83200
H  27.11900 -0.26400 25.15200
H  23.67900 0.10400 24.09900
H  24.32900 -1.02400 25.27400
H  25.34900 -0.77300 23.99100
H  28.25000 2.34900 25.75600
H  27.02500 2.59200 24.56100
H  29.13500 0.38800 24.14800
H  29.28600 2.11400 23.63700
H  28.09900 1.05200 22.94000
H  31.21100 -1.08600 29.89100
H  31.70100 0.58000 29.60100
H  31.02700 -0.42800 28.28900
H  29.07600 1.72200 33.93800
H  28.25100 -1.68400 36.61700
H  28.80700 -0.46500 37.60500
H  30.05600 -1.40500 36.76300
Mg 53.25200 23.89200 44.68200
C  50.81600 26.09600 43.51300
C  51.44600 21.27800 43.29000
C  55.87700 21.76400 45.20300
C  55.18600 26.54400 45.45900
N  51.43400 23.73100 43.44700
C  50.60200 24.78700 43.06000
C  49.67500 24.25700 42.03600
C  49.42400 22.80500 42.48300
C  50.88200 22.55700 43.19100
C  48.16200 22.46700 43.39200
C  50.26500 24.34800 40.51700
C  49.43400 24.98000 39.44000
H  50.17000 25.72900 38.30300
N  53.58400 21.79800 44.38800
C  52.69400 20.89800 43.88000
C  53.36000 19.56200 43.79800
C  54.62600 19.67100 44.33700
C  54.78100 21.10900 44.66000
C  52.68600 18.30800 43.31000
C  55.65700 18.46200 44.40800
O  55.37900 17.39600 43.89100
C  57.05600 18.62100 44.93900
N  55.28600 24.13000 45.14000
C  56.13000 23.13200 45.41900
C  57.42200 23.66800 46.01700
C  57.29700 25.14000 45.77300
C  55.77100 25.28900 45.58000
C  57.97200 23.11200 47.32500
C  57.98500 25.70100 44.48400
C  58.33500 27.22600 44.65900
N  53.06000 25.97400 44.63300
C  53.89600 26.95400 45.13300
C  53.15600 28.19400 45.16400
C  51.95000 27.90000 44.54800
C  51.93400 26.53200 44.24100
C  53.61400 29.53300 45.71700
C  50.75800 28.56700 44.07900
O  50.54500 29.74300 44.01200
C  49.98900 27.43400 43.40100
C  49.64200 27.88400 42.03600
O  50.50100 28.16800 41.17000
O  48.32000 28.13300 41.90300
C  47.92500 28.92800 40.77200
H  50.80900 20.47500 42.91300
H  56.72200 21.12800 45.47300
H  55.84800 27.33500 45.81700
H  48.72700 24.78400 42.14600
H  49.45500 22.05500 41.69300
H  47.55000 21.71200 42.89900
H  47.55100 23.34000 43.61800
H  48.45400 22.19700 44.40700
H  50.33500 23.32100 40.15900
H  51.22800 24.86100 40.51700
H  48.79200 25.73500 39.89400
H  48.64100 24.34100 39.05200
H  53.18100 17.78800 42.49000
H  51.73700 18.51400 42.81500
H  52.44500 17.65500 44.14900
H  57.59500 17.70300 44.70100
H  56.96700 18.72600 46.02100
H  57.46500 19.44400 44.35400
H  58.19000 23.35500 45.31000
H  57.55700 25.73600 46.64800
H  58.85400 22.49000 47.17300
H  57.16900 22.52300 47.76800
H  58.19700 24.01500 47.89300
H  57.31100 25.58100 43.63600
H  58.88600 25.13400 44.25100
H  57.53200 27.91100 44.38400
H  59.29100 27.48000 44.20300
H  58.40400 27.45700 45.72200
H  53.73700 30.17100 44.84200
H  54.61500 29.42600 46.13500
H  53.03100 29.98100 46.52200
H  49.07600 27.31500 43.98400
H  48.09700 28.27400 39.91700
H  48.49000 29.83700 40.56800
H  46.85200 29.11700 40.81200

