158

Mg 44.58900 3.08000 47.76200
C  42.32700 5.70300 47.01600
C  41.90900 0.93300 47.56300
C  46.78500 0.63900 47.64600
C  47.13700 5.42000 47.10900
N  42.43100 3.28600 47.32500
C  41.73100 4.45200 47.10800
C  40.21500 4.25700 46.90900
C  40.12800 2.76500 47.58200
C  41.53700 2.29200 47.47500
C  39.40300 2.78200 48.91900
C  39.74200 4.22300 45.41600
C  38.66500 5.15500 45.00100
H  39.04500 6.05200 43.83700
N  44.42100 1.07800 47.62600
C  43.21800 0.36800 47.62300
C  43.51400 -1.05500 47.66800
C  44.91300 -1.22400 47.80400
C  45.42400 0.17500 47.75400
C  42.42700 -2.19100 47.47000
C  45.66800 -2.53000 47.97900
O  45.06900 -3.60100 48.10900
C  47.15800 -2.64800 47.99200
N  46.64800 3.04400 47.25800
C  47.33900 1.89100 47.46000
C  48.87200 2.12700 47.32600
C  48.96500 3.57900 46.97100
C  47.51000 4.06300 47.10000
C  49.73400 1.88900 48.59500
C  49.45900 3.80600 45.52200
C  50.84100 4.21800 45.48100
N  44.79800 5.21900 47.39500
C  45.86800 5.99300 47.11200
C  45.46800 7.44800 46.90800
C  44.06200 7.37000 46.90100
C  43.68800 5.97200 47.20200
C  46.33200 8.66200 46.62000
C  42.87700 8.13800 46.74300
O  42.62800 9.31400 46.53800
C  41.68500 7.08800 46.87400
C  40.82000 7.53400 47.96800
O  41.14100 7.74900 49.15300
O  39.49900 7.57000 47.55800
C  38.59300 7.99500 48.71800
H  40.98800 0.35100 47.63500
H  47.67100 0.00100 47.68700
H  48.06900 5.96200 46.93500
H  39.67400 4.97600 47.52400
H  39.44100 2.13400 47.01900
H  40.09800 2.48600 49.70600
H  38.58800 2.05900 48.94800
H  39.07700 3.76200 49.26600
H  39.35200 3.23800 45.16100
H  40.59200 4.50000 44.79400
H  38.31100 5.71300 45.86800
H  37.88400 4.49800 44.61900
H  42.22100 -2.58500 48.46500
H  42.81400 -3.01700 46.87200
H  41.52900 -1.75700 47.03000
H  47.49400 -1.83000 48.63000
H  47.58200 -2.54000 46.99400
H  47.43300 -3.65900 48.29400
H  49.26700 1.56200 46.48200
H  49.59500 4.14600 47.65600
H  49.38400 0.98600 49.09500
H  49.72200 2.81500 49.17000
H  50.73600 1.69100 48.21300
H  48.91900 4.61400 45.02700
H  49.45400 2.92200 44.88400
H  51.18900 4.73200 46.37600
H  51.05100 4.97000 44.72100
H  51.46400 3.34200 45.29800
H  45.87200 9.43500 47.23500
H  46.13000 8.98000 45.59700
H  47.35500 8.50000 46.96100
H  41.02800 7.11200 46.00400
H  37.58100 7.88100 48.32800
H  38.76900 8.98500 49.13900
H  38.67400 7.31400 49.56600
Mg 25.67300 50.99600 26.06500
C  23.55300 51.96400 28.71600
C  28.00500 50.13100 28.49300
C  27.93700 50.49000 23.55000
C  23.28000 52.20000 23.73600
N  25.81800 51.11200 28.39100
C  24.73300 51.37300 29.24000
C  25.16100 51.08200 30.75700
C  26.69500 50.70300 30.57200
C  26.88100 50.64800 29.08300
C  27.75700 51.57300 31.27100
C  24.15400 50.10500 31.42100
C  23.52100 50.54500 32.72500
H  24.47700 51.28500 33.70900
N  27.69700 50.38000 26.01700
C  28.45500 49.97200 27.13900
C  29.68000 49.41600 26.71500
C  29.74400 49.52800 25.25900
C  28.44200 50.18200 24.85500
C  30.69300 48.72500 27.70600
C  30.78700 49.22400 24.38400
O  30.74200 49.34400 23.13400
C  32.00800 48.59500 24.83900
N  25.69600 51.40100 23.97500
C  26.75300 51.03800 23.11500
C  26.36300 51.25700 21.62300
C  24.86800 51.88200 21.64200
C  24.54700 51.75300 23.21600
C  27.41400 52.09000 20.82100
C  23.79700 51.25100 20.58900
C  23.77300 52.00200 19.20200
N  23.86500 52.02400 26.17500
C  22.98800 52.40300 25.15100
C  21.86800 53.15100 25.79600
C  22.02200 53.02300 27.20600
C  23.24000 52.27200 27.35600
C  20.82900 53.90400 25.08100
C  21.46900 53.36500 28.52100
O  20.50200 54.05900 28.84600
C  22.44900 52.67400 29.54100
C  22.98100 53.76500 30.41500
O  23.78100 54.64800 29.99900
O  22.39700 53.71900 31.71200
C  22.72300 54.82100 32.56700
H  28.60000 49.60900 29.24500
H  28.61300 50.28300 22.71700
H  22.40900 52.46000 23.13100
H  25.09900 52.07400 31.20400
H  26.78900 49.65100 30.84200
H  28.38200 52.06100 30.52200
H  28.27800 51.06700 32.08400
H  27.18400 52.33600 31.79800
H  24.60300 49.15600 31.71300
H  23.29200 49.93700 30.77400
H  23.26000 49.58200 33.16400
H  22.57900 51.05600 32.52400
H  30.33200 48.69400 28.73400
H  31.60000 49.32800 27.66700
H  30.98600 47.75600 27.30300
H  31.83100 47.57500 25.17800
H  32.41500 49.27100 25.59100
H  32.74200 48.60400 24.03300
H  26.35500 50.23300 21.24800
H  24.77600 52.95500 21.47600
H  28.24400 52.40700 21.45400
H  26.94200 52.95600 20.35700
H  27.83800 51.47000 20.03100
H  22.79800 51.35900 21.00900
H  23.98900 50.18900 20.43100
H  24.52100 51.54300 18.55500
H  24.10500 53.04000 19.18900
H  22.71500 51.98800 18.94100
H  19.92400 53.30100 25.00800
H  21.20400 54.16800 24.09200
H  20.69300 54.77700 25.72000
H  21.92700 51.91200 30.12000
H  22.87500 55.76700 32.04600
H  23.61000 54.51800 33.12300
H  21.89600 54.91300 33.27100

