158

Mg 47.63400 16.71700 29.07900
C  45.55800 16.22200 31.93700
C  49.95200 18.16300 31.04800
C  49.31700 17.39900 26.24000
C  44.78600 15.68200 27.13000
N  47.62200 17.12800 31.21600
C  46.73800 16.86500 32.23500
C  47.32500 17.20500 33.58900
C  48.46300 18.17800 33.16200
C  48.75700 17.78700 31.73100
C  48.21000 19.69300 33.35500
C  47.70900 15.85900 34.25100
C  47.49500 15.87100 35.71800
H  47.31000 17.26200 36.35400
N  49.33700 17.67300 28.73100
C  50.20300 18.21500 29.64800
C  51.32700 18.86100 29.00900
C  51.06600 18.65800 27.58600
C  49.83200 17.94700 27.45100
C  52.44200 19.38200 29.84600
C  51.88200 19.13200 26.40200
O  51.58400 19.09500 25.25700
C  53.22100 19.77500 26.68700
N  47.16900 16.54000 27.01800
C  48.06200 16.82300 26.06200
C  47.49400 16.54700 24.69600
C  46.04500 16.07100 24.95600
C  45.98200 16.06100 26.45600
C  47.57000 17.76000 23.75500
C  45.71200 14.73500 24.30600
C  44.53100 14.77200 23.28000
N  45.62300 15.90000 29.41000
C  44.63400 15.56100 28.59000
C  43.43600 15.13900 29.38400
C  43.81300 15.37000 30.68300
C  45.07600 15.91700 30.64000
C  42.15600 14.54300 28.93900
C  43.33900 15.21300 32.05200
O  42.37800 14.66500 32.46200
C  44.40200 15.89500 32.91700
C  43.69100 17.02600 33.62400
O  43.36300 18.08700 33.09000
O  43.66400 16.86200 35.01200
C  42.98300 17.96100 35.74600
H  50.75000 18.60800 31.64600
H  49.89600 17.45600 25.31600
H  43.90400 15.38700 26.55800
H  46.48000 17.62700 34.13300
H  49.42200 17.92000 33.61100
H  48.99900 20.09600 33.99100
H  47.25700 19.90800 33.83900
H  48.34700 20.25800 32.43300
H  48.73400 15.55000 34.04400
H  47.16800 14.97900 33.90300
H  48.33500 15.34800 36.17400
H  46.75900 15.16700 36.10500
H  52.08600 20.20800 30.46100
H  53.29100 19.71800 29.25200
H  52.70200 18.72100 30.67300
H  53.97700 19.08900 27.06600
H  53.22600 20.57000 27.43300
H  53.49600 20.20800 25.72500
H  48.09500 15.73900 24.28100
H  45.33900 16.81200 24.58200
H  48.38500 17.63400 23.04300
H  47.77100 18.66400 24.32900
H  46.65500 17.94400 23.19100
H  45.49500 14.02900 25.10700
H  46.60300 14.38800 23.78300
H  44.83200 15.11800 22.29100
H  43.82000 15.52000 23.63000
H  44.19600 13.74200 23.15200
H  42.26900 13.46100 28.87300
H  41.92100 14.79800 27.90600
H  41.33400 14.87100 29.57500
H  44.73000 15.24300 33.72600
H  41.91800 17.95600 35.51700
H  43.36400 18.97200 35.60700
H  43.12500 17.67300 36.78800
Mg 17.61500 52.22000 26.27000
C  19.49100 50.42800 28.69800
C  15.57400 53.10900 28.92200
C  15.95200 53.83500 24.06900
C  19.91000 50.94100 23.88300
N  17.44700 51.69200 28.58500
C  18.32800 50.93800 29.28400
C  17.92700 51.03800 30.80400
C  16.49500 51.65300 30.73500
C  16.47200 52.20700 29.28300
C  15.25300 50.64500 30.98700
C  18.90400 51.93000 31.58100
C  19.19400 51.56500 33.02900
H  17.91000 51.17400 33.77500
N  15.93000 53.31700 26.49400
C  15.36900 53.73500 27.65300
C  14.48000 54.89700 27.38200
C  14.54700 55.13000 25.99100
C  15.53200 54.10900 25.45000
C  13.61100 55.52500 28.49700
C  13.87200 56.21800 25.15500
O  13.98100 56.26000 23.96500
C  12.92800 57.28500 25.81700
N  17.80700 52.27000 24.29600
C  16.94900 52.94700 23.57800
C  17.28600 52.89900 22.06300
C  18.59200 51.97600 21.89600
C  18.81300 51.70500 23.42300
C  16.13800 52.46100 21.16000
C  19.86600 52.66400 21.25000
C  20.71300 53.66000 22.09100
N  19.31700 50.94900 26.21100
C  20.18200 50.61600 25.14300
C  21.27600 49.89300 25.67400
C  21.12300 49.85300 27.09000
C  19.83900 50.43700 27.35600
C  22.46000 49.37400 24.86900
C  21.69000 49.42500 28.31800
O  22.73100 48.83300 28.53200
C  20.66800 49.86200 29.42300
C  20.32600 48.69500 30.34600
O  19.48500 47.89200 30.13300
O  21.01900 48.82600 31.61100
C  20.47900 48.02800 32.77100
H  14.92300 53.48400 29.71500
H  15.47100 54.39100 23.26200
H  20.48100 50.53100 23.04700
H  17.94900 50.04800 31.25900
H  16.33300 52.48900 31.41500
H  14.25100 51.02800 31.18000
H  15.62500 50.07700 31.84000
H  15.12300 49.88700 30.21500
H  18.56000 52.96400 31.56000
H  19.85600 51.87900 31.05200
H  19.72200 52.35300 33.56600
H  19.73600 50.61900 33.06200
H  12.73200 56.13500 28.28900
H  14.32500 56.08000 29.10500
H  13.27300 54.75900 29.19500
H  12.05200 56.87500 26.32100
H  12.58300 57.94000 25.01800
H  13.62100 57.84600 26.44400
H  17.55500 53.92900 21.82800
H  18.31700 51.06800 21.35900
H  16.14700 51.47400 20.69800
H  15.95900 53.12100 20.31100
H  15.32200 52.52900 21.87900
H  19.52600 53.15200 20.33600
H  20.57600 51.89500 20.94500
H  21.77500 53.41700 22.05700
H  20.51200 53.39900 23.13000
H  20.44900 54.71400 22.00900
H  22.58700 50.14700 24.11100
H  22.26500 48.44800 24.32800
H  23.24800 49.31000 25.62000
H  21.31600 50.55600 29.95800
H  20.85600 47.00900 32.69400
H  19.39500 47.92000 32.74400
H  20.86700 48.40700 33.71700

