158

Mg 2.38400 -1.23700 44.76100
C  5.54600 0.12300 44.25700
C  1.01400 1.41400 42.89200
C  -0.41100 -2.99000 44.48500
C  4.12400 -4.27000 45.85400
N  3.09800 0.47700 43.66300
C  4.46000 0.88800 43.67300
C  4.64000 2.13600 42.79800
C  3.18400 2.67400 42.52300
C  2.35300 1.44200 43.03900
C  2.82000 4.08300 43.18800
C  5.52900 1.88500 41.49200
C  6.47700 2.96200 41.14700
H  6.19100 3.55600 39.74800
N  0.54200 -0.85500 43.89400
C  0.08700 0.33200 43.27100
C  -1.37500 0.32400 43.23600
C  -1.71200 -0.97300 43.61800
C  -0.55200 -1.66500 44.03400
C  -2.18000 1.51400 42.71500
C  -3.18100 -1.48100 43.60100
O  -4.00800 -0.70300 43.19400
C  -3.62500 -2.76400 44.12300
N  1.97000 -3.39700 44.94400
C  0.66100 -3.76000 44.93700
C  0.47700 -5.15200 45.63900
C  1.89400 -5.65700 45.60800
C  2.76400 -4.36700 45.55200
C  -0.19800 -5.01700 47.05200
C  2.33700 -6.58000 44.42600
C  2.33100 -8.06100 44.68900
N  4.40100 -1.92600 45.19300
C  4.92200 -3.16800 45.52500
C  6.32400 -3.07800 45.70100
C  6.64300 -1.77300 45.24800
C  5.45000 -1.17300 44.83300
C  7.28500 -4.10400 46.19300
C  7.74200 -0.85300 45.08400
O  8.93500 -0.95700 45.28600
C  7.04100 0.41000 44.34600
C  7.32100 1.65700 45.16700
O  6.71000 2.03600 46.15500
O  8.43600 2.31800 44.67700
C  9.04000 3.40000 45.44700
H  0.46300 2.28800 42.53700
H  -1.37400 -3.49300 44.37800
H  4.64500 -5.15500 46.22400
H  5.23000 2.80700 43.42300
H  3.09400 2.69800 41.43700
H  3.64500 4.56000 43.71700
H  1.96600 3.91300 43.84400
H  2.64000 4.79000 42.37800
H  4.81500 1.77300 40.67600
H  6.09400 0.95300 41.46600
H  7.44100 2.48000 40.98800
H  6.57900 3.69000 41.95100
H  -1.86400 1.68000 41.68600
H  -1.75100 2.33900 43.28400
H  -3.27000 1.49500 42.72000
H  -4.70800 -2.66600 44.05400
H  -3.29600 -2.91900 45.15000
H  -3.26500 -3.47400 43.37800
H  -0.12700 -5.72000 44.93200
H  2.17200 -6.23400 46.49000
H  -0.57700 -3.99900 47.14500
H  0.54400 -5.38200 47.76200
H  -1.01400 -5.74000 47.04300
H  3.34200 -6.31200 44.10000
H  1.55700 -6.41200 43.68400
H  1.97900 -8.31600 45.68900
H  3.37500 -8.36600 44.61200
H  1.74300 -8.59200 43.94100
H  8.31000 -3.73400 46.22100
H  7.16000 -4.93000 45.49300
H  7.00900 -4.43000 47.19600
H  7.49500 0.56700 43.36800
H  10.05300 3.01700 45.56700
H  8.57000 3.52500 46.42200
H  9.17900 4.35400 44.93700
Mg 41.09900 8.60100 29.25900
C  42.90600 9.83600 31.98400
C  38.98900 7.02100 31.62700
C  39.25900 7.40700 26.73900
C  43.63000 9.59500 27.19100
N  40.97000 8.52800 31.57000
C  41.78500 9.11300 32.46800
C  41.23800 9.09000 33.89400
C  39.93300 8.20400 33.80200
C  39.99100 7.88600 32.22200
C  39.77900 7.09900 34.84400
C  41.09300 10.51800 34.51300
C  40.23700 10.68800 35.78800
H  40.87300 11.62900 36.81800
N  39.33500 7.40300 29.23700
C  38.64600 6.91200 30.29800
C  37.31500 6.37900 29.85300
C  37.40100 6.41600 28.46200
C  38.73400 7.01800 28.05300
C  36.13700 6.07900 30.76400
C  36.32400 6.02900 27.45500
O  36.56300 6.11700 26.25400
C  35.07000 5.46300 27.87300
N  41.35500 8.55900 27.25300
C  40.41300 8.00700 26.37400
C  40.82500 8.26100 24.94000
C  42.29800 8.74700 25.14400
C  42.50000 9.04500 26.59300
C  40.61400 6.97300 24.03000
C  42.64300 10.00700 24.22500
C  43.72100 9.76600 23.12300
N  42.89900 9.44000 29.47900
C  43.86700 9.80700 28.55900
C  45.03300 10.34900 29.21700
C  44.61500 10.38100 30.56800
C  43.34100 9.94300 30.67700
C  46.28700 10.77400 28.62500
C  45.12700 10.78100 31.89600
O  46.23300 11.27500 32.26400
C  43.98100 10.42900 32.86300
C  44.41700 9.36300 33.77500
O  44.60100 8.17700 33.51500
O  44.71000 9.97300 34.98700
C  45.47900 9.22600 35.92600
H  38.37600 6.54100 32.39200
H  38.53200 7.13200 25.97200
H  44.54800 9.61600 26.59900
H  41.99800 8.62900 34.52500
H  39.10500 8.91300 33.77600
H  38.94700 7.03400 35.54500
H  40.62300 7.35300 35.48600
H  39.98500 6.12400 34.40300
H  40.81500 11.16100 33.67800
H  42.06500 10.89500 34.83000
H  40.10500 9.67500 36.16900
H  39.26300 11.13100 35.58300
H  36.06500 4.99300 30.81700
H  35.24400 6.63100 30.47300
H  36.43000 6.40000 31.76300
H  34.66800 5.02900 26.95800
H  34.45000 6.31800 28.14100
H  35.09500 4.72200 28.67300
H  40.14600 8.99900 24.51500
H  42.95400 7.92900 24.84700
H  41.50800 6.95100 23.40700
H  39.75300 7.15100 23.38500
H  40.51900 6.01300 24.53600
H  42.97500 10.77100 24.92700
H  41.77700 10.40600 23.69600
H  44.66500 10.13100 23.52800
H  43.49600 10.43900 22.29600
H  43.86500 8.76200 22.72300
H  46.90200 11.16300 29.43700
H  46.15100 11.59300 27.91800
H  46.87200 10.01600 28.10300
H  43.64900 11.36200 33.31800
H  46.47300 8.94200 35.58000
H  44.88600 8.38600 36.28900
H  45.68200 9.78300 36.84100

