158

Mg 9.77800 48.19500 25.98700
C  8.02300 48.24400 28.97200
C  12.54400 49.24700 27.73300
C  11.45400 48.19200 23.07200
C  6.79700 47.57700 24.21900
N  10.15500 48.71200 28.06400
C  9.44400 48.47800 29.15200
C  10.14000 48.74800 30.40700
C  11.29600 49.61500 29.92200
C  11.41500 49.15100 28.46700
C  11.30200 51.13800 30.14300
C  10.60000 47.56700 31.38100
C  10.35600 47.67100 32.84500
H  10.15700 46.38500 33.70700
N  11.72600 48.62900 25.45400
C  12.75900 49.00000 26.35300
C  14.03000 48.93900 25.66600
C  13.68100 48.62200 24.27600
C  12.28600 48.39700 24.18500
C  15.47800 49.24600 26.16400
C  14.61600 48.63400 23.01100
O  14.14300 48.50300 21.90000
C  16.06100 48.84100 23.15100
N  9.13900 48.01900 23.94100
C  10.05400 48.05700 22.95300
C  9.42900 47.74300 21.59200
C  7.99400 47.30400 21.93700
C  7.93100 47.68500 23.40800
C  9.51300 49.01100 20.62300
C  7.67200 45.78000 21.72200
C  8.12700 44.78600 22.82800
N  7.78700 48.07800 26.39500
C  6.67300 47.82100 25.61000
C  5.55400 47.65400 26.48700
C  6.01600 47.75200 27.80300
C  7.40600 48.07800 27.70400
C  4.13700 47.51700 26.01900
C  5.63800 47.75500 29.18400
O  4.53300 47.62100 29.73400
C  6.94500 47.92600 29.99500
C  7.24400 46.74400 30.79000
O  7.76800 45.72500 30.43600
O  6.90300 46.97600 32.06700
C  6.85200 45.84600 33.01800
H  13.45900 49.67500 28.14700
H  11.88400 48.19000 22.06800
H  5.83100 47.33500 23.77100
H  9.53000 49.39000 31.04300
H  12.16600 49.31400 30.50500
H  10.72600 51.41000 31.02800
H  11.00900 51.60900 29.20500
H  12.25700 51.61300 30.36500
H  11.68500 47.53000 31.28900
H  10.26200 46.61100 30.98100
H  9.40000 48.18700 32.93800
H  11.08400 48.26300 33.39900
H  15.36200 49.40400 27.23700
H  15.98700 50.13400 25.79000
H  16.07600 48.33500 26.14800
H  16.39000 49.72600 23.69600
H  16.30500 48.85900 22.08900
H  16.50100 47.96900 23.63400
H  10.06100 46.94000 21.21300
H  7.12100 47.78300 21.49300
H  10.20700 49.76300 20.99900
H  8.54100 49.46000 20.41800
H  9.87500 48.68600 19.64800
H  7.98800 45.51600 20.71300
H  6.58600 45.68900 21.71600
H  7.26900 44.16000 23.07400
H  8.61300 45.33600 23.63300
H  8.83900 44.11200 22.35200
H  3.86000 46.47200 25.87700
H  3.95400 48.10900 25.12300
H  3.36000 47.89500 26.68400
H  7.01000 48.82800 30.60300
H  7.02600 46.31000 33.98900
H  7.44100 44.93700 32.90200
H  5.78700 45.61900 33.05400
Mg 1.42600 42.53700 26.04500
C  2.62100 42.58500 29.17400
C  -1.36600 40.84500 27.26800
C  0.30600 42.16900 22.86800
C  4.32900 43.92900 24.72900
N  0.59800 41.98000 28.06400
C  1.29000 42.13400 29.17800
C  0.40600 41.86700 30.46300
C  -0.87300 41.28100 29.79000
C  -0.55200 41.33300 28.27000
C  -1.32100 39.85100 30.21900
C  0.21200 43.11600 31.39500
C  0.84700 43.17700 32.80400
H  0.72500 41.93800 33.74100
N  -0.30400 41.61400 25.22300
C  -1.26000 40.92700 25.87700
C  -2.26400 40.47500 25.01400
C  -1.85700 40.87100 23.71300
C  -0.57900 41.68000 23.88300
C  -3.57500 39.63500 25.40000
C  -2.49800 40.70600 22.34500
O  -2.09600 41.13700 21.25500
C  -3.81300 39.89000 22.18800
N  2.21500 42.95800 24.08000
C  1.50400 42.75400 22.98300
C  2.35400 42.95900 21.74200
C  3.39800 43.93200 22.31100
C  3.34400 43.66800 23.80400
C  2.84700 41.52400 21.11800
C  3.46700 45.41400 21.86100
C  2.21400 46.28700 21.88800
N  3.15600 43.00800 26.77300
C  4.22200 43.64200 26.10800
C  5.32000 43.86600 27.10200
C  4.73700 43.43500 28.34800
C  3.44600 42.91000 28.09900
C  6.64000 44.47500 26.97700
C  4.96300 43.30200 29.75100
O  6.00300 43.41400 30.39900
C  3.56900 42.75000 30.35100
C  3.84800 41.45700 31.13000
O  3.78500 40.28300 30.83600
O  4.33400 41.90100 32.36100
C  5.07700 40.86500 33.09500
H  -2.32000 40.46600 27.64100
H  0.09300 41.90600 21.83000
H  5.29000 44.26100 24.33100
H  0.94400 41.09900 31.02000
H  -1.73700 41.91800 29.97700
H  -0.60500 39.56100 30.98900
H  -1.32100 39.08800 29.44100
H  -2.29000 40.01600 30.68800
H  -0.87200 43.19800 31.48000
H  0.54400 43.99600 30.84400
H  0.40100 43.96000 33.41700
H  1.89700 43.45700 32.71200
H  -3.82400 38.95900 24.58300
H  -4.40900 40.31900 25.55400
H  -3.28000 39.17000 26.34000
H  -3.74300 38.81100 22.32500
H  -4.22100 40.13100 21.20700
H  -4.51900 40.40200 22.84200
H  1.83900 43.48100 20.93500
H  4.38500 43.60100 21.99000
H  2.10100 40.74900 21.29500
H  3.80200 41.29900 21.59300
H  2.86400 41.66000 20.03700
H  3.92000 45.38200 20.87000
H  4.16600 45.98800 22.46900
H  2.12800 46.97200 22.73100
H  1.28800 45.72200 21.77900
H  2.33800 46.88100 20.98200
H  6.47100 45.24700 26.22600
H  7.33000 43.70300 26.63600
H  6.98700 44.86500 27.93300
H  3.23400 43.41300 31.14900
H  5.74800 40.35600 32.40300
H  4.50800 40.02800 33.50000
H  5.60000 41.42700 33.86900

