158

Mg 7.77100 3.34900 27.54400
C  9.28400 2.09600 30.44300
C  5.82800 5.46600 29.47700
C  6.54800 4.57600 24.70200
C  9.20500 0.65500 25.72900
N  7.69400 3.79700 29.70200
C  8.36300 3.14200 30.70000
C  7.91700 3.67000 32.06100
C  6.69600 4.61200 31.76900
C  6.71400 4.68300 30.21500
C  5.35400 4.07500 32.31400
C  9.11100 4.39800 32.78500
C  9.70600 3.72100 33.97700
H  10.07900 4.54600 35.16600
N  6.31700 4.68200 27.13900
C  5.65300 5.57600 28.08100
C  4.78900 6.48900 27.37700
C  4.89300 6.18000 25.95400
C  6.00300 5.12900 25.89000
C  3.98200 7.60600 28.08500
C  4.24100 6.86500 24.74400
O  4.55000 6.67700 23.57400
C  3.14200 7.90200 24.93500
N  7.75300 2.60300 25.54400
C  7.31600 3.43600 24.50800
C  7.62200 2.88000 23.15500
C  8.42400 1.64100 23.55700
C  8.52800 1.63800 25.05900
C  6.41600 2.68100 22.18200
C  9.83900 1.47200 22.79400
C  9.87800 0.27500 21.70600
N  9.02100 1.80200 27.93800
C  9.46000 0.73900 27.13200
C  10.17600 -0.24800 27.89500
C  10.20900 0.34600 29.22000
C  9.43300 1.53900 29.18100
C  10.75600 -1.50300 27.35900
C  10.68800 0.15100 30.53300
O  11.45900 -0.70200 30.83000
C  10.20200 1.28100 31.39100
C  9.47900 0.58400 32.52400
O  8.28500 0.37700 32.67900
O  10.45800 0.32600 33.44800
C  9.99500 0.15300 34.84700
H  5.30800 6.20900 30.08500
H  6.01300 4.86000 23.79300
H  9.68800 -0.09800 25.10300
H  7.52400 2.86600 32.68400
H  6.82400 5.59800 32.21500
H  4.93900 3.21100 31.79500
H  4.56100 4.82200 32.32900
H  5.50600 3.68200 33.31900
H  8.74500 5.40300 32.99500
H  9.92600 4.56500 32.08100
H  10.69900 3.39100 33.67300
H  9.00800 2.93700 34.26900
H  3.00300 7.12900 28.12200
H  3.96400 8.50100 27.46300
H  4.34700 7.84700 29.08300
H  2.28700 7.69400 25.57800
H  2.74300 8.20600 23.96800
H  3.60900 8.80800 25.32300
H  8.38600 3.56700 22.79200
H  7.79200 0.77500 23.36600
H  5.53700 3.12900 22.64500
H  6.27100 1.60900 22.04300
H  6.55000 3.12900 21.19800
H  10.77000 1.36000 23.34800
H  10.16000 2.29000 22.14900
H  8.89800 -0.18500 21.58200
H  10.58500 -0.44400 22.12100
H  10.27200 0.74900 20.80700
H  10.13500 -1.95600 26.58600
H  10.70000 -2.23200 28.16700
H  11.79200 -1.30400 27.08300
H  11.03600 1.88400 31.74900
H  10.02300 1.10000 35.38600
H  10.56500 -0.58400 35.41300
H  8.96500 -0.19900 34.92100
Mg -13.02500 16.56300 41.26700
C  -10.22700 14.45800 40.75300
C  -11.13200 19.10900 40.03400
C  -15.82200 18.21500 41.12500
C  -14.92600 13.59800 42.00500
N  -10.82000 16.74800 40.40600
C  -9.88700 15.77500 40.38400
C  -8.56900 16.27400 39.81400
C  -8.88800 17.83800 39.58600
C  -10.33900 17.93200 40.05100
C  -8.00300 18.92300 40.38200
C  -8.18600 15.52800 38.56900
C  -6.72300 15.13100 38.45900
H  -6.02900 15.59300 37.16100
N  -13.39600 18.46200 40.71300
C  -12.52900 19.41400 40.31100
C  -13.19200 20.71700 40.29000
C  -14.55800 20.43300 40.35200
C  -14.70800 18.92900 40.69700
C  -12.41600 22.01500 40.14100
C  -15.54200 21.50100 40.25900
O  -15.25200 22.69700 40.19300
C  -16.98300 21.16100 39.96500
N  -15.14000 15.93200 41.40700
C  -16.06700 16.88400 41.44600
C  -17.47000 16.25600 41.60400
C  -17.17500 14.84900 42.01200
C  -15.72300 14.80500 41.82800
C  -18.38500 16.94500 42.60900
C  -17.94300 13.72000 41.20900
C  -19.07900 13.08500 41.96800
N  -12.66000 14.53000 41.51800
C  -13.52200 13.46400 41.80400
C  -12.73700 12.22700 42.06700
C  -11.47900 12.53700 41.55600
C  -11.48400 13.93400 41.25400
C  -13.20600 10.86000 42.51300
C  -10.14000 12.03400 41.25100
O  -9.67200 10.92100 41.31100
C  -9.27300 13.31000 40.78700
C  -8.12300 13.55700 41.65100
O  -8.10400 14.26100 42.63800
O  -6.97600 12.92200 41.15300
C  -5.73100 13.09800 41.88500
H  -10.48900 19.96800 39.83200
H  -16.76800 18.74900 41.00800
H  -15.41700 12.67300 42.31600
H  -7.84800 16.24100 40.63000
H  -8.83100 18.09700 38.52900
H  -7.35500 18.45500 41.12400
H  -8.63600 19.50100 41.05600
H  -7.43600 19.52700 39.67400
H  -8.41300 16.10700 37.67400
H  -8.76800 14.63600 38.33900
H  -6.58400 14.05200 38.53400
H  -6.21000 15.52200 39.33800
H  -12.21200 22.48400 41.10300
H  -12.80500 22.70800 39.39400
H  -11.42700 21.75600 39.76500
H  -17.43400 20.80000 40.88900
H  -17.08600 20.41900 39.17300
H  -17.31300 22.13200 39.59700
H  -17.88300 16.32800 40.59800
H  -17.40200 14.77500 43.07600
H  -19.20500 17.49700 42.15100
H  -17.77400 17.67100 43.14500
H  -18.85700 16.42600 43.44400
H  -17.21200 12.92000 41.09000
H  -18.16000 14.05400 40.19400
H  -19.27700 13.66300 42.87100
H  -18.76400 12.07100 42.21500
H  -19.97200 13.07700 41.34400
H  -12.69400 10.27200 41.75100
H  -14.27400 10.64500 42.47400
H  -12.82000 10.56700 43.48900
H  -8.79400 13.12700 39.82500
H  -5.05200 12.66000 41.15300
H  -5.70600 12.39800 42.72000
H  -5.48300 14.13300 42.12000

