158

Mg 2.08700 -1.87300 45.25100
C  5.38800 -0.69200 44.96200
C  0.98900 0.99600 43.43000
C  -0.86000 -3.41100 44.65000
C  3.26000 -4.83900 46.69400
N  3.08100 -0.03300 44.32000
C  4.51000 0.24200 44.35900
C  4.77700 1.70800 43.90700
C  3.30700 2.16500 43.38500
C  2.38000 0.93500 43.75700
C  2.74500 3.51900 43.92300
C  5.92500 1.74900 42.82900
C  6.06600 0.59400 41.88900
H  7.01500 0.73800 40.68600
N  0.29100 -1.25200 44.17300
C  -0.02400 -0.05000 43.62200
C  -1.36700 -0.14500 43.11200
C  -1.98500 -1.27700 43.66200
C  -0.83200 -2.06300 44.17800
C  -2.07100 0.96800 42.40300
C  -3.48200 -1.71900 43.67900
O  -4.32900 -0.97500 43.23400
C  -4.11500 -2.91300 44.43200
N  1.27500 -3.93400 45.51300
C  -0.01500 -4.24500 45.25700
C  -0.31900 -5.60700 46.00800
C  0.97500 -6.08400 46.54600
C  1.94500 -4.91200 46.25900
C  -1.39700 -5.38200 47.11000
C  1.53200 -7.40100 45.95300
C  2.18000 -8.42500 46.95500
N  3.94000 -2.63500 45.74200
C  4.31200 -3.88800 46.33400
C  5.70300 -3.92900 46.53100
C  6.13600 -2.68600 46.07900
C  5.01100 -1.94800 45.56900
C  6.54400 -5.00500 47.23300
C  7.29700 -1.83200 46.03500
O  8.46800 -2.02300 46.41000
C  6.86900 -0.54000 45.30800
C  7.16900 0.62400 46.16400
O  6.80700 0.77500 47.32400
O  7.90600 1.54900 45.46100
C  7.94700 2.84200 46.18200
H  0.62000 1.88100 42.90700
H  -1.81900 -3.93200 44.60300
H  3.65800 -5.68700 47.25500
H  5.10100 2.32800 44.74300
H  3.35300 2.27400 42.30200
H  3.60200 3.96200 44.43100
H  2.01200 3.32400 44.70600
H  2.30400 4.18500 43.18100
H  6.83600 1.96200 43.38800
H  5.90600 2.63000 42.18700
H  5.06600 0.45400 41.47900
H  6.31100 -0.37100 42.33300
H  -2.37800 0.55200 41.44300
H  -1.35800 1.75800 42.16700
H  -2.87000 1.51300 42.90700
H  -3.74200 -3.79700 43.91500
H  -5.19300 -2.87100 44.27500
H  -3.85400 -2.97800 45.48800
H  -0.79100 -6.24900 45.26400
H  0.99600 -6.16900 47.63200
H  -1.07000 -5.74400 48.08400
H  -2.33900 -5.86100 46.84300
H  -1.65300 -4.32900 47.22500
H  2.40600 -7.13100 45.36100
H  0.77500 -7.89900 45.34600
H  3.22900 -8.55200 46.68600
H  1.71800 -9.39700 47.12600
H  2.23200 -8.00300 47.95900
H  6.30200 -4.98200 48.29500
H  7.54700 -4.67000 46.97000
H  6.31700 -5.99700 46.84100
H  7.53500 -0.58100 44.44600
H  8.29300 3.54000 45.42000
H  8.67200 2.73000 46.98800
H  6.94900 3.08700 46.54600
Mg 40.56600 9.68900 29.45500
C  42.47700 10.73400 32.21600
C  38.35200 8.29700 31.56100
C  39.08400 8.41400 26.73100
C  42.97200 11.21100 27.33600
N  40.57400 9.40300 31.67700
C  41.28700 10.09500 32.66400
C  40.60100 9.88900 34.04800
C  39.30700 9.11900 33.74200
C  39.36600 9.00400 32.17000
C  39.03300 7.79100 34.52300
C  40.34700 11.23300 34.89200
C  40.94200 11.24800 36.28200
H  40.60200 12.26800 37.27300
N  38.97900 8.55100 29.17900
C  38.14700 8.09000 30.17400
C  37.10000 7.32400 29.56400
C  37.28000 7.37400 28.18000
C  38.52100 8.13100 27.95600
C  36.06400 6.59400 30.44400
C  36.45900 6.82600 27.08300
O  36.55900 7.22100 25.95800
C  35.21100 5.92700 27.36600
N  40.97400 9.80700 27.29300
C  40.18100 9.21100 26.38100
C  40.67700 9.47600 24.94100
C  41.99800 10.30900 25.14900
C  41.90600 10.57300 26.66900
C  40.91000 8.23700 24.04900
C  42.07600 11.48100 24.27300
C  41.16100 12.75900 24.54100
N  42.32100 10.70900 29.63100
C  43.15300 11.28400 28.74300
C  44.21100 12.02600 29.39900
C  44.06500 11.67600 30.75900
C  42.85100 10.96400 30.90600
C  45.25500 12.86700 28.78700
C  44.50800 11.98500 32.06400
O  45.48600 12.66600 32.41100
C  43.53200 11.41400 33.06800
C  44.35300 10.48500 33.92400
O  44.68500 9.34200 33.68000
O  44.55600 11.05300 35.16700
C  45.23800 10.26500 36.13400
H  37.43300 8.30800 32.15000
H  38.70600 7.93400 25.82600
H  43.75300 11.58900 26.67300
H  41.30100 9.33000 34.66900
H  38.50600 9.82400 33.96500
H  37.98100 7.58300 34.32900
H  39.09300 7.87600 35.60800
H  39.67600 6.98600 34.16700
H  39.27500 11.34900 35.05100
H  40.59900 12.15400 34.36700
H  42.02300 11.33000 36.16800
H  40.75600 10.24200 36.65700
H  35.07400 6.85800 30.07300
H  36.18700 6.96300 31.46200
H  36.15100 5.50800 30.39500
H  35.54200 4.95600 27.73100
H  34.79400 5.69200 26.38600
H  34.45600 6.43600 27.96600
H  39.99100 10.16100 24.44200
H  42.91700 9.76100 24.94100
H  40.54800 7.38700 24.62700
H  41.94700 8.12100 23.73400
H  40.28400 8.31400 23.16000
H  41.81700 11.18300 23.25700
H  43.07200 11.92300 24.26200
H  40.35300 12.85400 23.81600
H  41.76300 13.66200 24.63500
H  40.74300 12.63500 25.54000
H  44.89000 13.13300 27.79500
H  46.09600 12.17400 28.76600
H  45.26000 13.73800 29.44300
H  43.06000 12.22100 33.62900
H  44.83100 9.25400 36.13100
H  45.04700 10.64700 37.13700
H  46.31000 10.20900 35.94400

