158

Mg 24.66100 -3.95800 45.58200
C  26.84800 -1.89700 44.07300
C  22.17500 -2.96000 43.68800
C  22.96600 -6.96800 46.19700
C  27.40100 -5.51000 47.26000
N  24.47000 -2.45500 44.22100
C  25.47800 -1.74500 43.59100
C  24.97000 -0.89900 42.42100
C  23.41900 -0.95700 42.61100
C  23.36600 -2.21200 43.54200
C  22.62100 0.15500 43.26700
C  25.51000 -1.13500 40.97000
C  24.83400 -0.33400 39.84600
H  25.19200 -0.71600 38.40000
N  22.78700 -4.78400 45.15300
C  21.87400 -4.17400 44.36000
C  20.65500 -4.86300 44.44900
C  20.80900 -6.02300 45.22500
C  22.23800 -5.92500 45.59800
C  19.41100 -4.43900 43.66100
C  19.79600 -7.08100 45.69600
O  18.62900 -7.06000 45.19400
C  20.14600 -8.03300 46.80100
N  25.27000 -6.20800 46.32400
C  24.34900 -7.17100 46.55400
C  24.87100 -8.30700 47.38700
C  26.40200 -7.79500 47.70400
C  26.42200 -6.47600 47.02900
C  23.95200 -8.67500 48.62700
C  27.45600 -8.79900 47.14200
C  27.85200 -9.99600 48.04900
N  26.67200 -3.63400 45.86900
C  27.66100 -4.36700 46.51300
C  28.95000 -3.71300 46.37800
C  28.71400 -2.74700 45.37900
C  27.27500 -2.73900 45.15200
C  30.27500 -4.07800 47.03300
C  29.29500 -1.81400 44.47100
O  30.50100 -1.60400 44.35900
C  28.06200 -1.09900 43.61200
C  28.05300 0.32700 43.94500
O  27.68100 0.79500 45.03600
O  28.65600 1.03800 42.93300
C  29.13700 2.33700 43.39100
H  21.33300 -2.58900 43.10100
H  22.37300 -7.82000 46.53500
H  28.28900 -5.89400 47.76600
H  25.41100 0.07400 42.63900
H  22.84400 -1.23100 41.72700
H  23.07300 1.03300 43.72800
H  22.07500 -0.28400 44.10200
H  21.96100 0.59600 42.52100
H  25.38600 -2.21600 40.90800
H  26.57700 -0.91800 40.91800
H  25.10400 0.70600 40.02700
H  23.74400 -0.35200 39.87700
H  19.42100 -5.03300 42.74800
H  19.64700 -3.43300 43.31400
H  18.47600 -4.55100 44.21200
H  19.15300 -8.38500 47.07900
H  20.54300 -7.52600 47.68100
H  20.64800 -8.93300 46.44500
H  24.92100 -9.14600 46.69200
H  26.49900 -7.76600 48.78900
H  23.50100 -9.64100 48.40000
H  23.07800 -8.03800 48.76500
H  24.63000 -8.71700 49.47900
H  28.31600 -8.14000 47.02500
H  27.19000 -9.16500 46.15000
H  27.77600 -10.93000 47.49200
H  27.17200 -10.01900 48.90100
H  28.84000 -9.87300 48.49100
H  30.07500 -4.14300 48.10300
H  30.91100 -3.20900 46.86600
H  30.68900 -5.04800 46.75800
H  28.18700 -1.11900 42.52900
H  28.66800 3.02500 42.68800
H  30.19700 2.21900 43.16500
H  28.95000 2.65400 44.41700
Mg 48.71400 35.49100 26.66400
C  46.95200 33.89400 29.18600
C  49.07700 38.22400 28.65200
C  49.94700 37.18500 23.97900
C  47.94400 32.80700 24.63400
N  48.01400 35.93100 28.72900
C  47.51300 35.10000 29.62500
C  47.57900 35.65600 31.04600
C  47.96600 37.11600 30.73300
C  48.43200 37.12700 29.25200
C  46.77800 38.10500 31.12800
C  48.71900 34.88000 31.82800
C  48.77400 34.92100 33.31700
H  47.65700 35.78600 34.01900
N  49.36500 37.42900 26.36100
C  49.54600 38.41600 27.33400
C  50.19300 39.61700 26.78000
C  50.35300 39.41600 25.41400
C  49.81100 37.98700 25.14400
C  50.46900 40.81500 27.67000
C  50.91700 40.30800 24.36600
O  50.95000 39.95500 23.19700
C  51.26300 41.65800 24.69100
N  49.08700 34.99400 24.67500
C  49.64300 35.86300 23.75200
C  49.93900 35.10100 22.47400
C  49.12000 33.75600 22.66200
C  48.74000 33.78900 24.09200
C  49.43500 35.82800 21.09500
C  49.88000 32.39400 22.23100
C  49.52900 31.71200 20.92300
N  47.78300 33.61200 26.85100
C  47.47300 32.66300 25.94000
C  46.69000 31.59000 26.49000
C  46.47000 32.02300 27.87000
C  47.11400 33.31100 27.94500
C  46.03400 30.40400 25.85700
C  45.76600 31.75800 29.08000
O  45.13100 30.77300 29.39700
C  46.01800 32.95200 30.01500
C  46.41700 32.39300 31.33600
O  47.30400 31.59200 31.50100
O  45.55000 32.75500 32.32900
C  45.73500 31.95100 33.52900
H  49.42800 38.93000 29.40800
H  50.31500 37.64000 23.05700
H  47.67600 32.03900 23.90500
H  46.59600 35.62100 31.51600
H  48.90900 37.43800 31.17500
H  45.98400 37.57900 31.65700
H  46.43700 38.61400 30.22600
H  47.34200 38.70000 31.84600
H  49.69400 35.26700 31.53200
H  48.60000 33.84400 31.51000
H  49.79000 35.09000 33.67500
H  48.60400 33.86800 33.54300
H  50.61900 40.52300 28.70900
H  49.61000 41.48500 27.69800
H  51.37800 41.38900 27.48700
H  51.49400 42.14400 23.74300
H  52.06100 41.48900 25.41500
H  50.33700 42.03300 25.12700
H  51.02300 34.98900 22.45900
H  48.14900 33.93200 22.20000
H  48.86800 35.12600 20.48500
H  50.40300 35.96800 20.61300
H  48.88800 36.76200 21.23100
H  49.79400 31.59500 22.96700
H  50.93700 32.64700 22.31000
H  50.27300 32.06900 20.21200
H  48.61800 32.14300 20.50700
H  49.22100 30.66800 20.97300
H  45.21200 30.73800 25.22300
H  45.72200 29.72300 26.64900
H  46.64300 29.84600 25.14600
H  45.08000 33.48100 30.18500
H  46.78500 31.91600 33.81800
H  45.33800 30.95600 33.32800
H  45.12100 32.29000 34.36400

