158

Mg 6.92300 53.05800 40.31300
C  6.76500 49.66900 40.10900
C  10.29900 52.94800 39.94000
C  7.04000 56.50300 39.93300
C  3.48700 53.19900 40.49600
N  8.32500 51.49700 39.96100
C  8.07200 50.16100 39.93700
C  9.34500 49.31400 39.72900
C  10.45400 50.40800 39.83100
C  9.63000 51.71900 39.88300
C  11.34200 50.25100 41.04900
C  9.42100 48.57800 38.33500
C  9.25700 49.33400 36.97500
H  8.48500 50.73500 36.99200
N  8.46300 54.56500 39.98300
C  9.83800 54.27800 40.00100
C  10.62100 55.49700 39.89500
C  9.65000 56.60100 39.83600
C  8.35300 55.97400 39.93500
C  12.10600 55.55500 39.96100
C  10.03100 58.01400 39.62200
O  11.22100 58.22800 39.40300
C  9.05800 59.13100 39.65600
N  5.43500 54.65000 39.98200
C  5.72000 55.97800 39.98700
C  4.51300 56.81100 40.21300
C  3.39000 55.81000 40.52900
C  4.12900 54.44500 40.26800
C  4.70400 57.90200 41.29900
C  2.12300 56.01000 39.68800
C  0.69600 55.47600 40.32000
N  5.45000 51.74300 40.33600
C  4.04500 51.94400 40.56900
C  3.34400 50.68600 40.90000
C  4.43300 49.75900 40.82900
C  5.61300 50.44100 40.37100
C  1.91900 50.46800 41.40600
C  4.86300 48.38900 41.05900
O  4.24000 47.50200 41.59500
C  6.29300 48.22400 40.44200
C  6.11000 47.31300 39.23700
O  5.63900 47.65000 38.18700
O  6.37300 45.98700 39.59300
C  5.66700 45.05300 38.68100
H  11.37100 52.74100 39.91600
H  6.86700 57.56900 39.77000
H  2.45200 53.38200 40.79300
H  9.36400 48.64300 40.58800
H  11.13800 50.50300 38.98700
H  11.20200 49.32000 41.59800
H  11.24500 51.17800 41.61400
H  12.39700 50.19800 40.78100
H  8.72700 47.73800 38.29200
H  10.42800 48.16300 38.27900
H  8.49700 48.73200 36.47700
H  10.20200 49.31000 36.43200
H  12.59100 55.45400 38.99000
H  12.60000 54.75600 40.51400
H  12.46200 56.49600 40.38000
H  9.46100 60.14300 39.63000
H  8.31300 59.08400 40.45000
H  8.57900 59.06100 38.67900
H  4.37000 57.20400 39.20700
H  3.19100 55.73500 41.59800
H  4.93300 58.89600 40.91300
H  5.47400 57.65300 42.02900
H  3.79800 58.08900 41.87600
H  2.33700 55.48600 38.75600
H  1.96300 57.05800 39.43600
H  0.95300 54.95100 41.24000
H  0.19100 54.83100 39.60100
H  -0.02100 56.24000 40.62000
H  1.51400 49.54300 40.99700
H  1.41800 51.34100 40.98600
H  1.84700 50.42500 42.49300
H  6.99900 47.65900 41.05000
H  5.98900 45.17400 37.64700
H  4.58100 45.13900 38.67400
H  5.83100 44.04400 39.06000
Mg 2.04800 42.24400 26.37600
C  3.35300 42.15000 29.51900
C  -0.89500 40.87600 27.47600
C  0.95900 42.00600 23.08300
C  5.05500 43.49300 25.16800
N  1.31600 41.69400 28.25400
C  1.99400 41.81000 29.46100
C  1.04900 41.53000 30.69000
C  -0.26300 41.02500 29.95200
C  0.09900 41.22400 28.47700
C  -0.65400 39.59100 30.34700
C  0.77100 42.80200 31.58900
C  1.35100 42.65300 33.04800
H  1.06900 41.35500 33.79300
N  0.28800 41.46100 25.41500
C  -0.86400 41.01200 26.07800
C  -1.83800 40.72900 25.14600
C  -1.32800 41.00500 23.88200
C  0.04200 41.55000 24.03600
C  -3.11300 40.02800 25.66100
C  -2.05900 40.89300 22.42200
O  -1.65700 41.50800 21.41200
C  -3.45100 40.30200 22.42100
N  2.95400 42.53500 24.41200
C  2.26400 42.51700 23.23900
C  3.09300 43.06400 22.04500
C  4.25300 43.74000 22.83300
C  4.10000 43.22700 24.23900
C  3.62400 41.85000 21.23200
C  4.28800 45.24400 22.60300
C  4.66000 45.85800 21.16600
N  3.86900 42.63900 27.15300
C  4.99600 43.19000 26.54100
C  5.99900 43.41100 27.52600
C  5.40800 43.01700 28.72400
C  4.10400 42.56300 28.40900
C  7.43900 43.95400 27.35200
C  5.53000 42.89100 30.11600
O  6.52800 43.13600 30.84900
C  4.23400 42.31400 30.67600
C  4.56800 41.02000 31.36700
O  4.87400 39.95700 30.83600
O  4.73200 41.27600 32.70400
C  5.00800 40.08000 33.51900
H  -1.80100 40.47800 27.93800
H  0.71600 41.92800 22.02100
H  6.00700 43.89600 24.81700
H  1.55500 40.76100 31.27400
H  -1.12100 41.64200 30.22000
H  -1.73700 39.55600 30.46400
H  -0.23200 39.38000 31.33000
H  -0.26500 38.84000 29.66000
H  -0.29400 42.91900 31.79100
H  1.24600 43.62900 31.06100
H  1.04500 43.58500 33.52300
H  2.43500 42.75600 32.99100
H  -2.98500 39.43600 26.56700
H  -3.37300 39.33300 24.86300
H  -4.00100 40.62200 25.88100
H  -4.12400 40.97600 22.95100
H  -3.37400 39.31600 22.87700
H  -3.78000 40.08700 21.40400
H  2.59200 43.88400 21.53100
H  5.21900 43.33300 22.53400
H  4.46200 42.02700 20.55700
H  2.83600 41.61000 20.51800
H  3.67400 40.91200 21.78400
H  5.13700 45.59000 23.19200
H  3.38700 45.72600 22.98100
H  4.49600 44.97000 20.55600
H  5.69400 46.15800 20.99600
H  3.91400 46.62800 20.96900
H  8.19300 43.21600 27.62900
H  7.57900 44.76600 28.06500
H  7.58700 44.32400 26.33800
H  3.96200 43.15300 31.31600
H  4.40200 40.16900 34.42000
H  6.07400 39.97300 33.72200
H  4.67000 39.15300 33.05600

