158

Mg -2.13500 17.14000 26.39500
C  -2.56400 14.88800 28.93000
C  -2.83600 19.69300 28.62200
C  -2.19300 19.38300 23.72300
C  -2.28900 14.49600 24.00100
N  -2.50900 17.22700 28.53400
C  -2.52200 16.21900 29.42800
C  -2.79800 16.66300 30.94500
C  -3.12200 18.19500 30.64900
C  -2.80000 18.41000 29.15800
C  -4.53000 18.69100 31.16800
C  -1.59000 16.33800 31.91800
C  -1.99100 15.70500 33.23300
H  -2.52000 16.57600 34.32700
N  -2.21000 19.22500 26.22700
C  -2.49100 20.08000 27.28400
C  -2.39300 21.41900 26.70000
C  -2.19200 21.36400 25.28200
C  -2.19900 19.94000 25.02500
C  -2.64300 22.67400 27.59300
C  -1.91800 22.56500 24.31200
O  -1.95800 22.33300 23.08900
C  -1.69700 23.96200 24.68700
N  -2.36500 16.94200 24.15800
C  -2.33800 17.99700 23.31800
C  -2.39500 17.58800 21.84800
C  -2.27300 16.04500 21.97800
C  -2.34300 15.74800 23.44500
C  -3.62300 18.05800 21.04300
C  -0.91500 15.57600 21.34900
C  0.37800 15.97700 22.14000
N  -2.37000 15.18600 26.40100
C  -2.40300 14.20100 25.36600
C  -2.64600 12.91500 25.92400
C  -2.75400 13.19000 27.32600
C  -2.47900 14.52100 27.56600
C  -2.63000 11.57800 25.20500
C  -2.92100 12.51700 28.57600
O  -3.05000 11.34500 28.99000
C  -2.91100 13.64300 29.67800
C  -1.83600 13.24800 30.69600
O  -0.63300 13.42000 30.59800
O  -2.38400 12.47700 31.71600
C  -1.55400 12.07300 32.84100
H  -3.20100 20.38900 29.38000
H  -2.03300 20.07300 22.89200
H  -2.16700 13.66000 23.30900
H  -3.73900 16.12400 31.04600
H  -2.44300 18.74700 31.29900
H  -4.49200 19.60100 31.76700
H  -4.91400 17.99000 31.90800
H  -5.26600 18.84900 30.38000
H  -1.05200 17.25000 32.17500
H  -0.87500 15.67000 31.43600
H  -1.03000 15.26100 33.49300
H  -2.75900 14.94500 33.09400
H  -3.09600 22.52400 28.57200
H  -3.34700 23.32800 27.07800
H  -1.65000 23.10600 27.71400
H  -0.68000 24.02900 25.07400
H  -2.44800 24.22200 25.43300
H  -1.75100 24.63700 23.83200
H  -1.43400 17.89700 21.43800
H  -3.11600 15.63300 21.42300
H  -3.28600 18.14800 20.01100
H  -3.97300 19.05500 21.30900
H  -4.40000 17.29300 21.03500
H  -0.85600 15.89900 20.30900
H  -0.95000 14.48900 21.41500
H  0.95800 16.78600 21.69700
H  0.99800 15.08300 22.20900
H  0.15600 16.39800 23.12100
H  -2.01900 10.90000 25.80100
H  -2.29300 11.73000 24.18000
H  -3.62200 11.15000 25.34900
H  -3.92800 13.65500 30.07000
H  -2.00400 12.40400 33.77700
H  -0.52700 12.43500 32.79100
H  -1.45000 10.98800 32.84700
Mg 35.45000 1.34400 29.49200
C  33.13300 2.53700 31.74400
C  37.87900 1.83300 32.01700
C  37.82100 0.25700 27.44800
C  33.19500 1.52100 26.95100
N  35.52900 2.31400 31.59000
C  34.38000 2.38400 32.34000
C  34.74800 2.50000 33.82600
C  36.19100 2.78400 33.75600
C  36.60800 2.17500 32.36300
C  36.63600 4.23400 34.01500
C  34.22200 1.21100 34.69600
C  34.32300 1.26600 36.27700
H  34.91900 2.53100 36.89900
N  37.67400 1.17400 29.66900
C  38.42200 1.37300 30.81700
C  39.77400 0.98000 30.51300
C  39.74500 0.36500 29.22300
C  38.37200 0.57200 28.68200
C  40.82200 1.05200 31.62000
C  40.81400 -0.25100 28.43200
O  40.74800 -0.54300 27.25900
C  42.11600 -0.42900 29.16900
N  35.48500 0.94200 27.54000
C  36.59300 0.51900 26.82700
C  36.32600 0.32100 25.34300
C  34.79000 0.62600 25.23900
C  34.40300 1.03400 26.65600
C  37.10800 1.36100 24.45400
C  33.81900 -0.62800 24.76900
C  33.82800 -1.86500 25.59100
N  33.54900 1.84600 29.28200
C  32.74200 1.94400 28.21500
C  31.44300 2.48900 28.59200
C  31.54700 2.72300 30.06500
C  32.84500 2.33000 30.36900
C  30.32200 2.62000 27.65400
C  30.92100 3.18800 31.22600
O  29.77700 3.62400 31.42200
C  31.89700 2.95500 32.36700
C  32.11000 4.29600 33.06000
O  32.63500 5.25400 32.54900
O  31.60000 4.25500 34.29300
C  31.98900 5.46400 35.04500
H  38.57000 2.06300 32.83000
H  38.56400 -0.11500 26.73900
H  32.46300 1.59900 26.14400
H  34.33800 3.40100 34.28100
H  36.73600 2.20800 34.50300
H  35.81100 4.94400 33.95900
H  37.37200 4.53300 33.26900
H  37.17700 4.32500 34.95700
H  34.87100 0.40700 34.35000
H  33.24300 1.05300 34.24400
H  34.87800 0.33600 36.39600
H  33.33600 1.08100 36.70100
H  41.12900 0.01200 31.72600
H  40.43600 1.34400 32.59700
H  41.66500 1.68600 31.34400
H  41.90500 -1.22400 29.88500
H  42.55500 0.50300 29.52300
H  42.82000 -0.86600 28.46100
H  36.52600 -0.69300 24.99700
H  34.54800 1.41900 24.53200
H  37.83900 1.97900 24.97500
H  36.44700 1.87200 23.75500
H  37.81300 0.73600 23.90500
H  34.06100 -0.99300 23.77100
H  32.80800 -0.25000 24.61200
H  34.87100 -1.95000 25.89800
H  33.59000 -2.75400 25.00700
H  33.14500 -1.75400 26.43300
H  30.54500 2.10700 26.71900
H  29.99400 3.63200 27.41700
H  29.49200 2.12800 28.16200
H  31.49100 2.27000 33.11100
H  32.96800 5.93000 34.93000
H  31.93200 5.26400 36.11500
H  31.31500 6.29800 34.85100

