158

Mg 23.95700 -5.67500 46.08300
C  26.29400 -3.41000 44.58900
C  21.60300 -4.40600 43.94900
C  22.26100 -8.52800 46.46800
C  26.74600 -7.13800 47.82400
N  23.94500 -3.97600 44.68900
C  24.98700 -3.28600 44.18800
C  24.52000 -2.39100 43.05600
C  22.97300 -2.44100 43.11800
C  22.72500 -3.59500 44.04100
C  22.22900 -1.13400 43.66800
C  25.15000 -2.66700 41.67800
C  25.78100 -1.47600 40.89600
H  25.39200 -1.17000 39.47100
N  22.17300 -6.32400 45.37800
C  21.32900 -5.73200 44.45600
C  20.17600 -6.51900 44.15800
C  20.29000 -7.69100 44.98600
C  21.62900 -7.55900 45.69200
C  19.10600 -6.13900 43.15000
C  19.23100 -8.76300 45.08700
O  18.09800 -8.64500 44.59700
C  19.42400 -9.99300 45.80200
N  24.38500 -7.49100 47.22000
C  23.48800 -8.52700 47.19600
C  23.92400 -9.73100 48.07100
C  25.30100 -9.25900 48.61200
C  25.57500 -7.93000 47.85900
C  22.86200 -10.09800 49.14100
C  26.48700 -10.34600 48.72600
C  27.07500 -10.65900 50.11400
N  26.03800 -5.36400 46.26800
C  27.01800 -5.99800 46.99300
C  28.37000 -5.34800 46.76300
C  28.06500 -4.33300 45.83900
C  26.68900 -4.37100 45.59800
C  29.70000 -5.78300 47.29300
C  28.64800 -3.29900 44.97900
O  29.86200 -2.99400 44.79600
C  27.53400 -2.68900 44.13100
C  27.33300 -1.21600 44.41600
O  26.69300 -0.72700 45.32500
O  28.11300 -0.61100 43.50900
C  28.45900 0.84400 43.72300
H  20.85900 -3.92300 43.31200
H  21.71000 -9.47100 46.48800
H  27.61500 -7.65600 48.23600
H  24.80000 -1.41200 43.44500
H  22.52100 -2.79600 42.19200
H  21.80700 -0.44600 42.93500
H  22.94200 -0.69800 44.36800
H  21.36400 -1.47900 44.23400
H  24.33600 -2.91700 40.99800
H  25.86600 -3.48600 41.75000
H  26.84600 -1.64700 41.05100
H  25.71000 -0.48100 41.33600
H  18.62900 -7.00500 42.69200
H  19.57700 -5.53300 42.37500
H  18.43900 -5.66300 43.86800
H  18.51100 -10.58300 45.87600
H  19.57000 -9.58000 46.80000
H  20.25900 -10.64500 45.54300
H  24.02100 -10.69400 47.57000
H  25.10100 -8.95400 49.63900
H  21.95500 -9.49400 49.18200
H  23.31400 -10.00500 50.12800
H  22.66200 -11.16900 49.10900
H  27.32700 -10.20900 48.04500
H  26.14000 -11.28500 48.29500
H  28.15100 -10.48600 50.11700
H  26.98300 -11.71800 50.35500
H  26.53200 -10.12000 50.89100
H  29.75100 -5.62300 48.37000
H  30.50900 -5.27400 46.76900
H  29.83400 -6.85200 47.12200
H  27.70300 -2.65800 43.05400
H  29.05800 0.91600 44.63100
H  27.54900 1.38100 43.99200
H  28.94700 1.36400 42.89900
Mg 53.82000 25.19800 43.85700
C  51.17800 27.37500 43.50800
C  51.59700 22.56000 43.21700
C  56.51200 23.08700 43.35300
C  56.04700 27.84300 43.87400
N  51.65000 25.00500 43.58000
C  50.79700 26.05400 43.36600
C  49.40800 25.53400 42.87600
C  49.47500 24.02900 43.41800
C  51.00000 23.80500 43.43300
C  48.81300 23.84300 44.82100
C  49.31400 25.60000 41.35700
C  47.94300 25.45600 40.79600
H  47.79500 25.48000 39.24300
N  54.00800 23.04500 43.43800
C  52.95600 22.19400 43.21700
C  53.56200 20.95200 42.96400
C  54.97600 21.07100 43.04300
C  55.22700 22.42100 43.28200
C  52.75500 19.70500 42.72100
C  55.90800 19.91900 42.80800
O  55.41100 18.74600 42.62800
C  57.43500 19.89600 42.89200
N  55.97400 25.45300 43.49000
C  56.82800 24.38700 43.43300
C  58.32500 24.98500 43.51300
C  58.09900 26.52100 43.43000
C  56.60200 26.60300 43.67700
C  59.21600 24.53200 44.69400
C  58.42800 27.22500 42.03300
C  59.42300 28.41100 42.04100
N  53.73800 27.26900 43.92800
C  54.67100 28.19900 44.06400
C  53.98900 29.44500 44.27400
C  52.60300 29.23600 44.01800
C  52.53200 27.85400 43.74900
C  54.59700 30.71100 44.70100
C  51.27900 29.82700 43.81500
O  50.94800 30.99200 43.97500
C  50.34500 28.67100 43.32500
C  50.10000 28.96800 41.92400
O  51.02200 29.19100 41.13000
O  48.74900 29.09100 41.76400
C  48.30400 29.84600 40.59000
H  50.89300 21.74700 43.02600
H  57.46300 22.55200 43.30100
H  56.70600 28.71100 43.94100
H  48.60400 26.07900 43.37100
H  49.01300 23.26900 42.78800
H  48.53100 24.85000 45.12800
H  49.55200 23.46800 45.52800
H  47.99100 23.13200 44.91100
H  49.94300 24.85300 40.87300
H  49.74600 26.53700 41.00800
H  47.32900 26.19000 41.31800
H  47.59700 24.46900 41.10100
H  52.70100 19.42600 41.66800
H  51.74500 19.89700 43.08200
H  53.01200 18.85600 43.35500
H  57.93500 20.59700 42.22300
H  57.81300 18.91200 42.61600
H  57.72300 20.06300 43.93000
H  58.88000 24.66900 42.63000
H  58.60200 27.07900 44.22000
H  59.24700 25.43000 45.31000
H  60.24700 24.22800 44.51100
H  58.68500 23.78800 45.28900
H  57.49200 27.57100 41.59500
H  58.79500 26.51500 41.29100
H  60.20400 28.23400 41.30100
H  59.89100 28.64000 42.99800
H  58.79900 29.27000 41.79500
H  54.31500 31.49200 43.99400
H  55.67000 30.57700 44.56200
H  54.50900 30.99600 45.74900
H  49.43700 28.69900 43.92600
H  47.40600 29.36800 40.19700
H  49.01700 30.14900 39.82300
H  47.86800 30.79200 40.90900

