158

Mg -1.97100 17.35800 25.84300
C  -2.45300 15.02200 28.44900
C  -2.51000 19.79500 28.19000
C  -1.95400 19.51800 23.22000
C  -2.49800 14.74300 23.52700
N  -2.53600 17.34300 28.15500
C  -2.45600 16.29100 29.00200
C  -2.52800 16.77000 30.54200
C  -2.69500 18.33100 30.38900
C  -2.51100 18.54400 28.84000
C  -4.02300 18.90800 30.97700
C  -1.35300 16.26800 31.42700
C  -1.07300 16.95600 32.77400
H  -0.92000 16.04300 34.02500
N  -1.99300 19.36400 25.71100
C  -2.20100 20.15200 26.82100
C  -2.29100 21.51400 26.29800
C  -2.04000 21.52200 24.92200
C  -1.93600 20.06000 24.56600
C  -2.56800 22.68300 27.14600
C  -1.89000 22.63200 23.91400
O  -1.73200 22.41100 22.74600
C  -1.83900 24.07500 24.36700
N  -2.03000 17.09900 23.61400
C  -2.00700 18.18600 22.78800
C  -1.99500 17.77800 21.33400
C  -2.25600 16.20100 21.43400
C  -2.32300 15.95700 22.93400
C  -2.86700 18.58100 20.43400
C  -1.22300 15.28200 20.70200
C  -1.93500 14.28300 19.77400
N  -2.23600 15.28100 25.87400
C  -2.43300 14.36100 24.87600
C  -2.59900 13.11800 25.49700
C  -2.47200 13.24100 26.87500
C  -2.43200 14.65200 27.08000
C  -3.11600 11.89200 24.73000
C  -2.61200 12.54500 28.14600
O  -2.91200 11.41600 28.37900
C  -2.49500 13.64300 29.16600
C  -1.23800 13.29900 29.90700
O  -0.12200 13.79100 29.63100
O  -1.48800 12.38000 30.86000
C  -0.46700 12.33500 31.91100
H  -2.40100 20.65600 28.85300
H  -1.77800 20.12200 22.32700
H  -2.66900 14.01900 22.72800
H  -3.46200 16.33900 30.90400
H  -1.88100 18.76300 30.97200
H  -4.91600 18.30000 30.83200
H  -4.33100 19.84100 30.50500
H  -3.82400 19.18800 32.01100
H  -0.45500 16.19200 30.81400
H  -1.51600 15.25400 31.79400
H  -1.88900 17.62600 33.04400
H  -0.10200 17.42900 32.62900
H  -2.96000 22.47800 28.14200
H  -3.35900 23.14600 26.55500
H  -1.67000 23.29300 27.24400
H  -2.81700 24.39300 24.72700
H  -1.62000 24.77400 23.56000
H  -1.11600 24.18000 25.17500
H  -0.99200 17.97000 20.95300
H  -3.29400 15.91100 21.26600
H  -3.66400 19.04100 21.01900
H  -3.29700 17.94700 19.65900
H  -2.24200 19.35400 19.98700
H  -0.59400 14.84300 21.47600
H  -0.49000 15.85200 20.12900
H  -1.24600 13.62900 19.23900
H  -2.55000 14.89900 19.11800
H  -2.67100 13.69900 20.32700
H  -4.19000 11.74900 24.61100
H  -2.79800 11.03300 25.32000
H  -2.53100 11.85900 23.81000
H  -3.33200 13.52700 29.85500
H  0.20500 11.47700 31.92200
H  -0.90000 12.24600 32.90700
H  0.16100 13.21800 32.02700
Mg 36.14300 50.06500 24.48800
C  36.59100 48.26200 27.59500
C  34.98500 52.71400 26.36000
C  35.57100 51.54100 21.70000
C  37.39200 47.17700 22.86200
N  35.80600 50.40900 26.84800
C  36.07300 49.54700 27.84200
C  35.75300 50.24000 29.20000
C  35.03400 51.52500 28.75000
C  35.32200 51.60400 27.22100
C  33.55000 51.48600 28.98300
C  37.04900 50.42900 30.02400
C  36.98700 50.42300 31.58900
H  35.60700 50.52900 32.26400
N  35.48300 51.90400 24.09100
C  35.09200 52.87000 24.98600
C  34.66300 53.99300 24.23100
C  34.64600 53.66700 22.82000
C  35.18500 52.28700 22.80700
C  34.29300 55.29600 24.94700
C  34.11700 54.44200 21.63100
O  34.08100 53.96400 20.50700
C  33.54300 55.80200 21.86600
N  36.17800 49.32800 22.56400
C  36.05300 50.24200 21.59100
C  36.56400 49.68600 20.21800
C  37.07500 48.25600 20.61300
C  36.87200 48.19900 22.13700
C  35.43300 49.51700 19.17600
C  38.57300 47.95800 20.08200
C  39.72000 48.64500 20.69000
N  36.75900 48.14700 25.01900
C  37.29200 47.10200 24.27800
C  37.57500 46.00200 25.12700
C  37.37900 46.40300 26.41400
C  36.85900 47.74200 26.34100
C  38.16400 44.71800 24.67700
C  37.46300 45.90800 27.77800
O  37.75600 44.83600 28.27600
C  36.89600 47.08300 28.60200
C  35.70100 46.65200 29.25600
O  34.57900 46.60100 28.76900
O  36.04900 46.32300 30.50200
C  35.22300 45.38600 31.34300
H  34.58700 53.55000 26.93900
H  35.44100 52.00300 20.72000
H  37.92700 46.38100 22.33800
H  35.08200 49.60600 29.77800
H  35.52000 52.38300 29.21500
H  33.25200 52.32300 29.61400
H  33.27100 50.69600 29.68100
H  32.96000 51.33200 28.07900
H  37.50200 51.36100 29.68600
H  37.72400 49.60000 29.81300
H  37.66500 51.16500 32.01000
H  37.46800 49.54700 32.02400
H  34.71300 55.37800 25.95000
H  33.21200 55.42700 24.91600
H  34.65500 56.09600 24.30200
H  32.93400 56.27200 21.09400
H  34.33900 56.53700 21.97900
H  32.88200 55.79600 22.73300
H  37.42600 50.27900 19.91200
H  36.33200 47.54200 20.25700
H  34.43600 49.47400 19.61300
H  35.57100 48.65000 18.53100
H  35.57000 50.37100 18.51200
H  38.54900 48.33200 19.05900
H  38.73400 46.88000 20.11700
H  40.04600 49.53300 20.14800
H  40.58200 47.98900 20.57300
H  39.58000 48.99200 21.71400
H  37.42600 44.10800 24.15600
H  38.66600 44.21500 25.50300
H  38.98600 44.86000 23.97500
H  37.65900 47.42400 29.30100
H  34.42100 45.87600 31.89400
H  35.74700 44.95800 32.19800
H  34.76800 44.53600 30.83500

