158

Mg 26.05100 0.23900 29.53500
C  28.08900 -0.24100 32.32700
C  23.39300 0.89000 31.52500
C  24.16200 0.31300 26.77000
C  28.84000 -0.77500 27.57300
N  25.84700 0.32400 31.78200
C  26.77000 0.00900 32.73900
C  26.12100 0.11200 34.09900
C  24.62300 0.35200 33.78900
C  24.60100 0.67400 32.27800
C  23.62300 -0.66400 34.32700
C  26.82600 1.20700 34.99100
C  26.00100 1.70700 36.26800
H  26.78400 2.06600 37.52700
N  24.04600 0.63800 29.13400
C  23.07800 0.91500 30.13200
C  21.85600 1.25100 29.44100
C  22.05600 1.15000 28.06300
C  23.46900 0.67300 27.91500
C  20.62300 1.58200 30.21400
C  21.17000 1.49700 26.91100
O  21.43200 1.19700 25.71400
C  19.85900 2.09200 27.23800
N  26.40400 -0.46100 27.42800
C  25.42300 -0.19500 26.48900
C  26.03000 -0.39300 25.07400
C  27.56300 -0.66200 25.31700
C  27.62000 -0.58200 26.82600
C  25.31200 -1.48500 24.25700
C  28.50200 0.38100 24.56400
C  29.74600 -0.18300 23.89400
N  28.03500 -0.30800 29.82300
C  29.02900 -0.70900 28.96900
C  30.32500 -0.83700 29.63500
C  29.94800 -0.74200 30.97600
C  28.62100 -0.36900 31.01100
C  31.64700 -1.06000 29.05100
C  30.45200 -0.85400 32.29800
O  31.55000 -1.05300 32.81300
C  29.26300 -0.45000 33.28800
C  28.97600 -1.57600 34.29500
O  28.26100 -2.54500 34.12200
O  29.61400 -1.32800 35.43100
C  29.58300 -2.46800 36.31700
H  22.59600 0.87200 32.27100
H  23.49300 0.29100 25.90700
H  29.70600 -1.12400 27.00700
H  26.17100 -0.88300 34.54100
H  24.21700 1.25400 34.24700
H  24.12100 -1.23600 35.11000
H  23.49200 -1.32200 33.46800
H  22.66100 -0.30100 34.69000
H  27.10300 1.97400 34.26700
H  27.73900 0.75000 35.37200
H  25.13400 1.08400 36.48800
H  25.57500 2.65700 35.94500
H  19.88200 0.83100 29.94100
H  20.20600 2.53600 29.89000
H  20.69800 1.50600 31.29900
H  19.30900 1.18400 27.48700
H  19.46900 2.60600 26.35900
H  19.95200 2.92800 27.93200
H  25.84500 0.57700 24.61100
H  27.87600 -1.67600 25.06700
H  24.65600 -2.04200 24.92600
H  26.07100 -2.11600 23.79500
H  24.75500 -1.11500 23.39600
H  28.72600 1.05600 25.39000
H  28.03800 0.97300 23.77500
H  30.52600 0.34100 24.44600
H  29.70600 0.04300 22.82800
H  29.84900 -1.25600 24.05400
H  31.82100 -2.12100 28.87200
H  32.39800 -0.56400 29.66400
H  31.64300 -0.45000 28.14800
H  29.57200 0.48500 33.75500
H  30.43100 -2.20500 36.94900
H  29.82100 -3.45300 35.91600
H  28.66000 -2.39800 36.89200
Mg 35.00400 48.04700 26.54100
C  35.40000 46.25200 29.47600
C  33.99900 50.78100 28.41400
C  34.22200 49.51000 23.53600
C  35.78600 45.04600 24.71100
N  34.69000 48.41400 28.63700
C  35.05300 47.56500 29.68500
C  34.79700 48.21600 31.04500
C  33.99400 49.47200 30.62700
C  34.24400 49.58400 29.16600
C  32.41200 49.22200 30.90200
C  36.18800 48.57700 31.67600
C  36.35700 48.24600 33.17100
H  36.22200 49.39400 34.11900
N  34.28100 49.92600 26.03700
C  33.98800 50.91400 26.96500
C  33.86200 52.10900 26.11500
C  33.78200 51.78000 24.70800
C  34.07800 50.33800 24.68000
C  33.67500 53.47400 26.71600
C  33.58900 52.67900 23.48500
O  33.62000 52.21700 22.34200
C  33.32200 54.26000 23.72000
N  34.91100 47.33100 24.41600
C  34.56000 48.19600 23.39800
C  34.82200 47.57200 22.00200
C  35.41800 46.12800 22.35700
C  35.34100 46.14200 23.90900
C  33.56500 47.48700 21.04400
C  36.80300 45.91000 21.76600
C  36.74000 45.07600 20.38900
N  35.45400 46.03700 26.93300
C  35.71300 44.92200 26.11500
C  36.04800 43.77700 26.95600
C  35.92300 44.25100 28.26000
C  35.53500 45.60300 28.22500
C  36.45200 42.43300 26.61500
C  35.93200 43.88700 29.64200
O  36.07900 42.86600 30.22900
C  35.71900 45.18400 30.44400
C  34.56500 44.95300 31.37200
O  33.38300 44.96600 31.13600
O  35.12300 44.90700 32.63800
C  34.19200 44.85700 33.75800
H  33.62000 51.65100 28.95500
H  34.12400 49.86900 22.50900
H  36.07800 44.20700 24.07600
H  34.23900 47.46600 31.60600
H  34.26000 50.41200 31.11000
H  31.75600 49.30100 30.03500
H  32.38100 50.06200 31.59600
H  32.21200 48.32200 31.48200
H  36.41700 49.63500 31.55200
H  36.97400 48.06100 31.12500
H  37.36300 47.89000 33.39500
H  35.73700 47.43700 33.55600
H  32.72000 53.93500 26.46400
H  34.43900 54.18200 26.39500
H  33.80100 53.46200 27.79900
H  33.22700 54.74400 22.74800
H  34.23200 54.68900 24.13800
H  32.44000 54.40200 24.34500
H  35.55600 48.17900 21.47100
H  34.69800 45.35600 22.08700
H  33.77300 47.84900 20.03700
H  32.77200 48.01600 21.57300
H  33.28100 46.43700 20.96400
H  37.51000 45.33600 22.36500
H  37.29300 46.87500 21.63600
H  37.41300 45.44500 19.61500
H  35.72800 45.22200 20.01200
H  37.00100 44.05000 20.64900
H  37.48100 42.32400 26.95900
H  36.49400 42.36800 25.52800
H  35.79600 41.71200 27.10300
H  36.65900 45.34000 30.97200
H  34.62400 44.22500 34.53400
H  33.25600 44.40900 33.42600
H  33.95400 45.84600 34.15000

