158

Mg 48.16000 15.11000 28.32900
C  46.08400 15.26000 31.34500
C  50.30500 17.28200 29.80100
C  49.91400 15.09100 25.50300
C  45.51800 13.48800 26.86900
N  48.09200 16.07500 30.38700
C  47.29500 16.00400 31.44000
C  47.88900 16.65200 32.67700
C  49.19100 17.50900 32.12400
C  49.19300 16.89300 30.63000
C  49.05400 19.05500 32.16600
C  48.33200 15.60800 33.70900
C  47.85100 15.90600 35.19900
H  47.74100 17.25200 35.82600
N  50.00300 15.99200 27.73700
C  50.75300 16.83700 28.49400
C  52.03800 17.14900 27.73300
C  51.92200 16.42700 26.49000
C  50.56500 15.79200 26.52500
C  53.09000 18.04000 28.27300
C  52.95300 16.43700 25.35900
O  52.69100 15.84500 24.32100
C  54.21800 17.19900 25.44400
N  47.72400 14.56100 26.37700
C  48.64100 14.60700 25.37200
C  48.15600 13.92400 24.06600
C  46.78400 13.33100 24.54100
C  46.67100 13.78000 26.06800
C  48.09700 14.76800 22.77200
C  46.56800 11.82900 24.24800
C  47.02800 10.84600 25.33500
N  46.18000 14.42200 28.91300
C  45.27400 13.80400 28.18800
C  44.12200 13.37700 28.95000
C  44.36800 14.00000 30.23900
C  45.58000 14.65700 30.13700
C  43.05600 12.47500 28.51200
C  43.94200 14.09500 31.55600
O  42.95600 13.55000 32.12200
C  45.00200 14.95100 32.34000
C  44.30000 16.15000 32.99400
O  43.35900 16.82700 32.49400
O  44.75900 16.34700 34.24000
C  43.98500 17.24700 35.18900
H  51.07900 17.82300 30.34900
H  50.48100 15.06900 24.57000
H  44.75400 12.82700 26.45300
H  47.05700 17.24600 33.05500
H  50.05600 17.25600 32.73700
H  49.32000 19.45400 31.18700
H  49.61500 19.38700 33.03900
H  48.02600 19.34900 32.37900
H  49.40600 15.42100 33.72400
H  47.88400 14.67400 33.37000
H  48.36400 15.23100 35.88300
H  46.82000 15.56500 35.29100
H  52.57100 18.55400 29.08200
H  53.41200 18.84300 27.60900
H  53.94900 17.46800 28.62300
H  53.94600 18.25300 25.38400
H  54.81300 16.92300 24.57400
H  54.72100 17.07800 26.40400
H  48.73100 13.02900 23.82800
H  45.95400 13.91400 24.14200
H  48.65200 15.69800 22.90000
H  47.13200 15.13200 22.42000
H  48.69800 14.20100 22.06100
H  46.88400 11.54600 23.24400
H  45.50500 11.61500 24.36300
H  46.19100 10.71400 26.02000
H  47.88800 11.16800 25.92300
H  47.32800 9.90800 24.86600
H  43.35500 11.42700 28.48300
H  42.79300 12.67400 27.47300
H  42.11200 12.56400 29.05000
H  45.51200 14.37900 33.11400
H  43.03600 16.80200 35.48600
H  43.88800 18.26700 34.81800
H  44.53600 17.28100 36.12900
Mg 35.96000 48.61400 25.72600
C  36.35000 46.89200 28.75600
C  34.51600 51.09500 27.55900
C  35.46200 50.24500 22.91600
C  36.81400 45.80100 23.99700
N  35.50000 48.99100 28.00200
C  35.88100 48.21800 29.01300
C  35.49800 48.78000 30.40200
C  34.69600 50.09000 29.96200
C  34.88500 50.10500 28.45600
C  33.17700 50.18300 30.35600
C  36.75400 49.05400 31.29900
C  36.65500 48.81000 32.79000
H  35.31000 49.02700 33.39400
N  35.15200 50.42200 25.31700
C  34.68600 51.33600 26.22500
C  34.45500 52.57200 25.55600
C  34.68900 52.34100 24.13900
C  35.13500 50.97500 24.08600
C  34.04400 53.87400 26.24400
C  34.43300 53.33200 22.97000
O  34.53900 52.93100 21.86400
C  33.99600 54.73700 23.18100
N  35.97600 48.03800 23.69000
C  35.83300 48.92200 22.67600
C  36.23600 48.29700 21.32600
C  36.87300 46.90900 21.77700
C  36.51900 46.93500 23.25000
C  35.08900 48.11700 20.28400
C  38.33700 46.75900 21.39800
C  39.40400 47.69400 21.92900
N  36.48100 46.73900 26.23600
C  36.82000 45.69300 25.38600
C  37.27600 44.59700 26.21400
C  37.00700 44.95200 27.52900
C  36.59400 46.30800 27.46200
C  37.92700 43.25100 25.83200
C  37.09300 44.55800 28.85900
O  37.43400 43.54800 29.37700
C  36.62100 45.82800 29.73600
C  35.37900 45.52500 30.47600
O  34.31400 45.19900 29.94200
O  35.61200 45.53400 31.87200
C  34.41000 45.11900 32.68200
H  34.18000 51.93600 28.16800
H  35.46200 50.73700 21.94100
H  37.13400 44.94000 23.40500
H  34.80700 48.17400 30.98800
H  35.20000 50.89000 30.50400
H  32.51900 49.74700 29.60500
H  33.01500 51.25600 30.46400
H  33.03800 49.70600 31.32600
H  37.15500 50.05700 31.15000
H  37.45800 48.31700 30.91400
H  37.45400 49.32100 33.32700
H  36.92000 47.75600 32.86800
H  34.93800 54.49700 26.23900
H  33.75500 53.75600 27.28800
H  33.22100 54.40500 25.76400
H  32.92000 54.71300 23.35700
H  34.21300 55.14600 22.19400
H  34.48700 55.34800 23.93800
H  36.99900 48.98700 20.96400
H  36.35300 46.06100 21.33300
H  34.16000 48.26100 20.83400
H  34.96400 47.11000 19.88700
H  35.03200 48.81200 19.44600
H  38.47000 47.01600 20.34700
H  38.69600 45.74000 21.54300
H  39.98000 47.13200 22.66500
H  38.98500 48.63800 22.27500
H  40.02900 48.01400 21.09500
H  38.40900 42.87800 26.73500
H  38.67200 43.58800 25.11100
H  37.23600 42.53000 25.39400
H  37.29800 46.04200 30.56300
H  34.42800 45.51300 33.69800
H  34.35500 44.03900 32.82100
H  33.44900 45.40200 32.25200

