158

Mg 47.78700 15.58100 28.77800
C  45.77000 15.52300 31.65300
C  50.03700 17.44100 30.49600
C  49.54300 15.93700 25.93900
C  45.18900 14.02400 27.04600
N  47.78200 16.52500 30.82300
C  46.93500 16.20800 31.87700
C  47.58300 16.70200 33.23600
C  48.83000 17.50900 32.82200
C  48.91800 17.14200 31.27800
C  48.82500 19.09400 33.18900
C  47.94100 15.52100 34.30600
C  48.06700 15.84600 35.79000
H  47.73000 17.23800 36.23100
N  49.57900 16.50500 28.25900
C  50.35300 17.22900 29.12200
C  51.61100 17.49900 28.48500
C  51.59000 17.05300 27.17300
C  50.19800 16.46400 27.05500
C  52.64000 18.25700 29.29500
C  52.69500 17.00700 26.03900
O  52.57500 16.34300 25.00000
C  53.95700 17.71000 26.30700
N  47.50400 15.01600 26.77200
C  48.28700 15.35200 25.74600
C  47.74300 14.96400 24.33900
C  46.35900 14.32200 24.72800
C  46.32600 14.42600 26.29400
C  47.62700 16.22700 23.35300
C  46.13400 12.80200 24.37800
C  45.31300 12.50300 23.17500
N  45.85800 14.88000 29.20100
C  44.98600 14.23700 28.42100
C  43.79700 13.96200 29.18300
C  44.04600 14.33400 30.49800
C  45.31500 14.96400 30.44200
C  42.62500 13.22600 28.60300
C  43.62200 14.31700 31.94000
O  42.58900 13.81500 32.44100
C  44.71400 15.12400 32.73400
C  44.00500 16.23600 33.39800
O  43.71700 17.26700 32.87200
O  43.61200 15.83000 34.61900
C  42.85400 16.84700 35.34000
H  50.72600 18.11900 31.00400
H  50.07300 16.21900 25.02700
H  44.33300 13.65500 26.47700
H  46.87300 17.42300 33.64100
H  49.71500 17.08300 33.29500
H  49.62500 19.51100 33.80100
H  47.94200 19.33500 33.78000
H  48.86200 19.55800 32.20400
H  48.82000 15.02100 33.90000
H  47.19300 14.74600 34.13800
H  49.06200 15.44000 35.97600
H  47.26000 15.25400 36.22200
H  53.00500 17.66200 30.13300
H  52.14600 19.16600 29.63800
H  53.54600 18.51200 28.74500
H  53.88200 18.79600 26.36800
H  54.62200 17.47400 25.47600
H  54.41300 17.26300 27.19000
H  48.46100 14.27500 23.89500
H  45.53900 14.84900 24.24000
H  48.50500 16.37400 22.72300
H  47.53600 17.19200 23.85000
H  46.66300 16.18800 22.84600
H  45.81200 12.21200 25.23600
H  47.11400 12.41100 24.10400
H  45.76500 11.89700 22.39100
H  44.95800 13.43400 22.73200
H  44.44600 11.96900 23.56500
H  42.47700 13.20100 27.52400
H  41.66300 13.53800 29.01100
H  42.81400 12.19300 28.89400
H  45.10700 14.35000 33.39300
H  42.07400 17.26500 34.70300
H  43.57100 17.63300 35.57700
H  42.38100 16.29200 36.15100
Mg 26.33000 50.01200 26.77200
C  24.04100 51.12900 29.21400
C  28.45200 49.23800 29.21800
C  28.31800 48.74600 24.34000
C  24.21500 51.31300 24.27200
N  26.13700 50.02300 28.95700
C  25.11900 50.38300 29.75100
C  25.42300 50.13900 31.21300
C  27.00300 49.89800 31.23200
C  27.25900 49.67700 29.67300
C  27.96800 51.04200 31.85500
C  24.57800 49.01900 31.87700
C  24.12200 49.16200 33.35700
H  24.99500 49.94200 34.42400
N  28.16700 49.09600 26.77000
C  28.92800 48.89600 27.90200
C  30.13000 48.07900 27.56500
C  30.06400 47.90100 26.16000
C  28.85200 48.65400 25.61100
C  31.17800 47.66300 28.63200
C  30.92200 47.02300 25.25400
O  30.80000 46.98800 24.05500
C  31.93500 46.10400 25.89500
N  26.40900 50.19700 24.63800
C  27.23200 49.44700 23.87000
C  26.83000 49.38900 22.34900
C  25.41900 50.03400 22.35200
C  25.36000 50.63400 23.83000
C  27.95300 50.01200 21.40400
C  24.24100 49.14600 21.94800
C  23.25700 49.75400 20.91700
N  24.64900 51.11500 26.70100
C  23.82300 51.55500 25.63800
C  22.65900 52.17300 26.19500
C  22.73900 52.01900 27.57800
C  23.90000 51.30800 27.81900
C  21.58000 52.72600 25.41700
C  21.92700 52.36200 28.81100
O  20.83000 52.87400 28.91500
C  22.82800 51.68900 29.92700
C  23.23600 52.66200 30.89900
O  23.97600 53.64600 30.76500
O  22.60500 52.42100 32.16500
C  23.07400 53.21400 33.26400
H  29.01100 48.88800 30.08800
H  28.73100 48.04200 23.61500
H  23.48400 51.60100 23.51400
H  25.17400 51.04100 31.77300
H  27.25900 48.90600 31.60200
H  28.68300 51.33800 31.08800
H  28.51800 50.52400 32.64100
H  27.46100 51.90900 32.27900
H  25.14400 48.09400 31.76400
H  23.65000 48.84100 31.33300
H  24.04600 48.23200 33.92100
H  23.21600 49.76400 33.42500
H  31.07100 48.30100 29.50900
H  32.14600 47.62300 28.13300
H  30.93300 46.64200 28.92600
H  32.86500 46.64100 26.08600
H  32.22100 45.30800 25.20700
H  31.40000 45.77300 26.78500
H  26.79900 48.31900 22.14300
H  25.51500 50.88300 21.67500
H  28.91900 50.02500 21.90900
H  27.64500 51.03500 21.18700
H  28.02000 49.45900 20.46700
H  23.71200 48.82000 22.84400
H  24.71300 48.26100 21.52100
H  22.21600 49.66700 21.22800
H  23.28100 49.32200 19.91600
H  23.43300 50.82500 20.81400
H  20.70300 52.84700 26.05300
H  21.27800 52.16700 24.53200
H  21.85100 53.75900 25.19700
H  22.28200 50.86200 30.38100
H  24.15900 53.32000 33.26300
H  22.68600 52.90800 34.23600
H  22.80500 54.25500 33.08200

