158

Mg -11.38100 37.69700 42.31700
C  -9.15700 35.05000 41.45000
C  -9.27700 39.92700 40.86400
C  -13.98000 39.99500 42.05700
C  -13.71300 35.14600 43.02500
N  -9.62500 37.43500 41.21000
C  -8.87000 36.29500 40.92800
C  -7.68000 36.53600 40.06600
C  -7.53000 38.09600 40.18400
C  -8.89300 38.55100 40.81600
C  -6.25000 38.52600 40.96500
C  -7.93900 36.08500 38.59900
C  -6.85600 35.17400 38.02400
H  -6.13300 35.68500 36.72500
N  -11.47500 39.86400 41.90100
C  -10.51900 40.54800 41.24400
C  -10.92700 41.90800 41.27800
C  -12.34200 41.87600 41.38500
C  -12.69800 40.55500 41.81500
C  -10.00700 43.02900 40.94500
C  -13.25700 43.02400 41.09600
O  -12.77000 44.14200 40.93200
C  -14.66000 42.93700 41.07300
N  -13.45600 37.60600 42.59600
C  -14.29600 38.72600 42.58700
C  -15.66600 38.33500 43.15600
C  -15.64700 36.80100 43.41600
C  -14.17600 36.48000 43.01000
C  -16.28400 39.14500 44.33300
C  -16.69600 35.95600 42.61200
C  -17.35200 34.82100 43.37400
N  -11.43600 35.50600 42.33300
C  -12.41800 34.68400 42.67400
C  -11.95100 33.34000 42.75900
C  -10.62500 33.40800 42.28400
C  -10.38900 34.76400 41.99600
C  -12.70100 32.16600 43.39600
C  -9.39100 32.69200 41.97100
O  -9.16300 31.49000 42.11300
C  -8.40900 33.72800 41.38900
C  -7.24300 33.77200 42.32600
O  -6.07500 33.80300 42.02700
O  -7.69800 33.90000 43.62500
C  -6.74200 34.09600 44.69800
H  -8.53800 40.65100 40.51600
H  -14.92600 40.53100 41.95700
H  -14.43900 34.36500 43.26100
H  -6.81200 36.02400 40.48100
H  -7.42600 38.56000 39.20300
H  -5.40300 37.87000 40.76000
H  -6.38300 38.55300 42.04600
H  -5.88600 39.50100 40.64200
H  -8.01700 36.98000 37.98200
H  -8.94000 35.65500 38.60200
H  -7.23400 34.23000 37.63100
H  -5.98200 35.05800 38.66500
H  -10.33100 43.61400 40.08400
H  -8.98300 42.70000 40.76800
H  -9.82200 43.76000 41.73200
H  -15.07300 43.89200 40.74900
H  -14.84400 42.80000 42.13800
H  -15.01000 42.06700 40.51700
H  -16.39200 38.55200 42.37200
H  -15.63400 36.65300 44.49600
H  -16.97200 38.50800 44.88900
H  -16.96500 39.88600 43.91600
H  -15.55400 39.57700 45.01700
H  -16.17700 35.58800 41.72700
H  -17.52800 36.60400 42.33500
H  -18.43800 34.90800 43.39200
H  -16.99700 34.86700 44.40400
H  -17.08000 33.87000 42.91600
H  -12.95300 31.37700 42.68700
H  -13.59700 32.54400 43.88700
H  -12.02800 31.63800 44.07200
H  -7.96900 33.45800 40.42900
H  -7.01200 34.89200 45.39300
H  -5.77400 34.40600 44.30500
H  -6.72000 33.12000 45.18200
Mg -11.97400 16.21700 42.20900
C  -8.97300 14.66700 41.65600
C  -10.75200 19.08400 40.72500
C  -15.18600 17.36700 41.76000
C  -13.32500 13.19300 43.20500
N  -10.12800 16.77500 41.17300
C  -9.00400 15.98400 41.10500
C  -7.82700 16.67100 40.32500
C  -8.36800 18.13000 40.25900
C  -9.83600 17.99000 40.74700
C  -7.63100 19.22900 41.15200
C  -7.60900 15.92300 38.97200
C  -6.15400 15.73800 38.66800
H  -5.60300 16.36600 37.35200
N  -12.79900 18.03100 41.56900
C  -12.04200 19.08500 41.11100
C  -12.87100 20.22400 40.98800
C  -14.26500 19.83700 41.19400
C  -14.16700 18.35300 41.54000
C  -12.34200 21.61600 40.76000
C  -15.50400 20.68300 41.12400
O  -15.42400 21.86300 40.91100
C  -16.86200 20.08700 41.28400
N  -13.92500 15.33300 42.19900
C  -15.08300 16.00700 42.07000
C  -16.35000 15.19400 42.44200
C  -15.78600 13.96100 43.12100
C  -14.25000 14.14900 42.85400
C  -17.44900 15.92600 43.28900
C  -16.50900 12.64700 42.69200
C  -17.29500 11.79700 43.73200
N  -11.27800 14.26300 42.49000
C  -11.92500 13.12700 42.88100
C  -10.92700 12.11700 43.10400
C  -9.76400 12.65600 42.61400
C  -10.01100 13.97300 42.23400
C  -11.05600 10.75200 43.76200
C  -8.41600 12.34800 42.30400
O  -7.82800 11.28200 42.34900
C  -7.84900 13.61500 41.66600
C  -6.77800 14.15400 42.44200
O  -6.85600 14.45500 43.62700
O  -5.65100 14.33300 41.73500
C  -4.53700 14.98900 42.48600
H  -10.25900 19.96500 40.30900
H  -16.19200 17.75000 41.94400
H  -13.76900 12.37500 43.77800
H  -7.01500 16.71500 41.05100
H  -8.37900 18.36000 39.19300
H  -8.37300 19.66500 41.82100
H  -7.10700 19.89200 40.46300
H  -6.91200 18.83400 41.87000
H  -8.07000 16.44300 38.13200
H  -8.09500 14.95200 39.07500
H  -5.85800 14.68900 38.66900
H  -5.48900 16.06200 39.47000
H  -13.18000 22.27800 40.54000
H  -11.62400 21.61500 39.94000
H  -11.94900 22.11700 41.64500
H  -17.63800 20.71000 40.84000
H  -16.92200 19.93500 42.36200
H  -16.98300 19.18800 40.68000
H  -16.79400 15.00300 41.46500
H  -15.86600 14.11300 44.19700
H  -18.15800 16.36300 42.58700
H  -16.96400 16.63900 43.95700
H  -17.96700 15.20700 43.92400
H  -15.86100 11.94100 42.17400
H  -17.23400 12.91400 41.92400
H  -17.56300 12.36900 44.62100
H  -16.70600 10.97700 44.14300
H  -18.25900 11.40000 43.41400
H  -11.39100 10.00800 43.04000
H  -11.86800 10.73500 44.48900
H  -10.12800 10.41700 44.22500
H  -7.48500 13.27900 40.69500
H  -4.49300 14.68700 43.53300
H  -4.80100 16.04600 42.46500
H  -3.61700 14.68400 41.98600

