158

Mg 3.03800 -1.55100 44.33100
C  6.56800 -1.50700 44.09600
C  2.91100 1.16600 42.53400
C  -0.24500 -2.29700 43.66000
C  3.41800 -4.84500 45.55300
N  4.60900 -0.38400 43.30600
C  5.96300 -0.49700 43.34200
C  6.70200 0.53900 42.52400
C  5.48100 1.48800 42.16400
C  4.19600 0.74100 42.77200
C  5.51400 2.99800 42.62700
C  7.58900 -0.04200 41.32200
C  8.91100 0.63600 40.95700
H  8.99200 1.03300 39.47900
N  1.49100 -0.58000 43.31700
C  1.66900 0.56400 42.70500
C  0.41500 1.03100 42.15500
C  -0.53300 -0.01300 42.39800
C  0.18500 -1.02100 43.12900
C  0.24600 2.29600 41.34800
C  -2.02700 -0.04800 41.89100
O  -2.53300 0.91000 41.39600
C  -2.89300 -1.27400 42.07800
N  1.77800 -3.32100 44.57800
C  0.46800 -3.33500 44.25800
C  -0.23300 -4.70300 44.64300
C  1.03200 -5.54000 45.22800
C  2.13500 -4.46200 45.15100
C  -1.45900 -4.54300 45.63900
C  1.31300 -6.92700 44.46200
C  1.00000 -8.20400 45.22300
N  4.61300 -2.87500 44.97900
C  4.60000 -4.15800 45.30800
C  5.92600 -4.68100 45.55400
C  6.70200 -3.57600 45.27000
C  5.91500 -2.55800 44.73000
C  6.26600 -6.05500 46.09700
C  8.08200 -3.13600 45.29900
O  9.01400 -3.73100 45.70300
C  8.07500 -1.78200 44.43800
C  8.57200 -0.77600 45.41500
O  8.35100 -0.71400 46.58800
O  9.31700 0.12300 44.72600
C  9.54600 1.42900 45.30300
H  2.90400 2.09400 41.95800
H  -1.27600 -2.63300 43.52600
H  3.51000 -5.88600 45.86800
H  7.43600 1.01900 43.17000
H  5.29600 1.53600 41.09100
H  5.51700 3.57500 41.70300
H  6.38700 3.36000 43.17000
H  4.59000 3.22800 43.15700
H  6.92500 0.06300 40.46300
H  7.73200 -1.10800 41.49700
H  9.63200 -0.16800 41.10800
H  9.21800 1.51400 41.52600
H  0.59100 3.18200 41.88200
H  -0.80600 2.32200 41.06300
H  0.82900 2.18400 40.43400
H  -3.95500 -1.20400 41.84300
H  -2.85000 -1.48400 43.14700
H  -2.44200 -2.12000 41.56100
H  -0.53900 -5.09100 43.67100
H  0.83400 -5.77100 46.27500
H  -1.55100 -3.52600 46.02100
H  -1.40000 -5.22700 46.48500
H  -2.35800 -4.78700 45.07400
H  2.33500 -7.10400 44.12600
H  0.78700 -7.03400 43.51400
H  0.08900 -8.62700 44.79900
H  0.82600 -7.96300 46.27200
H  1.83500 -8.90300 45.18700
H  6.57900 -6.64300 45.23400
H  5.38800 -6.49200 46.57400
H  7.02000 -5.94000 46.87600
H  8.58100 -1.85600 43.47500
H  9.15800 2.14300 44.57700
H  10.56700 1.71400 45.55600
H  8.91200 1.57700 46.17700
Mg -10.36800 38.75600 40.50900
C  -8.23200 36.09300 39.57300
C  -7.95600 40.92700 39.14900
C  -12.57300 41.13800 40.48100
C  -12.83100 36.39200 41.38300
N  -8.37700 38.48600 39.24700
C  -7.73700 37.33100 39.04100
C  -6.35200 37.58200 38.38300
C  -6.14900 39.13300 38.66200
C  -7.58300 39.59000 39.00300
C  -5.16300 39.60000 39.72800
C  -6.42800 37.22500 36.90100
C  -5.71200 35.93100 36.39800
H  -6.37400 35.38200 35.18100
N  -10.26800 40.79500 40.14000
C  -9.20100 41.52000 39.59800
C  -9.44900 42.91100 39.67700
C  -10.76900 43.07700 40.22500
C  -11.26900 41.65800 40.30900
C  -8.58900 43.99400 39.17900
C  -11.53500 44.40900 40.56200
O  -11.04700 45.52800 40.43000
C  -12.82900 44.25700 41.30000
N  -12.41500 38.72500 40.62400
C  -13.11500 39.90000 40.63600
C  -14.63800 39.59200 40.73300
C  -14.75800 38.03900 40.94200
C  -13.22000 37.70600 41.02300
C  -15.40100 40.43300 41.78900
C  -15.47600 37.25600 39.86000
C  -16.55500 36.33000 40.32700
N  -10.52600 36.68000 40.54800
C  -11.54000 35.89100 41.00000
C  -11.08000 34.52100 41.08100
C  -9.76100 34.57000 40.50300
C  -9.49400 35.90800 40.21400
C  -11.81900 33.35400 41.75800
C  -8.57300 33.77700 40.16800
O  -8.45700 32.58200 40.18800
C  -7.51300 34.74300 39.68900
C  -6.32800 34.76400 40.59200
O  -5.89300 35.76400 41.24800
O  -5.79600 33.47900 40.71000
C  -4.97500 33.09000 41.91400
H  -7.13700 41.62700 38.97000
H  -13.31600 41.93600 40.42100
H  -13.54600 35.65400 41.75300
H  -5.69900 36.94300 38.97700
H  -5.83900 39.57800 37.71700
H  -5.83000 39.88600 40.54100
H  -4.58500 40.44000 39.34300
H  -4.54700 38.83400 40.20000
H  -6.00500 38.04200 36.31700
H  -7.48000 37.23300 36.61600
H  -5.56200 35.19400 37.18700
H  -4.69500 36.24800 36.16500
H  -8.32400 44.66100 39.99900
H  -9.22100 44.50900 38.45600
H  -7.76600 43.54500 38.62200
H  -13.59400 44.03300 40.55600
H  -13.04100 45.23300 41.73700
H  -12.77000 43.58600 42.15600
H  -14.98400 39.79600 39.72000
H  -15.15400 37.79700 41.92800
H  -14.77700 41.14600 42.32800
H  -15.86100 39.92100 42.63500
H  -16.23900 40.92800 41.29800
H  -14.76800 36.51400 39.49200
H  -15.89400 37.90200 39.08800
H  -17.48100 36.88600 40.18300
H  -16.45200 36.06600 41.38000
H  -16.59200 35.47700 39.65000
H  -11.25900 32.43700 41.57200
H  -12.84900 33.14800 41.46700
H  -11.70000 33.53700 42.82600
H  -7.25900 34.35900 38.70000
H  -3.90700 33.17500 41.71200
H  -5.19800 32.06300 42.20200
H  -5.25200 33.74300 42.74200

