158

Mg 24.63700 0.92400 30.21200
C  26.42500 0.98500 33.25400
C  21.77100 1.16200 32.04000
C  22.91900 0.91200 27.38100
C  27.58400 0.54600 28.57400
N  24.24000 1.11000 32.40200
C  25.06000 1.10200 33.47200
C  24.28900 1.40000 34.78100
C  22.81700 1.10200 34.33900
C  22.94000 1.13200 32.81500
C  22.22500 -0.24000 34.90600
C  24.64400 2.78900 35.41000
C  25.40200 2.86700 36.71900
H  24.78200 3.67900 37.81800
N  22.63200 0.93400 29.77300
C  21.57100 0.99300 30.65400
C  20.32000 1.03000 29.94500
C  20.60300 0.84900 28.55200
C  22.12700 0.94800 28.51500
C  18.96300 1.18000 30.67000
C  19.67400 0.60200 27.39300
O  20.16700 0.35800 26.28300
C  18.13000 0.52000 27.59600
N  25.13200 0.74700 28.27000
C  24.34100 0.82700 27.22600
C  25.09200 1.18200 25.95500
C  26.56800 0.90500 26.36500
C  26.45000 0.69000 27.83500
C  24.63700 0.37800 24.72200
C  27.51500 2.15100 25.99600
C  27.43800 3.42800 26.88100
N  26.63000 0.74700 30.70400
C  27.72900 0.45600 29.94600
C  28.91200 0.27900 30.77700
C  28.44100 0.62500 32.06900
C  27.03600 0.74900 32.00700
C  30.37700 0.05400 30.32300
C  28.80900 0.85500 33.40700
O  29.95100 0.83700 33.94300
C  27.53300 1.13500 34.25500
C  27.64500 0.04600 35.27300
O  27.07700 -1.03400 35.26700
O  28.45300 0.49900 36.33500
C  28.41000 -0.48600 37.49400
H  20.85400 1.40200 32.58200
H  22.45300 1.00600 26.39800
H  28.56100 0.51600 28.08700
H  24.63400 0.57700 35.40700
H  22.10300 1.87100 34.63100
H  21.39000 -0.03800 35.57700
H  22.91000 -0.86000 35.48500
H  21.75700 -0.81900 34.11100
H  23.72500 3.36900 35.49700
H  25.25100 3.32500 34.68100
H  26.41500 3.25700 36.62400
H  25.67900 1.86400 37.04300
H  19.08400 0.91700 31.72100
H  18.07900 0.76100 30.19000
H  18.78800 2.25500 30.71800
H  17.61900 0.34800 26.64900
H  17.91100 1.54400 27.89900
H  17.90900 -0.18800 28.39500
H  24.99300 2.26000 25.83100
H  26.86000 0.05200 25.75300
H  24.36900 -0.62500 25.05200
H  25.42200 0.22900 23.98100
H  23.80500 0.90400 24.25400
H  27.06200 2.41600 25.04000
H  28.53500 1.79100 25.86000
H  28.42100 3.73500 27.23700
H  26.73600 3.44800 27.71500
H  27.19800 4.23600 26.18900
H  30.44800 0.59900 29.38200
H  30.64500 -1.00100 30.27100
H  30.96700 0.49000 31.12900
H  27.56800 2.08100 34.79400
H  29.26200 -0.23400 38.12500
H  28.51100 -1.49100 37.08500
H  27.52400 -0.20300 38.06200
Mg 45.34600 4.96900 48.16000
C  43.10300 7.53300 47.38900
C  42.67400 2.77000 47.99600
C  47.45700 2.54400 48.34400
C  47.92900 7.18500 47.39900
N  43.19300 5.18800 47.78500
C  42.50400 6.30600 47.47800
C  41.04400 6.05200 47.24000
C  40.83700 4.59000 47.66000
C  42.35900 4.09900 47.82200
C  39.96200 4.46700 48.88700
C  40.67900 6.35800 45.77200
C  39.47800 7.34300 45.67800
H  38.75700 7.30900 44.32500
N  45.13200 2.90300 48.25500
C  43.97300 2.19400 48.18300
C  44.29600 0.77500 48.39200
C  45.64500 0.65500 48.51800
C  46.16300 2.04900 48.33700
C  43.15000 -0.32400 48.57800
C  46.53700 -0.61900 48.81200
O  45.99900 -1.72800 48.89400
C  48.04900 -0.58700 48.71000
N  47.37300 4.94800 47.83500
C  48.00800 3.81500 48.23000
C  49.54900 3.94000 48.09000
C  49.68500 5.44100 47.86200
C  48.25000 5.91100 47.76800
C  50.47500 3.47200 49.34400
C  50.52300 5.69800 46.60200
C  49.81800 5.41100 45.21700
N  45.52600 7.00900 47.61500
C  46.66400 7.74800 47.42100
C  46.30700 9.11100 47.17600
C  44.87400 9.11600 47.17200
C  44.49000 7.82500 47.40700
C  47.30500 10.23300 46.82800
C  43.66400 9.94400 47.03500
O  43.49300 11.10900 46.74800
C  42.46200 8.88600 47.12000
C  41.60700 9.39200 48.17900
O  41.72800 9.20400 49.33700
O  40.72900 10.27300 47.59500
C  39.84800 10.91600 48.60400
H  41.87600 2.03000 47.90400
H  48.29100 1.86300 48.52800
H  48.65000 7.96600 47.15000
H  40.62900 6.77600 47.94200
H  40.29400 4.05000 46.88400
H  39.14600 3.74600 48.85500
H  39.47000 5.39900 49.16600
H  40.53700 4.20500 49.77500
H  40.22600 5.48400 45.30500
H  41.51200 6.61200 45.11600
H  39.91200 8.34300 45.68700
H  38.74700 7.16500 46.46600
H  43.27300 -1.16900 47.90000
H  42.16600 0.13700 48.49100
H  43.17900 -0.75200 49.58000
H  48.50200 -0.09000 47.85100
H  48.39200 -1.60000 48.92400
H  48.42100 -0.06900 49.59400
H  49.77700 3.29900 47.23800
H  50.08800 5.95900 48.73200
H  49.90900 3.21800 50.24100
H  51.19900 4.25800 49.56200
H  50.96800 2.57800 48.96300
H  51.38400 5.03100 46.63600
H  50.75500 6.76000 46.51500
H  48.96500 4.73700 45.29900
H  50.57400 4.97200 44.56500
H  49.47400 6.30000 44.68900
H  46.83000 11.20100 46.67200
H  47.75500 9.73500 45.96900
H  48.02000 10.37300 47.63900
H  41.91700 8.91300 46.17600
H  39.64500 10.34300 49.50900
H  38.87300 11.18500 48.20000
H  40.27000 11.86400 48.93800

