158

Mg 49.00300 45.90000 43.59900
C  45.93500 46.49900 42.00800
C  49.23900 43.06300 41.57900
C  52.52000 45.78400 44.09600
C  49.01200 49.23400 44.68100
N  47.62700 44.81400 42.03700
C  46.40800 45.24800 41.59100
C  45.98500 44.26600 40.46500
C  46.87200 43.05000 40.70800
C  48.03900 43.64900 41.41500
C  46.24600 41.87900 41.53300
C  46.19300 44.89600 39.04600
C  44.96900 44.90200 38.14000
H  44.95600 44.24000 36.74800
N  50.58200 44.55300 43.01600
C  50.45500 43.45700 42.28200
C  51.70100 42.80200 42.11000
C  52.69100 43.54200 42.74500
C  51.97900 44.67200 43.38700
C  51.83800 41.43800 41.46100
C  54.15900 43.24500 42.73000
O  54.52900 42.21000 42.11100
C  55.16500 44.14300 43.35500
N  50.57400 47.27600 44.25300
C  51.81800 46.94200 44.53400
C  52.58700 48.11000 45.14200
C  51.42800 49.15200 45.40500
C  50.21800 48.55400 44.66400
C  53.52600 47.85200 46.32900
C  51.83000 50.60800 44.87400
C  51.13900 51.80900 45.54800
N  47.74100 47.41000 43.53100
C  47.82900 48.68800 44.13200
C  46.58100 49.40600 43.89200
C  45.82300 48.59700 42.99600
C  46.57600 47.36400 42.84900
C  46.25200 50.79900 44.41700
C  44.60600 48.49300 42.21800
O  43.70400 49.25400 42.12100
C  44.75600 47.19900 41.43300
C  43.46900 46.37200 41.70600
O  43.23400 45.75700 42.74000
O  42.58400 46.38200 40.58500
C  41.39200 45.45500 40.74500
H  49.38900 42.10300 41.08000
H  53.59200 45.78900 44.30300
H  49.05900 50.21400 45.16100
H  44.91800 44.09600 40.60900
H  47.11700 42.63500 39.73000
H  45.22200 42.07900 41.84800
H  46.79900 41.78300 42.46700
H  46.07400 40.94800 40.99400
H  46.89200 44.27400 38.48600
H  46.51100 45.92200 39.23100
H  44.81600 45.96600 37.96100
H  44.06000 44.59700 38.65900
H  51.91700 41.65800 40.39600
H  50.94700 40.81200 41.50300
H  52.69100 40.89000 41.86000
H  55.07300 44.14100 44.44100
H  54.91500 45.14500 43.00400
H  56.18400 43.78500 43.21100
H  53.17500 48.42200 44.27900
H  51.30700 49.35300 46.46900
H  53.19200 48.36600 47.23100
H  54.55800 48.16000 46.16000
H  53.48100 46.78000 46.52000
H  51.63200 50.62800 43.80200
H  52.90500 50.72000 45.01100
H  50.63200 52.31100 44.72400
H  51.85200 52.35900 46.16200
H  50.36400 51.42600 46.21100
H  46.18200 51.53000 43.61100
H  47.03500 51.26300 45.01500
H  45.20400 50.81300 44.71700
H  44.82700 47.45700 40.37600
H  40.82700 45.92800 41.54800
H  41.67900 44.44300 41.03000
H  40.90400 45.53100 39.77300
Mg 36.13500 49.37400 26.22100
C  36.07200 47.65300 29.45300
C  35.04200 52.11200 27.92700
C  36.11700 50.75100 23.48300
C  36.88600 46.27600 24.83000
N  35.56300 49.82000 28.50700
C  35.60000 48.99900 29.57700
C  35.21900 49.76200 30.88200
C  34.87300 51.22700 30.28100
C  35.11700 51.04900 28.82600
C  33.45000 51.76000 30.52400
C  36.29300 49.74200 31.99700
C  35.89300 49.34200 33.43400
H  35.79800 50.50400 34.49200
N  35.53000 51.16400 25.69200
C  35.19400 52.18700 26.53400
C  35.06500 53.39800 25.78600
C  35.32800 53.04000 24.39900
C  35.66600 51.61900 24.47400
C  34.84500 54.77400 26.35000
C  35.40700 53.95200 23.18900
O  35.75000 53.52400 22.07900
C  34.92000 55.26700 23.25800
N  36.43800 48.60100 24.43600
C  36.38700 49.35000 23.43000
C  36.45300 48.66100 22.08100
C  36.71600 47.21600 22.52000
C  36.69100 47.36700 24.03700
C  35.18100 48.90800 21.28300
C  37.97600 46.58700 21.91100
C  37.68900 46.26000 20.35300
N  36.44500 47.34600 26.97100
C  36.80500 46.18100 26.21200
C  36.98900 45.01400 27.14600
C  36.83700 45.59500 28.44000
C  36.50500 46.99600 28.27900
C  37.35200 43.58500 26.75800
C  36.86400 45.27500 29.78900
O  37.08200 44.19900 30.40600
C  36.40200 46.60500 30.53100
C  35.21700 46.34200 31.34200
O  34.12500 45.94000 30.90600
O  35.54800 46.32000 32.67400
C  34.48000 45.79000 33.54100
H  34.60400 53.02500 28.33600
H  35.95100 51.21600 22.50900
H  36.98300 45.27400 24.40600
H  34.28900 49.28700 31.19500
H  35.59500 51.98400 30.58800
H  32.91500 51.27900 31.34300
H  32.82600 51.53900 29.65800
H  33.49100 52.81500 30.79500
H  36.61100 50.77600 32.13100
H  37.13800 49.08700 31.78700
H  36.74200 48.77300 33.81200
H  34.97300 48.75700 33.42900
H  34.11700 55.29400 25.72800
H  35.81400 55.27300 26.32100
H  34.51800 54.77700 27.39000
H  34.99600 55.72800 22.27300
H  35.56100 55.80800 23.95500
H  33.85500 55.31800 23.48300
H  37.22200 49.07100 21.42600
H  35.81600 46.61800 22.37800
H  34.42200 49.23000 21.99600
H  34.88500 47.95100 20.85400
H  35.28800 49.65900 20.50000
H  38.24000 45.66000 22.42100
H  38.76500 47.33500 21.83900
H  38.49800 46.84500 19.91500
H  36.72900 46.69900 20.08300
H  37.76500 45.20600 20.08500
H  37.71300 43.54000 25.73100
H  36.46200 42.99800 26.98500
H  38.16600 43.19300 27.36700
H  37.26500 46.95300 31.09800
H  34.08600 46.62900 34.11500
H  35.04800 45.20200 34.26200
H  33.59300 45.26100 33.19300

