158

Mg 26.01900 0.15100 29.48900
C  27.65500 -0.15500 32.54200
C  23.07100 0.48400 31.43200
C  24.08100 -0.04600 26.67300
C  28.85500 -0.58100 27.81100
N  25.47200 0.31400 31.71000
C  26.32400 0.12600 32.77800
C  25.64200 0.50700 34.14600
C  24.11600 0.59000 33.79000
C  24.18300 0.55000 32.22200
C  23.12500 -0.42000 34.39500
C  26.25200 1.78800 34.73200
C  27.03400 1.63500 36.14100
H  26.54600 2.60700 37.24800
N  23.83500 0.33400 29.09200
C  22.85400 0.51000 30.03300
C  21.54900 0.55000 29.29700
C  21.81600 0.47000 27.85200
C  23.25300 0.24300 27.79700
C  20.24100 0.68000 30.02200
C  20.89600 0.58900 26.64700
O  21.33000 0.38100 25.53700
C  19.50400 1.02300 26.84800
N  26.37300 -0.22000 27.56800
C  25.50600 -0.20100 26.53100
C  26.22900 -0.11100 25.20100
C  27.75900 -0.26800 25.66400
C  27.71100 -0.25200 27.13800
C  25.74600 -1.14300 24.11500
C  28.68600 0.77500 25.01200
C  29.50800 0.24400 23.96800
N  27.93600 -0.26000 30.01600
C  29.02600 -0.63100 29.22500
C  30.18100 -0.75400 30.09600
C  29.64900 -0.55100 31.39600
C  28.30200 -0.27200 31.28800
C  31.64500 -1.18300 29.67800
C  29.99600 -0.52400 32.84300
O  31.04800 -0.62300 33.46500
C  28.71900 -0.23500 33.64200
C  28.62400 -1.45200 34.62400
O  28.34100 -2.57600 34.29900
O  28.94400 -1.03900 35.88100
C  29.47400 -2.02700 36.86300
H  22.17700 0.70000 32.02000
H  23.62700 -0.13800 25.68500
H  29.80100 -0.77400 27.30100
H  25.83500 -0.24400 34.91100
H  23.71900 1.56800 34.06000
H  22.35000 0.01200 35.02800
H  23.75600 -1.13000 34.92900
H  22.67800 -1.12200 33.69100
H  25.43800 2.50100 34.86300
H  26.92700 2.27900 34.03100
H  28.11300 1.76400 36.06000
H  26.96200 0.58900 36.43800
H  20.32100 0.29000 31.03700
H  19.46000 0.12600 29.50100
H  19.98100 1.73300 30.13500
H  19.10500 1.45700 25.93200
H  19.46700 1.76100 27.64900
H  18.95600 0.11600 27.10200
H  26.14400 0.95100 24.96800
H  27.95500 -1.30500 25.39000
H  26.44600 -1.96600 23.97100
H  25.52900 -0.75800 23.11800
H  24.75700 -1.44400 24.46000
H  29.27500 1.28300 25.77500
H  28.03500 1.49600 24.51900
H  29.49300 0.72600 22.99100
H  29.29700 -0.77700 23.65100
H  30.54200 0.24300 24.31400
H  32.33200 -0.50600 30.18600
H  31.79800 -0.91300 28.63300
H  31.82500 -2.23800 29.88100
H  28.80200 0.74100 34.11800
H  29.05000 -1.83300 37.84800
H  30.54700 -1.93100 37.02900
H  29.21000 -3.03100 36.53300
Mg 9.74200 48.57400 26.26900
C  7.50700 48.43200 29.04900
C  12.24100 49.43200 28.41700
C  11.72700 48.56000 23.64300
C  6.92600 47.76700 24.21800
N  9.75100 49.13300 28.45600
C  8.81200 48.81600 29.37500
C  9.38600 48.94400 30.79300
C  10.72100 49.73100 30.55900
C  10.92200 49.44300 29.01700
C  10.60800 51.26700 30.82700
C  9.47700 47.53800 31.59800
C  10.63700 47.29300 32.59400
H  10.35000 46.36500 33.76700
N  11.74100 49.02200 26.06200
C  12.60500 49.33200 27.02900
C  13.86400 49.29200 26.53800
C  13.80500 48.99200 25.11900
C  12.43900 48.90600 24.85000
C  15.14700 49.61000 27.29800
C  14.94900 48.81500 23.94300
O  14.71500 48.58300 22.78200
C  16.30400 48.58400 24.54000
N  9.29500 48.40600 24.18500
C  10.36000 48.33300 23.28800
C  9.83100 48.04400 21.89600
C  8.37500 47.66000 22.15300
C  8.13300 48.04700 23.56900
C  10.14900 49.22200 20.89900
C  8.16800 46.15400 21.96500
C  6.93400 45.78900 21.04600
N  7.58000 48.24900 26.49400
C  6.59100 47.89900 25.59000
C  5.37600 47.60000 26.29000
C  5.63200 47.75300 27.63800
C  7.02100 48.20700 27.68300
C  4.05500 47.16000 25.64700
C  5.11100 47.81700 28.97900
O  3.95900 47.65100 29.37200
C  6.27400 48.09400 29.92600
C  6.42900 46.81100 30.74100
O  6.85800 45.74100 30.24700
O  5.91000 46.94500 31.98100
C  6.08400 45.87500 32.92900
H  13.05900 49.65000 29.10700
H  12.28300 48.45000 22.71000
H  6.06300 47.48500 23.61000
H  8.56500 49.52100 31.21900
H  11.64400 49.33500 30.98300
H  11.05400 51.86000 30.02800
H  11.12500 51.57200 31.73700
H  9.58200 51.46300 31.13600
H  9.20100 46.75700 30.88900
H  8.63400 47.68200 32.27300
H  10.94300 48.22800 33.06300
H  11.53900 46.99700 32.05800
H  15.04200 49.97600 28.32000
H  15.75000 50.35000 26.77200
H  15.68700 48.66600 27.36900
H  16.64700 49.54200 24.93200
H  17.04200 48.36600 23.76800
H  16.27800 47.78200 25.27700
H  10.41500 47.21300 21.50000
H  7.61600 48.12200 21.52100
H  10.68400 48.81800 20.03900
H  10.70100 49.94400 21.50000
H  9.26600 49.63500 20.41000
H  8.01400 45.59000 22.88500
H  9.08200 45.73000 21.54800
H  7.18900 45.65300 19.99500
H  6.10300 46.49200 21.10600
H  6.53900 44.81800 21.34400
H  4.27300 46.55000 24.77000
H  3.47700 48.03100 25.33900
H  3.39000 46.60000 26.30500
H  6.07300 48.99800 30.50100
H  5.05800 45.57900 33.14600
H  6.60500 46.24200 33.81300
H  6.55200 44.96300 32.55900

