158

Mg 40.86700 8.57000 29.98800
C  42.49000 9.87100 32.85300
C  38.28100 7.45100 32.02500
C  39.20000 7.72600 27.27100
C  43.49000 9.81400 28.02400
N  40.47600 8.58700 32.20300
C  41.23300 9.24000 33.09900
C  40.65300 9.08400 34.54700
C  39.23500 8.33800 34.29300
C  39.28300 8.12800 32.75300
C  39.09800 6.91000 34.96400
C  40.58000 10.44600 35.28200
C  39.75200 10.60900 36.54800
H  40.48000 11.66200 37.55600
N  39.14300 7.52300 29.66900
C  38.19500 7.13400 30.63900
C  37.12500 6.43100 29.96800
C  37.27800 6.62900 28.54600
C  38.52900 7.34100 28.45200
C  35.93500 5.90700 30.75000
C  36.43900 6.22400 27.39300
O  36.70600 6.50700 26.25200
C  35.30300 5.33900 27.56300
N  41.28100 8.84500 27.99200
C  40.39900 8.36200 27.03200
C  40.87600 8.68500 25.62800
C  42.23100 9.41400 25.79200
C  42.36200 9.30700 27.36000
C  40.93900 7.48000 24.64600
C  42.23300 10.87100 25.25200
C  43.26400 11.13500 24.27900
N  42.64600 9.57600 30.39300
C  43.64300 10.03000 29.43100
C  44.65700 10.64000 30.11800
C  44.26800 10.65600 31.50400
C  43.00200 10.03000 31.63700
C  45.97600 11.05900 29.52000
C  44.71400 11.00100 32.89300
O  45.76100 11.40700 33.31000
C  43.48300 10.57700 33.78300
C  44.05000 9.63800 34.72000
O  44.10200 8.41600 34.61600
O  44.53200 10.34300 35.80600
C  45.25400 9.52000 36.75400
H  37.41800 7.16100 32.62900
H  38.83400 7.49200 26.26900
H  44.34700 10.17000 27.44800
H  41.31400 8.44400 35.13100
H  38.44600 9.06100 34.50400
H  38.11600 6.59200 35.31400
H  39.89200 6.85500 35.70800
H  39.26200 6.11300 34.23900
H  40.17700 11.16300 34.56700
H  41.56900 10.79500 35.58200
H  39.76700 9.64000 37.04700
H  38.74600 10.89500 36.23900
H  34.98300 6.24800 30.34400
H  36.04100 6.15700 31.80500
H  35.89500 4.81700 30.75600
H  35.64000 4.54900 28.23300
H  35.08300 5.11100 26.52000
H  34.44300 5.90000 27.93000
H  40.08200 9.35500 25.29800
H  42.96900 8.75300 25.33800
H  40.77000 6.53100 25.15400
H  41.90700 7.33400 24.16700
H  40.37300 7.62900 23.72700
H  42.40900 11.48400 26.13600
H  41.23000 10.98400 24.83900
H  44.05100 10.38800 24.17500
H  43.85900 11.95200 24.68800
H  42.86000 11.46100 23.32000
H  46.53000 11.35100 30.41300
H  45.82900 11.94000 28.89600
H  46.39000 10.16600 29.05300
H  43.07200 11.45800 34.27600
H  45.81700 10.18000 37.41300
H  46.07700 9.08200 36.18800
H  44.73900 8.78900 37.37800
Mg 0.05400 43.58100 26.20500
C  2.68200 43.30400 28.64700
C  -2.19900 43.26000 28.88600
C  -2.32600 43.32800 23.96600
C  2.52600 43.88500 23.77400
N  0.26800 43.37700 28.49600
C  1.42300 43.32500 29.23100
C  1.07900 43.19400 30.67700
C  -0.44900 42.90800 30.72100
C  -0.86300 43.28600 29.32600
C  -0.77900 41.50600 31.06600
C  1.55700 44.59000 31.34800
C  1.82800 44.59200 32.80100
H  1.24400 43.52000 33.66200
N  -1.93100 43.30600 26.40300
C  -2.67800 43.34300 27.54300
C  -4.10600 43.35300 27.20600
C  -4.11800 43.27200 25.76500
C  -2.73500 43.27800 25.32300
C  -5.18300 43.26300 28.25200
C  -5.29700 43.17500 24.79800
O  -5.26600 43.08000 23.55100
C  -6.69400 43.20000 25.37000
N  0.17300 43.13100 24.15000
C  -1.01900 43.36900 23.48800
C  -0.66600 43.56200 21.98500
C  0.78100 44.10000 21.99500
C  1.24700 43.61700 23.37400
C  -0.87900 42.18300 21.27500
C  0.92600 45.63800 21.84000
C  1.88200 46.10600 20.71000
N  2.15900 43.50000 26.13500
C  3.03400 43.70900 25.08800
C  4.38900 43.66800 25.61300
C  4.30900 43.49800 26.99300
C  2.92900 43.37200 27.24400
C  5.58200 43.97400 24.69100
C  5.13100 43.42900 28.16200
O  6.32100 43.41000 28.36600
C  4.04300 43.25800 29.31100
C  4.23100 42.02900 30.16300
O  4.03300 40.85200 29.87800
O  4.61800 42.50900 31.38700
C  4.89000 41.50900 32.39300
H  -2.97600 43.17600 29.64800
H  -3.04600 43.49200 23.16200
H  3.26500 44.17000 23.02200
H  1.64100 42.43700 31.22400
H  -0.87600 43.54400 31.49600
H  0.06700 41.01900 31.55200
H  -1.01300 40.89800 30.19200
H  -1.62400 41.37700 31.74200
H  0.76600 45.30400 31.11800
H  2.40000 45.09900 30.88000
H  1.52900 45.55300 33.21900
H  2.91100 44.62800 32.92300
H  -4.72400 42.67900 29.05000
H  -6.06800 42.83300 27.78300
H  -5.50000 44.23500 28.62800
H  -6.76300 44.14500 25.91100
H  -6.76900 42.27800 25.94700
H  -7.41400 43.06200 24.56300
H  -1.24500 44.31700 21.45200
H  1.21900 43.65700 21.10100
H  -0.02000 41.62300 20.90400
H  -1.48900 42.22500 20.37200
H  -1.38400 41.52700 21.98300
H  1.32400 46.03300 22.77500
H  -0.05900 46.06700 21.65400
H  1.50500 46.97300 20.16600
H  2.07400 45.39800 19.90300
H  2.75400 46.63500 21.09400
H  5.29400 43.62600 23.69900
H  6.49000 43.51900 25.08800
H  5.83400 45.03400 24.67200
H  4.17300 44.11800 29.96800
H  4.87700 42.03000 33.35000
H  5.78200 40.88800 32.30900
H  4.04900 40.82200 32.49100

