158

Mg 47.14600 35.19100 28.51700
C  45.40100 33.37400 31.19600
C  47.46200 37.82300 30.68000
C  48.17800 36.92300 25.92300
C  46.82800 32.31700 26.51800
N  46.57100 35.47500 30.69200
C  45.97800 34.64000 31.55100
C  46.04100 35.20800 32.97700
C  46.17700 36.73600 32.69400
C  46.79000 36.71300 31.23600
C  44.94100 37.55500 32.96000
C  47.25300 34.62300 33.76900
C  47.06800 34.34700 35.35000
H  46.23800 35.35600 36.19000
N  47.83900 37.06800 28.28600
C  47.97500 38.01700 29.34900
C  48.57300 39.22300 28.81400
C  48.82400 39.03500 27.44800
C  48.33100 37.57800 27.13500
C  48.48400 40.50800 29.58000
C  49.35400 40.02200 26.47200
O  49.38200 39.74900 25.27100
C  49.83900 41.37400 26.85600
N  47.34300 34.71700 26.46100
C  47.85800 35.61600 25.65400
C  48.14900 34.99200 24.28000
C  47.73300 33.49200 24.39600
C  47.40100 33.41900 25.94700
C  47.48700 35.62100 23.02000
C  48.85000 32.46200 24.00400
C  48.27000 31.21800 23.20700
N  46.32200 33.21500 28.77800
C  46.25400 32.16600 27.83700
C  45.49000 31.06500 28.41700
C  45.08900 31.53700 29.64100
C  45.64400 32.79200 29.87800
C  45.07700 29.78000 27.83200
C  44.37200 31.14600 30.83700
O  43.81700 30.06900 31.01100
C  44.40700 32.40700 31.84800
C  44.93200 31.84800 33.07500
O  46.11600 31.71000 33.46100
O  43.82100 31.53700 33.79800
C  44.11900 30.81500 35.08200
H  47.42100 38.75100 31.25500
H  48.55700 37.50500 25.08000
H  46.61500 31.49000 25.83700
H  45.10700 34.81900 33.38500
H  46.94200 37.09000 33.38500
H  44.75300 38.14500 32.06300
H  44.96600 38.18800 33.84700
H  44.06300 36.91300 33.02100
H  48.06900 35.34300 33.71200
H  47.66000 33.76400 33.23600
H  47.97900 34.14300 35.91200
H  46.57600 33.39500 35.54900
H  47.84400 41.22300 29.06300
H  49.49500 40.91400 29.53000
H  48.21500 40.60600 30.63100
H  49.05300 42.12400 26.76700
H  50.51600 41.47900 26.00800
H  50.46600 41.40800 27.74800
H  49.22100 35.01800 24.08900
H  46.73700 33.27600 24.00800
H  46.76000 34.93400 22.58600
H  48.28200 35.88500 22.32200
H  46.88200 36.49200 23.27200
H  49.41600 32.09700 24.86100
H  49.54100 32.94800 23.31500
H  47.21300 31.18300 23.47300
H  48.76900 30.30500 23.53100
H  48.26800 31.43200 22.13800
H  45.96700 29.17000 27.67500
H  44.57000 29.94100 26.88100
H  44.47600 29.19100 28.52500
H  43.44000 32.89100 31.98000
H  44.87300 30.02900 35.07500
H  43.22300 30.24600 35.33100
H  44.48300 31.48800 35.85900
Mg 9.04300 47.84300 24.85500
C  6.90200 47.70200 27.76200
C  11.38800 49.11600 26.88700
C  11.01000 47.80100 22.31800
C  6.20200 47.72200 22.90700
N  9.15900 48.36800 27.05400
C  8.20000 48.18600 28.05400
C  8.74400 48.83100 29.37100
C  9.90100 49.67200 28.86900
C  10.22200 49.11500 27.52900
C  9.57800 51.16600 28.76900
C  9.06600 47.79100 30.46200
C  9.17900 48.44200 31.88100
H  8.35100 47.74900 33.06100
N  10.95400 48.29300 24.65600
C  11.81700 48.69500 25.64900
C  13.17000 48.66600 25.16000
C  13.05200 48.14300 23.84300
C  11.62900 48.10700 23.55700
C  14.43600 49.04300 25.96700
C  14.14400 47.65900 22.82100
O  13.91500 47.15600 21.76000
C  15.53500 47.74000 23.20900
N  8.57100 47.97700 22.80100
C  9.63000 47.68200 21.99800
C  9.13000 47.56000 20.51300
C  7.61500 47.93300 20.70300
C  7.39500 47.76300 22.19600
C  9.96000 48.37600 19.42200
C  6.77100 47.06400 19.68200
C  6.44700 47.76900 18.33600
N  6.98900 47.73000 25.13500
C  5.99500 47.65000 24.27900
C  4.72000 47.34400 24.95800
C  5.03700 47.27500 26.32400
C  6.44500 47.57200 26.41700
C  3.35200 47.41700 24.30600
C  4.41000 47.12800 27.65700
O  3.29200 46.89300 28.08900
C  5.67100 47.54500 28.59900
C  5.83300 46.44500 29.55500
O  6.33100 45.39000 29.35100
O  5.11400 46.78600 30.65700
C  4.75900 45.73900 31.59900
H  12.20800 49.60700 27.41600
H  11.70000 47.71700 21.47600
H  5.36800 47.80300 22.20600
H  7.95100 49.50500 29.69400
H  10.77100 49.61000 29.52400
H  9.67600 51.52400 27.74400
H  10.17800 51.71900 29.49200
H  8.59900 51.46700 29.14300
H  9.99900 47.30400 30.18000
H  8.33900 46.98400 30.55700
H  9.05900 49.52400 31.83200
H  10.23900 48.31200 32.10100
H  14.12300 49.44800 26.92900
H  14.97800 49.86500 25.49800
H  15.16300 48.23600 26.05300
H  15.83700 46.84100 23.74700
H  15.84100 48.66700 23.69500
H  16.16700 47.70900 22.32200
H  9.26300 46.48900 20.35600
H  7.52200 49.00500 20.52900
H  10.65800 49.01600 19.96300
H  9.27700 48.94200 18.78800
H  10.60300 47.77800 18.77600
H  5.80800 46.81300 20.12800
H  7.15500 46.08100 19.41200
H  5.37000 47.93900 18.33000
H  6.60900 47.08400 17.50400
H  7.01900 48.69500 18.29400
H  2.57100 47.01500 24.95100
H  3.35000 46.89900 23.34700
H  3.10500 48.47100 24.17500
H  5.46600 48.45400 29.16300
H  5.63800 45.42300 32.16000
H  4.23600 44.88000 31.17800
H  4.05200 46.17200 32.30700

