158

Mg 8.64300 3.85900 28.04900
C  9.77500 2.29600 30.97300
C  6.52000 5.73000 29.98200
C  7.24600 5.01000 25.08400
C  10.44900 1.44400 26.15400
N  8.32100 3.97100 30.22600
C  8.92100 3.31600 31.23000
C  8.30200 3.74300 32.63300
C  7.25900 4.77200 32.22100
C  7.33900 4.82100 30.68700
C  5.75600 4.64500 32.70600
C  9.44400 4.11900 33.69400
C  9.18600 5.17400 34.71300
H  9.58400 4.90300 36.17400
N  7.20200 5.24500 27.61500
C  6.42200 5.89600 28.54100
C  5.56800 6.86100 27.83800
C  5.79200 6.70000 26.47300
C  6.75300 5.59000 26.36100
C  4.50000 7.63100 28.57200
C  5.15100 7.42200 25.27300
O  5.49900 7.16200 24.14900
C  4.16200 8.57700 25.46400
N  8.65600 3.17400 25.95500
C  8.09900 3.93100 24.97800
C  8.67200 3.50300 23.61400
C  9.95200 2.71000 24.01700
C  9.68700 2.39900 25.44700
C  7.61300 2.73800 22.82100
C  11.32300 3.43000 23.91400
C  11.25600 4.96700 23.83300
N  9.91900 2.18100 28.44400
C  10.56100 1.31200 27.57500
C  11.18500 0.24200 28.40400
C  11.03900 0.66600 29.73200
C  10.13800 1.76400 29.68900
C  11.87700 -1.03600 27.91000
C  11.35700 0.35100 31.08600
O  12.08000 -0.58800 31.52200
C  10.53200 1.37600 32.07300
C  9.60000 0.50300 32.81300
O  8.50800 0.15300 32.43600
O  10.16000 0.27700 34.02800
C  9.44400 -0.72000 34.86800
H  6.07600 6.46500 30.65700
H  6.94100 5.47000 24.14200
H  11.20100 0.88700 25.59200
H  7.79000 2.85100 32.99300
H  7.52100 5.74400 32.64000
H  5.64600 5.37900 33.50400
H  5.62600 3.64400 33.11700
H  5.01000 4.85600 31.93900
H  10.37400 4.38500 33.19200
H  9.64500 3.23700 34.30200
H  8.09800 5.17300 34.65200
H  9.55100 6.15000 34.39400
H  4.35600 7.43600 29.63500
H  3.60700 7.27500 28.05800
H  4.74400 8.67900 28.40000
H  3.60300 8.72000 24.54000
H  4.64500 9.54000 25.63100
H  3.47200 8.42900 26.29400
H  8.98700 4.41300 23.10400
H  9.97800 1.77800 23.45200
H  6.75800 2.45900 23.43600
H  8.02900 1.86800 22.31300
H  7.15600 3.49800 22.18700
H  11.74200 3.32500 22.91300
H  12.09800 3.16300 24.63300
H  11.19200 5.37900 22.82600
H  12.09700 5.52000 24.25100
H  10.35500 5.27500 24.36200
H  12.83500 -0.75200 27.47400
H  11.20700 -1.65100 27.30900
H  12.15500 -1.52500 28.84300
H  11.26600 1.91800 32.67000
H  9.30200 -1.70200 34.41500
H  8.44700 -0.36400 35.12500
H  10.07200 -0.80500 35.75500
Mg 47.91200 25.18600 28.56200
C  48.87400 27.69700 30.92600
C  47.01000 23.21200 31.17900
C  47.20100 22.93600 26.39900
C  49.30900 27.23100 25.96700
N  48.08300 25.42200 30.78600
C  48.32300 26.54800 31.52900
C  48.11900 26.25500 33.04200
C  47.78500 24.73200 33.03400
C  47.52600 24.45800 31.60000
C  48.89100 23.84000 33.57500
C  46.87800 27.03600 33.53100
C  47.31300 27.92000 34.79600
H  46.30100 28.06000 35.98400
N  47.20000 23.29900 28.71700
C  46.92000 22.62500 29.86900
C  46.60400 21.23200 29.57400
C  46.45100 21.21200 28.14300
C  46.98200 22.51200 27.71000
C  46.29800 20.22100 30.61400
C  45.88500 20.08800 27.25900
O  45.70100 20.20900 26.02600
C  45.51700 18.75600 27.87900
N  48.23300 25.12900 26.48800
C  47.68700 24.11400 25.80500
C  48.03400 24.27500 24.32400
C  48.46500 25.76500 24.08900
C  48.71700 26.01700 25.59600
C  48.82800 23.15000 23.63600
C  47.40600 26.66800 23.52000
C  47.86600 28.02500 22.98600
N  48.69400 27.14100 28.35300
C  49.23500 27.83500 27.25400
C  49.68300 29.17500 27.66800
C  49.55600 29.17000 29.13300
C  48.94900 27.83400 29.51300
C  50.40000 30.24600 27.00200
C  49.66900 29.93500 30.32600
O  50.15800 31.02700 30.49100
C  49.14400 29.08300 31.48900
C  50.10800 28.91000 32.68300
O  51.12300 28.22500 32.68100
O  49.84600 29.74200 33.69100
C  50.70200 29.75900 34.89400
H  46.72100 22.58500 32.02500
H  46.89000 22.19500 25.66000
H  49.79800 27.87500 25.23400
H  48.96700 26.58900 33.63900
H  46.78900 24.53000 33.42800
H  48.45100 22.88800 33.87200
H  49.42600 24.24900 34.43200
H  49.56900 23.70500 32.73200
H  46.00600 26.42900 33.77200
H  46.57600 27.76900 32.78300
H  47.34700 28.95800 34.46600
H  48.26300 27.65400 35.25900
H  45.22900 20.15700 30.81500
H  46.81500 20.50100 31.53200
H  46.67500 19.24900 30.29400
H  46.33400 18.17900 28.31300
H  44.95300 18.10400 27.21300
H  44.86700 18.82700 28.75100
H  47.10200 24.19100 23.76600
H  49.34800 25.86600 23.45800
H  49.63800 23.61100 23.07100
H  48.30100 22.46200 22.97500
H  49.27500 22.50800 24.39500
H  46.77500 26.81900 24.39600
H  46.87700 26.13000 22.73300
H  48.93800 28.22000 23.02700
H  47.34100 28.81100 23.52900
H  47.76400 27.96000 21.90300
H  49.98400 30.47300 26.02000
H  51.47000 30.11200 26.84900
H  50.27000 31.17300 27.56000
H  48.22700 29.58700 31.79500
H  51.71200 29.61900 34.50700
H  50.43100 29.02200 35.65000
H  50.68800 30.76300 35.31900

