158

Mg 53.69500 23.91800 44.65500
C  51.40200 26.46000 43.54800
C  51.50300 21.58900 43.36400
C  56.15800 21.59000 44.96700
C  55.89800 26.41100 45.64500
N  51.79700 24.07100 43.37700
C  51.01600 25.16700 43.15200
C  49.63700 24.73900 42.54300
C  49.52700 23.28200 43.20100
C  51.01200 22.89800 43.26700
C  48.76900 23.33800 44.62700
C  49.66900 24.70900 41.01200
C  50.92000 25.03100 40.21100
H  50.79900 25.59500 38.81500
N  53.84900 21.85600 44.10900
C  52.83300 21.06200 43.61400
C  53.25500 19.64300 43.47900
C  54.67800 19.64900 43.80200
C  54.99500 21.08500 44.35300
C  52.31900 18.53100 43.03700
C  55.59600 18.47300 43.63200
O  55.21400 17.38900 43.17300
C  57.07700 18.62800 43.86900
N  55.73100 23.92800 45.27300
C  56.50300 22.83300 45.36100
C  58.00400 23.20000 45.67100
C  57.88300 24.78300 45.94100
C  56.38500 25.09900 45.61800
C  58.62500 22.32700 46.73900
C  58.94200 25.65600 45.18200
C  59.63600 26.71100 46.03500
N  53.69600 26.01500 44.74600
C  54.63000 26.86600 45.26200
C  54.12900 28.19000 45.13600
C  52.90700 28.08100 44.54400
C  52.64700 26.69700 44.26200
C  54.59900 29.30500 45.87300
C  51.69000 28.80400 44.17600
O  51.40700 30.00400 44.22600
C  50.63600 27.73800 43.55200
C  50.13900 28.25000 42.28500
O  50.75300 28.55100 41.29100
O  48.78800 28.31500 42.35000
C  48.16300 28.70900 41.08900
H  50.68300 20.93900 43.05000
H  56.94300 20.83700 45.06200
H  56.50500 27.21800 46.06000
H  48.87300 25.42400 42.91100
H  49.06300 22.64700 42.44600
H  47.92400 22.66100 44.75400
H  48.29100 24.30200 44.80200
H  49.60800 23.23300 45.31500
H  48.90700 25.45900 40.80000
H  49.18300 23.83800 40.57300
H  51.54700 24.14000 40.23500
H  51.46900 25.77300 40.79100
H  51.32000 18.93200 42.86500
H  52.37100 17.80000 43.84300
H  52.60500 18.25600 42.02200
H  57.26000 18.67500 44.94200
H  57.51100 19.46900 43.32900
H  57.61900 17.90400 43.26000
H  58.60000 23.02000 44.77600
H  58.14600 24.84800 46.99700
H  58.11600 21.36500 46.78800
H  58.77500 22.82200 47.69900
H  59.63700 22.17800 46.36100
H  58.46400 26.06300 44.29100
H  59.75600 25.04200 44.79700
H  59.21800 26.79600 47.03800
H  59.53000 27.65100 45.49300
H  60.68400 26.41300 46.05700
H  55.35600 29.91300 45.37600
H  54.98600 28.97000 46.83500
H  53.73600 29.94200 46.06500
H  49.87800 27.68500 44.33300
H  48.35000 29.73400 40.77100
H  47.08200 28.61500 41.18900
H  48.42200 28.09300 40.22800
Mg 30.64900 58.91000 39.85100
C  27.69600 56.90900 39.27700
C  32.52100 56.10000 38.81200
C  33.25400 60.85100 39.81500
C  28.49600 61.68400 40.05600
N  30.18800 56.75900 39.14800
C  28.90200 56.21000 39.04400
C  29.03700 54.85400 38.36700
C  30.58800 54.43100 38.69000
C  31.14100 55.83400 38.84200
C  30.80500 53.51700 39.85700
C  28.74600 54.87800 36.83900
C  27.65200 53.96900 36.25300
H  26.58200 54.67100 35.34200
N  32.73400 58.48000 39.44000
C  33.28100 57.27800 39.06500
C  34.67700 57.47200 38.94500
C  34.92800 58.85400 39.29600
C  33.63400 59.52200 39.49600
C  35.68000 56.32600 38.65400
C  36.29200 59.45100 39.46400
O  37.31200 58.81900 39.06900
C  36.51200 60.88800 40.01100
N  30.80200 60.98500 40.04000
C  32.04200 61.51200 40.07300
C  32.02300 63.10300 40.02300
C  30.46500 63.33600 40.22500
C  29.87600 61.94500 40.05700
C  32.90700 63.79800 41.10300
C  29.93300 64.54800 39.41400
C  28.71800 65.34900 40.07400
N  28.55100 59.25800 39.92500
C  27.88700 60.42200 39.99700
C  26.42300 60.16800 40.17400
C  26.32300 58.82300 39.70600
C  27.69400 58.28900 39.62400
C  25.31900 61.10700 40.34000
C  25.41300 57.77900 39.43500
O  24.20100 57.75900 39.44500
C  26.19700 56.51200 39.09800
C  25.75700 55.38000 40.00100
O  25.34400 55.52900 41.15400
O  25.78400 54.17400 39.40500
C  25.30400 53.07100 40.28000
H  33.01200 55.15300 38.58000
H  34.01100 61.62700 39.68800
H  27.87100 62.57900 40.02300
H  28.34100 54.15800 38.83500
H  31.17000 54.00300 37.87500
H  31.16700 54.10900 40.69700
H  31.62000 52.87400 39.52500
H  29.89100 52.93600 39.98400
H  29.59300 54.62200 36.20200
H  28.55700 55.93400 36.64600
H  27.13800 53.51600 37.10100
H  28.12200 53.14500 35.71600
H  35.17000 55.37400 38.50900
H  36.44100 56.20300 39.42500
H  36.06100 56.56300 37.66100
H  35.92800 61.01600 40.92200
H  36.20000 61.50300 39.16700
H  37.55100 61.10100 40.26200
H  32.22800 63.46900 39.01700
H  30.28800 63.72500 41.22800
H  33.75500 64.31200 40.65100
H  33.31000 63.13300 41.86700
H  32.38400 64.57900 41.65700
H  29.72800 64.23200 38.39100
H  30.80900 65.19400 39.35000
H  28.22600 64.63600 40.73500
H  27.87800 65.57000 39.41600
H  29.08600 66.18100 40.67400
H  24.47000 60.69500 40.88500
H  25.13200 61.38200 39.30200
H  25.65400 62.02700 40.82000
H  25.88900 56.24400 38.08700
H  25.44000 52.23100 39.59900
H  24.26200 53.11300 40.59600
H  25.97600 52.94000 41.12800

