158

Mg 24.31300 -8.33700 47.44000
C  26.84700 -6.31600 46.51800
C  22.39100 -7.14500 44.90300
C  22.16900 -11.11400 47.74100
C  26.62100 -10.27800 49.33600
N  24.58500 -6.91200 45.91000
C  25.67200 -6.11400 45.75800
C  25.52300 -5.07600 44.64000
C  24.08300 -5.41100 44.08400
C  23.60800 -6.55000 45.02400
C  23.15300 -4.19100 43.92800
C  26.62800 -5.27300 43.50600
C  27.12800 -3.93900 42.90700
H  26.95700 -3.61800 41.43900
N  22.42500 -8.88200 46.66800
C  21.79200 -8.17100 45.64500
C  20.47800 -8.74900 45.42900
C  20.36600 -9.93500 46.27100
C  21.69900 -9.98400 46.97800
C  19.63600 -8.29200 44.28800
C  19.15500 -10.86800 46.35200
O  18.12300 -10.51500 45.79100
C  19.10100 -11.98100 47.13600
N  24.27800 -10.46500 48.45800
C  23.31000 -11.38700 48.48700
C  23.66100 -12.70900 49.19400
C  25.13600 -12.24400 49.83200
C  25.37300 -10.87200 49.21000
C  22.67400 -13.10700 50.29200
C  26.27700 -13.29900 49.52200
C  27.30900 -13.59600 50.53000
N  26.34100 -8.40900 47.82000
C  27.09500 -9.13400 48.71600
C  28.27000 -8.44300 48.93900
C  28.27100 -7.29400 48.09400
C  27.07400 -7.35200 47.40300
C  29.44100 -8.82400 49.91200
C  28.99300 -6.13100 47.66000
O  30.12100 -5.71200 48.07100
C  28.08700 -5.40600 46.56300
C  27.74700 -4.04900 47.03900
O  27.45100 -3.71000 48.15300
O  27.92700 -3.19400 46.01400
C  27.65000 -1.74900 46.24600
H  21.79300 -6.74300 44.08300
H  21.50200 -11.97800 47.78500
H  27.39400 -10.65200 50.01000
H  25.61400 -4.10100 45.11900
H  24.19400 -5.86500 43.09900
H  22.34100 -4.44000 43.24500
H  23.84200 -3.48300 43.46800
H  22.78000 -3.77900 44.86600
H  26.29000 -5.89100 42.67500
H  27.45600 -5.89300 43.85100
H  28.21000 -4.00400 43.02800
H  26.71600 -3.10300 43.47200
H  18.59100 -8.58200 44.17300
H  20.16100 -8.62600 43.39300
H  19.82800 -7.23000 44.44400
H  19.83700 -12.69800 46.77200
H  18.10600 -12.41500 47.23600
H  19.37400 -11.65700 48.14000
H  23.80500 -13.56700 48.53700
H  24.98300 -12.03400 50.89000
H  22.64200 -14.17400 50.07200
H  21.70800 -12.60400 50.23600
H  23.09400 -13.06000 51.29600
H  26.84100 -13.09900 48.61100
H  25.80300 -14.27300 49.40400
H  27.23800 -14.66900 50.70900
H  27.11100 -13.00200 51.42300
H  28.31100 -13.44100 50.13100
H  29.90200 -9.74800 49.56400
H  29.04400 -9.05800 50.90000
H  30.10500 -7.96400 50.00400
H  28.76900 -5.22400 45.73200
H  26.71500 -1.63400 46.79300
H  27.58800 -1.19900 45.30700
H  28.51400 -1.45500 46.84300
Mg 42.94400 2.80400 47.65200
C  40.61900 5.27500 47.19000
C  40.38900 0.43600 47.47100
C  45.16900 0.44600 46.86600
C  45.48100 5.21200 47.04700
N  40.80000 2.84200 47.32300
C  40.06600 3.99800 47.15200
C  38.58000 3.70000 46.83200
C  38.53100 2.17200 47.11500
C  40.00600 1.77600 47.34300
C  37.52700 1.74900 48.20100
C  38.35900 4.11700 45.35100
C  37.20900 5.12700 45.03700
H  37.43200 6.06800 43.80500
N  42.86400 0.72400 47.42700
C  41.71800 -0.04000 47.41900
C  42.05800 -1.51000 47.20300
C  43.48000 -1.51000 46.94800
C  43.92300 -0.08400 47.13500
C  41.02500 -2.59800 47.20400
C  44.28100 -2.78400 46.68300
O  43.77400 -3.90700 46.57900
C  45.74200 -2.76000 46.46600
N  45.01800 2.78300 47.11400
C  45.75000 1.69400 46.83100
C  47.25700 1.94000 46.57000
C  47.35600 3.50800 46.71400
C  45.84600 3.86100 46.93000
C  48.21200 1.11000 47.47600
C  47.96200 4.20900 45.41400
C  48.86200 5.44800 45.69800
N  43.06600 4.88900 47.29200
C  44.14100 5.71100 47.18900
C  43.69700 7.03400 46.93000
C  42.30300 6.97200 47.03100
C  42.00500 5.57700 47.24000
C  44.58100 8.26000 46.88600
C  41.03600 7.68200 46.95300
O  40.75500 8.84300 46.76500
C  39.92100 6.63100 47.09600
C  39.25400 6.83300 48.45200
O  39.75200 6.48900 49.55200
O  37.93900 7.29600 48.32600
C  37.19500 7.54600 49.58500
H  39.60000 -0.30900 47.35100
H  45.83600 -0.32200 46.46700
H  46.20300 6.02500 46.95000
H  37.90600 4.20700 47.52300
H  38.33600 1.56500 46.23100
H  37.06300 2.63300 48.63700
H  38.06600 1.30100 49.03500
H  36.72300 1.13900 47.78800
H  38.06900 3.18900 44.85900
H  39.31900 4.36000 44.89500
H  37.05600 5.79200 45.88600
H  36.34300 4.50300 44.81700
H  41.33800 -3.33700 46.46700
H  40.04900 -2.25500 46.85900
H  40.97400 -3.20800 48.10600
H  46.10400 -2.19000 45.61000
H  46.17900 -3.75600 46.40000
H  46.13300 -2.26100 47.35300
H  47.40600 1.52400 45.57400
H  48.00400 3.86000 47.51700
H  47.60000 0.80000 48.32400
H  48.91800 1.78300 47.96400
H  48.67500 0.31300 46.89600
H  47.16800 4.65500 44.81400
H  48.52100 3.51800 44.78400
H  49.45900 5.75300 44.83900
H  49.50400 5.33700 46.57200
H  48.26800 6.27000 46.09800
H  45.21300 8.22000 45.99900
H  45.22200 8.36100 47.76200
H  43.97800 9.16800 46.87300
H  39.15300 6.82800 46.34800
H  37.49100 6.88900 50.40300
H  36.13800 7.43500 49.34500
H  37.35100 8.58500 49.87500

