158

Mg 40.46700 9.97200 30.31900
C  42.49400 11.27700 32.83000
C  38.47800 8.58400 32.81500
C  38.93200 8.36600 27.88500
C  42.86600 11.11000 27.93500
N  40.45600 9.95900 32.59300
C  41.33300 10.66500 33.38000
C  40.93000 10.57700 34.89600
C  39.69700 9.57200 34.83600
C  39.53100 9.34200 33.35400
C  39.77200 8.20400 35.64000
C  40.56300 11.96700 35.62200
C  41.33200 12.10700 37.00100
H  40.58300 12.73700 38.15900
N  38.87400 8.73400 30.32500
C  38.10600 8.28300 31.45600
C  37.04500 7.39100 30.98200
C  37.25100 7.27900 29.50100
C  38.40700 8.12400 29.21000
C  36.03900 6.84300 31.94200
C  36.59400 6.45300 28.52200
O  36.81400 6.43100 27.33500
C  35.51800 5.61500 29.04100
N  40.93800 9.68200 28.24100
C  40.13400 8.95200 27.45000
C  40.39100 9.20100 25.97900
C  41.65600 10.12100 26.03800
C  41.89600 10.22800 27.50100
C  40.36500 8.06000 24.88900
C  41.44400 11.55900 25.51600
C  42.63100 12.14500 24.80600
N  42.27900 11.06700 30.30600
C  43.11100 11.36500 29.28000
C  44.21100 12.10200 29.86700
C  43.95900 12.15000 31.24700
C  42.80000 11.44900 31.47500
C  45.33500 12.73900 29.21100
C  44.44800 12.73000 32.52000
O  45.36400 13.52800 32.71100
C  43.47700 12.12200 33.60100
C  44.29200 11.26600 34.42200
O  44.93400 10.32100 34.00700
O  44.14200 11.57500 35.74900
C  44.82300 10.60300 36.61900
H  37.71600 8.17800 33.48300
H  38.41800 7.92200 27.03000
H  43.63600 11.50000 27.26600
H  41.72900 10.06100 35.43000
H  38.81300 10.15400 35.09900
H  38.77900 8.11200 36.08100
H  40.55500 8.37900 36.37900
H  40.01100 7.31200 35.06200
H  39.49200 12.12600 35.73900
H  40.84300 12.69300 34.85800
H  42.16500 12.76200 36.74800
H  41.81700 11.15700 37.23000
H  35.16500 7.48700 32.03000
H  36.45200 6.65500 32.93300
H  35.74900 5.81300 31.73400
H  36.00600 4.80300 29.58100
H  34.89500 5.25900 28.22100
H  34.92300 6.31600 29.62600
H  39.55300 9.85300 25.73300
H  42.50800 9.62500 25.57200
H  40.20000 7.11000 25.39800
H  41.27700 7.98300 24.29700
H  39.56500 8.18200 24.16000
H  41.16800 12.23600 26.32400
H  40.70100 11.53700 24.71900
H  42.82200 13.13500 25.22100
H  42.39900 12.26900 23.74800
H  43.56900 11.59300 24.85600
H  45.11100 12.81400 28.14700
H  46.27100 12.17900 29.23100
H  45.46500 13.73900 29.62500
H  43.01900 12.87200 34.24600
H  45.91100 10.62500 36.55900
H  44.47400 9.57200 36.54700
H  44.59400 10.94500 37.62800
Mg -11.99700 37.68100 42.24900
C  -9.91200 35.02400 41.28200
C  -9.96300 39.97200 40.63500
C  -14.46400 39.97400 42.62700
C  -14.32000 35.25700 43.25000
N  -10.21500 37.45500 41.00700
C  -9.44100 36.31500 40.82600
C  -8.14400 36.57800 40.06000
C  -8.16300 38.17700 39.92200
C  -9.50700 38.62600 40.63700
C  -6.93200 38.99800 40.30500
C  -8.06000 35.79700 38.66700
C  -6.84400 34.95500 38.37200
H  -5.84600 35.52100 37.32900
N  -12.20500 39.70400 41.72200
C  -11.22900 40.49800 41.10600
C  -11.63200 41.86000 41.15800
C  -12.96700 41.91200 41.62900
C  -13.27900 40.49900 41.95500
C  -10.80800 43.04300 40.58800
C  -13.78800 43.19400 41.80500
O  -13.27300 44.23600 41.37500
C  -15.14200 43.14600 42.36400
N  -14.04000 37.59000 42.96700
C  -14.82500 38.67700 43.06300
C  -16.20100 38.37000 43.63200
C  -16.22800 36.83700 43.61600
C  -14.79800 36.51000 43.23500
C  -16.48600 38.98800 45.00200
C  -17.33900 36.33000 42.65900
C  -18.78900 36.43400 43.20800
N  -12.13700 35.54000 42.33100
C  -13.11000 34.75900 42.81300
C  -12.65900 33.36100 42.87500
C  -11.42800 33.40800 42.23500
C  -11.16000 34.77600 41.91000
C  -13.33400 32.09000 43.45500
C  -10.29700 32.63900 41.85700
O  -10.04700 31.46100 41.96700
C  -9.22000 33.72000 41.36100
C  -8.01900 33.67600 42.27000
O  -6.88600 33.29800 41.97900
O  -8.35500 34.01000 43.60800
C  -7.33900 34.08300 44.67000
H  -9.21100 40.70100 40.32500
H  -15.26500 40.70500 42.75500
H  -15.08600 34.50800 43.46100
H  -7.28400 36.39700 40.70500
H  -8.24000 38.38600 38.85500
H  -7.14000 39.82200 40.98900
H  -6.49900 39.45600 39.41600
H  -6.18400 38.29000 40.66100
H  -8.15300 36.42300 37.78000
H  -8.91400 35.12000 38.64800
H  -7.10900 33.91500 38.17900
H  -6.26800 34.95000 39.29800
H  -9.96600 42.64800 40.02100
H  -10.36300 43.75800 41.28000
H  -11.37500 43.61600 39.85400
H  -15.53900 44.14200 42.55900
H  -15.10400 42.79000 43.39300
H  -15.85800 42.60700 41.74300
H  -16.92200 38.79500 42.93400
H  -16.34700 36.46900 44.63500
H  -15.61900 39.53300 45.37400
H  -16.72300 38.25900 45.77700
H  -17.31500 39.68900 44.90500
H  -17.13400 35.31300 42.32500
H  -17.37800 36.86100 41.70800
H  -19.30400 35.47400 43.23900
H  -19.33500 37.26400 42.75900
H  -18.64400 36.56700 44.28000
H  -13.43500 31.33400 42.67700
H  -14.35000 32.31000 43.78200
H  -12.67800 31.71900 44.24300
H  -8.94000 33.44100 40.34500
H  -6.92500 35.08700 44.58600
H  -6.64800 33.24100 44.61500
H  -7.85500 33.89900 45.61200

