158

Mg 8.75100 3.99600 27.85100
C  9.95400 2.92900 30.88600
C  6.98200 6.55500 29.53700
C  6.94500 4.62600 24.99600
C  10.06700 1.16500 26.31100
N  8.41200 4.49700 29.97100
C  9.08700 4.01000 31.05100
C  8.71300 4.62700 32.42300
C  7.70100 5.73900 31.94300
C  7.73300 5.63400 30.37700
C  6.28500 5.67200 32.47100
C  9.94700 5.11900 33.22800
C  10.13800 4.51500 34.69900
H  10.23400 5.44900 35.93900
N  7.21700 5.44900 27.32500
C  6.73000 6.42600 28.13000
C  6.00200 7.29700 27.36200
C  5.81100 6.70600 26.13800
C  6.61700 5.53600 26.11500
C  5.33100 8.46700 27.91100
C  5.06800 7.29600 24.76200
O  4.99300 6.69500 23.67000
C  4.24100 8.60600 24.94300
N  8.41400 2.94800 25.96400
C  7.67900 3.46800 24.91400
C  7.72000 2.55800 23.67400
C  8.83200 1.45700 24.07300
C  9.13400 1.84800 25.53300
C  6.35300 2.04500 23.22900
C  9.98800 1.16700 23.17500
C  10.16100 -0.17400 22.57000
N  9.91100 2.37700 28.41300
C  10.35000 1.34100 27.69100
C  11.08400 0.42300 28.57300
C  10.92600 1.02100 29.80100
C  10.19800 2.19600 29.66600
C  11.68100 -0.91500 28.10800
C  11.25000 0.87200 31.15600
O  11.83400 0.03000 31.81800
C  10.70900 2.06900 31.94100
C  9.81800 1.53100 33.03500
O  8.61800 1.39000 32.99300
O  10.58900 1.36900 34.20700
C  9.89300 1.00300 35.46400
H  6.75400 7.44200 30.13100
H  6.49200 4.64600 24.00300
H  10.57700 0.26300 25.96800
H  8.26500 3.84100 33.03100
H  8.08100 6.70600 32.27400
H  5.73200 5.02900 31.78600
H  5.95800 6.71100 32.51200
H  6.31300 5.22300 33.46400
H  9.81900 6.19100 33.38100
H  10.87000 5.05800 32.65300
H  11.08100 3.98600 34.56000
H  9.30900 3.80800 34.70400
H  5.90900 9.35100 27.64100
H  5.24500 8.47600 28.99800
H  4.35900 8.58600 27.43200
H  3.99800 8.97600 23.94700
H  4.90900 9.33100 25.40800
H  3.30800 8.54600 25.50300
H  8.07300 3.23800 22.89900
H  8.43500 0.46500 24.28800
H  6.27100 0.97000 23.38900
H  6.12400 2.36900 22.21300
H  5.62900 2.43700 23.94300
H  10.86500 1.41500 23.77300
H  10.02400 1.80300 22.29000
H  10.46900 -0.00100 21.53900
H  9.24800 -0.77000 22.59000
H  11.00900 -0.69900 23.01000
H  12.73300 -0.72400 27.89900
H  11.16800 -1.40000 27.27700
H  11.72100 -1.59900 28.95600
H  11.51500 2.66900 32.36400
H  8.98500 0.40900 35.35700
H  9.67200 1.84300 36.12200
H  10.55700 0.41200 36.09600
Mg 41.26500 7.29100 29.36500
C  43.14800 8.46500 32.06800
C  39.04800 5.98400 31.61100
C  39.45100 6.21300 26.77300
C  43.96400 7.97700 27.24800
N  41.11600 7.19700 31.59700
C  41.86400 7.88700 32.46500
C  41.22500 7.97100 33.82700
C  40.22200 6.77200 33.73600
C  40.13900 6.58200 32.24200
C  40.67900 5.42400 34.42400
C  40.68000 9.31200 34.14300
C  40.58700 9.68000 35.59800
H  41.53300 10.72200 36.30200
N  39.52200 6.27100 29.22400
C  38.71500 5.83400 30.21600
C  37.55600 5.18400 29.57700
C  37.54800 5.39100 28.20900
C  38.91600 5.95600 28.02200
C  36.55300 4.42200 30.50200
C  36.49800 5.06700 27.24400
O  36.58800 5.04100 26.04200
C  35.11000 4.85400 27.81400
N  41.71800 6.91600 27.33500
C  40.72100 6.62600 26.48800
C  41.10500 6.79700 24.98400
C  42.49600 7.45800 25.08200
C  42.84400 7.38500 26.66800
C  40.98300 5.55200 24.07400
C  42.58400 8.94600 24.48500
C  42.13600 10.12800 25.42100
N  43.18100 8.12800 29.55800
C  44.15600 8.29900 28.62700
C  45.26000 9.01700 29.21400
C  44.87600 9.14300 30.57900
C  43.63400 8.55300 30.76700
C  46.40100 9.64500 28.51800
C  45.29600 9.74100 31.84200
O  46.27000 10.39400 32.16000
C  44.10300 9.33800 32.80000
C  44.61700 8.66000 34.00300
O  44.44700 7.44400 34.28400
O  45.44200 9.48800 34.78800
C  45.88500 8.82300 36.01600
H  38.28800 5.58000 32.28300
H  38.73100 5.96900 25.98900
H  44.66800 8.19300 26.44200
H  42.05600 7.79700 34.51000
H  39.26400 7.06700 34.16400
H  40.11900 5.16700 35.32300
H  41.75000 5.56000 34.57700
H  40.60400 4.56800 33.75500
H  39.68900 9.45800 33.71400
H  41.30400 9.99300 33.56400
H  40.56500 8.77700 36.20800
H  39.58200 10.09900 35.66200
H  37.09300 4.06200 31.37800
H  36.08400 3.55700 30.03300
H  35.78500 5.13000 30.81500
H  35.16800 3.83200 28.18700
H  34.39300 5.06600 27.02100
H  34.97200 5.53400 28.65600
H  40.42400 7.50600 24.51200
H  43.30000 6.90200 24.59900
H  40.22400 4.83300 24.38100
H  41.96300 5.07500 24.07000
H  40.73200 5.89300 23.06900
H  41.97700 8.85800 23.58400
H  43.49400 9.15500 23.92400
H  41.85000 9.84400 26.43400
H  41.30400 10.56400 24.86700
H  42.91100 10.89500 25.44200
H  46.26600 10.14300 27.55800
H  47.18900 8.89300 28.48200
H  46.90900 10.38500 29.13700
H  43.68600 10.28800 33.13500
H  45.05300 8.63900 36.69600
H  46.56600 9.52600 36.49700
H  46.46900 7.92400 35.82200

