158

Mg 26.38100 51.02500 27.58500
C  24.31300 51.99400 30.15200
C  28.80200 50.19800 29.98600
C  28.46100 50.32900 25.04400
C  24.11600 52.42500 25.37600
N  26.58300 51.15700 29.90200
C  25.52400 51.43100 30.70600
C  25.89100 51.03400 32.13000
C  27.40400 50.54400 31.98900
C  27.64600 50.61100 30.55200
C  28.38700 51.28200 32.99700
C  24.99700 50.03500 32.80500
C  24.28000 50.49300 34.09300
H  25.15700 50.94700 35.26900
N  28.27400 50.30100 27.54600
C  29.12300 49.98200 28.59000
C  30.33200 49.38400 28.12600
C  30.33800 49.50900 26.68000
C  28.98700 50.09100 26.34800
C  31.44100 48.78900 28.89100
C  31.40100 49.07300 25.61700
O  31.16100 49.08200 24.41800
C  32.74300 48.55300 26.01800
N  26.31300 51.33400 25.53500
C  27.22700 50.86600 24.67900
C  26.87800 51.06200 23.20500
C  25.45700 51.63900 23.33400
C  25.24100 51.87800 24.84500
C  27.83100 51.95600 22.33000
C  24.27000 50.75500 22.79800
C  23.07900 51.59700 22.25100
N  24.52900 52.03300 27.68900
C  23.67900 52.49100 26.71900
C  22.47900 52.98600 27.23300
C  22.69900 52.82300 28.60300
C  23.97700 52.30300 28.83000
C  21.31600 53.45700 26.53900
C  22.06000 53.06800 29.91200
O  21.02500 53.63600 30.18800
C  23.12400 52.40200 30.95900
C  23.49800 53.43900 31.97600
O  24.55300 54.05200 31.96800
O  22.44800 53.73900 32.79400
C  22.84200 54.58700 33.86700
H  29.54100 49.82600 30.69900
H  29.09100 50.05500 24.19500
H  23.30100 52.74400 24.72200
H  25.87700 52.00800 32.61900
H  27.44500 49.48000 32.22400
H  29.23000 51.73500 32.47500
H  28.77600 50.60800 33.76000
H  27.87100 52.16300 33.37900
H  25.54600 49.12600 33.05100
H  24.20600 49.85700 32.07700
H  23.66600 49.67400 34.46600
H  23.65200 51.31900 33.75900
H  31.05800 48.78700 29.91200
H  32.41200 49.28400 28.91100
H  31.56500 47.77100 28.52400
H  33.30400 48.36100 25.10400
H  32.57400 47.61500 26.54700
H  33.18300 49.28200 26.69900
H  26.75300 50.07600 22.75900
H  25.33300 52.60700 22.84900
H  28.75400 51.98600 22.90800
H  27.41500 52.94300 22.12700
H  28.08500 51.43800 21.40500
H  23.84600 50.21700 23.64700
H  24.66000 50.04200 22.07200
H  22.15000 51.16900 22.62900
H  23.05200 51.51200 21.16400
H  23.09100 52.66400 22.47200
H  20.52800 52.98700 27.12700
H  21.32100 53.09300 25.51100
H  21.29200 54.54300 26.62900
H  22.54800 51.61600 31.44800
H  23.10200 55.59200 33.53400
H  23.56400 54.02400 34.45700
H  21.95700 54.68400 34.49700
Mg 16.54700 52.55600 26.80700
C  18.39100 50.71400 29.27200
C  14.34700 53.44100 29.19800
C  14.47900 53.43800 24.37100
C  18.83100 51.24200 24.38000
N  16.27300 51.81400 29.00800
C  17.24500 51.31100 29.79300
C  17.04400 51.64800 31.34300
C  15.60000 52.29200 31.22000
C  15.39500 52.56900 29.72700
C  14.51300 51.36300 31.84300
C  18.15400 52.49700 31.89800
C  18.82000 52.11500 33.22700
H  18.27200 52.64800 34.60700
N  14.70100 53.37900 26.74100
C  13.98300 53.76100 27.83100
C  12.77500 54.39100 27.35900
C  12.79000 54.44600 25.95100
C  14.04700 53.73900 25.61700
C  11.70500 54.90700 28.30300
C  11.80400 54.94300 24.93900
O  11.85600 54.65200 23.72000
C  10.62200 55.63400 25.41100
N  16.58600 52.23200 24.69700
C  15.66900 52.79700 23.88600
C  16.12000 52.89500 22.43700
C  17.55400 52.25300 22.50200
C  17.70200 51.84800 23.91400
C  15.10800 52.26600 21.40500
C  18.73400 53.19800 22.02100
C  19.17800 54.33400 23.00300
N  18.23900 51.17100 26.75600
C  19.03700 50.82400 25.72300
C  20.21900 50.16000 26.26400
C  20.01200 50.07500 27.66400
C  18.76700 50.65200 27.88600
C  21.41300 49.63600 25.44100
C  20.53900 49.63800 28.93600
O  21.63100 49.08500 29.12500
C  19.46800 50.13300 30.00100
C  18.90400 48.95500 30.76600
O  18.02000 48.20400 30.30800
O  19.47800 48.86300 31.93800
C  18.77400 48.02900 32.93000
H  13.76800 53.77900 30.06000
H  14.00400 54.02300 23.58100
H  19.71800 51.13700 23.75000
H  16.92000 50.75700 31.95800
H  15.60100 53.19500 31.83100
H  14.17400 51.90500 32.72600
H  14.77400 50.38200 32.24200
H  13.72700 51.23500 31.09900
H  17.79600 53.51100 32.07300
H  18.90500 52.60100 31.11400
H  19.87700 52.34800 33.09900
H  18.81100 51.03200 33.35400
H  11.53300 55.98100 28.23000
H  11.83500 54.60700 29.34300
H  10.71000 54.55900 28.02500
H  10.11000 54.88800 26.02000
H  10.01000 55.95300 24.56800
H  11.08800 56.42600 25.99600
H  16.38400 53.92300 22.18900
H  17.54100 51.28100 22.00800
H  15.11300 51.18200 21.51500
H  15.37500 52.68600 20.43500
H  14.18200 52.65500 21.82900
H  18.32000 53.70400 21.14900
H  19.61500 52.59000 21.81500
H  18.40700 55.10400 22.98500
H  20.08900 54.81200 22.64400
H  19.26100 53.90000 23.99900
H  22.16700 49.22900 26.11400
H  21.89000 50.40100 24.82900
H  21.12400 48.83100 24.76500
H  20.01000 50.74100 30.72500
H  18.66800 48.48700 33.91400
H  19.29700 47.09300 33.12400
H  17.71600 47.78600 32.83000

