158

Mg 46.09100 4.54500 47.86200
C  43.78800 7.34900 47.46600
C  43.37100 2.51600 46.81600
C  48.26000 2.01800 47.38000
C  48.60900 6.82400 48.17700
N  43.83700 4.91300 47.27300
C  43.19900 6.09500 47.16200
C  41.70800 5.94300 46.77900
C  41.59700 4.35100 46.61400
C  42.97100 3.86700 46.94500
C  40.49000 3.74200 47.47500
C  41.26700 6.79600 45.52700
C  42.25500 6.92200 44.31200
H  41.55800 6.94100 42.94800
N  45.83300 2.52600 47.38000
C  44.62200 1.90600 47.03100
C  44.94600 0.51600 46.75100
C  46.32600 0.31200 47.02200
C  46.88300 1.61700 47.34000
C  43.94700 -0.51400 46.21400
C  47.01200 -0.98000 46.75000
O  46.42900 -1.98000 46.43800
C  48.51400 -1.01300 46.70900
N  48.11300 4.35900 47.80300
C  48.83000 3.22500 47.76000
C  50.32200 3.50600 47.80400
C  50.38300 5.03500 47.99000
C  48.95300 5.48200 48.01600
C  50.95900 2.60700 48.96200
C  51.03900 5.86500 46.83500
C  52.09800 6.82100 47.37300
N  46.22100 6.62600 47.82300
C  47.32500 7.40000 48.01000
C  46.96400 8.80500 48.00800
C  45.58900 8.86000 47.81600
C  45.20000 7.47400 47.71800
C  47.90900 9.86200 48.28300
C  44.49700 9.73500 47.74500
O  44.38400 10.98000 47.76000
C  43.27500 8.76400 47.48900
C  42.26300 9.05800 48.47900
O  42.08200 8.22900 49.41100
O  41.54800 10.19000 48.25900
C  40.52100 10.46500 49.26000
H  42.59300 1.85400 46.43200
H  49.02500 1.26100 47.19400
H  49.40300 7.57300 48.17800
H  41.12300 6.43200 47.55800
H  41.49600 4.12100 45.55400
H  39.70200 4.46000 47.70100
H  40.89000 3.22700 48.34800
H  40.06100 2.96900 46.83700
H  40.84300 7.75600 45.82100
H  40.32900 6.38500 45.15300
H  42.94700 6.08200 44.36700
H  42.88100 7.81100 44.22400
H  44.16700 -0.72600 45.16800
H  42.90700 -0.18900 46.23200
H  44.03000 -1.44600 46.77300
H  48.92400 -0.79900 47.69600
H  48.95400 -0.27900 46.03500
H  48.97700 -1.94700 46.39000
H  50.79800 3.26100 46.85400
H  50.79800 5.36500 48.94200
H  51.58200 3.30800 49.51800
H  51.76700 2.05500 48.48200
H  50.34300 1.94700 49.57400
H  50.35500 6.40900 46.18400
H  51.65600 5.12000 46.33200
H  53.09900 6.66500 46.97100
H  52.23400 6.90100 48.45100
H  51.92300 7.84600 47.04600
H  48.36800 9.74700 49.26500
H  47.50700 10.86000 48.11100
H  48.72500 9.94100 47.56600
H  42.85200 9.05000 46.52600
H  40.47500 11.53500 49.45800
H  40.65600 10.02800 50.25000
H  39.54800 10.11900 48.91100
Mg -9.72900 40.03900 39.01500
C  -8.60200 36.88900 38.36700
C  -6.64500 41.17700 38.59900
C  -11.03200 43.08800 38.59500
C  -13.03500 38.81900 38.86100
N  -7.88400 39.08700 38.35900
C  -7.61600 37.76500 38.15600
C  -6.14700 37.47500 38.00800
C  -5.50500 38.85400 38.36500
C  -6.73200 39.80400 38.46000
C  -4.63800 38.83800 39.63200
C  -5.66600 36.87800 36.61300
C  -6.07500 37.59100 35.28300
H  -6.97500 36.81600 34.35300
N  -8.93500 41.99800 38.84200
C  -7.62500 42.24300 38.70000
C  -7.39700 43.65000 38.64600
C  -8.67800 44.26300 38.72100
C  -9.64400 43.12400 38.68700
C  -6.04700 44.32600 38.44500
C  -8.95400 45.76200 38.66700
O  -8.06500 46.58900 38.58000
C  -10.31000 46.34600 38.59000
N  -11.76500 40.79700 38.54400
C  -12.00800 42.12100 38.50600
C  -13.54900 42.42300 38.29300
C  -14.15300 41.03200 38.60000
C  -12.94800 40.19900 38.75700
C  -14.21500 43.60300 39.09000
C  -15.13700 40.59000 37.44400
C  -16.55400 41.04700 37.72700
N  -10.56600 38.27800 38.85100
C  -11.98100 37.88900 38.83000
C  -12.14600 36.45700 38.63300
C  -10.80700 36.05000 38.44100
C  -9.94700 37.11200 38.62700
C  -13.47500 35.73200 38.55800
C  -9.99600 34.84900 38.14200
O  -10.33800 33.70100 37.95400
C  -8.46100 35.37700 38.14800
C  -7.58700 34.62200 39.17200
O  -7.74300 34.56200 40.36400
O  -6.59000 33.98700 38.44900
C  -5.52700 33.50100 39.34900
H  -5.60100 41.47300 38.47800
H  -11.51100 44.05200 38.40700
H  -14.03000 38.37500 38.92300
H  -5.74200 36.74800 38.71200
H  -5.00300 39.27100 37.49100
H  -3.61700 39.18100 39.46600
H  -4.73000 37.94000 40.24300
H  -5.12800 39.57000 40.27300
H  -5.89400 35.82000 36.48800
H  -4.59200 37.03100 36.50600
H  -5.12500 37.84500 34.81300
H  -6.69200 38.46800 35.47700
H  -5.31000 43.57100 38.72000
H  -5.89600 45.23000 39.03500
H  -5.94500 44.63600 37.40500
H  -10.93200 46.18700 39.47100
H  -10.77800 46.10900 37.63500
H  -10.29400 47.43600 38.58500
H  -13.68400 42.60800 37.22700
H  -14.67500 41.06800 39.55600
H  -13.52400 44.06200 39.79700
H  -15.09800 43.25900 39.62800
H  -14.60700 44.34000 38.39000
H  -15.00400 39.53500 37.20400
H  -15.01800 41.02100 36.44900
H  -17.16300 40.14600 37.80400
H  -17.04100 41.69000 36.99500
H  -16.65000 41.59900 38.66200
H  -13.96500 36.21000 37.70900
H  -13.94300 35.80300 39.54000
H  -13.27200 34.74400 38.14400
H  -8.04900 35.11200 37.17500
H  -5.35200 32.43200 39.23200
H  -5.55300 33.79400 40.39900
H  -4.56900 33.86100 38.97400

