158

Mg 35.75800 3.40700 29.64000
C  33.27200 3.98600 31.98800
C  38.11200 3.65600 32.30200
C  38.14800 2.65700 27.43200
C  33.42600 3.70000 27.06400
N  35.76300 3.91000 31.90900
C  34.55500 3.99900 32.59200
C  34.82200 4.11600 34.13200
C  36.43800 4.27900 34.16200
C  36.83300 3.91700 32.72400
C  36.93100 5.72300 34.45400
C  34.26700 2.88800 34.92500
C  33.86500 3.13700 36.38500
H  34.52300 4.15300 37.27700
N  37.81200 3.16500 29.80600
C  38.56900 3.25200 30.97400
C  39.94300 2.84300 30.71800
C  40.02700 2.50800 29.31600
C  38.66300 2.81600 28.77400
C  40.94000 2.90900 31.88300
C  41.16300 2.03200 28.48500
O  41.07600 1.74800 27.25400
C  42.53600 1.82100 29.08500
N  35.81200 3.42500 27.54000
C  36.90200 2.92500 26.89700
C  36.64900 2.63900 25.44500
C  35.12900 2.74800 25.45600
C  34.77600 3.38300 26.73200
C  37.29100 3.61300 24.44800
C  34.42200 1.37800 25.12400
C  33.27700 1.46200 24.15600
N  33.71600 3.81300 29.47900
C  32.92400 3.91400 28.35900
C  31.60200 4.24600 28.89600
C  31.67600 4.21300 30.28600
C  33.02900 3.93700 30.61900
C  30.32200 4.47500 28.11700
C  30.92400 4.43700 31.50800
O  29.74400 4.74400 31.64000
C  31.94000 4.25400 32.68700
C  31.88000 5.52100 33.44600
O  32.16700 6.64700 33.03500
O  31.40500 5.26400 34.68900
C  31.65500 6.34700 35.64100
H  38.79300 3.80900 33.14200
H  38.98600 2.40800 26.77800
H  32.67900 3.55700 26.27900
H  34.39500 5.04300 34.51200
H  36.85500 3.60000 34.90600
H  37.18600 6.28800 33.55700
H  37.91800 5.73600 34.91500
H  36.22500 6.22400 35.11600
H  35.03700 2.12600 34.80400
H  33.30300 2.62500 34.49100
H  34.00200 2.17400 36.87700
H  32.80000 3.34500 36.47900
H  41.94800 3.09600 31.51300
H  40.83600 1.93500 32.36200
H  40.68300 3.66100 32.62900
H  42.65900 1.21300 29.98100
H  42.88600 2.79900 29.41800
H  43.24100 1.44500 28.34500
H  37.11300 1.67300 25.24600
H  34.84800 3.37800 24.61200
H  38.04300 3.26900 23.73800
H  37.87500 4.36300 24.98100
H  36.58600 4.14900 23.81200
H  34.06000 0.98300 26.07400
H  35.09900 0.59600 24.78100
H  32.41300 0.91400 24.53100
H  33.66400 0.89300 23.31100
H  32.97300 2.48100 23.91400
H  30.29400 5.33100 27.44300
H  29.64700 4.77700 28.91800
H  30.03100 3.51400 27.69100
H  31.53400 3.47800 33.33600
H  32.60200 6.84000 35.42000
H  31.71500 5.97600 36.66400
H  30.81200 7.03700 35.61900
Mg 6.12200 52.94400 40.94900
C  5.03500 49.54100 40.79200
C  9.23800 51.91000 39.63700
C  6.86400 56.06800 40.52500
C  2.71500 53.67400 41.72200
N  6.94400 51.01500 40.30000
C  6.39400 49.73500 40.32900
C  7.39000 48.70100 39.82100
C  8.73700 49.47900 39.79200
C  8.28800 50.93400 39.95100
C  9.75100 49.02300 40.96300
C  7.17800 47.98100 38.48500
C  6.44900 48.78900 37.31900
H  7.26600 49.36500 36.14500
N  7.94200 53.88700 40.39400
C  9.09000 53.33500 39.83100
C  10.08400 54.34400 39.60600
C  9.36200 55.56500 39.92300
C  8.00000 55.24600 40.34600
C  11.57100 54.30300 39.33600
C  9.98200 56.93400 39.80800
O  11.10900 57.15700 39.46200
C  9.17300 58.10700 40.20800
N  4.92100 54.63400 40.88400
C  5.47200 55.80300 40.70700
C  4.35900 56.85500 40.70100
C  3.09500 56.07100 41.18300
C  3.65100 54.72400 41.39300
C  4.66400 58.13100 41.58100
C  1.94900 55.97200 40.10900
C  0.50000 56.49200 40.50300
N  4.26100 51.82500 41.37700
C  2.93300 52.29000 41.66500
C  2.12300 51.15100 41.93100
C  2.88900 50.05300 41.60200
C  4.12200 50.49400 41.19400
C  0.72000 51.09100 42.48000
C  2.83600 48.66500 41.53300
O  1.95100 47.85100 41.74900
C  4.31900 48.19800 41.02300
C  4.12000 47.37000 39.76200
O  3.68400 47.79500 38.73700
O  4.63800 46.11000 39.92700
C  4.60100 45.25200 38.73200
H  10.20200 51.49700 39.33400
H  7.00500 57.14700 40.44200
H  1.74800 54.06300 42.04900
H  7.39800 47.98100 40.64000
H  9.19400 49.29300 38.82000
H  10.69100 48.86600 40.43300
H  9.45800 48.08500 41.43300
H  9.83600 49.81200 41.71000
H  6.55300 47.11800 38.71300
H  8.12300 47.51900 38.20100
H  6.03600 49.66000 37.82800
H  5.60000 48.15100 37.07300
H  12.07600 54.69100 40.22000
H  11.80800 55.01300 38.54300
H  11.88900 53.27300 39.17500
H  8.43600 58.22400 39.41300
H  9.71400 59.04000 40.05200
H  8.93600 58.05200 41.27000
H  4.30900 57.16000 39.65600
H  2.65700 56.55600 42.05500
H  4.37100 59.01300 41.01200
H  5.71900 58.13700 41.85700
H  4.11300 58.13800 42.52100
H  1.91800 54.98700 39.64200
H  2.16000 56.64200 39.27500
H  -0.18600 55.77100 40.05900
H  0.28000 57.47100 40.07700
H  0.34600 56.56900 41.58000
H  0.08900 51.83100 41.98800
H  0.78100 51.38200 43.52900
H  0.35800 50.08300 42.27300
H  4.71200 47.48100 41.74500
H  5.07700 44.28300 38.88200
H  5.02300 45.68000 37.82200
H  3.57300 45.01200 38.46000

