158

Mg 26.83900 50.77300 25.52900
C  25.12400 52.11300 28.15200
C  29.57300 50.13300 27.75600
C  28.73600 49.79300 22.91700
C  24.48100 52.20900 23.35700
N  27.26300 51.06300 27.77400
C  26.29900 51.52800 28.59500
C  26.63100 51.13200 30.01300
C  28.21600 50.80800 29.89900
C  28.41000 50.61400 28.39200
C  29.16700 51.87400 30.46500
C  25.76800 50.13000 30.77500
C  25.35900 50.42900 32.23100
H  26.47800 50.59100 33.24100
N  28.77800 49.88900 25.36500
C  29.70400 49.71500 26.39100
C  30.83900 48.97600 25.89300
C  30.57700 48.76700 24.48400
C  29.35800 49.47300 24.16000
C  32.00700 48.36300 26.66100
C  31.43600 47.89700 23.51800
O  31.08600 47.61500 22.43000
C  32.72700 47.33600 23.99100
N  26.64800 51.04000 23.40700
C  27.61000 50.51500 22.55700
C  27.23800 50.81000 21.05100
C  25.76400 51.37100 21.17700
C  25.61400 51.59600 22.74100
C  28.22700 51.60600 20.16500
C  24.53200 50.47300 20.69400
C  24.22800 49.19700 21.50300
N  25.11300 51.78100 25.64000
C  24.21500 52.30800 24.68700
C  23.08600 52.93700 25.37000
C  23.43200 52.85900 26.76600
C  24.67400 52.23100 26.85100
C  21.94900 53.63800 24.75500
C  22.96400 53.20000 28.12100
O  21.90400 53.69400 28.40600
C  24.06900 52.75700 29.06200
C  24.52900 53.78200 30.04500
O  25.34100 54.66600 29.76700
O  23.68300 53.84200 31.15400
C  23.87100 54.94000 32.09000
H  30.43600 49.95800 28.40100
H  29.34700 49.42000 22.09300
H  23.72100 52.52300 22.63900
H  26.67900 52.05600 30.59000
H  28.50500 49.84100 30.31000
H  30.00400 52.15600 29.82500
H  29.53400 51.40700 31.37800
H  28.87500 52.90000 30.69000
H  26.34000 49.20900 30.88000
H  24.86000 49.96300 30.19600
H  24.73600 49.54300 32.35300
H  24.68200 51.27100 32.37800
H  31.86400 48.44800 27.73900
H  32.97000 48.83100 26.45900
H  31.99800 47.27300 26.65000
H  33.15200 46.88000 23.09700
H  32.50600 46.52600 24.68600
H  33.45200 47.99800 24.46500
H  27.14300 49.82700 20.59000
H  25.79400 52.35600 20.70900
H  29.03600 51.82900 20.86100
H  27.88500 52.55300 19.74600
H  28.54500 50.94000 19.36200
H  24.80300 50.02600 19.73800
H  23.59300 51.01400 20.57700
H  24.74100 49.19500 22.46500
H  24.61100 48.32000 20.98100
H  23.19600 49.06900 21.82700
H  22.32400 54.18900 23.89300
H  21.49300 54.21100 25.56200
H  21.13400 52.98400 24.44300
H  23.61000 51.97200 29.66300
H  24.61600 54.67800 32.84100
H  22.89500 55.12100 32.54200
H  24.27100 55.78800 31.53400
Mg 0.93800 44.30300 24.75100
C  2.91200 43.92200 27.63300
C  -1.87800 43.78700 26.92200
C  -0.95100 43.80100 22.15800
C  3.73600 44.33100 22.77600
N  0.59800 43.88300 26.98200
C  1.52400 43.88800 27.92500
C  0.93800 43.89200 29.35000
C  -0.58100 43.59800 29.07100
C  -0.66200 43.75200 27.55000
C  -1.10300 42.15500 29.49500
C  1.19500 45.14300 30.22200
C  1.21800 44.94600 31.74900
H  1.09700 43.54000 32.35000
N  -1.14400 44.00800 24.55000
C  -2.12400 43.83300 25.52600
C  -3.47200 43.75900 24.86400
C  -3.22600 43.93800 23.41800
C  -1.69300 43.90600 23.35300
C  -4.78800 43.63900 25.65100
C  -4.12700 44.12700 22.20100
O  -3.67400 44.47100 21.12200
C  -5.61900 44.03800 22.40000
N  1.28700 44.16000 22.70200
C  0.39800 43.86800 21.83500
C  0.93800 43.79900 20.38100
C  2.38300 44.29100 20.54600
C  2.48900 44.38500 22.10000
C  0.64300 42.42500 19.72400
C  2.78700 45.54500 19.88200
C  4.18300 45.56200 19.13400
N  2.98800 44.30200 25.09400
C  4.05500 44.41300 24.19600
C  5.35500 44.40400 25.00600
C  4.89300 44.20900 26.33100
C  3.47800 44.10500 26.34500
C  6.70000 44.55800 24.35000
C  5.34200 44.05500 27.65900
O  6.51800 44.07000 28.08100
C  4.15100 43.89300 28.54700
C  4.34500 42.65200 29.29600
O  4.06400 41.49900 28.94300
O  4.74500 43.00400 30.52000
C  4.74300 41.90500 31.55500
H  -2.73700 43.80400 27.59600
H  -1.49200 43.67800 21.21800
H  4.59400 44.33100 22.10100
H  1.44900 43.06300 29.84000
H  -1.20200 44.40000 29.47000
H  -1.21800 41.53900 28.60300
H  -2.04700 42.29800 30.02100
H  -0.41400 41.66400 30.18200
H  0.39000 45.87000 30.11600
H  2.18200 45.53800 29.97900
H  0.43600 45.61600 32.10600
H  2.15800 45.38800 32.07900
H  -5.44600 44.50000 25.53600
H  -4.74800 43.63700 26.74100
H  -5.35200 42.74900 25.37500
H  -5.77500 43.01800 22.75100
H  -6.01800 44.13600 21.39100
H  -6.03100 44.77300 23.09200
H  0.31600 44.39500 19.71300
H  3.09200 43.52100 20.24200
H  0.22100 41.85400 20.55100
H  1.64100 42.05300 19.49200
H  -0.06000 42.38600 18.89200
H  2.93300 46.29800 20.65700
H  2.02100 45.91500 19.20100
H  4.01400 45.62300 18.05900
H  4.85700 44.73800 19.37000
H  4.85500 46.38000 19.39400
H  6.87800 44.24300 23.32200
H  7.25200 43.85300 24.97200
H  7.10000 45.57200 24.35300
H  4.26000 44.72500 29.24200
H  5.76900 41.55400 31.65800
H  3.96800 41.15100 31.41800
H  4.48300 42.44400 32.46600

