158

Mg 35.68200 2.38600 30.45700
C  33.36200 3.30800 32.86100
C  38.13900 2.45900 33.01700
C  37.95900 1.49300 28.19400
C  33.15600 2.65900 27.95300
N  35.66400 2.73200 32.66700
C  34.64000 3.12300 33.40700
C  34.97500 3.03900 34.86900
C  36.51200 3.13300 34.88300
C  36.84100 2.70600 33.45100
C  36.96000 4.65400 35.19100
C  34.40100 1.77500 35.57700
C  34.04900 1.96300 37.12200
H  34.80900 3.01200 37.99300
N  37.73200 1.98500 30.62900
C  38.53200 2.02500 31.72900
C  39.90100 1.51100 31.38400
C  39.77600 1.20400 29.98300
C  38.44800 1.61500 29.55300
C  41.02400 1.32400 32.40300
C  40.84800 0.53400 29.14800
O  40.67800 0.28700 27.95100
C  42.16400 0.20200 29.73100
N  35.56500 2.20300 28.38500
C  36.68800 1.76300 27.65100
C  36.41500 1.55500 26.14700
C  34.83000 1.69100 26.16000
C  34.47900 2.23100 27.51700
C  37.26400 2.49000 25.22500
C  34.10600 0.38800 25.83600
C  34.34200 -0.23700 24.45300
N  33.68600 2.97500 30.37700
C  32.83300 3.01300 29.24900
C  31.51800 3.47800 29.78300
C  31.64400 3.51100 31.19900
C  33.03600 3.28200 31.48600
C  30.31900 3.74700 28.98400
C  30.94400 3.77200 32.40500
O  29.73500 4.06400 32.57500
C  32.06500 3.66900 33.54100
C  32.25500 5.01100 34.23900
O  32.63300 5.98900 33.71000
O  31.87500 4.97900 35.58300
C  32.08700 6.20800 36.33100
H  38.86700 2.61700 33.81600
H  38.76300 1.22800 27.50500
H  32.34600 2.70800 27.22300
H  34.54600 3.94200 35.30300
H  36.99500 2.54600 35.66400
H  37.60700 4.58300 36.06500
H  36.18700 5.39500 35.39300
H  37.46400 5.00600 34.29100
H  34.93100 0.83100 35.45600
H  33.43000 1.50300 35.16500
H  34.15900 1.00800 37.63400
H  32.97300 2.13900 37.09200
H  41.13500 0.26600 32.64000
H  40.85200 1.89700 33.31400
H  41.94000 1.72300 31.96600
H  42.17100 -0.55500 30.51500
H  42.57400 1.18700 29.95300
H  42.79200 -0.23400 28.95400
H  36.65600 0.50300 25.99200
H  34.67600 2.46200 25.40500
H  38.24100 2.03200 25.07200
H  37.34300 3.51400 25.59100
H  36.77000 2.34400 24.26400
H  33.02600 0.53500 25.84500
H  34.39300 -0.34600 26.58900
H  34.99700 0.44100 23.90500
H  33.37400 -0.28600 23.95500
H  34.76900 -1.22700 24.29300
H  30.50200 4.06500 27.95800
H  29.74100 4.45700 29.57600
H  29.73300 2.83700 28.85900
H  31.78200 2.92100 34.28100
H  31.39200 6.93000 35.90100
H  33.07700 6.59200 36.08300
H  32.06100 6.02100 37.40400
Mg -9.90500 39.49000 39.63100
C  -8.78000 36.35000 38.80000
C  -6.82700 40.78300 38.76100
C  -11.30600 42.49700 39.61100
C  -13.12000 37.96900 40.24400
N  -8.02300 38.60000 39.01200
C  -7.75800 37.31700 38.71200
C  -6.20600 37.07200 38.47000
C  -5.59500 38.48700 38.86300
C  -6.88000 39.37000 38.82300
C  -4.77700 38.63400 40.12900
C  -5.94000 36.63300 36.97900
C  -6.72000 37.40800 35.95300
H  -7.60400 36.71900 34.86700
N  -9.15500 41.41600 39.23100
C  -7.87600 41.69100 38.85600
C  -7.74200 43.13800 38.79700
C  -9.02400 43.66200 39.14000
C  -9.90500 42.52000 39.36600
C  -6.39700 43.84300 38.60500
C  -9.43700 45.10600 39.21000
O  -8.60900 45.95200 38.85400
C  -10.78100 45.62300 39.62800
N  -11.94000 40.16800 39.74100
C  -12.23300 41.49500 39.86900
C  -13.72100 41.65200 40.18300
C  -14.26500 40.17200 40.34900
C  -13.02200 39.38300 40.12900
C  -14.11600 42.59700 41.36700
C  -15.41100 39.82000 39.40000
C  -16.65000 39.43100 40.09800
N  -10.78600 37.49200 39.67000
C  -12.06200 37.10100 39.95900
C  -12.13700 35.67500 39.84100
C  -10.87400 35.30200 39.30500
C  -10.08000 36.48900 39.19600
C  -13.35600 34.78000 40.06900
C  -10.04500 34.20900 38.96000
O  -10.35900 33.02000 39.02700
C  -8.67300 34.86200 38.52700
C  -7.57100 34.18700 39.25900
O  -7.41400 34.12000 40.44500
O  -6.68900 33.67700 38.36900
C  -5.42600 33.16600 38.95300
H  -5.89300 41.30800 38.55100
H  -11.72400 43.50000 39.72100
H  -14.09200 37.58100 40.55300
H  -5.87100 36.29200 39.15300
H  -4.98900 38.72900 37.99100
H  -4.12100 39.50100 40.04300
H  -4.26500 37.72600 40.44800
H  -5.35900 38.88700 41.01500
H  -6.26200 35.60700 36.80100
H  -4.87800 36.79200 36.79100
H  -6.07500 37.94700 35.25900
H  -7.33000 38.14100 36.48100
H  -6.48000 44.93000 38.64400
H  -5.92700 43.49200 37.68700
H  -5.89500 43.53400 39.52200
H  -11.10800 45.21000 40.58200
H  -11.62200 45.54400 38.93900
H  -10.73400 46.68900 39.85100
H  -14.00400 42.05500 39.21000
H  -14.40700 39.96800 41.41100
H  -14.92600 43.31500 41.23800
H  -13.22400 43.11600 41.71500
H  -14.50300 41.97400 42.17400
H  -15.08700 39.02800 38.72400
H  -15.62100 40.68300 38.76800
H  -16.62700 39.71300 41.15100
H  -16.86500 38.37100 39.96600
H  -17.41700 39.98100 39.55200
H  -14.07700 35.14900 40.79900
H  -12.96100 33.80400 40.35100
H  -13.95000 34.75100 39.15500
H  -8.57800 34.55300 37.48600
H  -5.63100 32.15600 39.30900
H  -4.95800 33.72900 39.76000
H  -4.69900 33.23900 38.14400

