158

Mg 9.56100 48.07000 26.18000
C  7.74300 48.25100 29.23100
C  12.41600 49.04600 27.77900
C  11.16700 47.99400 23.19400
C  6.54500 47.57800 24.54400
N  10.00900 48.61300 28.28700
C  9.15400 48.50600 29.32500
C  9.95400 48.86700 30.67300
C  11.23000 49.56300 30.14200
C  11.24300 49.06900 28.67200
C  11.27600 51.10700 30.11300
C  10.22000 47.63600 31.57700
C  10.03500 47.95400 33.10000
H  10.14200 46.76600 34.08300
N  11.54200 48.37300 25.64800
C  12.61500 48.74800 26.39700
C  13.77500 48.72700 25.60400
C  13.44300 48.37000 24.26300
C  11.93800 48.19800 24.33800
C  15.18600 48.99300 26.18700
C  14.36400 48.16100 23.01900
O  13.96100 47.87700 21.88500
C  15.80000 48.37200 23.18500
N  8.92800 48.05400 24.13400
C  9.76800 48.05800 23.05500
C  9.08400 47.77200 21.67400
C  7.68800 47.25500 22.21600
C  7.69500 47.59400 23.77800
C  8.89400 49.06200 20.80700
C  7.36800 45.77400 21.93000
C  6.51100 45.35400 20.72200
N  7.53600 47.85200 26.73000
C  6.42400 47.73200 25.90900
C  5.29500 47.45700 26.77100
C  5.74400 47.85200 28.05000
C  7.12400 47.95600 27.99900
C  3.98600 46.90400 26.39500
C  5.33900 47.95000 29.43300
O  4.24400 47.94700 29.97900
C  6.65700 48.11000 30.29500
C  6.77800 46.78900 30.96100
O  6.91500 45.69700 30.36000
O  6.57600 46.89300 32.30500
C  6.38000 45.60000 32.97600
H  13.27400 49.49800 28.28200
H  11.65300 47.75600 22.24500
H  5.63400 47.17400 24.09800
H  9.53000 49.66300 31.28500
H  12.14100 49.09200 30.51100
H  12.04600 51.57300 30.72900
H  10.34300 51.56200 30.44400
H  11.51800 51.37400 29.08400
H  11.23900 47.27400 31.43800
H  9.42100 46.91200 31.41800
H  8.98400 48.24300 33.13500
H  10.68400 48.73700 33.49200
H  15.09900 49.15900 27.26100
H  15.80800 49.77800 25.75700
H  15.81100 48.11600 26.02200
H  16.06200 49.25200 23.77400
H  16.22500 48.51200 22.19100
H  16.12300 47.48600 23.73300
H  9.54300 46.95700 21.11500
H  6.93600 47.89400 21.75200
H  9.70900 49.02000 20.08500
H  9.02700 49.84000 21.55900
H  7.92000 49.20800 20.33900
H  7.00300 45.43200 22.89800
H  8.30900 45.26500 21.71900
H  6.21100 46.28400 20.23800
H  5.64400 44.72600 20.92600
H  7.14800 44.88800 19.97100
H  3.93000 46.40100 25.43000
H  3.19500 47.65300 26.36800
H  3.74800 46.15300 27.14800
H  6.61000 48.91400 31.03000
H  6.12000 45.91100 33.98800
H  7.26300 44.96200 32.95800
H  5.46900 45.16100 32.56900
Mg 1.01900 43.03600 26.42600
C  3.41800 43.08600 28.90800
C  -1.31700 41.95400 28.73000
C  -0.98800 42.39000 23.93700
C  3.72100 43.46100 24.11000
N  1.03600 42.62500 28.52400
C  2.10500 42.87900 29.42500
C  1.63400 42.88700 30.88600
C  0.15200 42.26700 30.77200
C  -0.05700 42.32100 29.24400
C  -0.16400 40.88800 31.42900
C  1.65900 44.35700 31.50800
C  1.70400 44.41600 33.03900
H  1.33800 43.10600 33.76700
N  -0.89800 42.34800 26.38400
C  -1.67800 41.97600 27.39400
C  -3.00500 41.74900 26.87900
C  -2.94200 41.77900 25.41600
C  -1.55600 42.16900 25.20000
C  -4.16800 41.52300 27.88600
C  -4.01200 41.47500 24.44700
O  -3.80800 41.42500 23.22800
C  -5.39400 41.25500 24.88400
N  1.36900 43.00100 24.30600
C  0.30400 42.68500 23.54800
C  0.72200 42.84900 21.98400
C  2.13200 43.45900 22.02200
C  2.49000 43.29600 23.52600
C  0.60000 41.55900 21.15300
C  2.29700 44.88200 21.53800
C  1.56800 45.97000 22.39300
N  3.12100 43.20100 26.40700
C  4.03000 43.45000 25.45600
C  5.34900 43.57900 26.06500
C  5.13900 43.33700 27.45000
C  3.72800 43.25700 27.59600
C  6.63500 43.84200 25.40200
C  5.77500 43.21000 28.66300
O  6.95600 43.19700 29.05300
C  4.65800 43.11400 29.74500
C  4.94800 41.88000 30.60100
O  5.11700 40.70000 30.24000
O  4.96200 42.28400 31.91400
C  5.10400 41.27600 32.97100
H  -1.96700 41.62100 29.54200
H  -1.64300 42.21900 23.08100
H  4.51300 43.87800 23.48400
H  2.19800 42.17000 31.48100
H  -0.55700 42.98100 31.19000
H  0.66000 40.39700 31.94700
H  -0.45100 40.17200 30.66000
H  -0.99400 40.98500 32.13000
H  0.73000 44.80400 31.15400
H  2.47300 44.92700 31.06000
H  0.96800 45.08300 33.48800
H  2.71300 44.76800 33.25700
H  -4.82800 42.37800 27.73900
H  -3.83500 41.70500 28.90800
H  -4.78900 40.63100 27.80700
H  -6.08100 41.05100 24.06200
H  -5.72500 42.06000 25.54000
H  -5.23400 40.36700 25.49600
H  0.06000 43.58700 21.53000
H  2.75600 42.78400 21.43700
H  1.50200 40.95000 21.20800
H  0.25600 41.78100 20.14300
H  -0.29100 41.08500 21.56600
H  1.83300 44.94900 20.55400
H  3.37800 45.02400 21.54300
H  0.70200 45.62700 22.96000
H  1.20400 46.73500 21.70700
H  2.30400 46.41800 23.06100
H  7.41300 44.30400 26.01100
H  6.34700 44.67100 24.75600
H  7.11200 43.03400 24.84800
H  4.59500 43.97600 30.40900
H  4.75900 40.29800 32.63500
H  4.50800 41.71300 33.77200
H  6.11600 41.20400 33.36900

