158

Mg 46.76400 24.64900 28.94200
C  47.47500 26.87600 31.37800
C  45.87100 22.36900 31.41900
C  46.72200 22.21100 26.63600
C  48.43900 26.73600 26.63900
N  46.87400 24.62400 31.19300
C  47.07300 25.72400 31.94800
C  46.56300 25.51200 33.44400
C  46.41900 23.88500 33.48900
C  46.37000 23.59400 31.94100
C  47.58100 23.10400 34.19600
C  45.22100 26.18600 33.69600
C  44.91100 26.85900 34.98400
H  45.66700 26.50600 36.22700
N  46.27200 22.67500 29.03300
C  45.78600 21.91300 30.10400
C  45.30700 20.60400 29.67800
C  45.52700 20.52400 28.23200
C  46.20300 21.84900 27.90000
C  44.61800 19.60900 30.63500
C  45.23000 19.42200 27.24100
O  45.35300 19.45900 26.02100
C  44.67600 18.18400 27.75400
N  47.64100 24.51300 26.93800
C  47.39800 23.31800 26.20100
C  47.77900 23.50400 24.70200
C  48.26600 24.98500 24.67200
C  48.07500 25.46900 26.15600
C  48.79700 22.40400 24.18600
C  47.75800 25.85300 23.52000
C  46.70100 27.00500 23.80500
N  47.64400 26.51700 28.94400
C  48.29600 27.21500 27.91800
C  48.63400 28.48600 28.41300
C  48.36400 28.40400 29.75300
C  47.74000 27.16400 30.03100
C  49.28600 29.51800 27.60300
C  48.45900 29.09900 30.99000
O  48.78900 30.27200 31.20600
C  47.87400 28.14600 32.13400
C  48.97700 27.87800 33.15500
O  50.00400 27.25400 32.90600
O  48.68200 28.56400 34.30700
C  49.66900 28.35000 35.39600
H  45.50300 21.63000 32.13300
H  46.50900 21.54300 25.79900
H  48.80500 27.32400 25.79500
H  47.38300 25.75900 34.11900
H  45.53900 23.45800 33.97000
H  47.79700 22.13100 33.75400
H  47.29100 22.90100 35.22600
H  48.44900 23.76300 34.23000
H  44.41800 25.48900 33.45500
H  45.06200 27.05000 33.05200
H  43.92200 26.52800 35.30000
H  44.91200 27.93900 34.83700
H  44.20700 20.12400 31.50400
H  45.32600 18.87100 31.01100
H  43.82000 18.98400 30.23400
H  45.23000 17.94500 28.66200
H  44.47900 17.37400 27.05200
H  43.69400 18.50500 28.10200
H  46.87900 23.50900 24.08800
H  49.33800 24.89700 24.49300
H  48.46400 21.77400 23.36100
H  48.98000 21.70000 24.99700
H  49.72300 22.85600 23.83200
H  47.26800 25.22600 22.77500
H  48.64400 26.33300 23.10500
H  47.07800 27.97600 23.48600
H  46.39100 27.01900 24.84900
H  45.79300 26.85400 23.22100
H  48.84600 29.54000 26.60500
H  50.33000 29.22700 27.48800
H  49.12700 30.50400 28.04100
H  46.99800 28.53900 32.65000
H  50.48200 29.07300 35.33500
H  49.99800 27.31800 35.51600
H  49.16000 28.62400 36.32000
Mg 16.84800 51.96400 25.53300
C  18.72300 50.72100 28.29300
C  14.48600 52.98400 27.83800
C  15.41800 53.60700 23.09600
C  19.51300 50.91500 23.51800
N  16.66200 51.74600 27.84800
C  17.58100 51.35100 28.74400
C  17.15600 51.67300 30.18500
C  15.70900 52.22200 30.10700
C  15.56100 52.29100 28.48700
C  14.60100 51.22500 30.54500
C  18.15400 52.67500 30.84700
C  18.28300 52.51200 32.42100
H  17.16300 53.30200 33.18500
N  15.24300 53.16000 25.43600
C  14.36500 53.48300 26.48800
C  13.36700 54.35700 26.00700
C  13.66800 54.58600 24.65200
C  14.82300 53.74500 24.31200
C  12.25900 54.81900 26.99900
C  13.06000 55.52400 23.67700
O  13.44400 55.71700 22.52100
C  11.91500 56.42100 24.15600
N  17.36000 52.10600 23.58300
C  16.61500 52.90900 22.70400
C  17.14000 52.83000 21.22400
C  18.43300 51.97700 21.44100
C  18.50400 51.73300 22.96600
C  16.09900 52.31400 20.12500
C  19.70300 52.70600 20.89100
C  20.43900 52.10500 19.68800
N  18.64500 50.72400 25.72400
C  19.65700 50.37600 24.81200
C  20.69500 49.63600 25.45000
C  20.41300 49.86100 26.84000
C  19.13800 50.50500 26.92300
C  21.87000 49.06800 24.81100
C  20.88800 49.50600 28.16600
O  21.91600 48.96800 28.60000
C  19.85600 50.10800 29.11500
C  19.23200 49.03400 29.90100
O  18.45900 48.18100 29.53200
O  19.39000 49.32200 31.28900
C  18.62300 48.42500 32.19200
H  13.75200 53.32500 28.57100
H  15.05600 53.99700 22.14200
H  20.35600 50.78600 22.83600
H  17.21000 50.69000 30.65300
H  15.59900 53.24600 30.46400
H  14.08000 50.80200 29.68600
H  13.89400 51.60900 31.28000
H  15.06700 50.43200 31.12900
H  17.62900 53.60000 30.60800
H  19.10500 52.69700 30.31400
H  19.24100 52.97200 32.66700
H  18.10900 51.50000 32.78600
H  12.12500 54.10100 27.80800
H  11.26600 55.09300 26.64200
H  12.57600 55.67300 27.59700
H  12.30700 57.20000 24.81100
H  11.20100 55.79100 24.68600
H  11.32600 56.87500 23.35900
H  17.30500 53.82800 20.81600
H  18.32200 51.04600 20.88600
H  15.24800 51.85500 20.62800
H  16.50900 51.51000 19.51400
H  15.83200 53.23200 19.60000
H  20.40100 52.71000 21.72900
H  19.57900 53.76800 20.68100
H  19.89300 51.35800 19.11200
H  21.36400 51.61700 19.99500
H  20.76000 52.97800 19.11900
H  21.93200 49.42300 23.78200
H  21.82400 47.98500 24.69300
H  22.78300 49.27800 25.36700
H  20.24500 50.76200 29.89600
H  17.73700 48.08300 31.65900
H  18.31000 48.90400 33.12000
H  19.19300 47.56300 32.53900

