158

Mg 16.44300 51.30200 25.28300
C  18.26300 50.24000 28.11100
C  14.00900 52.39500 27.39100
C  14.49200 51.68700 22.54000
C  18.93500 49.81500 23.30600
N  16.18900 51.21300 27.52900
C  17.12800 50.93400 28.43900
C  16.61400 51.26800 29.91500
C  15.18900 51.83200 29.65300
C  15.11300 51.81900 28.11600
C  13.96900 51.05100 30.17900
C  17.48200 52.30500 30.61900
C  18.13800 51.93200 31.96600
H  17.29400 51.18100 32.94100
N  14.52200 51.97800 24.98400
C  13.68900 52.42600 25.99000
C  12.52000 52.98500 25.38600
C  12.69700 52.94700 23.98500
C  13.97800 52.17400 23.75900
C  11.28100 53.52900 26.15600
C  11.80900 53.54800 22.86600
O  12.09600 53.36400 21.66400
C  10.44100 54.26600 23.18300
N  16.74400 50.87600 23.25500
C  15.71200 51.07700 22.35300
C  16.18400 50.80500 20.84500
C  17.70200 50.39400 21.06300
C  17.81100 50.34400 22.60200
C  15.33100 49.73400 20.23100
C  18.72200 51.39400 20.41300
C  19.03900 51.14800 18.92700
N  18.28800 50.24800 25.59500
C  19.13700 49.64200 24.69300
C  20.32300 49.14400 25.39500
C  19.92100 49.32600 26.69300
C  18.78100 50.04500 26.78600
C  21.56000 48.56600 24.86800
C  20.37800 49.00000 28.05400
O  21.35500 48.31300 28.42500
C  19.37800 49.68600 28.97600
C  18.92200 48.59700 29.90300
O  18.09000 47.72900 29.59900
O  19.62700 48.63300 31.06700
C  19.17200 47.67500 32.05200
H  13.22100 52.71700 28.07500
H  13.97900 51.85900 21.59200
H  19.64300 49.40400 22.58400
H  16.60400 50.34000 30.48700
H  15.10200 52.86400 29.99300
H  13.24600 51.75100 30.59900
H  14.25700 50.32000 30.93500
H  13.45400 50.48000 29.40700
H  16.96400 53.25500 30.75200
H  18.44600 52.35500 30.11400
H  18.46400 52.86200 32.43300
H  19.04300 51.35200 31.78500
H  11.46100 53.59300 27.22900
H  10.45500 52.81800 26.14300
H  11.03700 54.53400 25.81200
H  9.99400 54.48000 22.21300
H  10.64400 55.12000 23.82800
H  9.74000 53.64100 23.73700
H  16.07100 51.75300 20.32000
H  17.81400 49.34400 20.79500
H  14.47000 50.04900 19.64200
H  15.02300 49.04800 21.02000
H  15.85800 49.08800 19.52900
H  19.64800 51.40300 20.98700
H  18.26300 52.38200 20.44800
H  19.06700 50.12500 18.55200
H  20.03100 51.54700 18.71800
H  18.23600 51.68000 18.41500
H  21.64200 47.48100 24.94200
H  22.27200 49.16500 25.43600
H  21.61700 48.88300 23.82700
H  19.85700 50.51200 29.50100
H  19.68800 47.82200 33.00100
H  19.42700 46.69900 31.63700
H  18.13100 47.73400 32.36900
Mg -2.76700 34.66300 26.81400
C  -3.90600 32.78600 29.50200
C  -1.37300 36.88700 29.07400
C  -2.39300 36.71100 24.25500
C  -4.64100 32.46100 24.73400
N  -2.67700 34.79600 28.99700
C  -3.08800 33.84500 29.90800
C  -2.70400 34.19900 31.34100
C  -1.91400 35.55000 31.17200
C  -2.00500 35.79300 29.67600
C  -2.43900 36.78000 31.93900
C  -1.95300 32.97100 32.07500
C  -2.52400 32.66800 33.51900
H  -1.43400 32.62000 34.61300
N  -1.92600 36.52800 26.63100
C  -1.35400 37.20200 27.67900
C  -0.86400 38.44900 27.10600
C  -1.15600 38.53800 25.68600
C  -1.83500 37.22800 25.41300
C  -0.27600 39.54600 27.99200
C  -0.73700 39.58600 24.73900
O  -1.16100 39.58800 23.57400
C  0.24500 40.76000 25.09100
N  -3.43500 34.59100 24.81300
C  -3.02800 35.50700 23.87500
C  -3.60300 35.33900 22.50100
C  -4.05200 33.86400 22.56400
C  -4.03400 33.60300 24.12300
C  -4.67500 36.36800 22.05500
C  -3.21300 32.81700 21.65900
C  -2.25100 31.96200 22.35300
N  -3.93700 32.86000 26.99100
C  -4.62100 32.06400 26.04600
C  -5.21900 30.90000 26.65100
C  -5.02700 31.21700 28.00200
C  -4.25600 32.34000 28.17500
C  -6.01400 29.81200 26.06900
C  -5.27500 30.75900 29.31900
O  -5.91100 29.79400 29.63700
C  -4.57100 31.73100 30.41400
C  -5.59400 32.18800 31.39100
O  -6.38500 33.11500 31.30200
O  -5.68800 31.31500 32.50800
C  -6.62300 31.80500 33.52300
H  -0.66700 37.50100 29.63700
H  -2.32200 37.41700 23.42500
H  -5.08500 31.71900 24.06800
H  -3.63300 34.33100 31.89600
H  -0.83100 35.45300 31.25100
H  -3.26500 36.52200 32.60100
H  -2.76600 37.57600 31.27100
H  -1.73500 37.20300 32.65500
H  -0.87800 33.14500 32.12500
H  -2.11700 32.05600 31.50600
H  -2.99300 31.68800 33.61000
H  -3.27100 33.34700 33.93000
H  0.78500 39.66800 27.77600
H  -0.40600 39.48600 29.07200
H  -0.67700 40.53000 27.75000
H  -0.20200 41.58500 25.64600
H  0.48900 41.37600 24.22600
H  1.15800 40.31500 25.48600
H  -2.76100 35.42300 21.81400
H  -5.10800 33.83400 22.29600
H  -4.79700 37.08600 22.86600
H  -5.72500 36.12800 21.89000
H  -4.34300 36.88500 21.15400
H  -2.65800 33.33500 20.87800
H  -3.94100 32.05100 21.38900
H  -2.43300 30.89700 22.21100
H  -2.10900 32.10200 23.42500
H  -1.30600 32.20300 21.86600
H  -5.59600 29.68700 25.07100
H  -7.05900 30.10000 25.95100
H  -5.76900 28.86700 26.55400
H  -3.83800 31.14100 30.96200
H  -6.23400 32.65900 34.07700
H  -6.90800 30.99200 34.19000
H  -7.56500 32.03600 33.02400

