158

Mg 0.77700 -2.51000 44.60700
C  4.04000 -1.59400 43.81600
C  -0.33100 0.30100 42.97600
C  -2.43000 -3.62800 44.97300
C  2.00600 -5.55800 45.95100
N  1.77100 -0.88000 43.49000
C  3.10600 -0.76000 43.25100
C  3.38000 0.44000 42.28200
C  2.02200 1.20900 42.26500
C  1.09500 0.17800 42.97600
C  1.93700 2.60500 42.92800
C  3.98200 0.02200 40.91900
C  5.31500 0.61600 40.44900
H  5.17700 1.56300 39.17200
N  -1.14400 -1.87400 43.99900
C  -1.34800 -0.62500 43.45200
C  -2.73500 -0.35500 43.28400
C  -3.41300 -1.47400 43.89100
C  -2.31700 -2.40300 44.32900
C  -3.27700 0.89800 42.68400
C  -4.92700 -1.73100 43.99400
O  -5.77500 -0.92900 43.53400
C  -5.46300 -2.93500 44.68600
N  -0.12800 -4.33800 45.33800
C  -1.45700 -4.57500 45.34800
C  -1.75600 -5.98300 46.05600
C  -0.34300 -6.52800 46.25900
C  0.58400 -5.41400 45.77500
C  -2.68400 -5.90300 47.27900
C  -0.07500 -7.89600 45.57500
C  0.68900 -8.94200 46.39300
N  2.64300 -3.36200 45.01700
C  2.98900 -4.62800 45.59000
C  4.48300 -4.73200 45.56800
C  4.89600 -3.51800 44.98800
C  3.75600 -2.76000 44.57600
C  5.27100 -5.93500 46.01800
C  6.05100 -2.77600 44.59800
O  7.27300 -3.01600 44.77300
C  5.53500 -1.53900 43.76400
C  6.10200 -0.23700 44.21200
O  6.92100 0.36600 43.52100
O  5.57900 0.24600 45.39600
C  6.07700 1.46500 45.96600
H  -0.74000 1.21300 42.53700
H  -3.35000 -4.13600 45.26800
H  2.27400 -6.58700 46.19700
H  4.11100 1.11700 42.72400
H  1.74800 1.35200 41.22000
H  1.59000 3.37700 42.24000
H  2.94900 2.80900 43.27900
H  1.16300 2.47500 43.68400
H  3.26400 0.23800 40.12800
H  4.08200 -1.06300 40.92400
H  5.99300 -0.15400 40.07800
H  5.76800 1.20500 41.24600
H  -4.34000 0.83400 42.45000
H  -2.73800 1.00800 41.74300
H  -3.03800 1.67300 43.41200
H  -5.00200 -2.85500 45.67000
H  -5.31000 -3.90400 44.21000
H  -6.54700 -2.83500 44.73800
H  -2.28100 -6.54700 45.28500
H  -0.17600 -6.75600 47.31100
H  -2.83700 -4.85800 47.55200
H  -2.18200 -6.24500 48.18400
H  -3.59300 -6.50000 47.20500
H  0.60700 -7.72400 44.74200
H  -0.99000 -8.45400 45.37500
H  1.69100 -9.04900 45.97700
H  0.25400 -9.94100 46.39400
H  0.68600 -8.75400 47.46700
H  4.83500 -6.31900 46.94100
H  6.27200 -5.55600 46.22500
H  5.29300 -6.72200 45.26500
H  5.85400 -1.59800 42.72400
H  6.91900 1.91000 45.43500
H  6.40800 1.16900 46.96200
H  5.22700 2.14700 46.00800
Mg 7.54300 54.49800 41.36200
C  6.92700 51.10500 40.43800
C  10.78800 54.19200 40.35000
C  7.74700 57.83800 41.54300
C  4.00900 54.69700 41.98300
N  8.60500 52.87800 40.31400
C  8.21400 51.60700 40.10700
C  9.30400 50.89400 39.28000
C  10.63800 51.61300 39.68200
C  10.01200 52.98300 40.22800
C  11.50400 50.93300 40.74300
C  9.00500 51.06300 37.74500
C  9.29900 49.78600 36.86800
H  8.77400 49.76400 35.43200
N  9.12200 55.83200 41.18100
C  10.38700 55.53000 40.72100
C  11.16600 56.71300 40.76400
C  10.36000 57.78200 41.18600
C  9.00500 57.20300 41.38300
C  12.66100 56.67400 40.35300
C  10.79200 59.13000 41.41300
O  11.99200 59.36200 41.29400
C  10.00400 60.26900 41.94400
N  6.03200 56.00100 41.71700
C  6.45700 57.33100 41.68400
C  5.18500 58.21400 41.77300
C  4.00600 57.21900 41.85700
C  4.68700 55.95000 41.83500
C  5.28000 59.41700 42.79500
C  2.99500 57.29800 40.66400
C  1.48600 57.35400 40.97900
N  5.81200 53.15200 41.46000
C  4.53600 53.39900 41.74100
C  3.84300 52.18400 41.71200
C  4.72300 51.23800 41.31500
C  5.93900 51.90900 40.98900
C  2.48000 51.98000 42.29800
C  4.96200 49.82400 41.02900
O  4.28100 48.80200 41.18100
C  6.35800 49.72100 40.28600
C  6.24800 49.32800 38.92300
O  5.68200 49.98600 38.07300
O  6.72200 48.02700 38.81100
C  6.41300 47.46600 37.45300
H  11.86200 54.19600 40.15500
H  7.81800 58.92700 41.58700
H  2.93400 54.60400 42.15100
H  9.16600 49.89200 39.68700
H  11.26000 51.77600 38.80100
H  11.71500 51.63000 41.55300
H  12.41300 50.46200 40.36800
H  10.81800 50.20700 41.17900
H  9.52300 51.92900 37.33300
H  7.94700 51.22500 37.53600
H  8.88100 48.94400 37.42000
H  10.37800 49.64300 36.81200
H  12.99800 57.61400 39.91600
H  12.94100 55.88400 39.65500
H  13.22300 56.44800 41.25900
H  9.61600 59.96200 42.91600
H  9.14000 60.59700 41.36700
H  10.60500 61.16200 42.11800
H  5.03000 58.74400 40.83300
H  3.46100 57.26500 42.79900
H  4.96900 60.29100 42.22400
H  6.27900 59.40600 43.23200
H  4.48300 59.38800 43.53800
H  3.18600 56.37200 40.12200
H  3.26700 58.09100 39.96800
H  1.06900 56.40500 40.64300
H  0.90800 58.09000 40.42000
H  1.34200 57.61200 42.02800
H  2.27600 50.91100 42.34600
H  1.77000 52.49100 41.64600
H  2.32000 52.48700 43.25000
H  6.95200 48.95600 40.78500
H  6.26900 46.44200 37.79800
H  7.25600 47.60200 36.77500
H  5.50600 47.83600 36.97500

