158

Mg -2.06500 17.07300 27.31400
C  -2.68500 14.85800 30.01700
C  -2.75300 19.66800 29.39000
C  -1.81700 19.09500 24.66800
C  -2.31900 14.29100 25.17500
N  -2.59100 17.16000 29.41400
C  -2.82900 16.19000 30.36000
C  -3.18800 16.76500 31.71500
C  -3.13900 18.29000 31.44200
C  -2.91700 18.36800 29.96700
C  -4.35400 19.16700 31.94600
C  -2.27000 16.46700 32.90100
C  -2.89700 15.45400 33.87300
H  -2.10300 15.22600 35.14000
N  -2.12500 19.16200 27.11100
C  -2.32200 20.09600 28.09800
C  -1.98700 21.39600 27.61800
C  -1.80300 21.26200 26.20900
C  -1.88800 19.81700 25.91500
C  -2.08700 22.65400 28.45900
C  -1.59600 22.35100 25.15500
O  -1.50500 21.99000 24.02100
C  -1.55400 23.82300 25.58200
N  -2.13500 16.64800 25.13900
C  -1.84600 17.69400 24.37000
C  -1.75100 17.16500 22.89300
C  -1.78900 15.59900 23.06500
C  -2.17000 15.48900 24.54300
C  -2.83300 17.75000 21.94000
C  -0.40100 14.94300 22.68700
C  0.83300 15.32900 23.47900
N  -2.30400 14.96300 27.51200
C  -2.39600 13.98900 26.57000
C  -2.65800 12.70200 27.15900
C  -2.67200 12.95600 28.55700
C  -2.48600 14.33800 28.67600
C  -2.85400 11.34600 26.43800
C  -2.89400 12.40200 29.79000
O  -3.15700 11.25600 30.10500
C  -2.66000 13.51100 30.81600
C  -1.34000 13.14000 31.49200
O  -0.36300 13.84300 31.45500
O  -1.51600 12.01600 32.33300
C  -0.40800 11.63400 33.31700
H  -2.84600 20.46600 30.12900
H  -1.66700 19.63200 23.72900
H  -2.58600 13.54100 24.42700
H  -4.22900 16.48700 31.88100
H  -2.25100 18.74800 31.87800
H  -4.63400 19.89500 31.18500
H  -4.02400 19.60900 32.88600
H  -5.10100 18.38500 32.08300
H  -1.91800 17.34400 33.44400
H  -1.47700 15.89200 32.42300
H  -2.99300 14.49100 33.37100
H  -3.90800 15.74000 34.16400
H  -2.78200 23.38100 28.03900
H  -1.13600 23.15600 28.63800
H  -2.33000 22.44800 29.50100
H  -0.79500 24.01900 26.33900
H  -2.51700 23.99000 26.06500
H  -1.43200 24.43000 24.68500
H  -0.76900 17.47300 22.53500
H  -2.51500 15.14800 22.38900
H  -3.53300 18.26800 22.59500
H  -3.44400 17.04200 21.38200
H  -2.31000 18.47800 21.32000
H  -0.18300 15.24400 21.66200
H  -0.58500 13.87300 22.78300
H  1.22700 14.51200 24.08300
H  0.82500 16.23100 24.09100
H  1.54000 15.53400 22.67500
H  -1.99900 11.04600 25.83300
H  -3.69900 11.54400 25.77800
H  -3.17100 10.59600 27.16300
H  -3.62800 13.49100 31.31500
H  -0.24500 10.55700 33.27900
H  -0.73100 11.86400 34.33300
H  0.53700 12.16500 33.20300
Mg 54.16300 24.41400 44.46000
C  51.45300 26.33800 43.29600
C  52.50200 21.65000 43.42800
C  57.03500 22.76600 44.52600
C  55.93500 27.42200 45.09600
N  52.16800 24.11900 43.41400
C  51.24800 24.97600 43.00200
C  50.01200 24.24000 42.44800
C  50.22800 22.75600 42.99400
C  51.72600 22.81300 43.37500
C  49.30200 22.26300 44.14700
C  49.87800 24.36400 40.86300
C  48.82100 23.43900 40.22800
H  48.33400 23.69200 38.77200
N  54.67000 22.43800 44.20900
C  53.82700 21.48600 43.80600
C  54.58000 20.19300 43.83800
C  55.93700 20.51800 43.97700
C  55.91000 21.94700 44.26300
C  53.83700 18.87500 43.67100
C  57.12300 19.52700 43.70300
O  56.83000 18.36900 43.42300
C  58.57200 19.89600 43.80500
N  56.24400 25.06400 44.62400
C  57.21700 24.13700 44.75500
C  58.61000 24.84100 44.81300
C  58.22500 26.32300 45.10400
C  56.73200 26.29700 44.89600
C  59.60700 24.17600 45.93200
C  58.93400 27.33000 44.15400
C  58.31500 27.74100 42.75000
N  53.73600 26.47100 44.36500
C  54.46300 27.59600 44.78400
C  53.65800 28.84900 44.69200
C  52.48800 28.36600 43.99500
C  52.59000 26.96000 43.87000
C  54.11000 30.14400 45.01000
C  51.27200 28.82100 43.32300
O  50.95000 29.96700 43.04900
C  50.56900 27.52000 42.86800
C  50.37600 27.67800 41.42700
O  51.18800 27.80100 40.55500
O  49.03400 27.70800 41.24000
C  48.64100 27.90500 39.80900
H  51.92700 20.82100 43.01000
H  57.94400 22.16100 44.55600
H  56.59200 28.27200 45.29300
H  49.16500 24.75500 42.90300
H  50.14200 21.99000 42.22300
H  48.81300 21.30800 43.95200
H  48.49700 22.99200 44.05400
H  49.77500 22.33000 45.12600
H  50.88400 24.15300 40.50000
H  49.63600 25.41400 40.70200
H  48.00800 23.42400 40.95400
H  49.26800 22.46000 40.05200
H  53.58100 18.80700 42.61300
H  52.97700 19.01500 44.32600
H  54.36200 18.02800 44.11200
H  58.92300 20.55500 43.01100
H  59.20600 19.01800 43.68400
H  58.75700 20.23700 44.82400
H  59.06700 24.64200 43.84300
H  58.48900 26.57300 46.13100
H  60.29100 24.96700 46.24200
H  60.19900 23.34800 45.54300
H  59.11900 23.99100 46.88800
H  59.97000 27.07900 43.92700
H  59.18500 28.22200 44.72800
H  58.03700 28.79400 42.69500
H  57.46100 27.12200 42.47400
H  59.06300 27.62100 41.96600
H  55.14800 30.10300 44.67900
H  54.06200 30.38000 46.07300
H  53.56400 30.99000 44.59200
H  49.64400 27.62900 43.43400
H  48.65500 26.94500 39.29200
H  49.36100 28.57800 39.34400
H  47.70800 28.42800 39.60100

