158

Mg 25.86700 50.01100 27.18500
C  23.71200 50.87800 29.87500
C  28.07600 48.92200 29.50800
C  27.96300 49.69600 24.71800
C  23.39700 51.45300 25.01000
N  25.94300 49.96900 29.37500
C  24.96900 50.35400 30.25800
C  25.34200 49.92100 31.77400
C  26.82100 49.48700 31.59800
C  26.95000 49.44600 30.04500
C  27.77700 50.39500 32.38500
C  24.36800 48.86100 32.44500
C  23.60300 49.09100 33.80100
H  24.23300 49.96000 34.91200
N  27.73800 49.32500 27.10000
C  28.53400 48.87700 28.14300
C  29.78100 48.36200 27.65600
C  29.80400 48.60600 26.24800
C  28.46100 49.24600 25.97500
C  30.80100 47.86800 28.56200
C  30.81900 48.39900 25.26500
O  30.81800 49.03700 24.21700
C  31.96700 47.55800 25.66800
N  25.69300 50.57400 25.20500
C  26.72400 50.31400 24.36600
C  26.33600 50.59400 22.95200
C  24.83300 50.95100 23.00600
C  24.63900 50.97000 24.50400
C  27.09500 51.75000 22.20700
C  24.02200 49.83600 22.24100
C  24.23600 48.31400 22.56200
N  23.87900 50.84100 27.34200
C  23.10600 51.46000 26.38200
C  21.89800 51.84300 27.05600
C  22.07700 51.66100 28.42300
C  23.32200 51.00900 28.54500
C  20.67700 52.37100 26.46100
C  21.53400 51.93500 29.72000
O  20.46600 52.49700 30.01700
C  22.63100 51.51800 30.76700
C  23.04500 52.76500 31.52100
O  23.54500 53.77000 31.07200
O  22.69300 52.52400 32.77300
C  22.95200 53.47500 33.80000
H  28.65100 48.45700 30.31100
H  28.61000 49.42600 23.88100
H  22.60800 51.72400 24.30500
H  25.19200 50.91400 32.19700
H  26.88700 48.46000 31.95800
H  28.10300 49.97100 33.33500
H  27.30500 51.34500 32.63500
H  28.59200 50.64800 31.70600
H  24.88900 47.92100 32.62800
H  23.60300 48.55600 31.73200
H  23.42900 48.09700 34.21300
H  22.64100 49.55600 33.58500
H  30.77100 46.77800 28.54800
H  30.53500 48.02400 29.60800
H  31.80400 48.27700 28.44500
H  31.61800 46.60200 26.05700
H  32.63300 47.99500 26.41300
H  32.43200 47.37600 24.69900
H  26.52200 49.70100 22.35500
H  24.51600 51.93200 22.65400
H  26.49900 52.42900 21.59800
H  27.86900 51.29700 21.58700
H  27.55500 52.33000 23.00700
H  24.35000 49.93700 21.20600
H  22.96900 50.12000 22.26200
H  23.27300 47.82400 22.70700
H  24.77800 48.10700 23.48500
H  24.82700 47.80000 21.80400
H  20.40100 51.81500 25.56600
H  20.69900 53.40700 26.12400
H  19.83900 52.25500 27.14900
H  22.22900 50.80700 31.48900
H  22.06200 53.81500 34.32900
H  23.58100 54.23100 33.33000
H  23.54500 52.94500 34.54500
Mg 7.14700 56.78900 42.44300
C  6.00200 53.38600 41.94900
C  10.00300 55.89000 40.96300
C  7.69900 60.00200 42.16200
C  3.83900 57.43400 43.68600
N  7.82200 54.87100 41.37100
C  7.27500 53.63400 41.30000
C  8.21500 52.70900 40.50400
C  9.55200 53.37700 40.79500
C  9.13300 54.82800 40.98100
C  10.45800 52.75900 41.94200
C  7.79400 52.61500 38.98300
C  7.54300 51.24100 38.44000
H  6.69500 51.16400 37.13200
N  8.57800 57.80600 41.48000
C  9.78600 57.28000 41.06700
C  10.68600 58.41400 40.67100
C  9.91100 59.64400 40.90500
C  8.71100 59.19500 41.59900
C  12.10100 58.07900 40.23100
C  10.35600 61.08200 40.54000
O  11.51500 61.20700 40.16800
C  9.35400 62.29100 40.46200
N  5.90900 58.45800 42.94100
C  6.41200 59.66800 42.74000
C  5.35400 60.79100 43.10400
C  4.09300 59.91500 43.50800
C  4.68600 58.46600 43.56600
C  5.71300 61.84200 44.15800
C  2.82100 60.02000 42.63700
C  1.51600 60.72800 43.16000
N  5.36600 55.70100 42.83600
C  4.14700 56.12900 43.43500
C  3.35200 54.96400 43.67900
C  4.04300 53.84700 43.11300
C  5.28500 54.37100 42.62500
C  1.93300 54.99500 44.31600
C  3.99700 52.39600 42.77500
O  3.10100 51.59900 43.00700
C  5.27600 52.07600 42.05600
C  4.94500 51.48800 40.67400
O  4.67500 52.09200 39.65900
O  4.98100 50.12400 40.76100
C  4.53400 49.46100 39.54400
H  11.01800 55.57400 40.71400
H  7.87600 61.07900 42.12200
H  2.94100 57.59700 44.28400
H  8.16500 51.70400 40.92200
H  10.23700 53.36400 39.94800
H  9.88600 52.07800 42.57100
H  10.92900 53.52400 42.55900
H  11.30200 52.17500 41.57500
H  8.58400 53.13800 38.44200
H  6.93200 53.24900 38.77700
H  6.89100 50.72000 39.14100
H  8.45600 50.66300 38.29500
H  12.24100 58.10100 39.15000
H  12.35600 57.04200 40.45100
H  12.77600 58.74300 40.76900
H  8.40000 61.91200 40.09600
H  9.66300 62.90400 39.61500
H  9.37700 62.85400 41.39500
H  5.15900 61.40000 42.22100
H  3.76700 60.30500 44.47200
H  6.54100 61.33600 44.65600
H  4.91400 62.04500 44.87100
H  5.98400 62.80300 43.72100
H  2.62800 59.06700 42.14400
H  3.00100 60.62800 41.75000
H  1.31900 61.68200 42.67300
H  1.60400 60.96600 44.22000
H  0.60000 60.15600 43.01400
H  1.91200 55.39000 45.33200
H  1.50900 53.99300 44.24200
H  1.29200 55.64200 43.71800
H  5.83800 51.31400 42.59700
H  3.44800 49.50300 39.46300
H  4.89400 48.43700 39.63700
H  5.02500 49.87600 38.66400

