158

Mg 35.83900 48.99400 25.88000
C  35.77100 47.22500 28.93200
C  34.37700 51.67100 27.41700
C  35.84800 50.58700 22.90100
C  37.10100 46.03600 24.31500
N  35.26300 49.35700 28.00600
C  35.42600 48.60300 29.08100
C  35.24200 49.48400 30.38600
C  34.62500 50.81500 29.84200
C  34.74200 50.56400 28.26100
C  33.21600 51.20100 30.31900
C  36.49900 49.56000 31.25300
C  36.33500 48.98400 32.70800
H  34.97600 48.87100 33.35700
N  35.11300 50.87200 25.25000
C  34.59000 51.83100 26.02900
C  34.36600 52.97700 25.22700
C  34.55800 52.55600 23.84000
C  35.23900 51.35500 23.92300
C  33.79300 54.23000 25.87200
C  34.27600 53.21100 22.56300
O  34.76900 52.96900 21.44700
C  33.24200 54.40800 22.61200
N  36.28800 48.39700 23.89800
C  36.34200 49.31600 22.92300
C  36.98700 48.69800 21.63000
C  37.37200 47.27100 22.05600
C  36.87600 47.16700 23.51200
C  36.03800 48.59900 20.44700
C  38.98400 47.07300 21.96000
C  39.77300 47.73600 23.13200
N  36.36900 47.12000 26.44400
C  36.90500 46.05300 25.71300
C  37.13200 44.91700 26.59600
C  36.67500 45.35700 27.83900
C  36.21600 46.66500 27.70900
C  37.62500 43.61400 26.16000
C  36.58200 44.86700 29.19800
O  36.77400 43.79100 29.71300
C  36.00500 46.10000 29.95600
C  34.89100 45.66500 30.82600
O  33.75000 45.60400 30.49700
O  35.37500 45.30500 32.09900
C  34.35000 44.55800 32.83600
H  33.89700 52.54800 27.85400
H  35.95900 51.16400 21.98000
H  37.64400 45.17500 23.91900
H  34.50900 48.97900 31.01500
H  35.23100 51.65900 30.17100
H  32.66900 51.43300 29.40600
H  33.17900 52.09600 30.94100
H  32.75100 50.36700 30.84400
H  36.82000 50.59000 31.40900
H  37.32400 48.98300 30.83400
H  36.98000 49.50200 33.41800
H  36.77000 47.98500 32.73300
H  33.85800 55.11400 25.23700
H  34.41100 54.57200 26.70300
H  32.78000 54.05400 26.23400
H  33.54900 55.30200 23.15500
H  32.33500 53.99300 23.05200
H  33.07000 54.79200 21.60700
H  37.87100 49.29000 21.39600
H  36.76900 46.55700 21.49400
H  35.34300 47.77200 20.59200
H  36.65900 48.37100 19.58000
H  35.57800 49.58300 20.35200
H  39.30100 47.59600 21.05700
H  39.27700 46.02500 21.90200
H  40.63600 48.33900 22.85000
H  40.13900 46.87300 23.68800
H  39.08000 48.27400 23.77900
H  38.67900 43.68500 25.89300
H  37.04300 43.28600 25.29800
H  37.61400 43.02700 27.07800
H  36.75500 46.50200 30.63700
H  34.83800 43.97200 33.61500
H  33.70500 43.94200 32.21000
H  33.65600 45.18700 33.39400
Mg -6.13300 25.35300 25.05000
C  -4.59500 26.62800 28.05600
C  -7.91200 23.16100 27.08500
C  -7.52400 24.07400 22.24100
C  -4.13500 27.59700 23.23300
N  -6.24700 24.92000 27.32600
C  -5.62600 25.67100 28.29400
C  -6.08500 25.26200 29.64500
C  -6.95400 23.94400 29.27900
C  -6.94400 23.89000 27.79800
C  -6.40600 22.68400 29.92600
C  -6.88500 26.34600 30.44800
C  -6.72100 26.44300 31.94700
H  -6.02300 25.37300 32.76600
N  -7.54400 23.82900 24.73700
C  -8.12300 23.03400 25.71800
C  -8.95300 22.03400 25.05300
C  -8.90000 22.25200 23.65500
C  -7.95400 23.42600 23.46700
C  -9.75100 21.02000 25.92600
C  -9.69600 21.66700 22.54600
O  -9.57600 22.08300 21.36000
C  -10.52600 20.53200 22.76100
N  -5.77500 25.69600 23.03800
C  -6.56200 25.07000 22.07400
C  -6.17500 25.68000 20.66100
C  -5.17800 26.83800 20.97300
C  -4.94700 26.69800 22.50400
C  -5.42200 24.65600 19.75000
C  -5.75700 28.33500 20.71700
C  -4.94200 29.14100 19.69700
N  -4.70500 26.81100 25.47600
C  -3.92300 27.59000 24.62500
C  -3.07900 28.37500 25.36500
C  -3.38100 28.09900 26.69800
C  -4.30000 27.10000 26.74700
C  -2.01500 29.22600 24.74300
C  -3.01700 28.45400 28.09900
O  -2.23600 29.29900 28.51000
C  -3.82600 27.48000 29.00700
C  -2.78800 26.81100 29.80500
O  -1.91000 26.04100 29.43300
O  -2.93900 27.15600 31.10800
C  -1.96500 26.67700 32.07400
H  -8.36900 22.51200 27.83500
H  -7.93400 23.73100 21.28900
H  -3.59400 28.31700 22.61500
H  -5.22900 25.08200 30.29500
H  -7.98000 24.05400 29.63100
H  -5.41300 22.82700 30.35200
H  -6.35000 21.85600 29.21900
H  -7.16300 22.34300 30.63200
H  -7.95900 26.24600 30.28900
H  -6.59600 27.31800 30.04900
H  -7.69300 26.47200 32.44000
H  -6.20400 27.37500 32.17500
H  -9.56700 19.98900 25.62600
H  -10.82200 21.05700 25.72700
H  -9.72700 21.17100 27.00500
H  -11.22700 20.72000 23.57500
H  -9.90900 19.68900 23.07200
H  -11.19800 20.21600 21.96300
H  -7.00200 25.95100 20.00500
H  -4.19200 26.69800 20.53000
H  -6.09100 23.89300 19.35200
H  -4.77500 24.12000 20.44400
H  -4.80000 25.24500 19.07600
H  -5.99600 28.92900 21.59900
H  -6.70500 28.15500 20.21100
H  -5.57900 29.31200 18.82900
H  -4.07600 28.57600 19.35000
H  -4.66400 30.11700 20.09400
H  -1.39000 29.57600 25.56400
H  -2.46200 30.15000 24.37400
H  -1.34100 28.73500 24.04100
H  -4.45400 28.09700 29.65000
H  -1.50100 25.73200 31.79100
H  -2.53000 26.44500 32.97700
H  -1.14100 27.38000 32.19600

