158

Mg 2.15400 -2.12000 43.97500
C  5.37400 -0.87000 43.59500
C  1.04400 0.69900 42.43000
C  -0.93400 -3.57900 43.67700
C  3.51500 -5.20000 44.93000
N  3.08900 -0.36200 43.09600
C  4.40300 -0.07300 43.08600
C  4.64500 1.21600 42.32400
C  3.24100 1.90600 42.30800
C  2.39600 0.70700 42.74500
C  3.19100 3.10900 43.21900
C  5.21600 0.90800 40.90600
C  6.36400 1.86200 40.32700
H  7.09400 1.18700 39.16100
N  0.28900 -1.50600 43.12800
C  0.07200 -0.33000 42.52900
C  -1.29800 -0.25500 42.11800
C  -1.91700 -1.42000 42.55900
C  -0.85000 -2.25400 43.15200
C  -1.89200 1.00700 41.44300
C  -3.38800 -1.77200 42.43300
O  -4.19000 -0.99500 41.94100
C  -3.94400 -2.96600 43.06500
N  1.36900 -4.12000 44.25000
C  0.05700 -4.38700 44.25700
C  -0.14800 -5.83100 44.69700
C  1.29100 -6.35400 45.12800
C  2.09700 -5.20300 44.64700
C  -1.19800 -5.96100 45.80500
C  1.78400 -7.70000 44.46500
C  2.50300 -8.59500 45.55200
N  4.04100 -2.91900 44.33600
C  4.43600 -4.10600 44.84900
C  5.88800 -4.09900 44.98400
C  6.28500 -2.85900 44.50100
C  5.10300 -2.19400 44.07600
C  6.66700 -5.25800 45.50500
C  7.43300 -2.01900 44.25800
O  8.65200 -2.20300 44.34500
C  6.88900 -0.67500 43.68400
C  7.24200 0.36700 44.74500
O  6.65400 0.59700 45.81400
O  8.33100 1.10100 44.25400
C  8.70500 2.38200 44.98300
H  0.70100 1.65200 42.02200
H  -1.85300 -4.14200 43.49500
H  3.93400 -6.13300 45.31200
H  5.37200 1.83800 42.84600
H  3.02800 2.22000 41.28600
H  4.07200 3.31700 43.82700
H  2.45100 2.92400 43.99800
H  3.03500 3.94000 42.53200
H  4.44200 1.11500 40.16600
H  5.46700 -0.15100 40.84800
H  7.13800 2.03800 41.07300
H  5.94400 2.84300 40.10800
H  -1.93600 1.68000 42.29900
H  -2.85400 0.87900 40.94600
H  -1.18700 1.37600 40.69800
H  -3.74300 -3.89000 42.52300
H  -5.01500 -2.76600 43.08800
H  -3.55000 -2.96600 44.08200
H  -0.38900 -6.34400 43.76600
H  1.35300 -6.41200 46.21500
H  -1.51400 -4.96800 46.12300
H  -0.90500 -6.58700 46.64800
H  -2.01100 -6.53900 45.36500
H  2.43600 -7.40800 43.64200
H  0.92800 -8.28500 44.13100
H  2.07200 -8.54700 46.55200
H  3.58900 -8.65500 45.47400
H  2.25600 -9.56700 45.12600
H  7.56600 -4.90700 46.01100
H  6.99500 -5.84000 44.64300
H  6.10000 -5.95200 46.12500
H  7.37500 -0.46200 42.73100
H  7.81400 2.93200 45.28700
H  9.45100 3.00500 44.49000
H  9.11100 2.14300 45.96600
Mg 42.50000 41.94600 26.21900
C  41.50300 44.27400 28.70000
C  43.41900 39.77400 28.80000
C  43.50900 39.63300 23.93000
C  41.88700 44.21000 23.80000
N  42.33900 41.98500 28.51900
C  41.91900 43.07300 29.25700
C  41.89600 42.64700 30.76200
C  42.66800 41.22400 30.79500
C  42.75500 40.93600 29.26500
C  43.86600 41.02400 31.69200
C  40.47100 42.57700 31.40900
C  40.33700 43.23600 32.75000
H  41.34600 42.97800 33.84600
N  43.37500 40.07000 26.32600
C  43.66500 39.42000 27.48300
C  44.11300 38.07400 27.12900
C  43.97200 37.91800 25.72600
C  43.67400 39.21000 25.21900
C  44.51000 36.91900 28.17400
C  44.16600 36.70500 24.87400
O  44.04500 36.66800 23.66900
C  44.48100 35.35300 25.50800
N  42.75900 41.89600 24.21400
C  43.26200 40.89700 23.43200
C  43.34400 41.28700 21.92900
C  42.69800 42.71800 21.90200
C  42.39700 42.94100 23.43200
C  44.73000 41.14600 21.15600
C  41.40600 42.69000 21.10700
C  40.18600 42.06400 21.81900
N  41.75000 43.82100 26.20600
C  41.58300 44.66000 25.12200
C  41.18700 46.01900 25.59400
C  41.12700 45.86700 27.00900
C  41.45200 44.51900 27.32200
C  40.93200 47.21100 24.79700
C  40.75100 46.53700 28.23600
O  40.52900 47.76300 28.34600
C  41.01400 45.54200 29.42500
C  42.02300 46.10200 30.24500
O  43.01100 46.59700 29.74200
O  41.79200 45.82100 31.56800
C  42.85200 46.28600 32.43300
H  43.50000 38.99300 29.55900
H  43.87500 38.97000 23.14300
H  41.68700 45.01200 23.08700
H  42.47700 43.35200 31.35500
H  42.10400 40.35400 31.13300
H  44.56000 40.41900 31.10900
H  43.66500 40.58000 32.66800
H  44.44900 41.93000 31.85500
H  40.05800 41.57000 31.37400
H  39.92200 43.16200 30.67100
H  39.40000 42.84800 33.14800
H  40.20500 44.31000 32.61500
H  45.45000 36.44100 27.89900
H  43.68500 36.22200 28.31700
H  44.67600 37.40400 29.13600
H  43.86000 35.21900 26.39400
H  45.56300 35.38400 25.63700
H  44.29400 34.46000 24.91100
H  42.73500 40.57300 21.37300
H  43.38800 43.44500 21.47400
H  45.38200 41.96400 21.46100
H  44.56300 41.24500 20.08300
H  45.09800 40.14400 21.37900
H  41.58000 42.06400 20.23200
H  41.19800 43.73400 20.87300
H  39.83500 41.17400 21.29700
H  39.51900 42.92700 21.83700
H  40.36100 41.69700 22.83000
H  41.40500 46.94300 23.85300
H  41.57600 47.92000 25.31900
H  39.90600 47.52800 24.61100
H  40.14800 45.23300 30.01000
H  43.26000 47.25100 32.13300
H  43.71500 45.62800 32.33900
H  42.51500 46.31600 33.46900

