158

Mg 46.22600 44.23300 43.51400
C  42.97200 43.42600 43.54000
C  47.13200 40.99700 42.64100
C  49.35300 45.38000 42.50500
C  45.43500 47.62800 44.16200
N  45.13300 42.48000 43.02200
C  43.82600 42.30600 43.17100
C  43.39500 40.91900 42.80200
C  44.71600 40.11800 42.86400
C  45.78800 41.27200 42.85800
C  44.91000 39.07300 44.07600
C  42.39000 40.82400 41.54800
C  42.76100 41.83700 40.39700
H  42.30800 41.61900 38.95200
N  47.97500 43.31200 42.78800
C  48.13700 42.02100 42.55400
C  49.48900 41.75300 42.03200
C  50.19300 42.96900 42.12800
C  49.17200 44.01100 42.44500
C  49.96900 40.35200 41.56400
C  51.69100 43.20200 41.96900
O  52.49800 42.31600 41.77600
C  52.38300 44.54500 41.97400
N  47.19500 46.30200 43.15600
C  48.49200 46.45200 42.79200
C  48.93600 47.97400 42.77900
C  47.74800 48.70700 43.50100
C  46.76200 47.48100 43.70500
C  50.29100 48.20900 43.47100
C  47.16800 50.02700 42.77500
C  47.13200 51.35600 43.54500
N  44.54900 45.34600 43.94700
C  44.34000 46.66200 44.17500
C  42.89200 46.89600 44.43300
C  42.34500 45.61600 44.19300
C  43.37600 44.72100 43.88000
C  42.29000 48.27000 44.67600
C  41.16000 44.88300 44.14800
O  40.01300 45.28500 44.32400
C  41.44500 43.35900 43.74400
C  41.02800 42.57700 44.93000
O  40.23600 41.59600 44.87400
O  41.74500 42.95000 46.07800
C  41.20300 42.46700 47.34300
H  47.36400 39.93900 42.50200
H  50.27700 45.54800 41.94600
H  45.18700 48.67400 44.35300
H  42.76300 40.61000 43.63600
H  44.86300 39.52200 41.96400
H  45.73500 39.29500 44.75200
H  45.04500 38.07400 43.66300
H  43.93000 38.98700 44.54500
H  41.32600 40.73000 41.76500
H  42.45900 39.86100 41.04200
H  43.83800 41.98100 40.48500
H  42.18600 42.74100 40.59600
H  49.95800 39.67900 42.42100
H  50.98300 40.51600 41.19700
H  49.35500 40.04300 40.71900
H  52.01700 45.14500 42.80700
H  52.08200 45.11400 41.09500
H  53.47200 44.49800 42.01000
H  48.82300 48.18400 41.71600
H  48.16200 48.97100 44.47500
H  50.57800 47.34100 44.06300
H  50.37700 49.18200 43.95500
H  51.14300 48.20900 42.79100
H  46.14200 49.85500 42.44900
H  47.80600 50.24200 41.91800
H  47.50900 52.16100 42.91400
H  47.75400 51.26300 44.43600
H  46.11200 51.66800 43.77000
H  42.16300 48.74300 43.70200
H  42.84800 49.00600 45.25500
H  41.30700 48.10900 45.11800
H  40.93700 43.02000 42.84100
H  41.85900 42.83300 48.13300
H  41.09300 41.38200 47.33600
H  40.20900 42.85800 47.56100
Mg 40.47800 41.69400 27.07800
C  39.67700 44.09100 29.61600
C  41.31500 39.48700 29.60100
C  41.40700 39.64300 24.64400
C  40.10600 44.43900 24.85400
N  40.47500 41.79200 29.37600
C  40.06300 42.86200 30.16200
C  40.03100 42.42900 31.66400
C  40.61300 40.94500 31.63200
C  40.82900 40.68400 30.13200
C  41.85800 40.64400 32.53000
C  38.60400 42.61500 32.32800
C  38.33100 41.74100 33.55200
H  37.61100 42.46400 34.59000
N  41.27000 39.79500 27.10300
C  41.51000 39.03300 28.24000
C  42.04300 37.72400 27.77900
C  42.09400 37.75300 26.34500
C  41.59600 39.08300 25.95200
C  42.36000 36.57000 28.82000
C  42.54700 36.71600 25.34600
O  42.81000 36.95400 24.16200
C  42.88200 35.33300 25.89000
N  40.77000 42.01200 25.02800
C  41.14300 40.99000 24.22300
C  41.29100 41.44600 22.79000
C  40.80200 42.88900 22.85200
C  40.47800 43.17100 24.33900
C  42.76100 41.31700 22.21100
C  39.71800 43.14100 21.79300
C  38.31500 43.36900 22.36900
N  40.04800 43.80300 27.16200
C  39.96200 44.74000 26.16700
C  39.50100 46.02100 26.69100
C  39.36900 45.82100 28.06200
C  39.80000 44.46200 28.26500
C  39.14800 47.34200 26.06200
C  38.95900 46.39600 29.33200
O  38.60800 47.50000 29.52800
C  39.17100 45.32500 30.40700
C  40.09400 45.87100 31.46900
O  41.31200 45.89400 31.35700
O  39.37900 46.33800 32.53700
C  40.18300 46.85500 33.62900
H  41.41000 38.81300 30.45500
H  41.53300 38.94200 23.81600
H  39.82600 45.14400 24.06900
H  40.67600 43.09800 32.23500
H  39.85200 40.22200 31.92800
H  41.73000 39.68800 33.03900
H  42.00200 41.42600 33.27500
H  42.71500 40.49200 31.87300
H  37.76800 42.36300 31.67600
H  38.64400 43.66100 32.63200
H  39.22600 41.35000 34.03700
H  37.71300 40.86600 33.34700
H  41.63000 35.76100 28.79700
H  42.23600 36.80400 29.87700
H  43.37000 36.20300 28.63700
H  41.96000 35.09400 26.42000
H  43.79900 35.34200 26.48000
H  43.03200 34.66000 25.04500
H  40.69400 40.89800 22.06000
H  41.60200 43.59300 22.62500
H  43.21600 40.52700 22.80900
H  43.36300 42.21300 22.35900
H  42.77100 40.97900 21.17400
H  39.78700 42.36700 21.02900
H  40.07100 44.04900 21.30300
H  37.86200 44.32700 22.11300
H  38.16800 43.15200 23.42700
H  37.76500 42.62600 21.79000
H  38.94900 48.08100 26.83800
H  38.27900 47.23100 25.41300
H  39.91400 47.82200 25.45400
H  38.21700 45.12000 30.89300
H  40.90200 47.59700 33.28000
H  40.79200 46.13100 34.16900
H  39.56100 47.41000 34.33100

