158

Mg 47.68200 25.68700 28.36600
C  48.65500 27.86500 31.01900
C  46.86700 23.33200 30.76500
C  46.94700 23.73900 25.85600
C  49.26700 27.89800 26.14900
N  47.73800 25.65700 30.67700
C  48.18600 26.59500 31.49400
C  47.66900 26.34100 32.90200
C  47.14200 24.87300 32.84300
C  47.25000 24.60400 31.34400
C  47.86200 23.71300 33.63100
C  46.65900 27.39100 33.56100
C  46.91000 28.03500 34.92500
H  45.68700 28.51600 35.71900
N  47.12500 23.80700 28.26100
C  46.80400 22.98400 29.32400
C  46.36300 21.74000 28.87600
C  46.40700 21.79800 27.37200
C  46.87900 23.19200 27.08100
C  45.96200 20.58300 29.77100
C  46.19800 20.69800 26.37500
O  46.48400 20.82100 25.20600
C  45.64400 19.39400 26.82500
N  48.10400 25.82800 26.34000
C  47.53000 24.94100 25.50000
C  47.69300 25.26600 24.08300
C  48.52300 26.51300 24.05800
C  48.67400 26.76400 25.58300
C  47.92800 24.09300 23.14400
C  47.94900 27.62400 23.24500
C  48.25700 27.49400 21.75500
N  48.53700 27.65900 28.47900
C  49.19800 28.36300 27.48700
C  49.71800 29.54500 28.09100
C  49.51800 29.42100 29.43400
C  48.83500 28.23600 29.62900
C  50.57100 30.59600 27.37900
C  49.69300 30.05500 30.73100
O  50.27300 31.06900 31.07600
C  49.07100 29.04300 31.80300
C  50.10800 28.86000 32.86800
O  50.83300 27.86300 32.86400
O  49.88000 29.80200 33.83800
C  50.60800 29.45400 35.07900
H  46.46000 22.62400 31.49000
H  46.62100 23.08900 25.04200
H  49.68600 28.59900 25.42400
H  48.59700 26.37600 33.47300
H  46.06700 24.93100 33.01500
H  48.17800 22.91200 32.96300
H  47.11100 23.28200 34.29300
H  48.70300 24.09300 34.21100
H  45.71400 26.87400 33.73000
H  46.44700 28.22600 32.89400
H  47.61400 28.86700 34.90900
H  47.35600 27.26400 35.55400
H  46.53000 19.71000 29.45100
H  44.91900 20.27200 29.71300
H  46.26500 20.58900 30.81800
H  45.36700 18.88400 25.90300
H  44.73200 19.48300 27.41500
H  46.39000 18.87900 27.43100
H  46.69400 25.58400 23.78400
H  49.58100 26.35700 23.84500
H  48.13400 23.17100 23.68900
H  48.67800 24.24200 22.36800
H  46.95100 23.98700 22.67200
H  48.34100 28.61300 23.48300
H  46.87100 27.78100 23.25700
H  47.31800 27.63900 21.22200
H  48.60400 26.46400 21.67500
H  48.98500 28.24300 21.44400
H  51.40000 29.89100 27.31700
H  50.76100 31.46000 28.01600
H  50.23900 30.76600 26.35500
H  48.23400 29.47600 32.35000
H  50.07600 28.57700 35.44700
H  50.81500 30.38200 35.61200
H  51.59200 29.14300 34.72700
Mg 42.60800 42.24000 25.82200
C  41.33300 44.35900 28.26300
C  43.81500 40.23500 28.24000
C  43.60700 40.06400 23.44100
C  41.57500 44.50300 23.44600
N  42.39100 42.23400 28.02300
C  41.91200 43.21500 28.86300
C  42.07600 42.94900 30.31200
C  43.00200 41.60700 30.30100
C  43.15900 41.35100 28.74700
C  44.39400 41.75800 30.96300
C  40.77400 42.74000 31.16800
C  40.83500 43.43400 32.55300
H  39.60700 43.58400 33.44900
N  43.63600 40.39900 25.81900
C  43.95500 39.73600 26.97500
C  44.49500 38.44800 26.57500
C  44.57300 38.39600 25.17200
C  43.92500 39.59300 24.73000
C  44.96600 37.38100 27.64800
C  45.31300 37.44700 24.31200
O  45.35900 37.64900 23.08500
C  46.08700 36.30900 24.83600
N  42.63000 42.25800 23.75200
C  43.16500 41.32000 22.92500
C  43.18300 41.82400 21.46500
C  42.36300 43.09100 21.51700
C  42.15600 43.34500 22.97500
C  44.58500 42.00800 20.82000
C  41.07800 42.88100 20.69000
C  40.52000 44.18800 19.96300
N  41.53200 44.02800 25.78000
C  41.17400 44.85100 24.75400
C  40.55300 46.08100 25.21200
C  40.59000 45.89700 26.65300
C  41.19400 44.66600 26.87200
C  40.00600 47.21100 24.42800
C  40.25200 46.46400 27.96900
O  39.70600 47.52100 28.24300
C  40.67600 45.52900 29.05700
C  41.74700 46.13000 29.82300
O  42.85200 46.29900 29.38600
O  41.28300 46.54000 31.02200
C  42.32600 47.10100 31.88100
H  44.24600 39.58000 29.00000
H  43.99100 39.45000 22.62400
H  41.19000 45.23500 22.73300
H  42.68200 43.73500 30.76300
H  42.56500 40.72600 30.77100
H  44.63000 41.07800 31.78100
H  44.55100 42.69000 31.50400
H  45.21500 41.76000 30.24600
H  40.71800 41.67000 31.36500
H  39.95100 43.05300 30.52600
H  41.49300 44.30200 32.52100
H  41.53300 42.82400 33.12600
H  44.32500 37.59400 28.50400
H  46.01000 37.56000 27.90600
H  44.84500 36.33500 27.36600
H  46.59600 35.74100 24.05800
H  45.45000 35.63000 25.40300
H  46.81200 36.74100 25.52600
H  42.72400 40.95900 20.98700
H  42.92100 44.00300 21.30200
H  44.76600 43.06400 20.62000
H  44.57000 41.44000 19.88900
H  45.27600 41.53700 21.51900
H  40.34400 42.51200 21.40600
H  41.34100 42.14600 19.93000
H  39.49600 44.44700 20.23000
H  40.56600 43.95900 18.89900
H  41.12400 45.07600 20.15100
H  39.54400 47.96700 25.06300
H  39.27700 46.83900 23.70900
H  40.80200 47.73400 23.89900
H  39.88700 45.19000 29.72800
H  43.04400 46.34400 32.19800
H  41.90400 47.64300 32.72700
H  42.86900 47.78300 31.22600

