158

Mg 41.68600 40.36400 27.11500
C  41.06800 42.78100 29.65500
C  42.90300 38.19500 29.43700
C  42.04000 38.03200 24.62400
C  41.07800 42.81600 24.80400
N  41.95600 40.62500 29.29300
C  41.47400 41.56000 30.19700
C  41.78900 41.15900 31.69700
C  42.27100 39.68600 31.54000
C  42.39800 39.46500 29.98200
C  43.53400 39.27500 32.32700
C  40.66100 41.42800 32.68800
C  40.75000 40.87500 34.13100
H  40.87900 41.83500 35.27700
N  42.25500 38.33900 27.01400
C  42.78300 37.71200 28.08800
C  43.13200 36.39300 27.70800
C  43.00000 36.31900 26.34500
C  42.36900 37.56100 25.90800
C  43.67100 35.27700 28.71800
C  43.27700 35.23100 25.35800
O  42.97800 35.20000 24.12500
C  44.16700 34.12300 25.90400
N  41.61200 40.49000 25.03700
C  41.63200 39.34900 24.23100
C  41.32900 39.77800 22.78200
C  40.85600 41.28900 22.95800
C  41.28700 41.54900 24.32600
C  42.46800 39.67000 21.71600
C  39.33200 41.54200 22.79600
C  38.35700 40.42200 23.20200
N  41.30500 42.43200 27.16700
C  41.14900 43.33400 26.13300
C  40.94300 44.73500 26.59400
C  40.85000 44.55100 27.98600
C  41.07800 43.16000 28.28500
C  40.94200 45.92100 25.74800
C  40.64700 45.17700 29.28300
O  40.40200 46.36000 29.56200
C  40.83000 44.09800 30.43700
C  42.05000 44.56200 31.21000
O  43.17700 44.65200 30.76300
O  41.66800 44.85600 32.44800
C  42.73900 45.29300 33.39700
H  43.14500 37.43500 30.18200
H  42.02000 37.31300 23.80200
H  40.76900 43.55800 24.06400
H  42.53500 41.86900 32.05400
H  41.46700 39.06600 31.93600
H  44.00300 40.12300 32.82700
H  44.31500 38.95500 31.63700
H  43.38300 38.51000 33.08800
H  39.73400 41.01400 32.29100
H  40.29000 42.44400 32.55000
H  41.60200 40.19600 34.17700
H  40.01800 40.07800 34.26000
H  43.38000 35.26200 29.76900
H  44.75600 35.17200 28.70000
H  43.32500 34.28300 28.43400
H  43.58800 33.36800 26.43500
H  44.96200 34.57100 26.50000
H  44.56500 33.60100 25.03400
H  40.52500 39.24300 22.27600
H  41.44300 41.81600 22.20600
H  42.04900 39.29900 20.78000
H  43.21700 38.93500 22.01400
H  43.02400 40.59400 21.55400
H  39.23700 41.67400 21.71800
H  38.96200 42.44000 23.29100
H  37.56800 40.81000 23.84700
H  38.83600 39.67200 23.83200
H  37.98600 39.92300 22.30700
H  40.64900 46.83200 26.27000
H  40.36600 45.92700 24.82300
H  42.00600 46.02200 25.53400
H  39.93900 44.15800 31.06200
H  43.18800 46.28300 33.31600
H  43.63400 44.67800 33.30400
H  42.40300 45.13700 34.42200
Mg 27.36600 49.96600 26.54800
C  25.57600 51.31600 29.18800
C  29.91900 49.14700 28.80200
C  29.16000 48.88000 23.96300
C  25.10300 51.32100 24.37100
N  27.61700 50.19000 28.81300
C  26.68100 50.66800 29.70200
C  27.16100 50.46500 31.15500
C  28.61700 49.84800 30.92700
C  28.71400 49.68400 29.41600
C  29.64200 50.89400 31.41800
C  26.26100 49.54700 32.06000
C  25.90400 50.28900 33.39700
H  26.89400 50.05900 34.60100
N  29.28700 49.00900 26.39200
C  30.14400 48.77700 27.36800
C  31.25300 48.09400 26.77900
C  30.98800 47.83000 25.43400
C  29.76700 48.58300 25.17000
C  32.31800 47.60100 27.74700
C  31.76000 46.98100 24.48200
O  31.44400 46.88100 23.31400
C  32.89900 46.03900 25.00400
N  27.27800 50.26400 24.46900
C  28.07300 49.61800 23.63300
C  27.58300 49.79700 22.16200
C  26.20300 50.40300 22.32100
C  26.17900 50.70000 23.79600
C  28.49900 50.52300 21.17400
C  24.98600 49.63000 21.77000
C  24.82700 48.14100 22.29900
N  25.62900 51.03800 26.70500
C  24.79500 51.50200 25.69100
C  23.63100 52.11700 26.31100
C  23.91100 52.06600 27.71600
C  25.14100 51.46800 27.87300
C  22.42200 52.67100 25.67400
C  23.37200 52.42500 29.01500
O  22.25100 52.92800 29.29100
C  24.36000 51.85100 30.06500
C  24.66100 52.97100 30.94600
O  25.66400 53.72500 30.88100
O  23.77000 53.02800 32.01000
C  24.05800 53.99600 33.06700
H  30.67300 48.85000 29.53400
H  29.68100 48.45200 23.10400
H  24.33400 51.71000 23.69900
H  27.22100 51.47400 31.56200
H  28.76700 48.86800 31.38000
H  29.25200 51.38500 32.31000
H  29.82400 51.62300 30.62800
H  30.50300 50.28400 31.68900
H  26.85000 48.72500 32.46800
H  25.32100 49.24900 31.59400
H  24.90300 49.96500 33.68400
H  25.91000 51.35100 33.15500
H  32.07700 46.56800 27.99700
H  32.24800 48.13700 28.69300
H  33.35800 47.68400 27.43000
H  33.86200 46.52600 25.16200
H  32.97400 45.29900 24.20800
H  32.59600 45.47300 25.88500
H  27.34800 48.75500 21.94400
H  26.23300 51.36000 21.80000
H  28.11200 51.46500 20.78700
H  28.85900 49.82900 20.41300
H  29.38000 50.93200 21.66900
H  24.98900 49.53800 20.68400
H  24.08100 50.15900 22.06800
H  23.78100 48.04000 22.58700
H  25.42600 48.02900 23.20300
H  24.98300 47.29700 21.62800
H  21.95000 52.02500 24.93500
H  22.68000 53.56700 25.10800
H  21.66400 52.94800 26.40700
H  23.91400 51.18300 30.80100
H  24.94900 53.70800 33.62600
H  23.25500 54.04200 33.80300
H  24.28000 55.01000 32.73500

