158

Mg 49.31600 46.85600 43.61100
C  45.79200 46.75400 42.77800
C  49.44600 43.39900 43.05600
C  52.50200 47.10500 43.91700
C  48.91100 50.43300 43.70900
N  47.76800 45.32900 42.81500
C  46.43900 45.52600 42.58400
C  45.84900 44.13600 42.17600
C  46.98200 43.15700 42.40400
C  48.15600 44.02200 42.77200
C  46.63600 42.04600 43.51100
C  45.20200 44.01700 40.70800
C  46.17800 44.47900 39.55900
H  45.67200 44.25200 38.08500
N  50.74500 45.41000 43.62900
C  50.67600 44.05900 43.36800
C  51.93500 43.42800 43.62000
C  52.92100 44.52900 43.79600
C  52.08300 45.74800 43.79700
C  52.19200 41.98200 43.61600
C  54.41000 44.32800 44.03600
O  54.97700 43.25400 44.02900
C  55.26100 45.50200 44.45600
N  50.50200 48.53000 43.70300
C  51.85900 48.34900 43.88700
C  52.56600 49.65700 44.13400
C  51.43400 50.80900 44.14300
C  50.19400 49.87900 43.77600
C  53.58400 49.75200 45.31500
C  51.70200 51.98000 43.15500
C  51.45400 53.39800 43.76900
N  47.70600 48.35000 43.45500
C  47.71000 49.71200 43.52400
C  46.40200 50.22700 43.29400
C  45.59800 49.11800 43.00200
C  46.42400 48.02000 43.07900
C  45.93800 51.67800 43.54400
C  44.25500 48.65300 42.64000
O  43.26100 49.36400 42.33900
C  44.33200 47.03500 42.54900
C  43.42900 46.37400 43.54800
O  43.65200 46.43200 44.72500
O  42.34200 45.77700 43.00200
C  41.28100 45.32400 43.94100
H  49.49700 42.32300 42.87400
H  53.55800 47.28800 44.12700
H  48.75000 51.51200 43.74700
H  44.96500 43.97900 42.79500
H  47.22900 42.59300 41.50500
H  47.10600 42.34200 44.44900
H  46.93800 41.04700 43.19600
H  45.56400 41.97800 43.69600
H  44.30400 44.59800 40.49600
H  44.96300 42.98800 40.44200
H  47.07100 43.85400 39.59100
H  46.43200 45.52700 39.71900
H  53.01900 41.66600 44.25200
H  52.40700 41.63900 42.60400
H  51.34200 41.37900 43.93900
H  54.87200 45.97500 45.35800
H  55.37400 46.14900 43.58600
H  56.25100 45.10500 44.68200
H  53.11900 49.83000 43.21100
H  51.24500 51.15200 45.16000
H  53.54800 48.87300 45.96000
H  53.39500 50.62400 45.94100
H  54.59900 49.67300 44.92400
H  50.98300 51.79400 42.35800
H  52.71600 51.98900 42.75400
H  50.59000 53.84100 43.27300
H  52.34100 54.00000 43.56900
H  51.25300 53.38300 44.84000
H  46.08800 52.30300 42.66300
H  46.65800 52.06900 44.26300
H  44.88900 51.72300 43.83600
H  43.96900 46.78700 41.55200
H  40.43500 45.11200 43.28700
H  40.87700 45.98100 44.71100
H  41.31400 44.38700 44.49700
Mg -11.77400 38.40000 42.27900
C  -9.57400 35.93300 41.05400
C  -9.85700 40.72100 40.53200
C  -14.27700 40.54300 42.58200
C  -13.98400 35.79600 43.47400
N  -10.05600 38.27300 40.81500
C  -9.19600 37.19100 40.61700
C  -7.84900 37.53300 39.92200
C  -8.02200 39.04400 39.74400
C  -9.41300 39.39100 40.35800
C  -6.89100 39.89300 40.30500
C  -7.63400 36.82300 38.55500
C  -6.31600 36.03800 38.35900
H  -5.47100 36.31600 37.11300
N  -11.94800 40.41300 41.79000
C  -11.04500 41.14200 41.09400
C  -11.56600 42.46700 41.00000
C  -12.83300 42.48100 41.54500
C  -13.07000 41.11000 42.04500
C  -10.74200 43.66100 40.42800
C  -13.78500 43.67800 41.54800
O  -13.46000 44.74700 41.05800
C  -15.18200 43.57800 42.06800
N  -13.93500 38.18100 42.97200
C  -14.66600 39.27700 42.99200
C  -16.06700 38.95400 43.54700
C  -15.94000 37.35300 43.84700
C  -14.50900 37.09700 43.45900
C  -16.67600 39.84400 44.72600
C  -16.94500 36.46300 43.11900
C  -18.17400 36.01600 43.86300
N  -11.84100 36.25500 42.23500
C  -12.75300 35.40700 42.82600
C  -12.10800 34.07000 42.83700
C  -10.86400 34.23600 42.20100
C  -10.78200 35.57200 41.79100
C  -12.60900 32.79200 43.44600
C  -9.58400 33.58000 41.83100
O  -9.15500 32.44900 42.13000
C  -8.73000 34.56600 41.00800
C  -7.39500 34.58600 41.63000
O  -6.46700 33.80800 41.32100
O  -7.28000 35.48900 42.68600
C  -6.04700 35.24200 43.53500
H  -9.14200 41.43100 40.11100
H  -15.07500 41.28500 42.64300
H  -14.65200 35.09100 43.97300
H  -7.03900 37.27400 40.60400
H  -8.09600 39.36100 38.70400
H  -7.09500 40.07300 41.36100
H  -6.70700 40.82100 39.76300
H  -5.97300 39.31500 40.19900
H  -7.68300 37.51100 37.71100
H  -8.51000 36.20600 38.35400
H  -6.63400 34.99600 38.32800
H  -5.78500 36.24600 39.28800
H  -10.80000 43.75200 39.34400
H  -9.71700 43.42000 40.70900
H  -11.00600 44.58800 40.93800
H  -15.74200 44.47800 41.81700
H  -15.06700 43.38900 43.13500
H  -15.73600 42.77500 41.58100
H  -16.76000 39.14500 42.72800
H  -16.07100 37.17100 44.91400
H  -15.75300 40.33200 45.04000
H  -17.07700 39.31000 45.58800
H  -17.34200 40.59600 44.30200
H  -16.48000 35.55000 42.74800
H  -17.20200 36.95300 42.17900
H  -18.79800 35.66900 43.03900
H  -18.66800 36.77400 44.47200
H  -17.97200 35.11900 44.44800
H  -12.84100 32.07800 42.65600
H  -13.48800 33.00700 44.05400
H  -11.80500 32.42700 44.08400
H  -8.63600 34.37400 39.93900
H  -6.16400 35.80800 44.45900
H  -5.11500 35.51600 43.04000
H  -6.00000 34.20800 43.87700

