158

Mg 42.45600 41.06200 26.66900
C  41.73800 43.58700 29.02600
C  43.85200 39.21700 29.25000
C  43.21700 38.85200 24.39100
C  41.72400 43.41100 24.18000
N  42.77800 41.34300 28.94000
C  42.28500 42.43800 29.66100
C  42.39900 42.17100 31.17600
C  43.39900 40.91800 31.15200
C  43.38700 40.44800 29.66700
C  44.93500 41.18800 31.63000
C  40.92900 41.93000 31.80600
C  40.61000 42.90400 32.90700
H  39.98200 42.44700 34.28000
N  43.38500 39.24500 26.73800
C  43.84800 38.64300 27.92900
C  44.33800 37.27800 27.59500
C  44.07700 37.10400 26.19700
C  43.55700 38.43100 25.69400
C  45.03500 36.33500 28.57200
C  44.33500 35.84400 25.30700
O  44.21900 35.90100 24.09600
C  44.60500 34.59900 25.89400
N  42.50600 41.24200 24.62000
C  42.76300 40.09600 23.87400
C  42.53000 40.25500 22.37000
C  41.95800 41.68300 22.32900
C  42.13200 42.20400 23.76600
C  43.85000 40.03900 21.52300
C  40.48400 41.76300 21.79000
C  40.00200 43.18400 21.36200
N  41.68900 43.00700 26.60700
C  41.42500 43.87000 25.55200
C  40.99700 45.16800 25.97400
C  41.00300 45.05400 27.37900
C  41.52100 43.76100 27.65900
C  40.68900 46.36800 25.18700
C  40.61900 45.76400 28.68100
O  40.10300 46.83200 28.97500
C  41.17900 44.78100 29.74300
C  42.28500 45.51700 30.35500
O  43.23100 45.93500 29.75500
O  42.12400 45.69300 31.71700
C  43.10600 46.57400 32.46500
H  44.15100 38.56700 30.07600
H  43.22500 38.04800 23.65200
H  41.43500 44.15000 23.43000
H  42.96800 42.99900 31.59800
H  43.00800 40.06300 31.70200
H  44.85600 42.16100 32.11400
H  45.50900 41.18200 30.70300
H  45.27900 40.46200 32.36700
H  40.90200 40.96000 32.30200
H  40.05500 41.92500 31.15500
H  39.84600 43.58500 32.53000
H  41.46900 43.53500 33.13700
H  46.09700 36.47000 28.77800
H  44.86100 35.26700 28.44400
H  44.61800 36.55200 29.55600
H  43.89900 34.49100 26.71800
H  45.61300 34.53900 26.30300
H  44.34900 33.80600 25.19100
H  41.76400 39.56000 22.02700
H  42.57700 42.30300 21.68000
H  44.62300 40.80500 21.58900
H  43.51000 40.03600 20.48700
H  44.21200 39.04500 21.78500
H  39.94700 41.46800 22.69100
H  40.31900 40.96300 21.06800
H  39.40600 43.54700 22.19900
H  39.35800 43.28200 20.48900
H  40.92100 43.76800 21.30300
H  41.22100 47.20100 25.64600
H  39.63000 46.61300 25.26500
H  41.10400 46.26400 24.18500
H  40.45400 44.59100 30.53400
H  43.51700 45.93300 33.24500
H  42.71400 47.53500 32.79800
H  43.99900 46.81500 31.88800
Mg -10.08800 38.68100 40.88200
C  -8.53200 35.58900 40.07300
C  -7.41700 40.24300 39.09500
C  -11.94200 41.42600 40.58500
C  -12.94100 36.84300 41.80200
N  -8.14400 38.01900 39.82900
C  -7.76000 36.69200 39.64400
C  -6.39400 36.58400 38.82600
C  -6.00200 38.10100 38.64100
C  -7.29100 38.85400 39.16100
C  -4.69600 38.62400 39.42600
C  -6.45000 35.87500 37.49800
C  -7.73900 35.97600 36.55000
H  -7.48300 36.37500 35.15100
N  -9.62400 40.65100 40.25000
C  -8.52700 41.06600 39.52900
C  -8.69100 42.41900 39.22000
C  -10.07200 42.77600 39.55900
C  -10.61300 41.58000 40.12900
C  -7.58900 43.16700 38.54700
C  -10.70600 44.13500 39.26100
O  -10.05200 44.94000 38.73200
C  -12.22000 44.38300 39.53900
N  -12.28200 39.04000 41.04300
C  -12.66100 40.31100 41.04100
C  -14.18000 40.52900 41.31600
C  -14.58900 39.02600 41.81200
C  -13.17500 38.25900 41.58000
C  -14.48800 41.57200 42.44700
C  -15.73200 38.47400 40.86300
C  -16.87200 37.74800 41.54400
N  -10.59300 36.73200 41.11300
C  -11.81200 36.13100 41.48900
C  -11.62100 34.68200 41.54300
C  -10.39800 34.45400 40.90700
C  -9.77700 35.71400 40.75300
C  -12.63100 33.53300 42.00100
C  -9.51700 33.36800 40.36500
O  -9.74900 32.14800 40.32400
C  -8.30200 34.11300 39.76700
C  -7.02600 33.68800 40.45800
O  -6.82400 33.85300 41.64300
O  -6.28500 32.98000 39.63300
C  -5.05000 32.27200 40.08900
H  -6.59900 40.83400 38.68000
H  -12.48800 42.36600 40.68400
H  -13.82500 36.22000 41.95400
H  -5.68100 36.14400 39.52300
H  -5.93100 38.33300 37.57800
H  -4.42300 37.87800 40.17200
H  -4.96800 39.52000 39.98400
H  -3.85600 38.84700 38.76700
H  -6.43200 34.80000 37.67500
H  -5.47900 36.10500 37.05700
H  -8.34000 36.77500 36.98300
H  -8.27000 35.02400 36.52500
H  -7.58700 44.23800 38.74900
H  -7.46300 42.92500 37.49200
H  -6.61900 42.93900 38.98900
H  -12.48500 44.60400 40.57300
H  -12.80100 43.55500 39.13300
H  -12.53600 45.24500 38.95000
H  -14.71400 40.73200 40.38800
H  -14.88300 38.92400 42.85700
H  -14.63200 42.51100 41.91300
H  -13.53800 41.79300 42.93300
H  -15.21000 41.39000 43.24300
H  -15.35300 37.71500 40.17800
H  -16.25600 39.24500 40.29800
H  -17.55700 37.50200 40.73200
H  -17.30500 38.34200 42.35000
H  -16.52100 36.80100 41.95400
H  -12.79000 33.57400 43.07800
H  -12.34900 32.50600 41.76600
H  -13.65800 33.66600 41.66200
H  -8.20000 33.93100 38.69800
H  -5.10200 31.67700 41.00000
H  -4.26300 32.99000 40.32100
H  -4.71000 31.64100 39.26800

