158

Mg 24.08400 -5.47500 46.23400
C  26.37400 -3.15700 45.11500
C  21.69200 -4.29800 44.07300
C  22.08700 -8.22200 47.04400
C  26.64500 -6.86600 48.27800
N  24.06600 -3.99400 44.79000
C  25.07700 -3.08600 44.57100
C  24.68000 -2.02700 43.60700
C  23.07700 -2.26100 43.48500
C  22.90700 -3.63500 44.11100
C  22.04500 -1.14900 44.14900
C  25.44700 -2.16200 42.25800
C  25.81700 -0.88000 41.57200
H  25.24500 -0.79000 40.17400
N  22.12300 -6.10300 45.69400
C  21.32800 -5.45700 44.81500
C  20.02400 -6.07200 44.88400
C  20.08700 -7.27400 45.57500
C  21.47500 -7.24400 46.16700
C  18.80400 -5.61500 44.09700
C  19.00300 -8.34600 45.69400
O  17.92700 -8.11500 45.15700
C  19.22000 -9.68900 46.26500
N  24.23300 -7.22500 47.52500
C  23.30900 -8.20800 47.67200
C  23.89500 -9.43400 48.45600
C  25.19300 -8.81200 49.11600
C  25.41100 -7.54800 48.25300
C  22.98700 -10.18300 49.34600
C  26.41000 -9.69700 49.03900
C  27.02800 -9.98000 47.63200
N  26.17500 -5.17300 46.64700
C  27.04600 -5.67600 47.53000
C  28.31000 -4.90100 47.49900
C  28.07000 -3.95600 46.51900
C  26.79500 -4.11100 46.03000
C  29.51100 -5.13800 48.37400
C  28.70300 -2.90900 45.77100
O  29.86400 -2.47500 45.74300
C  27.58400 -2.27600 44.81600
C  27.53600 -0.83100 45.06100
O  26.84100 -0.27600 45.93800
O  28.27000 -0.08600 44.09200
C  28.11200 1.41100 44.09000
H  20.89700 -3.96100 43.40500
H  21.57600 -9.17500 47.20000
H  27.41800 -7.28300 48.92700
H  24.88200 -1.04600 44.03900
H  22.71200 -2.28700 42.45900
H  22.69200 -0.38100 44.57400
H  21.37100 -1.75500 44.75400
H  21.45200 -0.68100 43.36300
H  24.80100 -2.73300 41.59000
H  26.38600 -2.70200 42.38000
H  26.88100 -0.64500 41.61300
H  25.38900 -0.10000 42.20200
H  18.69800 -5.94000 43.06200
H  18.80600 -4.52500 44.10000
H  17.93500 -5.93300 44.67300
H  19.48200 -9.39800 47.28200
H  20.10500 -10.17900 45.86000
H  18.32300 -10.29600 46.14500
H  24.24800 -10.17500 47.73900
H  24.99300 -8.43700 50.12000
H  21.99700 -9.72900 49.37500
H  23.31600 -10.14600 50.38400
H  22.96700 -11.16600 48.87500
H  26.31200 -10.67000 49.52100
H  27.07700 -9.22400 49.76000
H  27.14200 -11.05100 47.46700
H  28.05700 -9.62900 47.71300
H  26.48000 -9.45500 46.84900
H  30.46700 -4.96400 47.87800
H  29.59800 -6.12900 48.81800
H  29.46200 -4.45200 49.21900
H  27.91300 -2.43600 43.78900
H  27.25000 1.73100 43.50500
H  28.97500 1.86300 43.60000
H  27.94800 1.79700 45.09600
Mg 36.00300 1.97200 31.12700
C  33.61600 3.14900 33.44500
C  38.25300 1.89200 33.61600
C  38.17700 1.24900 28.78500
C  33.57000 2.68000 28.66300
N  35.94400 2.62300 33.28300
C  34.86800 2.87500 34.05600
C  35.13800 2.89900 35.56400
C  36.70400 2.67900 35.50900
C  37.01900 2.34600 34.04000
C  37.50300 3.72500 36.35400
C  34.21700 1.88200 36.40800
C  33.84000 2.28600 37.88100
H  34.68500 3.38300 38.52900
N  37.97800 1.56800 31.13300
C  38.77700 1.54300 32.28300
C  40.14000 1.07200 31.83800
C  40.07100 0.83600 30.42700
C  38.67600 1.23500 30.06800
C  41.31300 1.00500 32.82900
C  41.15300 0.25300 29.55800
O  40.88100 0.01700 28.40200
C  42.63200 -0.03700 30.12200
N  35.88500 1.88000 29.00400
C  36.94500 1.51300 28.22100
C  36.55300 1.26200 26.73600
C  35.00300 1.68300 26.75600
C  34.73100 2.08300 28.24000
C  37.48300 2.04100 25.79000
C  33.93300 0.74100 26.08600
C  33.39000 -0.31200 27.03700
N  33.98100 2.79000 31.06300
C  33.17500 2.97400 29.96300
C  31.89500 3.57200 30.37900
C  31.96800 3.61100 31.80100
C  33.27800 3.16500 32.08700
C  30.70700 3.73600 29.58700
C  31.31900 3.86600 33.06000
O  30.20700 4.28400 33.19000
C  32.38900 3.65000 34.19600
C  32.51500 4.95200 34.94300
O  33.21700 5.90500 34.60600
O  31.78400 5.01200 36.07000
C  31.59300 6.31400 36.74600
H  38.92800 1.73300 34.45900
H  38.83000 0.88800 27.98800
H  32.81200 2.89200 27.90600
H  34.92600 3.91100 35.90800
H  36.84600 1.70400 35.97700
H  38.09600 3.07200 36.99500
H  36.80800 4.27500 36.98900
H  38.10400 4.37600 35.72000
H  34.74300 0.93000 36.33700
H  33.24200 1.70700 35.95500
H  34.05900 1.41200 38.49500
H  32.79000 2.57100 37.81900
H  42.25100 1.44700 32.49400
H  41.47300 -0.03200 33.12200
H  41.03700 1.51700 33.75100
H  43.21400 -0.43200 29.29000
H  42.62600 -0.73800 30.95700
H  43.04700 0.94100 30.36800
H  36.74600 0.21900 26.48500
H  34.92400 2.60200 26.17600
H  36.85000 2.37900 24.97000
H  38.22000 1.28100 25.53000
H  37.89300 2.90400 26.31400
H  34.45500 0.24900 25.26500
H  33.14000 1.40700 25.74800
H  33.89700 -0.30500 28.00300
H  33.43100 -1.28200 26.54000
H  32.35800 0.02900 27.12000
H  30.40200 2.78400 29.15300
H  30.76400 4.57800 28.89700
H  29.88000 4.01500 30.24000
H  31.96200 2.97200 34.93600
H  31.62000 7.22700 36.15100
H  32.33400 6.51900 37.51900
H  30.62600 6.34700 37.24700

