158

Mg 2.10400 -1.69500 44.24100
C  5.33400 -0.81200 43.30200
C  0.98400 0.83100 42.35100
C  -0.84700 -3.04100 44.68700
C  3.55300 -4.86500 45.45700
N  3.10400 -0.20400 42.99600
C  4.37600 -0.06900 42.66100
C  4.53900 0.96700 41.59100
C  3.21200 1.77100 41.56300
C  2.33700 0.69000 42.29400
C  3.30200 3.14600 42.41100
C  5.04500 0.31200 40.19600
C  6.35100 0.90500 39.57600
H  6.18400 1.68300 38.24700
N  0.29800 -1.09500 43.70600
C  0.00900 -0.05200 42.93600
C  -1.43900 0.10600 42.79900
C  -1.97300 -0.94100 43.53300
C  -0.84300 -1.76900 44.00600
C  -2.09200 1.26500 42.00400
C  -3.49400 -1.23500 43.73600
O  -4.38300 -0.42200 43.47200
C  -3.93900 -2.49400 44.40400
N  1.44700 -3.69800 45.10100
C  0.14400 -4.00000 45.11500
C  -0.19300 -5.40700 45.55200
C  1.23100 -5.97800 45.69200
C  2.19100 -4.79100 45.37000
C  -1.03000 -5.41300 46.78700
C  1.43000 -7.18400 44.78100
C  1.92200 -8.49900 45.37200
N  3.92400 -2.67500 44.42800
C  4.37300 -3.85400 45.05600
C  5.82500 -3.82300 45.17900
C  6.18300 -2.66100 44.45800
C  5.03900 -1.98900 44.08000
C  6.58600 -4.88900 45.86200
C  7.38600 -1.92000 44.00200
O  8.58300 -2.21300 44.10800
C  6.85300 -0.70900 43.20100
C  7.43900 0.50100 43.84500
O  8.20400 1.22300 43.27000
O  7.03600 0.62900 45.14100
C  7.35000 1.92700 45.76200
H  0.44400 1.60500 41.80200
H  -1.81900 -3.32600 45.09500
H  3.99300 -5.75800 45.90700
H  5.30000 1.60500 42.04200
H  2.93000 2.01700 40.53900
H  4.08800 3.07800 43.16400
H  2.39400 3.45800 42.92700
H  3.63700 4.02300 41.85700
H  4.28200 0.37800 39.42100
H  5.17500 -0.75300 40.39100
H  6.97000 0.04500 39.31800
H  6.93400 1.41700 40.34100
H  -1.46000 1.70000 41.23000
H  -2.41500 2.03300 42.70700
H  -3.05500 0.95700 41.59800
H  -5.02400 -2.51700 44.30700
H  -3.67000 -2.62600 45.45200
H  -3.39200 -3.34400 43.99600
H  -0.79100 -5.75000 44.70800
H  1.36600 -6.40200 46.68700
H  -0.67400 -4.62400 47.44900
H  -0.80300 -6.38400 47.22700
H  -2.07500 -5.21300 46.54900
H  2.16500 -6.97900 44.00300
H  0.47300 -7.28000 44.26800
H  1.03900 -9.06000 45.68000
H  2.54300 -8.37400 46.25900
H  2.38200 -9.10600 44.59300
H  6.75600 -5.87000 45.41800
H  6.00000 -5.12500 46.75000
H  7.57000 -4.53600 46.16900
H  7.21600 -0.85300 42.18300
H  8.40500 2.08000 45.53700
H  7.09000 2.04500 46.81400
H  6.71800 2.69200 45.31100
Mg -10.18000 16.73900 40.89400
C  -6.74500 16.25400 41.24000
C  -9.67600 19.99300 40.01100
C  -13.41400 16.87900 40.11300
C  -10.61600 13.11300 41.25400
N  -8.34700 17.88000 40.49100
C  -7.05600 17.54600 40.81900
C  -6.14600 18.60100 40.37700
C  -7.08000 19.87900 40.38400
C  -8.46100 19.27000 40.30500
C  -6.83300 20.92000 41.52900
C  -5.58000 18.22000 39.00700
C  -4.13000 17.61000 38.99700
H  -3.92300 16.20600 38.40500
N  -11.37700 18.28000 40.10800
C  -10.98200 19.53900 39.87200
C  -12.21900 20.30200 39.55000
C  -13.31500 19.42100 39.38700
C  -12.73200 18.12000 39.83200
C  -12.06900 21.77900 39.15200
C  -14.69100 19.67200 38.90300
O  -14.87300 20.79400 38.40600
C  -15.94500 18.74000 38.86600
N  -11.79800 15.19300 40.86700
C  -13.01100 15.60500 40.58300
C  -14.00800 14.42400 40.46400
C  -13.20600 13.31400 41.04500
C  -11.76400 13.90800 40.97000
C  -15.27500 14.61400 41.38500
C  -13.35700 11.95000 40.26500
C  -13.87100 10.81200 41.12400
N  -9.01000 15.02100 41.30600
C  -9.32500 13.64800 41.36900
C  -8.09900 12.93800 41.69500
C  -7.09100 13.92000 41.73100
C  -7.68900 15.11300 41.32500
C  -8.01300 11.41600 41.94400
C  -5.73200 14.12900 42.01400
O  -4.91300 13.37700 42.47700
C  -5.39900 15.63200 41.71500
C  -5.10000 16.28400 42.99800
O  -5.74300 16.12400 44.02600
O  -4.01200 17.14300 42.86600
C  -3.40500 17.41600 44.17700
H  -9.64200 21.06700 39.81800
H  -14.47800 16.98800 39.89200
H  -10.72200 12.03000 41.34300
H  -5.39000 18.71900 41.15300
H  -7.01900 20.41300 39.43500
H  -7.68300 20.97200 42.21000
H  -6.63600 21.90600 41.10700
H  -5.95500 20.69000 42.13200
H  -5.50600 19.06200 38.31900
H  -6.29600 17.53700 38.55100
H  -3.68300 17.65200 39.99000
H  -3.58200 18.26300 38.31800
H  -11.33900 22.34800 39.72800
H  -12.92400 22.37700 39.46700
H  -11.88000 21.91600 38.08700
H  -16.83100 19.18600 38.41400
H  -16.25500 18.53700 39.89100
H  -15.58800 17.86300 38.32600
H  -14.19400 14.37300 39.39100
H  -13.37500 13.19300 42.11500
H  -15.41900 13.82500 42.12300
H  -16.15400 14.59300 40.74100
H  -15.14000 15.55800 41.91200
H  -12.40800 11.54900 39.91000
H  -14.01700 12.09900 39.41100
H  -14.85800 10.45700 40.82700
H  -13.91900 11.11800 42.16900
H  -13.15100 9.99600 41.17700
H  -8.92500 10.87000 42.18500
H  -7.24200 11.12000 42.65600
H  -7.67600 10.98000 41.00400
H  -4.62500 15.83200 40.97300
H  -3.97500 18.12900 44.77300
H  -2.58700 18.06000 43.85300
H  -3.11600 16.53400 44.74800

