158

Mg 17.42300 52.24000 25.86300
C  19.59000 50.75800 28.24400
C  15.30100 53.02400 28.38400
C  15.48200 53.46100 23.52900
C  19.83800 51.28900 23.42100
N  17.48400 51.85400 28.05100
C  18.46700 51.28600 28.82400
C  18.11400 51.40700 30.34800
C  16.66600 52.01600 30.34600
C  16.48600 52.38300 28.85200
C  15.44200 51.14900 30.82900
C  18.97300 52.35600 31.12400
C  19.41100 51.90200 32.54100
H  18.38500 51.18000 33.38500
N  15.58500 52.99600 25.90800
C  14.80900 53.25800 27.03500
C  13.46200 53.75800 26.59600
C  13.52000 54.01100 25.21800
C  14.87400 53.47500 24.85600
C  12.37700 53.96400 27.48100
C  12.55500 54.55600 24.23100
O  12.67100 54.64600 23.01700
C  11.31400 55.31100 24.84600
N  17.60100 52.21700 23.76000
C  16.68200 52.92200 23.09400
C  17.01900 52.99500 21.59400
C  18.39900 52.41500 21.51800
C  18.65400 51.89300 22.96200
C  15.95200 52.40400 20.60900
C  19.55000 53.40100 21.06000
C  20.04600 54.44900 22.08900
N  19.34000 51.27400 25.77700
C  20.17300 50.97000 24.71800
C  21.38100 50.29000 25.15300
C  21.20100 50.20500 26.56200
C  19.93000 50.78100 26.87200
C  22.54500 49.83100 24.33000
C  21.77900 49.71900 27.85200
O  22.82300 49.10800 28.10100
C  20.73600 50.02700 28.91300
C  20.45100 48.73100 29.50400
O  20.15600 47.72200 28.86300
O  20.28200 48.88300 30.82400
C  19.73500 47.76900 31.60400
H  14.72600 53.39200 29.23600
H  14.88700 53.95700 22.75900
H  20.64800 51.15800 22.70000
H  18.11200 50.41000 30.78800
H  16.44900 52.95300 30.85900
H  15.91300 50.43400 31.50400
H  15.01200 50.51600 30.05300
H  14.77000 51.82700 31.35600
H  18.53500 53.33200 31.33400
H  19.89800 52.50500 30.56800
H  19.88500 52.75600 33.02400
H  20.22100 51.18900 32.39100
H  12.11200 55.01300 27.61300
H  12.65100 53.49200 28.42400
H  11.46200 53.50100 27.10900
H  10.69600 54.74100 25.54000
H  10.70800 55.73600 24.04600
H  11.64500 56.21100 25.36600
H  17.10300 54.04900 21.33100
H  18.36700 51.55000 20.85500
H  16.44300 51.59200 20.07300
H  15.46700 53.11800 19.94300
H  15.09400 52.02200 21.16200
H  19.21000 53.71700 20.07400
H  20.42400 52.75500 20.98800
H  19.32800 54.59100 22.89700
H  20.04500 55.38100 21.52300
H  21.08600 54.29800 22.37700
H  23.20000 49.15900 24.88300
H  23.12500 50.70000 24.01900
H  22.15700 49.26300 23.48400
H  21.12400 50.79000 29.58900
H  20.36100 46.91900 31.33200
H  18.69700 47.55600 31.35100
H  19.82600 47.93700 32.67800
Mg 0.32700 41.78700 25.16500
C  1.35200 41.98900 28.51300
C  -2.49800 40.17500 26.26300
C  -0.59900 41.46600 21.96100
C  3.56500 42.72300 24.13800
N  -0.48800 41.29600 27.16700
C  0.07500 41.47200 28.35300
C  -0.80800 41.03600 29.50700
C  -1.99200 40.28800 28.82000
C  -1.64400 40.57700 27.29300
C  -2.13700 38.82700 29.21900
C  -1.31600 42.22600 30.45500
C  -1.00000 41.96400 31.92900
H  -1.64800 40.66300 32.64100
N  -1.36900 41.04100 24.25600
C  -2.35800 40.37200 24.88100
C  -3.46400 40.17900 23.90300
C  -2.88500 40.49500 22.65500
C  -1.57800 41.08400 22.92400
C  -4.84900 39.76300 24.25400
C  -3.57000 40.39300 21.28700
O  -3.11200 40.86800 20.29100
C  -4.92000 39.59000 21.21500
N  1.38100 41.96900 23.35500
C  0.72100 41.67400 22.15100
C  1.72000 41.79400 20.96500
C  3.03800 42.21000 21.58400
C  2.63300 42.37700 23.07700
C  1.69900 40.37200 20.24000
C  3.55600 43.49000 21.06600
C  2.73700 44.76100 21.21500
N  2.13000 42.27700 26.10900
C  3.31000 42.76500 25.52300
C  4.19100 43.04200 26.65900
C  3.46300 42.73200 27.87100
C  2.21300 42.32400 27.45400
C  5.60100 43.68800 26.60000
C  3.47900 42.68400 29.31800
O  4.35900 42.96900 30.11500
C  2.17500 42.10700 29.76700
C  2.53300 40.75300 30.24700
O  3.08900 39.90800 29.58900
O  2.37800 40.76300 31.55900
C  2.48700 39.52600 32.32900
H  -3.34000 39.54300 26.55400
H  -0.78800 41.35500 20.89100
H  4.58600 42.94500 23.82100
H  -0.26300 40.32600 30.12900
H  -2.90200 40.81100 29.11300
H  -1.48500 38.55600 30.04900
H  -1.75900 38.19000 28.41900
H  -3.19800 38.67300 29.41100
H  -2.37900 42.45600 30.38600
H  -0.85200 43.17500 30.18800
H  -1.33600 42.80000 32.54200
H  0.07900 41.86200 32.05000
H  -5.45000 40.65900 24.10400
H  -4.91500 39.58100 25.32600
H  -5.22200 38.92200 23.66900
H  -5.61600 40.10700 21.87600
H  -4.56100 38.57600 21.39100
H  -5.25900 39.70000 20.18500
H  1.31600 42.51100 20.25000
H  3.77900 41.41200 21.53300
H  1.38100 40.65700 19.23700
H  0.93600 39.68900 20.61400
H  2.71300 39.97300 20.22700
H  3.71100 43.29900 20.00400
H  4.57100 43.49000 21.46500
H  2.71600 45.29100 20.26300
H  3.34600 45.40800 21.84700
H  1.76900 44.61900 21.69400
H  5.67400 44.12600 25.60400
H  6.34400 42.89200 26.66000
H  5.56600 44.45500 27.37300
H  1.73000 42.76900 30.51100
H  3.46400 39.32700 32.77000
H  2.33400 38.63100 31.72600
H  1.76500 39.57000 33.14400

