158

Mg 16.25000 51.81300 24.91500
C  18.33200 51.03200 27.50700
C  13.85600 52.54800 27.12300
C  14.30800 52.39700 22.26700
C  18.85300 50.96500 22.72300
N  16.10900 51.76500 27.07000
C  17.12400 51.47800 27.93700
C  16.66100 51.67000 29.38600
C  15.10400 51.94900 29.28900
C  14.99000 52.06300 27.77900
C  14.22900 50.82400 29.79800
C  17.38800 52.84000 30.18000
C  17.51000 52.72700 31.80000
H  16.69400 51.67600 32.61700
N  14.40600 52.38500 24.71800
C  13.55000 52.71900 25.74100
C  12.32400 53.14800 25.18900
C  12.40700 53.11800 23.73700
C  13.73800 52.66100 23.51700
C  11.20200 53.50900 26.10300
C  11.29900 53.34500 22.64600
O  11.41400 53.09900 21.44200
C  9.92400 53.92000 23.06700
N  16.54300 51.63200 22.79000
C  15.57200 51.86600 21.90000
C  16.00000 51.60000 20.45300
C  17.55800 51.46500 20.68000
C  17.70500 51.40700 22.12300
C  15.20300 50.47700 19.83800
C  18.43400 52.63500 20.01100
C  19.63300 52.09400 19.20600
N  18.20300 51.20100 25.02700
C  19.17100 50.89300 24.08100
C  20.44200 50.55200 24.69900
C  20.09700 50.53200 26.09100
C  18.79300 50.96600 26.20200
C  21.75200 50.21100 24.05700
C  20.65100 50.28200 27.42100
O  21.74900 49.94200 27.82600
C  19.51000 50.69700 28.40900
C  19.22400 49.58500 29.32700
O  18.70400 48.53500 29.00100
O  19.70200 49.88600 30.53400
C  19.57000 48.89800 31.66100
H  13.02600 52.87600 27.75400
H  13.74200 52.57300 21.35100
H  19.69400 50.91500 22.02900
H  16.85200 50.71200 29.87000
H  14.79100 52.89000 29.74100
H  14.58900 49.95300 30.34700
H  13.58200 50.51900 28.97600
H  13.54700 51.31800 30.49100
H  16.98100 53.82100 29.93600
H  18.36200 52.84500 29.69100
H  17.09600 53.67600 32.14000
H  18.56900 52.69400 32.05400
H  10.51700 54.25600 25.70200
H  11.58500 53.92800 27.03400
H  10.60500 52.60200 26.19500
H  10.06900 54.84500 23.62500
H  9.42900 53.13800 23.64400
H  9.32600 54.05000 22.16500
H  15.66000 52.43400 19.83900
H  17.76600 50.50000 20.21700
H  14.61000 51.00200 19.09000
H  14.60500 49.90200 20.54500
H  15.90800 49.84300 19.30100
H  18.85300 53.25800 20.80100
H  17.72700 53.21200 19.41600
H  19.58200 52.64800 18.26900
H  19.51700 51.01300 19.12500
H  20.61300 52.31700 19.62700
H  21.87300 50.67600 23.07800
H  21.63800 49.15000 23.83400
H  22.58900 50.49500 24.69400
H  19.88400 51.45700 29.09500
H  19.67700 49.31600 32.66300
H  20.32000 48.10700 31.63800
H  18.62700 48.35500 31.71700
Mg 8.88100 47.87200 26.68200
C  6.95200 47.27700 29.52700
C  11.61100 48.29400 28.76800
C  10.58500 48.53400 24.08600
C  5.97100 47.48100 24.70800
N  9.22100 47.88400 28.87000
C  8.26200 47.60100 29.87100
C  8.86400 47.76600 31.24400
C  10.26900 48.43100 30.97300
C  10.37300 48.21000 29.42500
C  10.43200 49.99800 31.17900
C  8.77000 46.60600 32.22900
C  9.70000 46.57300 33.47300
H  9.25900 45.77200 34.70500
N  10.88400 48.15500 26.48200
C  11.85000 48.30100 27.42700
C  13.10600 48.51800 26.75200
C  12.83100 48.48700 25.31500
C  11.37100 48.33400 25.25100
C  14.38300 48.48600 27.47500
C  13.83700 48.66800 24.25400
O  13.46500 48.59600 23.10100
C  15.33300 48.94400 24.57800
N  8.28100 47.99300 24.70300
C  9.23000 48.35000 23.80400
C  8.65600 48.49600 22.36300
C  7.16300 48.06400 22.58100
C  7.08800 47.83500 24.01600
C  8.82700 49.92200 21.80200
C  6.81400 46.85100 21.73300
C  6.16700 47.09700 20.42100
N  6.90800 47.50700 26.99200
C  5.85600 47.36700 26.17100
C  4.67500 47.02400 26.82400
C  5.04600 46.98200 28.14100
C  6.37200 47.28000 28.20300
C  3.35100 46.74400 26.24300
C  4.60600 46.81500 29.49700
O  3.47400 46.53000 29.83300
C  5.77700 46.92000 30.44600
C  5.99900 45.63900 31.19200
O  6.68500 44.70500 30.85300
O  5.30700 45.67100 32.41000
C  5.43000 44.52800 33.26000
H  12.41700 48.54700 29.46000
H  11.12100 48.73800 23.15700
H  5.11400 47.37400 24.04000
H  8.16600 48.50600 31.63700
H  11.14900 47.94900 31.40100
H  10.18100 50.56600 30.28300
H  11.45500 50.22300 31.48200
H  9.79800 50.33500 31.99900
H  8.87600 45.66700 31.68500
H  7.76300 46.75100 32.62000
H  9.96500 47.58700 33.77300
H  10.65000 46.12400 33.18300
H  14.92900 47.66900 27.00400
H  14.31800 48.22200 28.53100
H  14.95100 49.40500 27.32400
H  15.78800 49.23800 23.63100
H  15.80100 47.99000 24.82000
H  15.41500 49.76100 25.29500
H  9.24200 47.86700 21.69300
H  6.52100 48.89600 22.29200
H  9.87800 50.20200 21.73900
H  8.32200 50.65100 22.43600
H  8.40300 50.01400 20.80200
H  6.19900 46.14300 22.28800
H  7.75700 46.34700 21.51900
H  6.07200 48.15000 20.15400
H  5.11900 46.80100 20.46800
H  6.75500 46.53400 19.69600
H  2.90400 45.92700 26.80900
H  3.52500 46.41000 25.22000
H  2.71900 47.61700 26.07800
H  5.59100 47.62200 31.25900
H  4.52100 43.95400 33.08400
H  5.43800 44.94400 34.26700
H  6.33600 43.92900 33.16600

