158

Mg 53.27500 24.95900 45.46100
C  50.91100 27.34300 44.25800
C  51.64100 22.57700 43.64200
C  56.13300 23.09000 45.17000
C  55.35000 27.77400 46.02500
N  51.40600 24.97600 44.24400
C  50.59300 26.04000 43.81800
C  49.49800 25.50200 42.88600
C  49.59200 23.96800 43.12100
C  50.97500 23.80300 43.61900
C  48.58900 23.20100 44.03000
C  49.65300 25.94400 41.33300
C  51.01900 26.34900 40.76600
H  51.68000 25.29000 39.88700
N  53.72200 23.02400 44.89700
C  52.87400 22.17100 44.16300
C  53.52600 20.88400 43.96000
C  54.81500 20.97000 44.50600
C  54.99600 22.42500 44.84900
C  52.67500 19.62000 43.52100
C  55.75300 19.88400 44.64700
O  55.43300 18.71800 44.26700
C  57.11700 20.09400 45.20900
N  55.39900 25.35600 45.47300
C  56.40600 24.41700 45.39100
C  57.89000 25.07200 45.74000
C  57.50700 26.50500 46.15900
C  56.00300 26.52600 45.83300
C  58.81900 24.27300 46.71300
C  58.35200 27.53200 45.40300
C  59.06500 28.65700 46.17600
N  53.11100 27.06800 45.49200
C  54.02600 28.04800 45.77600
C  53.29500 29.28500 46.03000
C  52.10600 29.03200 45.43600
C  52.03600 27.67000 45.02200
C  53.77600 30.57600 46.54300
C  50.93000 29.70300 44.91900
O  50.55900 30.88400 44.98200
C  50.14100 28.59900 44.17100
C  49.87000 29.07800 42.79900
O  50.72900 29.53800 41.96700
O  48.55700 28.94400 42.57500
C  47.97500 29.44400 41.32100
H  51.13100 21.84900 43.00700
H  57.05500 22.50500 45.16500
H  56.01700 28.58200 46.33400
H  48.62500 25.98800 43.32100
H  49.59100 23.50200 42.13600
H  47.80900 23.94200 44.20300
H  48.93200 22.91200 45.02400
H  48.13000 22.35300 43.52100
H  48.99600 26.77900 41.09300
H  49.30000 25.10000 40.73900
H  51.67000 26.77900 41.52700
H  50.79800 27.23800 40.17500
H  52.43900 19.08000 44.43800
H  53.11700 18.92000 42.81100
H  51.68800 19.87000 43.13300
H  57.48700 19.12400 45.54000
H  56.95900 20.68900 46.10800
H  57.82100 20.53500 44.50300
H  58.34300 25.16100 44.75200
H  57.40000 26.67800 47.23000
H  58.56500 23.22400 46.86500
H  58.80800 24.72400 47.70600
H  59.82900 24.24800 46.30200
H  57.76700 28.05500 44.64700
H  59.18900 27.05300 44.89400
H  58.87400 28.45000 47.22900
H  58.58000 29.61200 45.96900
H  60.14000 28.69400 46.00100
H  54.86200 30.66700 46.56700
H  53.20700 30.76600 47.45300
H  53.44400 31.27800 45.77800
H  49.26300 28.53000 44.81400
H  46.90300 29.26600 41.23800
H  48.28300 28.92300 40.41500
H  48.08500 30.52100 41.19100
Mg -2.24400 33.72400 26.58900
C  -3.85300 31.94500 29.07700
C  -0.78800 35.78300 28.94500
C  -0.97300 35.59100 24.06100
C  -4.17000 31.94900 24.18900
N  -2.53500 33.91300 28.82000
C  -3.09600 32.97800 29.68400
C  -2.78300 33.31600 31.09800
C  -1.83000 34.54900 30.99200
C  -1.71700 34.82000 29.50900
C  -2.34200 35.80700 31.80500
C  -2.13100 32.09800 31.89100
C  -2.81600 31.75600 33.19100
H  -1.94600 31.46900 34.39100
N  -1.00100 35.41000 26.47000
C  -0.48600 36.11800 27.53300
C  0.51400 37.10700 27.03600
C  0.37400 37.05400 25.56300
C  -0.57200 35.95100 25.31700
C  1.33100 37.97400 27.98500
C  1.07400 37.89200 24.47300
O  0.73800 37.98000 23.27600
C  2.17700 38.69900 24.87400
N  -2.70800 33.89700 24.35900
C  -1.98500 34.70600 23.55700
C  -2.30200 34.47300 21.96200
C  -3.06200 33.13100 22.17400
C  -3.40200 32.96600 23.64900
C  -3.16400 35.69700 21.54400
C  -2.40100 31.90500 21.44900
C  -1.42700 31.12200 22.29000
N  -3.66500 32.20600 26.59000
C  -4.38500 31.58500 25.57300
C  -5.23800 30.57400 26.14400
C  -5.05500 30.71600 27.51300
C  -4.08000 31.67400 27.72100
C  -6.19100 29.74000 25.37100
C  -5.50400 30.22000 28.75000
O  -6.29800 29.36300 29.00800
C  -4.72500 31.00500 29.91500
C  -5.70900 31.65700 30.76400
O  -6.30500 32.68400 30.47300
O  -5.99500 30.85000 31.86000
C  -7.01900 31.36300 32.79700
H  -0.34200 36.45800 29.67900
H  -0.47300 36.16000 23.27500
H  -4.77400 31.40600 23.45900
H  -3.67100 33.59100 31.66700
H  -0.83500 34.31000 31.36900
H  -1.82200 35.84200 32.76200
H  -3.40900 35.69400 31.99500
H  -2.29800 36.68600 31.16300
H  -1.12000 32.37000 32.19500
H  -1.94500 31.28600 31.18800
H  -3.45800 30.91900 32.91500
H  -3.43500 32.56700 33.57400
H  2.31200 37.68200 27.61100
H  1.24900 37.67800 29.03100
H  1.22900 39.04100 27.78500
H  1.85100 39.50300 25.53400
H  2.62200 39.19600 24.01200
H  3.04000 38.13000 25.22100
H  -1.36600 34.40300 21.40700
H  -4.07100 33.32200 21.81100
H  -3.47600 36.43800 22.28000
H  -4.05200 35.26400 21.08400
H  -2.63600 36.17100 20.71700
H  -1.86500 32.11100 20.52300
H  -3.28000 31.29900 21.23000
H  -1.00300 31.83200 23.00000
H  -0.75900 30.62900 21.58400
H  -1.97200 30.35000 22.83200
H  -6.38100 30.28100 24.44400
H  -7.04900 29.67300 26.04000
H  -5.81800 28.73300 25.18300
H  -4.13700 30.31600 30.52100
H  -7.89300 31.70700 32.24500
H  -6.62400 32.20300 33.36900
H  -7.35400 30.63800 33.53900

