158

Mg -2.87000 17.82000 27.32100
C  -2.90000 15.61600 29.93900
C  -3.17200 20.42900 29.34900
C  -3.06100 19.72400 24.46600
C  -2.69300 14.84100 25.13000
N  -3.06700 17.95700 29.39400
C  -2.89000 16.99500 30.31800
C  -3.15500 17.53900 31.74900
C  -3.26600 19.06800 31.53700
C  -3.18800 19.16800 29.98500
C  -4.55900 19.71800 32.07700
C  -2.06100 17.09500 32.77800
C  -1.80500 17.91000 34.03400
H  -1.87400 17.20400 35.40000
N  -2.92200 19.81100 26.96100
C  -3.02600 20.73900 27.92800
C  -3.19800 22.09100 27.33100
C  -2.93000 21.85700 25.91200
C  -3.01900 20.38400 25.70600
C  -3.41200 23.41400 28.13200
C  -2.53400 22.86400 24.81900
O  -2.43800 22.53500 23.65700
C  -2.22300 24.31900 25.19100
N  -3.04000 17.31600 25.10500
C  -3.14700 18.31800 24.16000
C  -3.25500 17.67500 22.69700
C  -3.03800 16.17300 22.95200
C  -2.93300 16.07600 24.47000
C  -4.43000 18.08000 21.87700
C  -1.73300 15.52900 22.32000
C  -0.45300 15.92100 22.85600
N  -2.89700 15.63900 27.44800
C  -2.63600 14.61700 26.49800
C  -2.67800 13.33800 27.17600
C  -2.87900 13.68800 28.52400
C  -2.85500 15.07000 28.64200
C  -2.62200 11.99800 26.52100
C  -3.12800 13.14100 29.79900
O  -3.17300 11.91900 30.16800
C  -2.99200 14.39200 30.77600
C  -1.80100 14.25200 31.58900
O  -0.67800 14.66600 31.27200
O  -2.13900 13.29300 32.55400
C  -1.06600 12.93500 33.48700
H  -2.96200 21.30400 29.96800
H  -3.00800 20.25900 23.51600
H  -2.45100 13.91300 24.60800
H  -4.08100 17.08100 32.09600
H  -2.45300 19.62600 32.00000
H  -5.25800 20.02200 31.29800
H  -4.26200 20.47900 32.79800
H  -5.10700 19.03100 32.72100
H  -1.13600 17.05600 32.20200
H  -2.39100 16.11200 33.11300
H  -2.59500 18.66000 34.00200
H  -0.84700 18.35800 33.77100
H  -3.94800 24.10700 27.48300
H  -2.52600 24.01200 28.34500
H  -3.94600 23.23400 29.06500
H  -3.11300 24.86200 25.51000
H  -2.06700 24.70900 24.18500
H  -1.34800 24.58000 25.78700
H  -2.36900 18.18000 22.31100
H  -3.88100 15.67800 22.47000
H  -4.93500 17.19700 21.48600
H  -4.30000 18.58700 20.92100
H  -5.13300 18.68400 22.45000
H  -1.65000 15.70100 21.24700
H  -1.82200 14.45800 22.50100
H  -0.13000 14.94500 23.21700
H  -0.52400 16.68200 23.63300
H  0.24800 16.23100 22.08100
H  -3.46600 11.94100 25.83400
H  -2.71300 11.10500 27.13900
H  -1.66200 11.87700 26.01800
H  -3.96300 14.35600 31.26900
H  -0.09300 13.13400 33.03700
H  -1.15800 11.91900 33.87000
H  -1.14200 13.61300 34.33800
Mg 26.82200 50.22500 26.32000
C  24.92600 51.38600 28.91800
C  29.47000 49.76500 28.50200
C  28.80400 49.31800 23.71400
C  24.42600 51.37600 24.02200
N  27.17000 50.55400 28.48700
C  26.22500 50.99000 29.37800
C  26.78600 51.04800 30.81000
C  28.28700 50.50900 30.61900
C  28.33000 50.29700 29.14500
C  29.43300 51.38400 31.25900
C  25.89600 50.39700 31.84000
C  26.51400 49.84200 33.17200
H  26.11800 50.41300 34.51700
N  28.88700 49.67200 26.14200
C  29.77000 49.40400 27.13000
C  30.96800 48.80900 26.63700
C  30.81500 48.61500 25.28800
C  29.47400 49.19700 24.99800
C  32.18700 48.50300 27.52100
C  31.78400 48.01500 24.32700
O  31.50900 47.84200 23.17600
C  33.15200 47.43900 24.81900
N  26.68000 50.42300 24.25900
C  27.54300 49.83700 23.37700
C  26.97100 49.73400 21.92500
C  25.50300 50.23400 22.14200
C  25.57400 50.80900 23.54200
C  27.87300 50.62000 20.91700
C  24.33200 49.20400 21.92200
C  24.04900 47.99500 22.88200
N  24.98100 51.08900 26.41500
C  24.15500 51.56800 25.38200
C  23.01900 52.17800 26.03300
C  23.33600 52.11300 27.45900
C  24.48300 51.42600 27.59700
C  21.79200 52.59700 25.33700
C  22.80800 52.44100 28.81600
O  21.81800 53.03300 29.19900
C  23.85600 51.93500 29.80300
C  24.16100 53.17100 30.66300
O  25.03400 53.97200 30.37500
O  23.51500 53.11900 31.90000
C  24.00000 54.04400 32.91700
H  30.20100 49.43500 29.24300
H  29.31300 48.94500 22.82300
H  23.59800 51.67100 23.37400
H  26.75300 52.11400 31.03500
H  28.32100 49.52300 31.08200
H  30.25900 51.49400 30.55700
H  29.80300 50.92000 32.17300
H  29.14000 52.42100 31.42400
H  25.25800 49.63900 31.38500
H  25.21900 51.17400 32.19500
H  27.60400 49.85100 33.16800
H  26.35500 48.77900 33.35300
H  33.04200 49.06000 27.14000
H  32.34800 47.42500 27.53500
H  31.98900 48.77700 28.55800
H  33.83200 48.23000 25.13300
H  33.60600 46.92500 23.97200
H  33.12800 46.77100 25.68000
H  27.06800 48.65800 21.78300
H  25.29800 51.07000 21.47200
H  28.54100 49.84700 20.53800
H  28.47400 51.36000 21.44600
H  27.35000 51.13700 20.11300
H  24.48800 48.60900 21.02200
H  23.36500 49.65400 21.69600
H  24.81800 48.03900 23.65300
H  24.17600 47.07100 22.31600
H  23.09600 47.97400 23.40900
H  22.01100 53.43300 24.67400
H  21.14800 53.06000 26.08600
H  21.23400 51.82700 24.80400
H  23.43300 51.24700 30.53600
H  24.38400 54.97000 32.48900
H  24.71100 53.49100 33.53000
H  23.25900 54.31000 33.67000

