158

Mg -1.91000 34.13100 26.58900
C  -3.28600 31.83900 28.87900
C  -0.69500 35.93500 29.14500
C  -0.91900 36.29700 24.37700
C  -3.65700 32.27700 24.08900
N  -1.89700 33.80200 28.80800
C  -2.50000 32.84500 29.50900
C  -2.31600 33.14700 30.99300
C  -1.75300 34.59700 31.07100
C  -1.40200 34.80800 29.60000
C  -2.62700 35.70800 31.66700
C  -1.55200 32.04100 31.77100
C  -2.19600 31.63900 33.13200
H  -1.21800 31.71000 34.28500
N  -0.86300 35.90800 26.74500
C  -0.42900 36.46000 27.86500
C  0.34700 37.68400 27.46800
C  0.31500 37.76400 26.03200
C  -0.55900 36.65000 25.67000
C  1.01800 38.53600 28.52000
C  0.91100 38.84300 25.12600
O  0.71100 38.76400 23.89500
C  1.69600 39.95400 25.73200
N  -2.36300 34.31700 24.57400
C  -1.69400 35.26600 23.87100
C  -1.62300 34.93200 22.35200
C  -2.51700 33.64200 22.26100
C  -2.85600 33.33100 23.69200
C  -2.36900 36.09700 21.53900
C  -1.83000 32.50000 21.41500
C  -0.42600 32.15500 21.71300
N  -3.30400 32.49300 26.43100
C  -3.85100 31.85700 25.33700
C  -4.68500 30.72000 25.81800
C  -4.52600 30.78000 27.20400
C  -3.60100 31.74100 27.48800
C  -5.57100 29.86300 24.97500
C  -4.86100 30.06400 28.42800
O  -5.57200 29.06200 28.58600
C  -3.96000 30.63500 29.53900
C  -4.91900 31.07700 30.59300
O  -5.40600 32.22400 30.67100
O  -5.11300 30.12900 31.50400
C  -5.75700 30.58900 32.74300
H  -0.32700 36.50400 30.00200
H  -0.52300 36.94300 23.59100
H  -4.01600 31.66500 23.25900
H  -3.32600 33.17400 31.40100
H  -0.86500 34.46000 31.68900
H  -2.34300 36.10000 32.64400
H  -3.60800 35.24000 31.75500
H  -2.65500 36.51400 30.93300
H  -0.54900 32.45400 31.88100
H  -1.33800 31.15100 31.17800
H  -2.42200 30.57800 33.02100
H  -3.08500 32.24700 33.29700
H  0.93000 38.14000 29.53200
H  0.54000 39.51500 28.53500
H  2.05900 38.73800 28.26800
H  1.02600 40.33900 26.50100
H  1.89000 40.73300 24.99500
H  2.64100 39.58900 26.13600
H  -0.61800 34.79400 21.95400
H  -3.53100 33.76800 21.88300
H  -3.11500 35.76000 20.82100
H  -1.61300 36.77600 21.14500
H  -2.95100 36.64900 22.27700
H  -1.85600 32.86000 20.38700
H  -2.39500 31.56800 21.44200
H  -0.17600 32.39200 22.74700
H  0.35600 32.49100 21.03100
H  -0.32700 31.07400 21.61200
H  -5.84200 30.48400 24.12100
H  -6.48400 29.56500 25.49100
H  -5.02600 28.96800 24.67600
H  -3.19300 30.02400 30.01600
H  -6.67900 31.16700 32.69100
H  -5.01700 31.19700 33.26400
H  -6.05700 29.67300 33.25200
Mg -11.10100 16.27900 42.24200
C  -7.79700 17.29600 42.28200
C  -11.89500 19.77700 41.47800
C  -14.32600 15.48400 41.50400
C  -10.27500 12.93500 42.39100
N  -9.96000 18.25900 41.78300
C  -8.62900 18.38700 41.98600
C  -8.22200 19.90200 41.81500
C  -9.57800 20.59700 42.10200
C  -10.50900 19.51100 41.75000
C  -9.85100 21.16900 43.57300
C  -7.70900 20.05400 40.32900
C  -6.20000 20.43500 40.10200
H  -5.36800 19.44800 39.26500
N  -12.88000 17.38400 41.47800
C  -12.93600 18.77400 41.32000
C  -14.20500 19.03600 40.73400
C  -14.97300 17.82500 40.65500
C  -14.10300 16.85200 41.24900
C  -14.53600 20.36000 40.27000
C  -16.37800 17.63800 40.03300
O  -16.97500 18.56700 39.52500
C  -17.03800 16.26000 40.00500
N  -12.03700 14.52800 41.74000
C  -13.40100 14.51100 41.81000
C  -13.89100 13.15700 42.43000
C  -12.63500 12.26200 42.10500
C  -11.55200 13.30800 42.06700
C  -14.36700 13.21600 43.86600
C  -12.73000 11.59400 40.76300
C  -12.48100 10.06500 40.88300
N  -9.45200 15.23100 42.53700
C  -9.21500 13.89100 42.46400
C  -7.77400 13.64300 42.56100
C  -7.19600 15.01500 42.66600
C  -8.28300 15.91900 42.45200
C  -7.06300 12.37100 42.58400
C  -5.91700 15.74700 42.71100
O  -4.79000 15.30000 42.90300
C  -6.27700 17.27700 42.61900
C  -5.98800 17.98900 43.95100
O  -6.30200 17.51600 45.02500
O  -5.32600 19.14000 43.70300
C  -5.37600 20.19600 44.73300
H  -12.22500 20.81400 41.38500
H  -15.32400 15.04400 41.46500
H  -9.90700 11.91900 42.54700
H  -7.37000 20.11200 42.46200
H  -9.70000 21.40600 41.38200
H  -8.91400 20.86200 44.03600
H  -10.63300 20.67700 44.15200
H  -9.97100 22.24300 43.42800
H  -8.36300 20.78300 39.85100
H  -7.85300 19.12300 39.78100
H  -5.73900 20.61900 41.07200
H  -6.11200 21.40000 39.60300
H  -14.85800 21.03400 41.06400
H  -15.22000 20.43900 39.42600
H  -13.62200 20.76400 39.83400
H  -18.02800 16.21700 39.55200
H  -17.29700 15.99400 41.03000
H  -16.39300 15.52300 39.52600
H  -14.72600 12.79600 41.83000
H  -12.39800 11.41600 42.75100
H  -15.43300 12.99100 43.86000
H  -14.40400 14.18000 44.37300
H  -13.76800 12.54600 44.48300
H  -12.07300 11.91000 39.95300
H  -13.72800 11.68400 40.33600
H  -13.21400 9.49800 40.30900
H  -12.45100 9.56200 41.84900
H  -11.55600 9.97100 40.31500
H  -7.74600 11.59700 42.23200
H  -6.81000 12.35900 43.64400
H  -6.15300 12.36200 41.98500
H  -5.67700 17.69600 41.81100
H  -4.41700 20.71400 44.70000
H  -5.50600 19.82000 45.74700
H  -6.23600 20.84900 44.58600

