158

Mg 34.59700 3.23500 29.85200
C  32.29200 3.68400 32.35900
C  37.15800 3.35500 32.06700
C  36.70100 2.49300 27.25200
C  31.90000 3.38300 27.52700
N  34.65500 3.44600 31.96900
C  33.61000 3.58200 32.83300
C  34.15200 3.43900 34.23200
C  35.68900 3.52000 34.10300
C  35.86400 3.50700 32.60400
C  36.39900 4.60500 35.04600
C  33.52400 2.27300 35.09400
C  33.19100 2.43200 36.63400
H  33.95800 3.53400 37.35900
N  36.63500 3.01100 29.69200
C  37.55700 3.08000 30.73100
C  38.96300 2.83200 30.21700
C  38.78300 2.52200 28.84600
C  37.31400 2.60600 28.52000
C  40.21400 3.05600 31.17500
C  39.85600 2.16700 27.90300
O  39.65100 1.96800 26.66400
C  41.23100 2.15900 28.34600
N  34.37700 2.80500 27.69100
C  35.35200 2.60300 26.83200
C  34.82400 2.87700 25.38800
C  33.31900 2.87800 25.53100
C  33.13600 3.06700 27.05300
C  35.38100 4.13900 24.75600
C  32.40900 1.84900 24.75700
C  32.43100 0.43300 25.28000
N  32.56100 3.49200 29.79800
C  31.59100 3.59100 28.80700
C  30.26700 3.87700 29.48000
C  30.57100 3.88500 30.80500
C  31.89900 3.61700 30.98700
C  28.93600 4.00800 28.69100
C  29.90600 4.09100 32.16200
O  28.70600 4.29200 32.43000
C  31.01000 3.87600 33.15700
C  30.96000 5.10800 34.07400
O  31.59400 6.13900 33.93800
O  30.25700 4.79800 35.19500
C  30.39300 5.79200 36.27000
H  37.91700 3.18800 32.83400
H  37.32000 2.45300 26.35400
H  31.02400 3.50800 26.88700
H  33.88500 4.34500 34.77600
H  36.01300 2.49300 34.26900
H  36.72400 5.41700 34.39600
H  37.21100 4.07200 35.54200
H  35.67100 5.00500 35.75100
H  34.17600 1.40000 35.08700
H  32.52500 2.00900 34.74700
H  33.35800 1.47800 37.13500
H  32.11500 2.61100 36.64400
H  40.57300 4.06600 30.97800
H  41.12200 2.50800 30.92200
H  40.01200 3.07800 32.24600
H  41.92000 1.98700 27.51900
H  41.25600 1.22100 28.90100
H  41.67700 2.93800 28.96300
H  35.16100 2.03700 24.78000
H  32.92800 3.82300 25.15500
H  36.01900 4.58800 25.51700
H  34.65400 4.86100 24.38300
H  35.91200 3.85300 23.84700
H  32.71000 1.92000 23.71200
H  31.39100 2.23500 24.80400
H  31.43900 -0.01100 25.19900
H  32.77600 0.37300 26.31200
H  33.15800 -0.09500 24.66300
H  28.21300 3.27800 29.05200
H  29.14600 3.73900 27.65500
H  28.68000 5.06800 28.68900
H  30.68600 2.99600 33.71200
H  29.73600 6.63800 36.06700
H  31.33800 6.23600 36.58200
H  29.88300 5.31300 37.10600
Mg 6.41800 53.37500 41.35300
C  6.10800 49.96800 40.22500
C  9.46800 53.39200 39.76500
C  6.28600 56.66800 41.21500
C  2.91200 53.17200 42.25100
N  7.58100 51.88600 40.05800
C  7.26400 50.60700 39.74800
C  8.30400 49.93300 38.83600
C  9.49900 50.91900 39.08600
C  8.81000 52.14700 39.63900
C  10.71500 50.35800 39.89900
C  7.85800 49.83400 37.30400
C  7.95600 48.44000 36.64200
H  6.92000 47.97800 35.57300
N  7.75200 54.86800 40.72900
C  9.01200 54.67800 40.22000
C  9.69700 55.89600 40.18200
C  8.80100 56.94900 40.53200
C  7.53700 56.20400 40.79300
C  11.16800 55.91900 39.69300
C  9.06900 58.45800 40.40700
O  10.21200 58.87500 40.05400
C  8.00200 59.41500 40.55600
N  4.79800 54.64400 41.52300
C  5.10000 56.04000 41.49700
C  3.80800 56.84300 41.82300
C  2.72300 55.73200 42.08900
C  3.49100 54.41800 41.97400
C  3.85500 57.89700 43.03200
C  1.50100 55.77700 41.15800
C  0.10700 55.47400 41.79100
N  4.89400 51.89800 41.52400
C  3.64500 51.92000 42.05500
C  3.16200 50.59800 42.21900
C  4.09300 49.80800 41.52800
C  5.10900 50.64800 41.05000
C  1.82000 50.25600 43.00600
C  4.40000 48.38000 41.06600
O  3.88200 47.33500 41.40600
C  5.73600 48.49000 40.24600
C  5.56800 47.74900 38.92700
O  4.88200 48.15200 38.00000
O  5.84500 46.42700 39.06300
C  5.40300 45.44700 38.09300
H  10.51400 53.34800 39.45400
H  6.27500 57.74300 41.40700
H  1.88000 53.02400 42.57500
H  8.57600 48.96600 39.26100
H  9.96300 51.28700 38.17100
H  11.40300 49.68900 39.38300
H  10.25000 49.90300 40.77400
H  11.38200 51.08500 40.36300
H  8.57000 50.38600 36.69100
H  6.83600 50.20800 37.24400
H  8.07200 47.80000 37.51600
H  8.90200 48.35800 36.10700
H  11.28800 55.23800 38.85000
H  11.91400 55.67700 40.44900
H  11.38400 56.96000 39.45100
H  8.20900 60.43600 40.23400
H  7.73400 59.32500 41.60900
H  7.17900 59.11600 39.90700
H  3.62400 57.39800 40.90300
H  2.37800 55.80400 43.12000
H  3.58800 58.86600 42.61000
H  4.83500 57.94200 43.50700
H  3.15000 57.57400 43.79800
H  1.57800 55.08600 40.31800
H  1.48700 56.77300 40.71600
H  -0.34000 56.46800 41.82300
H  0.14400 55.11500 42.81900
H  -0.54500 54.80800 41.22700
H  1.46600 49.47100 42.33800
H  1.00900 50.98100 43.07200
H  2.08700 49.95900 44.02100
H  6.41700 47.88500 40.84400
H  4.41100 45.69100 37.71300
H  5.21600 44.43100 38.44100
H  6.10100 45.33700 37.26400

