158

Mg 24.39900 -5.09000 46.70000
C  26.21400 -2.40000 45.05500
C  21.57000 -4.00900 45.12200
C  23.07200 -8.04300 47.35100
C  27.49800 -6.21100 47.93400
N  24.00000 -3.48700 45.20500
C  24.87500 -2.49000 44.66900
C  24.09400 -1.70900 43.67000
C  22.63600 -1.95400 44.03600
C  22.70800 -3.25500 44.81900
C  21.99100 -0.80000 44.77900
C  24.62000 -1.96700 42.21800
C  25.12100 -0.77500 41.37100
H  26.03200 -1.04200 40.16600
N  22.50600 -5.91700 46.33400
C  21.48600 -5.34700 45.63600
C  20.38800 -6.26400 45.55900
C  20.76600 -7.44600 46.31800
C  22.11800 -7.16600 46.82700
C  19.05700 -5.85200 44.85200
C  19.90700 -8.64600 46.43900
O  18.82600 -8.78300 45.92800
C  20.28500 -9.77400 47.25900
N  25.19200 -6.86000 47.57300
C  24.41400 -7.98300 47.70900
C  25.22500 -9.11000 48.25400
C  26.53100 -8.45700 48.69700
C  26.47500 -7.10400 48.05100
C  24.42600 -10.04100 49.25500
C  27.77600 -9.30000 48.32100
C  28.73500 -9.46000 49.41200
N  26.44800 -4.46100 46.54000
C  27.54200 -5.00300 47.23100
C  28.71400 -4.06500 47.01700
C  28.25400 -3.08300 46.12900
C  26.86000 -3.37300 45.85900
C  30.03900 -4.27700 47.56800
C  28.73000 -1.86000 45.41800
O  29.77600 -1.26500 45.36800
C  27.35800 -1.37700 44.63300
C  27.04300 -0.01300 44.97900
O  26.22100 0.46000 45.72100
O  27.82900 0.74100 44.21600
C  27.64300 2.19100 44.20100
H  20.63500 -3.71400 44.64000
H  22.73900 -9.08200 47.38700
H  28.38200 -6.54100 48.48400
H  24.41600 -0.68000 43.82700
H  22.05100 -1.99100 43.11800
H  22.74000 -0.08700 45.12100
H  21.49100 -1.23700 45.64400
H  21.26300 -0.29200 44.14700
H  23.90500 -2.62800 41.72800
H  25.42600 -2.70100 42.21100
H  25.45200 0.00100 42.06100
H  24.28000 -0.29300 40.87300
H  19.22400 -5.93000 43.77800
H  18.81600 -4.79500 44.97300
H  18.21200 -6.47300 45.15000
H  19.38000 -10.35000 47.45200
H  20.60400 -9.30600 48.19000
H  20.95400 -10.48000 46.76600
H  25.52300 -9.79000 47.45500
H  26.40900 -8.29500 49.76800
H  24.94200 -10.11000 50.21200
H  24.21600 -10.98600 48.75500
H  23.46000 -9.62700 49.54500
H  28.41600 -8.73200 47.64600
H  27.44400 -10.24900 47.90100
H  29.68400 -9.02100 49.10500
H  28.84400 -10.53800 49.53600
H  28.27900 -9.02700 50.30200
H  30.63300 -4.96800 46.97000
H  30.05300 -4.68900 48.57700
H  30.48600 -3.28800 47.66900
H  27.69700 -1.50300 43.60500
H  27.84000 2.56700 45.20500
H  26.65100 2.59500 44.00300
H  28.28200 2.79500 43.55600
Mg 42.65200 41.11200 26.84000
C  42.08500 43.54700 29.35200
C  43.65800 38.99500 29.30100
C  43.47100 39.01800 24.36200
C  41.94400 43.59300 24.46900
N  43.02000 41.32800 29.11300
C  42.56700 42.35900 29.90700
C  42.55500 41.95400 31.44900
C  43.36300 40.57500 31.34400
C  43.37900 40.24400 29.82100
C  44.69200 40.47100 32.10300
C  41.15300 41.92000 32.05600
C  40.80000 42.64400 33.37600
H  40.09400 41.74500 34.41700
N  43.50000 39.23400 26.78000
C  43.76200 38.49400 27.94900
C  44.12000 37.12100 27.53500
C  44.15400 37.17300 26.03700
C  43.70700 38.48600 25.63200
C  44.37600 36.00700 28.60000
C  44.54700 36.07400 25.04700
O  44.48500 36.15000 23.86900
C  45.15300 34.89200 25.64100
N  42.77300 41.28400 24.76300
C  43.05500 40.23800 23.95600
C  42.64200 40.57200 22.50200
C  41.93800 41.97600 22.61400
C  42.26100 42.33300 24.03700
C  43.86600 40.45600 21.55900
C  40.43200 41.84800 22.33400
C  39.56000 41.05400 23.36500
N  42.08500 43.14700 26.83900
C  41.88800 44.00900 25.80300
C  41.41200 45.29300 26.28900
C  41.41600 45.12900 27.68100
C  41.79700 43.76900 27.99400
C  40.85700 46.44700 25.47700
C  41.25400 45.88000 28.92800
O  41.07500 47.05200 29.26700
C  41.44400 44.77800 30.08300
C  42.36500 45.30600 31.08300
O  43.36100 45.99600 30.76800
O  41.84300 45.33600 32.30000
C  42.56100 46.16100 33.34700
H  43.94700 38.32000 30.10900
H  43.66600 38.38400 23.49400
H  41.64500 44.32600 23.71700
H  43.08900 42.73000 31.99700
H  42.70500 39.80600 31.74800
H  45.44700 40.72500 31.35800
H  44.77300 39.49700 32.58400
H  44.70300 41.26500 32.84900
H  40.82700 40.88200 32.11700
H  40.52800 42.51600 31.39100
H  40.09500 43.46400 33.24000
H  41.73500 43.03200 33.78000
H  45.44700 35.84200 28.48200
H  43.84200 35.10500 28.30200
H  44.16800 36.37100 29.60600
H  45.96800 35.29600 26.24100
H  45.68900 34.27500 24.91900
H  44.60300 34.16100 26.23400
H  41.93600 39.79300 22.21300
H  42.42000 42.74500 22.01100
H  44.85400 40.63400 21.98500
H  43.82200 41.35200 20.94000
H  43.78300 39.50600 21.03000
H  40.26200 41.45100 21.33300
H  40.03200 42.85500 22.21600
H  39.99200 41.18000 24.35800
H  39.52500 40.01100 23.04800
H  38.54500 41.44900 23.34400
H  40.92500 46.36700 24.39200
H  41.27800 47.37200 25.87200
H  39.79400 46.52000 25.70700
H  40.43100 44.54300 30.40900
H  43.61200 46.34600 33.12400
H  42.49400 45.76700 34.36100
H  42.12700 47.14600 33.51900

