158

Mg -1.99300 17.21300 26.46400
C  -2.20200 14.92700 29.08600
C  -2.87100 19.69100 28.63400
C  -2.10000 19.35800 23.88800
C  -1.67800 14.54200 24.19900
N  -2.63000 17.27200 28.62900
C  -2.51500 16.27000 29.53300
C  -2.54600 16.81100 30.96600
C  -3.02300 18.34600 30.70100
C  -2.89400 18.49000 29.23100
C  -4.43000 18.66900 31.23400
C  -1.14900 16.63400 31.64600
C  -1.02200 17.50600 32.95900
H  -1.09100 16.70800 34.29700
N  -2.30600 19.28700 26.37800
C  -2.63500 20.11500 27.30100
C  -2.56700 21.46200 26.88600
C  -2.45100 21.41300 25.45000
C  -2.29200 19.94900 25.19200
C  -2.65200 22.68500 27.68700
C  -2.38100 22.47200 24.39700
O  -2.34500 22.22200 23.19800
C  -2.34000 23.96200 24.82900
N  -1.99800 16.90600 24.34400
C  -2.00500 18.04000 23.51100
C  -1.95600 17.59600 21.99200
C  -1.49600 16.02900 22.20500
C  -1.64300 15.81600 23.72400
C  -3.37000 17.77700 21.36000
C  -0.07700 15.87300 21.66500
C  1.10900 16.45800 22.45500
N  -2.01700 15.18800 26.61700
C  -1.84800 14.21700 25.57400
C  -1.96100 12.87500 26.09300
C  -2.04500 13.11600 27.51100
C  -2.07200 14.55600 27.72700
C  -1.82900 11.68200 25.27000
C  -2.13900 12.44000 28.82800
O  -2.06500 11.21900 29.16900
C  -2.30200 13.64300 29.95700
C  -1.31200 13.35300 30.94400
O  -0.09100 13.42800 30.83600
O  -1.91800 12.84500 32.06200
C  -1.04800 12.54700 33.19600
H  -3.05900 20.47500 29.37000
H  -2.07300 19.91200 22.94800
H  -1.41800 13.78500 23.45600
H  -3.28100 16.29500 31.58300
H  -2.25300 19.05200 31.01200
H  -4.41700 19.16200 32.20700
H  -4.99700 17.80100 31.56900
H  -4.99600 19.36300 30.61200
H  -0.42600 16.95600 30.89500
H  -0.90700 15.60800 31.92200
H  -1.93500 18.07200 33.14600
H  -0.18700 18.20500 33.00700
H  -2.50000 22.51800 28.75400
H  -3.63000 23.16000 27.62400
H  -1.83600 23.35100 27.40600
H  -1.44800 24.13300 25.43200
H  -3.28100 24.15900 25.34300
H  -2.07900 24.58600 23.97500
H  -1.17600 18.08400 21.40800
H  -2.16500 15.46800 21.55200
H  -3.28900 18.43900 20.49800
H  -4.01100 18.27100 22.09000
H  -3.79600 16.81700 21.06800
H  0.08300 16.22200 20.64500
H  0.00300 14.79000 21.57200
H  1.76000 17.02000 21.78600
H  1.78300 15.72200 22.89400
H  0.78300 17.15000 23.23200
H  -1.30100 11.85600 24.33200
H  -2.89000 11.49100 25.10600
H  -1.31600 10.92400 25.86200
H  -3.30700 13.41900 30.31400
H  -1.65900 12.04700 33.94800
H  -0.83100 13.54700 33.57200
H  -0.10200 12.03100 33.02800
Mg 26.00000 50.56600 26.27300
C  23.90300 51.62000 28.76100
C  28.06000 49.27400 28.52200
C  28.23500 50.05600 23.77800
C  24.04200 52.54200 24.04400
N  26.01700 50.65600 28.36500
C  25.01200 50.98500 29.18900
C  25.30400 50.50300 30.62000
C  26.82800 50.18000 30.58900
C  27.04300 50.06800 29.06200
C  27.90600 51.11900 31.23400
C  24.36200 49.31600 31.23300
C  23.99000 49.29800 32.72600
H  24.72300 50.25900 33.80400
N  27.85000 49.64600 26.17000
C  28.50100 49.08100 27.21300
C  29.71400 48.41200 26.76200
C  29.77400 48.64300 25.30300
C  28.60400 49.49600 25.00000
C  30.55600 47.55200 27.65300
C  30.88200 48.14600 24.33300
O  30.84400 48.32200 23.11000
C  31.95400 47.27100 24.77200
N  26.20000 51.33300 24.30700
C  27.13300 50.86700 23.44100
C  27.06300 51.56200 22.11700
C  25.68700 52.22400 22.15800
C  25.18000 52.00700 23.59100
C  28.27000 52.53300 21.94000
C  24.74800 51.69200 20.97400
C  23.80200 50.52000 21.35500
N  24.23300 51.76500 26.32300
C  23.49000 52.38000 25.33900
C  22.22700 52.85300 25.87300
C  22.28600 52.62900 27.23600
C  23.58600 51.93700 27.45200
C  21.10600 53.50800 25.12000
C  21.68800 52.73700 28.57700
O  20.65800 53.27200 28.85300
C  22.66300 51.97200 29.59100
C  23.00600 52.77800 30.79400
O  23.71900 53.77900 30.74800
O  22.52600 52.30000 31.97700
C  22.73900 53.02900 33.27600
H  28.78700 48.90900 29.25000
H  28.85800 49.68900 22.95900
H  23.39700 53.06900 23.33700
H  25.10900 51.37600 31.24200
H  26.88300 49.23600 31.13100
H  28.52800 51.59300 30.47400
H  28.52600 50.42800 31.80500
H  27.46600 51.90500 31.84700
H  24.67700 48.29900 30.99900
H  23.44400 49.38700 30.64900
H  24.16400 48.28100 33.07700
H  22.90900 49.38500 32.83300
H  30.16800 47.52000 28.67100
H  31.55300 47.94200 27.86000
H  30.73000 46.55200 27.25700
H  31.56900 46.25200 24.82500
H  32.36600 47.64100 25.71100
H  32.76300 47.46000 24.06700
H  27.05500 50.72000 21.42600
H  25.72800 53.29900 21.98600
H  28.91300 52.53200 22.81900
H  28.04100 53.54400 21.60100
H  28.92400 52.01600 21.23700
H  25.45700 51.19500 20.31200
H  24.32400 52.51300 20.39600
H  23.65300 50.54000 22.43500
H  24.08500 49.49600 21.11200
H  22.80000 50.62100 20.93800
H  20.67100 54.20500 25.83500
H  20.34400 52.80600 24.78100
H  21.50100 53.89500 24.18100
H  22.30100 51.04700 30.04000
H  21.91300 53.74000 33.28000
H  23.61400 53.67900 33.25400
H  22.82200 52.29800 34.08100

