158

Mg 16.62300 -2.73000 27.25800
C  15.92600 -0.61400 30.04600
C  18.14400 -4.88000 29.37900
C  17.41800 -4.54700 24.58900
C  15.38800 -0.23700 25.21900
N  17.18400 -2.56300 29.49600
C  16.61900 -1.72100 30.45700
C  17.00200 -2.17700 31.84900
C  17.91500 -3.46700 31.58700
C  17.79000 -3.67100 30.02800
C  19.40900 -3.34600 31.97500
C  15.79400 -2.45700 32.77500
C  15.83300 -1.80000 34.20500
H  17.21800 -1.68300 34.91300
N  17.59500 -4.55000 27.02500
C  18.21400 -5.24500 28.02500
C  18.57100 -6.55400 27.49200
C  18.27500 -6.46600 26.11700
C  17.66600 -5.18100 25.85300
C  18.98900 -7.65900 28.45200
C  18.36700 -7.51200 24.97000
O  17.93900 -7.40500 23.85300
C  18.95100 -8.85000 25.24400
N  16.78200 -2.25100 25.20200
C  17.08000 -3.19500 24.32700
C  16.95200 -2.69800 22.87100
C  15.91700 -1.50100 23.06200
C  16.05500 -1.25400 24.58600
C  18.36600 -2.20600 22.40000
C  14.49400 -1.87700 22.54700
C  13.53300 -2.23800 23.70100
N  15.70500 -0.81300 27.50200
C  15.17600 0.02000 26.59700
C  14.56300 1.15200 27.16800
C  14.80900 0.89200 28.63100
C  15.53300 -0.27500 28.70900
C  13.92000 2.24300 26.43600
C  14.64300 1.46100 29.93200
O  14.21600 2.50100 30.46500
C  15.32400 0.43500 30.95600
C  16.38600 1.10100 31.77500
O  17.59200 1.21000 31.57300
O  15.75800 1.66800 32.84600
C  16.49500 2.60700 33.79700
H  18.57300 -5.71400 29.93900
H  17.53600 -5.05600 23.63000
H  14.92200 0.46800 24.52700
H  17.56000 -1.38100 32.34200
H  17.51200 -4.35700 32.07100
H  19.62400 -2.56100 32.70000
H  20.01200 -3.35000 31.06800
H  19.76100 -4.23800 32.49500
H  15.80400 -3.53800 32.91400
H  14.87000 -2.31300 32.21500
H  15.11200 -2.37600 34.78500
H  15.42200 -0.79500 34.11700
H  18.24800 -7.79000 29.24100
H  19.93900 -7.42000 28.93000
H  18.97600 -8.58400 27.87500
H  19.85000 -8.68500 25.83700
H  19.21100 -9.45100 24.37300
H  18.28800 -9.40100 25.91100
H  16.54600 -3.42700 22.17000
H  16.26900 -0.63000 22.50800
H  18.46300 -1.13200 22.24300
H  18.59600 -2.70400 21.45800
H  19.02100 -2.53300 23.20800
H  14.51200 -2.57700 21.71100
H  14.01800 -1.02500 22.06300
H  13.09000 -1.28800 24.00200
H  13.98200 -2.70700 24.57600
H  12.73400 -2.88600 23.34200
H  14.63000 2.85600 25.88100
H  13.44600 2.89600 27.17000
H  13.16800 1.71600 25.84900
H  14.62700 -0.00600 31.66900
H  15.67000 3.20400 34.18400
H  17.33100 3.17300 33.38600
H  16.90300 1.97300 34.58400
Mg 31.22500 59.66200 38.88400
C  28.34000 57.72000 37.80000
C  33.19300 57.04800 37.95400
C  33.82300 61.78700 39.08100
C  29.02700 62.28000 39.64900
N  30.81400 57.72100 37.90200
C  29.61400 57.08000 37.74500
C  29.81600 55.76200 37.03300
C  31.29000 55.41300 37.40800
C  31.82100 56.85900 37.79500
C  31.51800 54.32900 38.48600
C  29.45600 55.61000 35.53600
C  28.33900 54.67100 35.08100
H  27.24000 55.27800 34.14500
N  33.29400 59.46400 38.67900
C  33.85500 58.27300 38.37700
C  35.33400 58.46800 38.42900
C  35.53300 59.81200 38.75800
C  34.22400 60.44800 38.84600
C  36.36400 57.42000 38.19300
C  36.87500 60.49400 38.98300
O  37.93300 59.88700 39.00300
C  36.96300 61.98100 39.34300
N  31.36700 61.82700 39.17700
C  32.59100 62.42100 39.29000
C  32.43800 63.89000 39.59200
C  30.90700 64.05300 39.95500
C  30.38400 62.68200 39.55500
C  33.36800 64.46900 40.71600
C  30.30900 65.18200 39.15900
C  29.37500 66.24200 39.84900
N  29.12200 59.98600 38.75400
C  28.37600 61.07500 39.18100
C  26.96300 60.77600 39.06700
C  26.94200 59.44200 38.55800
C  28.26600 59.05900 38.31600
C  25.80100 61.62300 39.59000
C  26.05800 58.29700 38.22000
O  24.87300 58.14500 38.26200
C  26.89900 57.15100 37.65300
C  26.55400 55.88000 38.40200
O  27.19300 55.47700 39.33700
O  25.58000 55.15300 37.78800
C  25.25700 53.84700 38.26900
H  33.81200 56.23100 37.57700
H  34.61000 62.54400 39.09200
H  28.37300 63.04200 40.07800
H  29.13000 55.13400 37.60200
H  31.78200 55.09700 36.48800
H  30.66800 53.64600 38.48700
H  31.55000 54.82100 39.45800
H  32.42100 53.74500 38.30800
H  30.32200 55.36600 34.92100
H  29.08700 56.60200 35.27700
H  27.81900 54.25400 35.94300
H  28.78200 53.84000 34.53100
H  35.98200 56.59800 37.58700
H  36.56100 56.98900 39.17500
H  37.36300 57.71600 37.87200
H  38.01300 62.27200 39.37300
H  36.46200 62.18000 40.29000
H  36.49600 62.51800 38.51800
H  32.63800 64.48400 38.70100
H  30.72500 64.17400 41.02300
H  34.17600 63.86400 41.12800
H  32.83400 64.84800 41.58700
H  33.85400 65.32500 40.24700
H  29.76000 64.87600 38.26800
H  31.12500 65.86000 38.90800
H  29.77300 67.25100 39.74100
H  29.27800 65.98400 40.90400
H  28.39600 66.22900 39.37100
H  26.02200 61.86700 40.62900
H  24.86700 61.06800 39.50600
H  25.80600 62.58200 39.07100
H  26.77300 57.00300 36.58000
H  25.90800 53.04300 37.92800
H  24.27200 53.53100 37.92300
H  25.16800 53.79900 39.35500

