158

Mg 25.76500 0.21800 29.57100
C  27.50300 0.09300 32.60000
C  22.86200 0.60500 31.38300
C  24.06400 0.37200 26.61600
C  28.54500 -0.85700 27.79100
N  25.26400 0.26800 31.76500
C  26.14700 0.27300 32.83100
C  25.46300 0.42600 34.15800
C  23.95100 0.47000 33.64900
C  23.99600 0.39800 32.19900
C  22.86300 -0.49300 34.32000
C  25.99700 1.70500 34.98100
C  25.11300 2.20200 36.11700
H  25.54500 1.80700 37.53000
N  23.76600 0.44800 29.12000
C  22.71900 0.63900 29.98600
C  21.48200 0.84000 29.27100
C  21.82900 0.74500 27.86500
C  23.26800 0.52800 27.83900
C  20.17300 1.08100 30.03800
C  20.95500 0.82700 26.61600
O  21.45100 0.86500 25.48100
C  19.46000 0.81300 26.74700
N  26.27100 -0.09200 27.41300
C  25.35700 0.04600 26.45700
C  25.92100 -0.33800 25.01900
C  27.41600 -0.73600 25.41200
C  27.46600 -0.54200 26.94300
C  25.16000 -1.45500 24.28800
C  28.48500 0.19100 24.68800
C  28.24800 0.36000 23.17100
N  27.61500 -0.26700 29.96900
C  28.66300 -0.67300 29.18600
C  29.83800 -0.67000 29.93900
C  29.45200 -0.41400 31.26500
C  28.09300 -0.17500 31.30400
C  31.19500 -0.99100 29.41400
C  29.89800 -0.33500 32.58500
O  31.03100 -0.49900 33.04300
C  28.68200 -0.08500 33.44200
C  28.52800 -1.19300 34.37300
O  28.09200 -2.29400 34.13400
O  29.01700 -0.85500 35.59200
C  28.76200 -1.79900 36.73000
H  21.95200 0.71800 31.97500
H  23.64100 0.45200 25.61200
H  29.47600 -1.12100 27.28500
H  25.69500 -0.46300 34.74400
H  23.52500 1.45700 33.83000
H  23.23200 -0.97100 35.22800
H  22.64300 -1.29000 33.61000
H  22.03000 0.17800 34.52900
H  26.04000 2.55800 34.30500
H  26.97400 1.43100 35.37900
H  24.08900 1.84100 36.02400
H  25.08300 3.28000 35.96000
H  19.75600 2.00000 29.62400
H  20.23300 1.26200 31.11100
H  19.48900 0.25700 29.83500
H  19.15600 0.01300 27.42300
H  18.89100 0.90800 25.82300
H  19.06500 1.60300 27.38500
H  25.80100 0.50800 24.34300
H  27.66300 -1.77300 25.18300
H  25.59100 -2.45400 24.35200
H  25.05600 -1.22800 23.22700
H  24.11600 -1.50200 24.59600
H  29.40500 -0.36100 24.87900
H  28.64100 1.09900 25.26900
H  28.97500 -0.03700 22.46200
H  28.01000 1.39800 22.94000
H  27.30100 -0.13500 22.95500
H  31.87100 -1.12100 30.25900
H  31.59000 -0.16700 28.81900
H  31.12300 -2.01500 29.04800
H  29.01600 0.83900 33.91600
H  29.67000 -2.21500 37.16600
H  28.01800 -2.55600 36.48300
H  28.31200 -1.29100 37.58400
Mg 35.46800 1.29400 29.63800
C  33.33300 2.85600 31.90300
C  37.90000 1.28500 32.03500
C  37.65200 0.23100 27.33500
C  33.05500 1.85000 27.10600
N  35.57300 2.07600 31.78100
C  34.52900 2.47300 32.51300
C  34.91900 2.52600 34.05300
C  36.45200 2.17500 33.98700
C  36.67900 1.76500 32.54600
C  37.53600 3.15800 34.52000
C  34.12700 1.41500 34.91700
C  33.29900 2.02000 36.03300
H  33.98300 3.09300 36.80300
N  37.44500 0.74200 29.69200
C  38.25000 0.73000 30.76800
C  39.51300 0.14300 30.44200
C  39.55300 0.07100 29.00600
C  38.21900 0.34900 28.60300
C  40.63800 0.10100 31.51200
C  40.75600 -0.21400 28.10900
O  40.64600 -0.10100 26.88200
C  42.13400 -0.57900 28.66100
N  35.37500 1.16600 27.55300
C  36.42400 0.61600 26.80300
C  36.03200 0.49400 25.33900
C  34.49000 0.66300 25.34600
C  34.25800 1.23700 26.75900
C  36.74500 1.53700 24.51900
C  33.58200 -0.63000 24.99400
C  34.19700 -2.03800 25.20000
N  33.64100 2.19100 29.45100
C  32.71200 2.25900 28.39100
C  31.40200 2.71500 28.84200
C  31.65800 2.97600 30.25000
C  32.99900 2.71500 30.54700
C  30.11500 2.76300 28.14200
C  31.04700 3.34800 31.54300
O  29.86800 3.58000 31.79000
C  32.16900 3.39600 32.62300
C  32.43400 4.73200 33.20800
O  33.50200 5.29100 33.21700
O  31.29600 5.20100 33.76900
C  31.51300 6.42300 34.52800
H  38.66800 1.07800 32.78300
H  38.37800 -0.23100 26.66300
H  32.25400 1.97100 26.37400
H  34.77500 3.54600 34.40700
H  36.61100 1.19100 34.42800
H  37.11300 3.68300 35.37600
H  38.01000 3.74900 33.73600
H  38.36900 2.58900 34.93200
H  34.78200 0.70500 35.42300
H  33.57600 0.81800 34.19100
H  32.95200 1.21700 36.68300
H  32.41600 2.37400 35.50000
H  41.49100 -0.50700 31.21000
H  40.32600 -0.08100 32.54000
H  41.04900 1.10500 31.62000
H  42.10600 -1.31100 29.46800
H  42.50500 0.33900 29.11700
H  42.80400 -0.66100 27.80600
H  36.31500 -0.46600 24.90900
H  34.13000 1.51200 24.76600
H  37.75100 1.71800 24.89800
H  36.13600 2.44100 24.55500
H  36.83100 1.12000 23.51600
H  33.35400 -0.55200 23.93000
H  32.68600 -0.54400 25.60900
H  35.07600 -2.09800 25.84200
H  34.35300 -2.48800 24.22000
H  33.41000 -2.65700 25.63100
H  29.99400 3.80100 27.83200
H  29.28100 2.48700 28.78700
H  30.07200 2.06500 27.30700
H  31.79600 2.82100 33.47100
H  31.87800 7.25400 33.92400
H  32.25900 6.30100 35.31200
H  30.56400 6.60600 35.03300

