158

Mg 36.10100 2.79500 30.22200
C  33.65500 3.89400 32.45300
C  38.44900 3.16300 32.86800
C  38.52600 2.02800 28.06800
C  33.78300 2.99600 27.63100
N  36.06200 3.47700 32.40100
C  34.92200 3.75100 33.06800
C  35.15100 3.62200 34.59700
C  36.68000 3.87000 34.66100
C  37.13000 3.47800 33.23500
C  37.12800 5.36300 35.00800
C  34.59600 2.32900 35.24100
C  33.97000 2.41200 36.60600
H  34.62500 3.37200 37.60400
N  38.15600 2.57600 30.42300
C  38.91900 2.76700 31.58900
C  40.31900 2.37200 31.29000
C  40.33100 1.91300 29.91100
C  38.98100 2.19100 29.38400
C  41.43900 2.35100 32.28100
C  41.45400 1.33200 29.09800
O  41.40600 1.15800 27.85500
C  42.78000 1.12500 29.73400
N  36.25900 2.91200 28.14000
C  37.33100 2.37200 27.47700
C  37.07400 2.12200 25.95200
C  35.51300 2.43400 25.85800
C  35.16900 2.84100 27.28100
C  37.91700 3.02200 24.98400
C  34.65000 1.24700 25.39100
C  33.85100 1.37000 24.01000
N  34.17200 3.26000 30.00700
C  33.33700 3.32500 28.89500
C  32.04400 3.70300 29.28300
C  32.10200 3.90600 30.64900
C  33.41600 3.60500 31.03900
C  30.80900 3.85900 28.46600
C  31.28200 4.38300 31.76700
O  30.15000 4.88500 31.82300
C  32.26500 4.13500 33.05700
C  32.20900 5.35400 34.01000
O  32.54400 6.48900 33.74900
O  31.72800 4.93800 35.22500
C  31.47800 5.94900 36.21900
H  39.06900 2.91900 33.73300
H  39.36700 1.62600 27.49800
H  32.99900 3.06200 26.87500
H  34.58000 4.46900 34.97600
H  37.09300 3.18400 35.40000
H  37.85800 5.77400 34.31000
H  37.69100 5.36000 35.94100
H  36.22100 5.96000 34.91500
H  35.42300 1.62800 35.36000
H  33.87300 2.00100 34.49400
H  34.02000 1.43600 37.08800
H  32.91200 2.67400 36.56100
H  42.41700 2.59900 31.86800
H  41.47100 1.39700 32.80600
H  41.21700 3.20100 32.92700
H  43.26100 2.07600 29.96300
H  43.38900 0.58800 29.00700
H  42.63100 0.58100 30.66600
H  37.33600 1.07400 25.81200
H  35.32800 3.27600 25.19200
H  38.12900 3.92100 25.56300
H  37.22100 3.22400 24.17000
H  38.76900 2.43700 24.64000
H  33.93500 0.94700 26.15600
H  35.33000 0.41200 25.22100
H  32.83700 1.70800 24.22400
H  33.91600 0.45300 23.42500
H  34.31100 2.13300 23.38200
H  29.95800 3.76600 29.14000
H  30.70900 3.11700 27.67400
H  30.73800 4.81600 27.94800
H  31.99200 3.20000 33.54500
H  32.26900 5.91000 36.96800
H  30.52500 5.75300 36.71100
H  31.44000 6.95800 35.80900
Mg 8.96000 48.79200 25.88600
C  6.78100 48.84700 28.55100
C  11.47000 50.13400 27.79700
C  10.90900 48.39100 23.27200
C  6.18300 47.90400 23.80800
N  9.11500 49.39000 27.92600
C  8.12500 49.14800 28.89600
C  8.62100 49.69300 30.33200
C  9.98700 50.48000 29.95900
C  10.21400 50.04400 28.45900
C  10.00400 52.03000 30.11700
C  8.77700 48.62700 31.45000
C  8.23800 49.04600 32.82900
H  8.27500 48.04600 34.01600
N  10.97200 49.12700 25.60400
C  11.88800 49.64900 26.52000
C  13.18300 49.54200 25.93000
C  13.08700 48.98900 24.59200
C  11.58200 48.88300 24.37900
C  14.44000 49.73800 26.85900
C  14.16900 48.59200 23.62400
O  13.99900 48.16300 22.49000
C  15.51500 48.82100 23.99500
N  8.57100 48.49700 23.76300
C  9.61800 48.29500 22.91900
C  9.14200 47.80700 21.55300
C  7.61600 47.82900 21.70000
C  7.44800 48.02100 23.21400
C  9.70300 48.36500 20.20200
C  6.85200 46.56600 21.15600
C  5.45800 46.77000 20.40900
N  6.84500 48.53400 26.09400
C  5.87700 48.26000 25.14800
C  4.52700 48.19200 25.91200
C  4.81700 48.44600 27.27600
C  6.22200 48.60200 27.30600
C  3.13700 47.97100 25.26400
C  4.30900 48.47300 28.57700
O  3.20300 48.29700 29.08900
C  5.48400 48.91700 29.46900
C  5.37600 47.91900 30.55900
O  5.77400 46.74900 30.47500
O  4.72400 48.40100 31.67800
C  4.57300 47.48600 32.78800
H  12.26500 50.60500 28.37900
H  11.48500 47.99400 22.43400
H  5.34200 47.50700 23.23600
H  7.87500 50.36100 30.76400
H  10.86600 50.20000 30.53900
H  10.29500 52.30700 31.13000
H  9.03600 52.45800 29.85400
H  10.69800 52.52500 29.43700
H  9.83600 48.38700 31.54400
H  8.19600 47.79600 31.04900
H  7.15800 49.14500 32.72100
H  8.72600 49.98600 33.08700
H  14.26500 49.88900 27.92500
H  14.99700 50.57200 26.43400
H  14.98200 48.81300 26.66000
H  15.88500 48.11800 24.74100
H  15.58600 49.88600 24.21600
H  16.23700 48.71200 23.18600
H  9.55600 46.80000 21.51000
H  7.19100 48.75900 21.32200
H  10.09000 47.54600 19.59600
H  10.59900 48.95400 20.39700
H  8.96600 48.87600 19.58200
H  6.57100 45.85400 21.93200
H  7.54100 46.01100 20.51900
H  4.75700 46.04200 20.81900
H  5.69700 46.58700 19.36200
H  5.13600 47.79500 20.59200
H  2.75600 48.88200 24.80300
H  2.45500 47.40900 25.90100
H  3.55400 47.23000 24.58100
H  5.30800 49.95900 29.73900
H  4.02000 48.08200 33.51400
H  5.55300 47.19000 33.16100
H  3.95600 46.62100 32.54200

