158

Mg 9.29700 3.70000 27.37300
C  10.54200 2.11800 30.22000
C  7.32500 5.62000 29.33600
C  7.60800 4.66300 24.52600
C  10.88900 1.09600 25.50200
N  8.96700 3.83000 29.51900
C  9.64100 3.14800 30.51200
C  9.39700 3.77400 31.88700
C  8.25800 4.86500 31.56400
C  8.09800 4.75600 30.02800
C  6.89600 4.85500 32.34900
C  10.68700 4.50600 32.47600
C  11.47800 3.90400 33.59100
H  11.34200 4.60700 34.93300
N  7.81700 5.04700 26.96000
C  7.15700 5.79500 27.92800
C  6.32000 6.72300 27.21400
C  6.26900 6.33800 25.89700
C  7.24700 5.26600 25.73200
C  5.58800 7.86300 27.91500
C  5.34900 6.91300 24.82600
O  5.39400 6.49700 23.66800
C  4.42200 8.03800 25.02400
N  9.11700 2.89300 25.31200
C  8.46800 3.55600 24.30500
C  8.74600 2.96900 22.91900
C  9.85800 1.92600 23.29400
C  10.01200 2.02000 24.82700
C  7.49900 2.31000 22.14400
C  11.18900 2.16100 22.46600
C  11.64000 0.85800 21.73300
N  10.51500 1.95400 27.75500
C  11.09400 1.03900 26.87900
C  11.89400 0.11300 27.59100
C  11.73200 0.54900 28.95100
C  10.85700 1.59600 28.96900
C  12.70800 -0.97000 26.97400
C  12.13500 0.28400 30.27600
O  12.93500 -0.56200 30.67400
C  11.33100 1.28200 31.20900
C  10.58100 0.38900 32.16000
O  9.69200 -0.39500 31.87800
O  11.28200 0.51700 33.37700
C  10.46900 0.17700 34.61500
H  6.67700 6.31100 29.87900
H  7.12100 5.01700 23.61500
H  11.25500 0.43900 24.71000
H  9.05800 2.97400 32.54600
H  8.60300 5.88700 31.71800
H  6.12700 4.48200 31.67300
H  6.51100 5.84400 32.59500
H  6.92900 4.23800 33.24600
H  10.46300 5.55000 32.69300
H  11.39400 4.52600 31.64600
H  12.53300 4.02500 33.34400
H  11.26100 2.86500 33.84000
H  4.52300 7.63200 27.88200
H  5.67000 8.79900 27.36200
H  5.85800 8.03600 28.95700
H  3.86800 8.10100 24.08800
H  5.00100 8.91000 25.32700
H  3.65200 7.72100 25.72900
H  9.13900 3.75300 22.27100
H  9.50700 0.94100 22.98700
H  6.53400 2.32700 22.65100
H  7.65400 1.24700 21.96100
H  7.49300 2.98100 21.28500
H  12.02000 2.27600 23.16200
H  11.21000 3.02400 21.80100
H  12.44700 1.19200 21.08200
H  10.92000 0.49700 20.99800
H  12.04300 0.08700 22.38900
H  12.64000 -0.92600 25.88700
H  12.12700 -1.87900 27.12800
H  13.75500 -1.01900 27.27000
H  12.07300 1.88500 31.73100
H  11.10000 -0.48100 35.21300
H  9.45800 -0.22100 34.52500
H  10.49100 1.03900 35.28200
Mg 26.45100 50.38400 26.48500
C  24.03800 51.60300 28.74800
C  28.58100 49.75100 29.05900
C  28.61400 49.46500 24.22300
C  24.27200 51.53600 23.89300
N  26.28700 50.70100 28.65800
C  25.19600 51.04100 29.38800
C  25.41900 50.72100 30.87900
C  26.99200 50.53800 30.91600
C  27.31800 50.26100 29.46800
C  27.73300 51.67200 31.58900
C  24.73200 49.37600 31.44000
C  23.91300 49.69300 32.75000
H  24.59800 50.37600 33.96000
N  28.37400 49.58800 26.60600
C  29.10100 49.39800 27.76400
C  30.43000 48.89300 27.43300
C  30.47100 48.92800 26.01800
C  29.07400 49.28300 25.51900
C  31.52900 48.67100 28.43300
C  31.57700 48.50100 25.09800
O  31.63100 48.67200 23.93900
C  32.83400 47.84500 25.73500
N  26.48000 50.68000 24.31900
C  27.43900 49.99200 23.64800
C  27.11500 49.93400 22.16900
C  25.63200 50.46000 22.09700
C  25.39100 50.87900 23.51900
C  28.16200 50.54700 21.09400
C  24.61900 49.51900 21.41000
C  23.96000 48.34900 22.21200
N  24.63900 51.51700 26.27800
C  23.90000 51.85300 25.23900
C  22.71200 52.52500 25.65500
C  22.61600 52.39700 27.01800
C  23.91500 51.82300 27.34700
C  21.75600 53.29500 24.73200
C  21.91500 52.59200 28.28300
O  20.76900 52.99200 28.55800
C  22.79100 52.09500 29.37300
C  22.88800 53.11800 30.39000
O  23.50500 54.18600 30.30500
O  22.11200 52.71800 31.47900
C  22.29900 53.53400 32.62700
H  29.24000 49.52100 29.89900
H  29.32600 49.23100 23.42900
H  23.56300 51.69900 23.07800
H  25.10400 51.56800 31.48800
H  27.12400 49.65600 31.54300
H  27.21200 52.33300 32.28200
H  28.31700 52.33500 30.95200
H  28.43400 51.18500 32.26700
H  25.36900 48.54000 31.72700
H  24.05200 49.10000 30.63400
H  23.45100 48.77100 33.10500
H  23.03700 50.25400 32.42300
H  31.91200 47.68400 28.17500
H  31.26700 48.56200 29.48500
H  32.38600 49.33700 28.32900
H  33.43800 47.30900 25.00300
H  32.52600 47.04100 26.40200
H  33.52500 48.58800 26.13300
H  27.02000 48.86800 21.96200
H  25.71000 51.41900 21.58600
H  28.96000 51.21400 21.42100
H  27.63700 51.26600 20.46500
H  28.57000 49.73400 20.49300
H  25.14900 48.99000 20.61700
H  23.78100 50.14700 21.11000
H  24.30500 48.22800 23.23900
H  24.19000 47.40200 21.72600
H  22.87700 48.46100 22.16600
H  22.11100 54.26600 24.38900
H  20.85000 53.52400 25.29300
H  21.64100 52.74400 23.79900
H  22.52200 51.15800 29.86000
H  22.45800 54.58000 32.36700
H  23.12000 53.07500 33.17800
H  21.44100 53.38600 33.28200

