158

Mg 9.39000 3.69800 26.68300
C  10.41200 1.81100 29.57100
C  7.76000 5.69900 28.78900
C  8.12300 5.02300 24.09700
C  10.87000 1.05500 24.82900
N  9.20800 3.71200 28.98500
C  9.72000 2.97500 29.96600
C  9.41300 3.48000 31.35400
C  8.37400 4.63700 30.99000
C  8.45100 4.69000 29.51000
C  6.93100 4.40900 31.55900
C  10.64000 3.96900 32.28400
C  10.71000 3.23300 33.65500
H  11.40100 4.01800 34.78700
N  7.98000 5.14500 26.51100
C  7.46200 5.94900 27.47200
C  6.80500 7.01700 26.78400
C  6.99300 6.90400 25.45800
C  7.67400 5.62700 25.32400
C  6.11800 8.11200 27.53000
C  6.59700 7.84600 24.24800
O  6.80100 7.50000 23.06400
C  5.94900 9.13600 24.57800
N  9.40900 3.05000 24.83700
C  8.85600 3.82000 23.89200
C  9.16800 3.35800 22.44200
C  10.08300 2.13600 22.70600
C  10.12500 2.04400 24.19500
C  7.81300 3.02100 21.69200
C  11.48900 2.36300 22.02700
C  11.90900 1.48700 20.84800
N  10.42100 1.82000 27.07700
C  10.93200 0.82600 26.21100
C  11.47000 -0.28100 26.87400
C  11.39400 0.14900 28.21000
C  10.68700 1.34900 28.29700
C  12.02700 -1.51100 26.35600
C  11.74900 -0.23800 29.55300
O  12.40800 -1.08300 30.00500
C  11.06800 0.84400 30.49700
C  10.22000 0.09100 31.43200
O  9.09400 -0.30000 31.23900
O  10.94200 -0.08300 32.58800
C  10.38800 -0.98300 33.56600
H  7.16300 6.37800 29.40200
H  7.84800 5.51400 23.16100
H  11.32100 0.37300 24.10500
H  8.93400 2.66300 31.89400
H  8.74900 5.59800 31.34300
H  6.22900 4.12500 30.77500
H  6.62000 5.34600 32.01900
H  6.99000 3.66400 32.35300
H  10.61400 5.03600 32.50400
H  11.61400 3.88400 31.80200
H  11.44700 2.47900 33.37800
H  9.77700 2.74400 33.93300
H  5.20800 8.41300 27.01200
H  6.78200 8.97600 27.54600
H  5.97100 7.89000 28.58700
H  6.54700 9.71800 25.27900
H  4.92300 8.94900 24.89600
H  6.00200 9.80700 23.72000
H  9.65800 4.12700 21.84500
H  9.61600 1.25700 22.26100
H  6.94900 2.89000 22.34400
H  7.90400 2.10700 21.10700
H  7.59800 3.89500 21.07700
H  12.20100 2.13600 22.82000
H  11.58000 3.40400 21.71800
H  12.52100 1.99900 20.10500
H  10.98300 1.27800 20.31200
H  12.56800 0.69000 21.19500
H  12.10200 -1.56400 25.27000
H  11.53400 -2.39400 26.76200
H  13.04400 -1.45700 26.74300
H  11.94500 1.28000 30.97500
H  10.03300 -1.82700 32.97500
H  9.54700 -0.41700 33.96700
H  11.23800 -1.21900 34.20500
Mg 40.62300 8.05600 29.49800
C  42.64500 9.21200 32.31600
C  38.43400 7.05800 31.63400
C  39.17000 6.74800 26.78500
C  43.38500 8.99200 27.46000
N  40.67100 7.99600 31.79100
C  41.43000 8.68400 32.68500
C  40.70000 8.67600 34.07700
C  39.39900 7.95500 33.74900
C  39.44000 7.69900 32.29900
C  39.21500 6.75000 34.68800
C  40.49000 10.12300 34.71400
C  41.32700 10.34500 35.99900
H  41.16600 9.54900 37.22700
N  39.09800 7.03800 29.24200
C  38.20300 6.74700 30.27900
C  36.98500 6.09200 29.77000
C  37.23900 5.93700 28.40600
C  38.52900 6.61500 28.06800
C  35.90200 5.58600 30.73600
C  36.36000 5.41100 27.33700
O  36.56400 5.46400 26.14900
C  34.99700 4.89500 27.74700
N  41.19200 7.96000 27.39300
C  40.38000 7.43700 26.45000
C  40.90700 7.69900 25.05100
C  42.19100 8.53000 25.31000
C  42.31500 8.49700 26.79600
C  41.17000 6.30800 24.37200
C  42.18400 9.97000 24.64300
C  41.42100 11.01300 25.51500
N  42.66200 8.87900 29.78200
C  43.54900 9.31400 28.80700
C  44.63000 10.05300 29.36200
C  44.35000 10.01100 30.78000
C  43.14400 9.24100 30.99500
C  45.64800 10.84600 28.65900
C  44.81800 10.45500 32.05900
O  45.74900 11.11700 32.39200
C  43.74300 10.05600 33.09600
C  44.51200 9.23300 34.17100
O  44.79700 8.05800 34.11400
O  44.84600 10.03900 35.20200
C  45.37600 9.38200 36.39800
H  37.64700 6.80000 32.34600
H  38.71500 6.23500 25.93400
H  44.07900 9.44500 26.74900
H  41.33200 8.10300 34.75500
H  38.49600 8.54800 33.89700
H  39.50500 5.80900 34.22000
H  38.14200 6.65600 34.85600
H  39.82100 6.81500 35.59200
H  39.46100 10.22800 35.05600
H  40.80500 10.90000 34.01600
H  41.22600 11.38700 36.30200
H  42.39400 10.22800 35.80600
H  35.85700 4.49800 30.68100
H  35.07000 6.14000 30.30100
H  36.12300 5.94900 31.73900
H  35.25200 4.20500 28.55100
H  34.51700 4.35300 26.93200
H  34.45700 5.73400 28.18500
H  40.20500 8.33400 24.51000
H  43.04100 8.10500 24.77500
H  40.40600 5.54900 24.53900
H  42.11600 5.90600 24.73400
H  41.29700 6.44300 23.29700
H  41.76500 9.98400 23.63700
H  43.16700 10.37900 24.40900
H  41.12700 10.56000 26.46200
H  40.46300 11.32200 25.09600
H  42.08900 11.83800 25.76200
H  45.73000 11.83100 29.11800
H  45.54400 11.04100 27.59200
H  46.58500 10.32300 28.85200
H  43.32900 10.95000 33.56300
H  46.06100 8.54600 36.25500
H  44.59700 9.10900 37.11000
H  45.91100 10.07000 37.05300

