158

Mg 44.91600 3.80900 46.69500
C  42.63800 6.31200 46.01400
C  42.27900 1.55400 46.85300
C  47.21900 1.49200 47.11500
C  47.49500 6.24000 46.10300
N  42.72300 3.94700 46.36300
C  42.01000 5.03800 46.00900
C  40.51700 4.68400 45.72800
C  40.41800 3.19100 46.30400
C  41.88700 2.87500 46.49100
C  39.67500 3.01800 47.65100
C  40.20900 4.65000 44.17700
C  39.26000 5.70300 43.63000
H  39.50100 6.55900 42.27600
N  44.82200 1.78600 46.90500
C  43.63700 1.06900 46.96800
C  44.03500 -0.31800 47.00200
C  45.46200 -0.42600 47.17000
C  45.93300 0.95200 47.03300
C  43.04000 -1.48300 46.98600
C  46.35300 -1.72400 47.24100
O  45.83100 -2.80000 47.09100
C  47.83000 -1.71400 47.58300
N  47.05900 3.82000 46.52300
C  47.81700 2.76100 46.91600
C  49.29400 3.13500 47.12000
C  49.37400 4.49000 46.35400
C  47.88300 4.92100 46.27600
C  49.77900 3.09500 48.63800
C  50.06100 4.44400 45.01000
C  51.59800 4.67900 44.96900
N  45.10300 5.87600 46.26400
C  46.18300 6.71300 46.06200
C  45.70700 8.08900 45.96400
C  44.30000 8.01600 45.91600
C  44.00200 6.58200 46.09600
C  46.54900 9.29700 45.84200
C  43.07900 8.70000 45.82600
O  42.89900 9.87400 45.64200
C  41.95400 7.71600 45.93700
C  41.12000 8.12400 47.09300
O  41.63200 8.39100 48.20200
O  39.80100 8.31600 46.69300
C  38.90500 8.61300 47.78700
H  41.47400 0.81700 46.80600
H  47.88400 0.72200 47.51100
H  48.35000 6.91800 46.15500
H  39.97700 5.42100 46.32300
H  39.87500 2.46400 45.70100
H  38.80400 2.36400 47.64000
H  39.43600 4.00900 48.03900
H  40.37200 2.54800 48.34600
H  39.61100 3.74900 44.03600
H  41.12000 4.52300 43.59200
H  39.06800 6.43300 44.41600
H  38.36100 5.14200 43.37800
H  42.88900 -1.85800 47.99800
H  43.35600 -2.32000 46.36200
H  42.10300 -1.11400 46.56900
H  48.11900 -1.00900 48.36300
H  48.33100 -1.50500 46.63800
H  48.12000 -2.73800 47.81800
H  49.87300 2.35700 46.62200
H  49.93900 5.25200 46.89100
H  50.33700 2.18600 48.86200
H  48.95300 3.19100 49.34200
H  50.46300 3.90100 48.90600
H  49.57300 5.09200 44.28100
H  49.79100 3.43400 44.70100
H  51.87500 5.01600 43.97000
H  52.05900 3.74400 45.28600
H  51.86400 5.45700 45.68500
H  47.50400 9.04600 46.30300
H  45.95400 10.15400 46.15700
H  46.72100 9.56900 44.80000
H  41.29000 7.81000 45.07800
H  38.98900 7.69000 48.36000
H  37.87400 8.77800 47.47500
H  39.11300 9.54300 48.31600
Mg 46.85200 44.64300 44.01700
C  43.39400 44.22000 43.52600
C  47.22500 41.20300 43.15900
C  50.13900 45.00900 43.53000
C  46.32900 48.10600 43.99400
N  45.50000 42.98500 43.33000
C  44.11000 43.06800 43.27900
C  43.51500 41.71300 43.02300
C  44.69400 40.74300 42.97400
C  45.89200 41.67600 43.19800
C  44.61000 39.54200 43.93400
C  42.54300 41.53800 41.80300
C  43.13200 42.23300 40.57300
H  42.90300 41.54700 39.21000
N  48.51100 43.29300 43.70700
C  48.44800 41.91200 43.42300
C  49.80900 41.38200 43.22800
C  50.70900 42.51700 43.43500
C  49.79400 43.67000 43.67100
C  50.17300 40.02700 42.88700
C  52.20200 42.44300 43.47100
O  52.83000 41.38900 43.33000
C  53.09600 43.58400 43.85100
N  48.04000 46.37900 43.69200
C  49.39200 46.23300 43.49600
C  50.09200 47.57700 43.17000
C  48.83000 48.53400 43.39800
C  47.65500 47.63700 43.66800
C  51.35400 47.68100 44.17800
C  48.55000 49.64300 42.30900
C  48.12100 51.13000 42.71200
N  45.18900 45.92200 43.86100
C  45.12000 47.26800 44.02300
C  43.79500 47.71600 44.22200
C  42.97700 46.50500 43.99800
C  43.95800 45.48500 43.69600
C  43.39500 49.14000 44.49300
C  41.65100 45.88900 43.91200
O  40.54700 46.38700 43.94400
C  41.89000 44.43100 43.59400
C  41.24800 43.59800 44.65600
O  40.31100 42.78100 44.50800
O  41.80700 43.91300 45.89500
C  41.17100 43.22200 47.06000
H  47.27600 40.18100 42.77800
H  51.14600 45.19600 43.15300
H  46.24000 49.18200 44.15800
H  42.91000 41.45600 43.89200
H  44.90200 40.29400 42.00200
H  44.53300 38.70700 43.23700
H  43.68500 39.54500 44.51000
H  45.46600 39.46000 44.60400
H  41.60100 41.97100 42.13800
H  42.52000 40.46200 41.62800
H  44.21100 42.33400 40.68900
H  42.64900 43.18600 40.79100
H  50.18700 39.33400 43.72800
H  51.18800 39.87800 42.51900
H  49.40900 39.66400 42.19900
H  52.72400 44.21000 44.66300
H  53.08900 44.33700 43.06300
H  54.07900 43.25400 44.18600
H  50.48300 47.57500 42.15300
H  49.18500 49.11800 44.24700
H  52.30500 47.73200 43.64700
H  51.38100 46.86700 44.90100
H  51.33800 48.50300 44.89400
H  47.62300 49.35400 41.81600
H  49.33200 49.55000 41.55500
H  48.50900 51.74300 41.89900
H  48.65500 51.45000 43.60700
H  47.05400 51.22700 42.91300
H  42.31300 49.04100 44.57400
H  43.57500 49.82700 43.66600
H  43.91800 49.37200 45.42100
H  41.33500 44.32600 42.66200
H  40.09900 43.36100 47.20200
H  41.69100 43.41500 47.99900
H  41.19900 42.15800 46.82300

