158

Mg 25.32900 0.81500 29.90300
C  27.26600 0.62000 32.67200
C  22.56500 1.61000 32.12800
C  23.09600 0.70600 27.21200
C  27.80300 -0.32700 27.90400
N  25.00800 1.01700 32.16500
C  25.97200 0.90200 33.10500
C  25.51500 1.28800 34.47600
C  23.95700 1.56800 34.31500
C  23.81200 1.46000 32.74600
C  23.16700 0.53200 35.00900
C  26.19700 2.57200 34.97000
C  27.30300 2.54500 36.08700
H  27.11100 3.55300 37.24700
N  23.17000 1.21800 29.73500
C  22.27200 1.44200 30.74900
C  20.95500 1.47900 30.16800
C  21.07700 1.30600 28.76900
C  22.48300 1.06500 28.50900
C  19.71000 1.53700 31.06400
C  19.99200 1.21700 27.70600
O  20.22000 0.99300 26.54000
C  18.53000 1.46100 28.08800
N  25.34400 0.04000 27.93200
C  24.37300 0.21800 26.96600
C  24.89500 -0.11800 25.52400
C  26.40900 -0.46000 25.79900
C  26.58200 -0.28000 27.31800
C  24.17600 -1.26800 24.76300
C  27.41500 0.30000 24.89700
C  27.44400 1.90600 25.07800
N  27.12900 0.18100 30.18600
C  28.08300 -0.17000 29.29600
C  29.32600 -0.30100 29.91200
C  29.06700 0.03400 31.23500
C  27.69300 0.25400 31.34800
C  30.62700 -0.69100 29.23000
C  29.65400 0.21500 32.56100
O  30.80200 0.26700 32.92400
C  28.49300 0.50300 33.54300
C  28.44100 -0.62700 34.47700
O  27.86900 -1.67800 34.23900
O  29.18000 -0.29000 35.66300
C  29.11800 -1.13800 36.86700
H  21.74500 1.86500 32.80200
H  22.44000 0.67100 26.33900
H  28.70600 -0.45000 27.30200
H  25.65800 0.45900 35.16900
H  23.50200 2.52700 34.56300
H  23.52200 0.37500 36.02700
H  22.99800 -0.47800 34.63400
H  22.18800 0.99200 35.14400
H  25.50500 3.36200 35.26100
H  26.74100 3.03000 34.14400
H  28.23800 2.68900 35.54400
H  27.23800 1.60500 36.63500
H  19.10300 2.36700 30.70300
H  19.73300 1.59900 32.15200
H  19.08600 0.68200 30.80500
H  18.09900 0.77900 28.82100
H  17.90300 1.38300 27.20000
H  18.44100 2.45600 28.52400
H  24.77200 0.77200 24.90700
H  26.70100 -1.50300 25.67800
H  23.29100 -1.60300 25.30500
H  24.80400 -2.07400 24.38400
H  23.74500 -0.67100 23.95900
H  27.08200 0.25100 23.86000
H  28.41800 -0.12500 24.93100
H  27.13200 2.34600 24.13100
H  28.40800 2.37200 25.28200
H  26.67200 2.27800 25.75200
H  30.65900 -0.15200 28.28300
H  30.58300 -1.73200 28.90900
H  31.46500 -0.48400 29.89700
H  28.68800 1.48900 33.96300
H  28.38100 -0.70700 37.54500
H  30.02200 -1.12300 37.47600
H  28.94100 -2.14000 36.47500
Mg -12.24400 16.04700 41.32900
C  -9.17800 14.29600 40.96400
C  -10.96600 18.62600 39.39200
C  -15.39900 17.24300 41.10700
C  -13.53300 12.96900 42.57800
N  -10.35900 16.39500 40.35200
C  -9.23400 15.55400 40.32800
C  -8.01200 16.31200 39.70800
C  -8.60100 17.69500 39.33600
C  -10.07700 17.56100 39.66000
C  -7.94100 18.90800 40.06800
C  -7.63300 15.53900 38.41300
C  -6.13800 15.15700 38.35600
H  -5.38100 15.73400 37.19400
N  -13.11000 17.76000 40.37400
C  -12.36600 18.68500 39.68000
C  -13.24600 19.73100 39.29900
C  -14.56300 19.42300 39.83300
C  -14.42400 18.09800 40.47500
C  -12.86900 20.99800 38.48000
C  -15.84100 20.36200 39.66700
O  -15.79600 21.46900 39.17200
C  -17.25100 20.00100 40.18500
N  -14.19900 15.15500 41.65700
C  -15.24600 15.90400 41.62200
C  -16.51200 15.08500 42.02500
C  -15.90800 13.88400 42.81700
C  -14.46600 13.96200 42.31500
C  -17.66100 15.88900 42.66700
C  -16.69300 12.57300 42.68000
C  -17.22900 11.99300 44.05300
N  -11.48100 14.05300 41.80000
C  -12.15500 12.88200 42.36000
C  -11.21500 11.89700 42.64400
C  -9.98600 12.45400 42.18700
C  -10.27900 13.70400 41.58500
C  -11.33600 10.61000 43.42600
C  -8.53200 12.19200 42.09200
O  -7.83600 11.24900 42.57100
C  -7.95500 13.38700 41.22200
C  -6.93200 14.14100 42.00400
O  -7.00000 14.45400 43.15600
O  -5.80300 14.20900 41.28000
C  -4.58700 14.66200 41.93800
H  -10.49500 19.53600 39.01600
H  -16.39100 17.69800 41.06400
H  -13.97500 12.15600 43.15700
H  -7.14100 16.43800 40.35100
H  -8.71700 17.88200 38.26900
H  -7.04700 18.54700 40.57700
H  -8.62300 19.27400 40.83600
H  -7.73100 19.63700 39.28500
H  -7.86600 16.13400 37.53000
H  -8.25500 14.67400 38.18200
H  -6.16100 14.06700 38.37100
H  -5.62200 15.42500 39.27800
H  -13.19100 21.88000 39.03400
H  -13.34300 21.02200 37.49900
H  -11.80400 21.12800 38.28900
H  -17.24000 19.81200 41.25800
H  -17.71200 19.28100 39.50900
H  -17.92800 20.85200 40.11500
H  -16.84500 14.62500 41.09400
H  -15.88200 14.26900 43.83600
H  -17.91100 15.36800 43.59200
H  -18.57200 15.89700 42.06900
H  -17.40500 16.92800 42.87000
H  -16.11200 11.78900 42.19400
H  -17.51700 12.82000 42.01100
H  -18.28300 12.21700 43.89000
H  -16.77300 12.43700 44.93900
H  -17.04500 10.91900 44.06200
H  -10.31500 10.31200 43.65900
H  -11.66900 9.76700 42.82000
H  -11.98500 10.71600 44.29500
H  -7.43100 13.03100 40.33500
H  -3.77700 14.01400 41.60400
H  -4.64800 14.58500 43.02300
H  -4.43900 15.70100 41.64300

