158

Mg 40.24600 10.33500 29.47800
C  42.22700 11.31300 32.03000
C  37.97800 9.10600 31.93200
C  38.20800 9.40300 26.98600
C  42.62300 11.26500 27.08400
N  40.21500 10.04300 31.77200
C  41.00200 10.86800 32.53800
C  40.58500 10.89300 34.01800
C  39.28600 10.00400 33.91700
C  39.14500 9.71600 32.43400
C  39.36200 8.74400 34.84700
C  40.34900 12.31900 34.56400
C  39.87000 12.29800 36.05600
H  40.52600 13.20900 37.04300
N  38.38000 9.40600 29.45600
C  37.65200 8.87700 30.53100
C  36.46500 8.30900 30.12300
C  36.44400 8.40000 28.69100
C  37.69000 9.06700 28.28600
C  35.42200 7.73800 31.08100
C  35.32100 7.91800 27.75400
O  35.40900 8.16200 26.57600
C  34.13300 7.13600 28.31400
N  40.53100 10.11700 27.27100
C  39.42500 9.79500 26.53900
C  39.71300 10.16000 24.99100
C  41.04300 10.91800 25.03900
C  41.39900 10.83400 26.55600
C  39.83600 8.92300 24.06300
C  40.99700 12.39400 24.51900
C  39.78100 13.30400 24.90300
N  42.08400 10.94200 29.47900
C  42.94600 11.26900 28.47400
C  44.20700 11.73200 29.06300
C  43.93500 11.86000 30.41200
C  42.66000 11.32600 30.69600
C  45.48500 12.14400 28.45000
C  44.47200 12.31500 31.74500
O  45.55100 12.84900 31.96300
C  43.39700 11.87400 32.79200
C  44.01800 10.97900 33.84500
O  43.99700 9.73600 33.91000
O  44.37600 11.76300 34.95200
C  44.83600 11.02800 36.12100
H  37.24400 8.76300 32.66400
H  37.50200 9.30300 26.15900
H  43.35000 11.71300 26.40300
H  41.37400 10.48800 34.65200
H  38.48100 10.70300 34.14400
H  40.40900 8.62000 35.12400
H  38.88900 7.90900 34.33000
H  38.79900 8.98600 35.74900
H  39.59000 12.74000 33.90500
H  41.24900 12.93300 34.51800
H  39.88100 11.25500 36.37300
H  38.80600 12.53500 36.05100
H  34.87100 6.88100 30.69400
H  34.75500 8.54400 31.38700
H  35.84100 7.30000 31.98700
H  33.65000 7.61800 29.16300
H  34.40000 6.10800 28.56000
H  33.34500 7.19100 27.56300
H  39.06600 10.93600 24.58200
H  41.83000 10.40800 24.48400
H  38.80900 8.84500 23.70700
H  40.16100 8.00800 24.55800
H  40.55000 9.08700 23.25700
H  41.03800 12.44700 23.43100
H  41.91700 12.88400 24.83800
H  38.89800 12.84000 25.34200
H  39.52700 13.73600 23.93500
H  40.02300 14.09200 25.61500
H  45.88500 13.00700 28.98200
H  45.43700 12.39500 27.39100
H  46.22400 11.34300 28.48000
H  43.21100 12.81200 33.31400
H  45.71000 10.40000 35.94800
H  44.08500 10.28700 36.39700
H  44.92200 11.67100 36.99700
Mg 36.15900 49.22900 24.67500
C  36.29300 47.41700 27.79100
C  35.13100 51.94200 26.50900
C  35.40800 50.68500 21.76500
C  36.83900 46.19500 23.08700
N  35.68700 49.60800 26.99700
C  35.89000 48.77200 28.06400
C  35.57200 49.41900 29.34300
C  34.95400 50.83600 28.89500
C  35.21000 50.79000 27.37300
C  33.36800 51.06800 29.22300
C  36.83900 49.57100 30.27300
C  36.64800 49.29700 31.73400
H  35.23600 49.25700 32.23700
N  35.46000 51.04600 24.18600
C  35.27000 52.11100 25.07500
C  35.09400 53.27300 24.33600
C  35.06900 52.94800 22.92300
C  35.33900 51.50700 22.91200
C  34.94100 54.63200 25.06600
C  34.84000 53.82900 21.72000
O  34.96400 53.39300 20.60400
C  34.47900 55.31100 21.70900
N  35.99100 48.54000 22.61500
C  35.79800 49.36700 21.57700
C  36.06600 48.64300 20.27400
C  36.66100 47.27900 20.77200
C  36.40700 47.29900 22.24600
C  34.77000 48.62200 19.44100
C  38.18000 47.03200 20.36300
C  39.29800 47.72400 21.17500
N  36.47500 47.25100 25.24600
C  36.84900 46.13900 24.49600
C  37.41300 45.10100 25.31700
C  37.13900 45.53400 26.64600
C  36.54400 46.81800 26.52700
C  37.97000 43.68900 24.88100
C  37.21100 45.09800 28.04100
O  37.55300 44.02600 28.51700
C  36.73600 46.36700 28.85200
C  35.60700 45.79300 29.59200
O  34.50800 45.60000 29.11600
O  35.97800 45.57100 30.91200
C  34.93200 44.89000 31.71600
H  34.91600 52.83300 27.10400
H  35.18700 51.16700 20.81000
H  37.19700 45.35500 22.48800
H  34.84600 48.76200 29.82200
H  35.59100 51.66300 29.21000
H  32.93900 51.44000 28.29300
H  33.31900 51.78700 30.04200
H  32.93700 50.14300 29.60600
H  37.20300 50.58500 30.10800
H  37.67100 48.92200 29.99900
H  37.25200 49.99700 32.31200
H  37.12600 48.34300 31.95700
H  35.50900 54.55300 25.99300
H  33.91700 54.74600 25.42200
H  35.18500 55.56400 24.55600
H  33.79900 55.51100 22.53700
H  33.94500 55.51000 20.78000
H  35.47200 55.75000 21.80200
H  36.86200 49.20900 19.79000
H  36.10400 46.39800 20.45200
H  34.59700 47.69600 18.89400
H  34.75300 49.37000 18.64800
H  33.93100 48.89700 20.08100
H  38.41800 47.37500 19.35600
H  38.40900 45.97700 20.51300
H  39.95300 48.32100 20.54100
H  39.90700 46.98100 21.69000
H  38.76000 48.27900 21.94300
H  37.67700 42.93300 25.60900
H  39.05100 43.62700 24.75300
H  37.53400 43.53900 23.89300
H  37.48300 46.69200 29.57500
H  34.05500 45.49600 31.48800
H  35.15100 44.95000 32.78200
H  34.77900 43.84800 31.43700

