158

Mg 27.01700 51.32900 26.74800
C  24.92000 52.29300 29.62700
C  29.35300 50.39100 28.99900
C  28.93300 50.55700 24.15700
C  24.58500 52.73700 24.67200
N  27.10600 51.50600 29.14200
C  26.11200 51.67200 30.08400
C  26.56300 51.31200 31.51300
C  28.04200 50.68000 31.26100
C  28.21400 50.87500 29.72600
C  29.15000 51.28500 32.03600
C  25.65700 50.24100 32.09800
C  26.16500 49.39100 33.32700
H  25.33600 49.24600 34.61700
N  28.90300 50.67500 26.62000
C  29.74500 50.33500 27.66400
C  31.02600 49.74500 27.19500
C  30.96400 49.84000 25.70600
C  29.54700 50.33800 25.40400
C  32.18300 49.32900 28.06600
C  32.07900 49.59200 24.69600
O  31.89600 49.86100 23.51500
C  33.33200 48.88200 25.06000
N  26.75300 51.65700 24.68500
C  27.69500 51.18100 23.74800
C  27.22500 51.46100 22.30600
C  25.70200 51.87500 22.48700
C  25.66900 52.05700 24.07300
C  28.00400 52.42900 21.40900
C  24.68800 50.84600 22.02100
C  23.28300 51.48200 21.83500
N  25.11100 52.38400 27.05700
C  24.28800 52.89800 26.03400
C  23.14300 53.48400 26.73700
C  23.28500 53.21600 28.13000
C  24.54400 52.55000 28.26900
C  21.84100 53.96500 26.04900
C  22.71400 53.35100 29.48600
O  21.72500 54.00400 29.80900
C  23.73100 52.72100 30.49600
C  24.04300 53.66900 31.57200
O  25.03200 54.40000 31.55700
O  23.13300 53.62400 32.61700
C  23.37600 54.48500 33.75900
H  30.12100 49.96600 29.64900
H  29.54800 50.43300 23.26400
H  23.65500 52.98100 24.15500
H  26.63900 52.25100 32.06200
H  27.95300 49.60100 31.38300
H  29.70900 50.57000 32.63900
H  28.63500 51.92800 32.75100
H  29.75500 51.93300 31.40200
H  25.42900 49.46300 31.36900
H  24.75700 50.80000 32.35200
H  27.16200 49.71000 33.63000
H  26.32700 48.32900 33.14300
H  32.38100 48.28000 27.84400
H  32.06300 49.59400 29.11600
H  33.00300 49.91600 27.65300
H  33.82900 48.55800 24.14500
H  32.99900 48.02700 25.64900
H  33.88200 49.61600 25.64700
H  27.28900 50.49300 21.80800
H  25.49200 52.80200 21.95400
H  29.04900 52.39700 21.71500
H  27.52400 53.40800 21.41900
H  28.00700 51.95500 20.42700
H  24.53700 50.19000 22.87900
H  24.98200 50.38700 21.07700
H  22.97100 51.69200 20.81200
H  23.29900 52.51100 22.19500
H  22.55600 50.97100 22.46800
H  21.77100 53.54000 25.04800
H  21.82800 55.05300 25.99100
H  21.07900 53.62500 26.75000
H  23.29700 51.76200 30.77900
H  23.56400 55.51600 33.46100
H  24.22900 54.24100 34.39300
H  22.56900 54.50400 34.49100
Mg 7.31800 54.50200 41.99600
C  6.90100 51.01200 41.47600
C  10.54100 54.15400 40.78200
C  7.50700 57.69100 42.22600
C  3.82700 54.60500 42.98800
N  8.49400 52.81700 40.95800
C  8.13600 51.50500 41.01700
C  9.28300 50.61500 40.46800
C  10.53600 51.58700 40.54700
C  9.85600 52.96400 40.76700
C  11.50000 51.26000 41.71200
C  9.02500 50.11700 38.96400
C  8.32900 51.08600 38.02500
H  7.33100 50.49000 37.01700
N  8.85100 55.77200 41.61500
C  10.05900 55.47600 41.11200
C  10.83000 56.75100 41.06900
C  9.96600 57.75700 41.49000
C  8.70000 57.11800 41.78200
C  12.23300 56.85200 40.55000
C  10.34600 59.23900 41.75700
O  11.43400 59.72000 41.41700
C  9.46000 60.18900 42.48600
N  5.81600 55.90300 42.44700
C  6.20500 57.20600 42.44200
C  4.97300 58.12100 42.69400
C  3.81600 57.16200 43.15500
C  4.44700 55.82200 42.81900
C  5.25400 59.28900 43.67100
C  2.45200 57.29300 42.35700
C  1.20500 57.05000 43.18600
N  5.64000 53.14800 42.12600
C  4.38100 53.26000 42.72000
C  3.74900 51.94900 42.78400
C  4.74700 51.02600 42.40200
C  5.84200 51.83500 41.94100
C  2.35900 51.61100 43.26800
C  5.12700 49.59900 42.22300
O  4.51800 48.59000 42.40100
C  6.46400 49.57500 41.52700
C  6.00000 49.02100 40.17800
O  5.26200 49.56000 39.35700
O  6.54200 47.78700 40.00200
C  6.02200 46.97500 38.91100
H  11.62900 54.12600 40.68700
H  7.55900 58.77400 42.35100
H  2.82800 54.40900 43.38300
H  9.45600 49.73300 41.08500
H  11.05500 51.65800 39.59100
H  11.19100 50.50700 42.43600
H  11.67900 52.14900 42.31800
H  12.49900 50.91100 41.45200
H  8.58300 49.12400 39.04500
H  10.02100 49.93900 38.55900
H  9.08100 51.51500 37.36300
H  7.64300 51.70700 38.60000
H  12.53900 57.87900 40.34800
H  12.26400 56.40300 39.55700
H  12.76800 56.36300 41.36400
H  8.68700 60.66600 41.88300
H  10.08200 60.97400 42.91700
H  8.94800 59.73900 43.33500
H  4.77000 58.68200 41.78200
H  3.71400 57.24900 44.23700
H  4.55100 59.17500 44.49600
H  4.99400 60.19800 43.12800
H  6.30700 59.24800 43.94800
H  2.51800 56.67900 41.45900
H  2.31700 58.35900 42.17100
H  0.35500 57.52000 42.69100
H  1.26100 57.47900 44.18600
H  0.99600 55.98000 43.17100
H  2.48100 50.58700 43.62000
H  1.70800 51.56700 42.39500
H  1.89800 52.20900 44.05400
H  7.19900 48.88800 41.94600
H  6.62500 46.07600 38.78800
H  6.03000 47.48200 37.94700
H  4.98700 46.65500 39.03000

