158

Mg 9.09800 48.29200 27.40800
C  6.84800 48.21000 30.12600
C  11.74000 49.08100 29.44600
C  11.00200 48.42900 24.71400
C  6.17400 47.91600 25.35600
N  9.24200 48.60000 29.55800
C  8.23100 48.40400 30.48000
C  8.79800 48.41800 31.90200
C  10.25600 48.96000 31.62700
C  10.44000 48.92300 30.11000
C  10.30200 50.32000 32.33900
C  8.78700 47.05900 32.75800
C  9.81300 46.82000 33.89200
H  9.19900 46.36900 35.28000
N  11.03400 48.67700 27.14200
C  11.97400 48.97000 28.07000
C  13.30400 48.97400 27.52400
C  13.13600 49.00000 26.13600
C  11.66900 48.62700 25.90900
C  14.57800 49.14700 28.48400
C  14.12700 49.27000 25.00100
O  13.82500 49.13700 23.83500
C  15.60200 49.59700 25.35200
N  8.52600 48.24300 25.30900
C  9.60600 48.35900 24.43600
C  9.13800 48.23000 22.94700
C  7.58300 48.17200 23.13700
C  7.42200 48.06200 24.67200
C  9.65500 49.20700 21.84500
C  6.81700 47.01000 22.36600
C  6.76200 47.12700 20.85800
N  6.86800 48.14100 27.66100
C  5.87700 48.01100 26.71600
C  4.55900 47.90900 27.38400
C  4.89500 48.00600 28.76200
C  6.29400 48.11100 28.82400
C  3.13800 47.77100 26.71800
C  4.33900 47.95100 30.08300
O  3.18300 47.87200 30.41700
C  5.63700 47.98300 31.04900
C  5.62800 46.64600 31.64800
O  5.92600 45.58500 31.09300
O  5.21100 46.73000 32.96100
C  5.20000 45.45700 33.70200
H  12.58100 49.14100 30.14000
H  11.59400 48.44700 23.79700
H  5.26000 47.86200 24.76100
H  8.11400 49.09200 32.41700
H  10.98000 48.26200 32.04700
H  11.29200 50.38800 32.79200
H  9.53600 50.37900 33.11200
H  10.13900 51.11500 31.61200
H  8.83700 46.24800 32.03100
H  7.77000 47.04200 33.15000
H  10.24200 47.77300 34.19900
H  10.42700 45.98700 33.55000
H  15.43200 48.62800 28.05000
H  14.46400 48.70400 29.47300
H  14.85000 50.20000 28.55400
H  16.08600 48.62900 25.22400
H  15.72300 50.17400 26.26900
H  16.00000 50.24900 24.57400
H  9.40200 47.21400 22.65400
H  7.15100 49.12900 22.84600
H  10.27000 48.72100 21.08800
H  10.31600 49.97000 22.25600
H  9.03200 49.79400 21.17000
H  5.84700 47.07200 22.86000
H  7.33300 46.07600 22.58500
H  7.18500 46.17600 20.53400
H  7.23200 47.91900 20.27500
H  5.72000 47.16100 20.53800
H  3.03500 46.83500 26.17000
H  3.03000 48.53500 25.94900
H  2.37800 47.76400 27.50000
H  5.61500 48.70100 31.86900
H  4.71200 45.61300 34.66400
H  6.24500 45.27700 33.95700
H  4.75300 44.59200 33.21200
Mg 0.37100 44.13200 25.69500
C  2.54200 43.52300 28.30700
C  -2.25900 43.01000 27.65000
C  -1.67900 44.57200 23.06300
C  3.14400 44.67000 23.58700
N  0.18300 43.51600 27.73800
C  1.18300 43.38100 28.68100
C  0.61700 43.27300 30.11800
C  -0.85400 42.83300 29.77900
C  -1.00900 43.21300 28.30800
C  -1.23900 41.30600 29.92000
C  0.72100 44.64900 30.76300
C  0.51700 44.64000 32.30600
H  0.56100 43.29600 33.10300
N  -1.63700 43.80000 25.40400
C  -2.56600 43.38800 26.33400
C  -3.89900 43.33400 25.71000
C  -3.80700 43.81100 24.38700
C  -2.33400 44.08500 24.22000
C  -5.20700 43.01600 26.45200
C  -4.90300 44.17800 23.34100
O  -4.69500 44.74100 22.27700
C  -6.38200 43.71400 23.62300
N  0.69700 44.42000 23.54500
C  -0.31100 44.76400 22.78000
C  0.18100 45.19900 21.40800
C  1.58900 45.57000 21.76500
C  1.86700 44.73600 23.07400
C  -0.13700 44.04200 20.36000
C  1.67500 47.05200 22.12100
C  1.98800 48.02500 20.92800
N  2.46100 44.10800 25.81300
C  3.46400 44.27700 24.88000
C  4.78600 44.05700 25.50800
C  4.44300 43.86500 26.86900
C  3.07600 43.81700 27.00700
C  6.15700 44.36300 24.95900
C  4.97600 43.80200 28.25800
O  6.08700 43.84300 28.70700
C  3.79400 43.50900 29.27000
C  3.98100 42.20600 29.98800
O  3.75300 41.09400 29.57200
O  4.44700 42.38400 31.25200
C  4.48000 41.28400 32.16200
H  -3.12600 42.79600 28.28000
H  -2.37300 44.83000 22.26100
H  3.93400 45.03000 22.92500
H  1.02300 42.46800 30.73100
H  -1.62300 43.32600 30.37400
H  -1.63500 40.84600 29.01400
H  -1.97500 41.11300 30.70000
H  -0.42400 40.72400 30.35100
H  -0.12800 45.27500 30.48900
H  1.59900 45.24300 30.50900
H  -0.40500 45.18700 32.50100
H  1.30300 45.25200 32.74800
H  -6.01100 43.75200 26.42600
H  -5.01600 42.85800 27.51400
H  -5.59100 42.07200 26.06700
H  -6.83200 44.08800 24.54200
H  -6.42000 42.62500 23.66200
H  -7.14100 44.04000 22.91200
H  -0.46100 46.05400 21.19700
H  2.26800 45.34500 20.94200
H  -0.67600 44.40900 19.48600
H  -0.81600 43.33900 20.84100
H  0.69500 43.44100 19.99300
H  2.37200 47.31800 22.91600
H  0.72700 47.38000 22.54900
H  2.05200 47.43300 20.01400
H  2.92300 48.56900 21.06000
H  1.23200 48.79500 20.77600
H  6.83500 43.76800 25.57100
H  6.53900 45.37300 25.10700
H  6.27200 44.14400 23.89800
H  3.82500 44.26100 30.05900
H  5.00600 41.74700 32.99600
H  5.00800 40.43000 31.73700
H  3.46500 40.95100 32.37600

