158

Mg 40.67600 8.69200 29.30700
C  42.38300 9.88700 32.06800
C  38.63200 6.93500 31.44300
C  38.97800 7.38200 26.59600
C  43.01600 10.12900 27.14900
N  40.54700 8.40300 31.55200
C  41.27800 9.07600 32.44200
C  40.70800 9.01200 33.87900
C  39.63500 7.88800 33.67800
C  39.53400 7.73700 32.12400
C  39.79600 6.67300 34.56200
C  40.36800 10.31500 34.62200
C  39.25600 10.29600 35.66300
H  39.46500 11.22600 36.82000
N  39.11900 7.32700 29.02800
C  38.41300 6.69700 30.07300
C  37.41100 5.83400 29.49600
C  37.48100 5.94400 28.08900
C  38.62300 6.84000 27.80700
C  36.52500 4.94700 30.28900
C  36.58200 5.33100 27.05100
O  36.75100 5.55100 25.87300
C  35.45300 4.47900 27.33700
N  40.99900 8.61300 27.16100
C  40.05500 8.20600 26.24200
C  40.35000 8.66900 24.87900
C  41.65900 9.55100 25.07100
C  41.89700 9.51800 26.63400
C  40.51000 7.54600 23.77800
C  41.56200 10.90400 24.36400
C  40.39100 11.82000 24.82100
N  42.34900 9.72500 29.52500
C  43.21000 10.25900 28.57200
C  44.29900 10.97900 29.28900
C  43.91300 10.91000 30.64700
C  42.75300 10.10300 30.73200
C  45.32500 11.73000 28.49500
C  44.29500 11.38400 31.93400
O  45.18600 12.13400 32.28300
C  43.28400 10.77600 32.92000
C  44.08200 10.10700 34.10700
O  44.66400 9.00400 34.09000
O  44.12700 11.02600 35.20400
C  44.55900 10.41700 36.54300
H  37.93100 6.49400 32.15600
H  38.39900 7.01000 25.74900
H  43.60400 10.73300 26.45400
H  41.62900 8.69500 34.36700
H  38.62200 8.23400 33.88500
H  40.58200 6.81800 35.30300
H  40.06900 5.77400 34.01000
H  38.84000 6.58700 35.08000
H  40.02700 11.08000 33.92400
H  41.25000 10.74800 35.09400
H  39.10700 9.30800 36.09800
H  38.40800 10.64900 35.07600
H  35.53800 5.40700 30.26900
H  36.83300 4.92900 31.33400
H  36.39400 3.93400 29.90800
H  34.71800 4.87800 28.03600
H  35.73500 3.48400 27.68100
H  34.98400 4.20300 26.39200
H  39.49500 9.20700 24.47100
H  42.50900 9.02600 24.63700
H  41.23800 7.80900 23.01000
H  39.64000 7.31000 23.16500
H  40.94800 6.62500 24.16300
H  41.53400 10.70200 23.29300
H  42.49200 11.43900 24.56100
H  39.69800 11.35000 25.51900
H  39.91700 12.07700 23.87400
H  40.80700 12.71100 25.29200
H  44.87600 12.21500 27.62800
H  46.15600 11.06000 28.27500
H  45.62500 12.44900 29.25800
H  42.63600 11.54500 33.33900
H  44.44400 9.33600 36.62400
H  43.88400 10.74400 37.33400
H  45.54400 10.74200 36.87900
Mg 42.27400 41.43800 25.74000
C  41.42000 43.88100 28.11800
C  43.48300 39.60400 28.45000
C  43.39000 39.04300 23.66200
C  41.84000 43.68200 23.24200
N  42.27200 41.59900 28.05100
C  41.79500 42.68000 28.76200
C  41.80900 42.42200 30.31400
C  42.66800 41.14000 30.39600
C  42.78300 40.72700 28.91900
C  43.96200 41.27600 31.12600
C  40.43000 42.23400 30.98200
C  40.07900 43.33900 32.09100
H  41.00900 43.71700 33.25200
N  43.30900 39.54400 25.99800
C  43.70300 39.02400 27.17600
C  44.27600 37.70000 26.90400
C  44.12600 37.42200 25.49100
C  43.52600 38.66000 25.03200
C  44.78500 36.72900 28.00300
C  44.29800 36.11600 24.65800
O  44.09600 36.08300 23.42300
C  44.84000 34.86900 25.26700
N  42.55800 41.34700 23.81200
C  42.95200 40.24600 23.09200
C  42.79500 40.51000 21.56400
C  42.03700 41.87600 21.51400
C  42.14100 42.33500 22.92900
C  44.05800 40.45900 20.75300
C  40.53500 41.74300 21.17600
C  39.71100 40.57800 21.67800
N  41.68200 43.37500 25.63500
C  41.56600 44.19900 24.49700
C  41.21700 45.48900 24.88700
C  41.06400 45.39200 26.30700
C  41.39400 44.12400 26.69300
C  41.18900 46.68500 24.00800
C  40.77200 46.16900 27.52800
O  40.49900 47.34700 27.72800
C  40.98000 45.11500 28.80200
C  42.02400 45.77100 29.71200
O  43.22400 45.94600 29.43600
O  41.41200 46.18400 30.87100
C  42.32900 46.78000 31.80100
H  43.62400 38.95500 29.31600
H  43.60400 38.34300 22.85200
H  41.64900 44.38400 22.42800
H  42.33000 43.26900 30.76200
H  42.17700 40.31800 30.91500
H  44.06800 40.52200 31.90500
H  44.07100 42.22100 31.65700
H  44.81100 41.19000 30.44700
H  40.49000 41.35100 31.61900
H  39.75500 42.25100 30.12600
H  39.11600 43.04600 32.50800
H  39.98000 44.24300 31.49000
H  43.99000 35.98700 28.07500
H  44.90000 37.20100 28.97900
H  45.76000 36.33900 27.71000
H  44.14200 34.52300 26.02900
H  45.81900 35.18800 25.62300
H  45.07100 34.15900 24.47300
H  42.26500 39.66300 21.12900
H  42.51700 42.57500 20.83000
H  44.30200 41.39100 20.24300
H  44.03600 39.58400 20.10300
H  44.84000 40.32200 21.49900
H  40.56100 41.66500 20.09000
H  40.10800 42.69700 21.48500
H  39.42700 39.87500 20.89500
H  38.85600 40.88600 22.28100
H  40.15000 39.92400 22.43100
H  40.57400 46.55600 23.11800
H  42.19500 46.79700 23.60400
H  40.88600 47.55200 24.59400
H  40.09100 45.01800 29.42400
H  42.77000 47.69500 31.40400
H  43.02700 46.01300 32.13700
H  41.76200 47.11500 32.67000

