158

Mg 2.41600 -1.01500 44.42000
C  5.64500 -0.09200 43.37500
C  1.17300 1.61900 42.65500
C  -0.68500 -2.34400 44.68400
C  3.89000 -3.87000 45.80700
N  3.34100 0.57500 43.26800
C  4.65200 0.76900 42.92500
C  4.81100 2.05300 42.14900
C  3.48500 2.78800 42.33700
C  2.56300 1.50800 42.69500
C  3.51500 3.90600 43.36800
C  5.10700 1.81700 40.59600
C  6.51100 2.16500 40.10100
H  6.58600 2.89000 38.74000
N  0.46400 -0.42000 43.76800
C  0.18700 0.79200 43.16800
C  -1.29400 0.95200 43.12700
C  -1.85700 -0.22600 43.72800
C  -0.68100 -1.03600 44.08900
C  -1.91200 2.11500 42.49000
C  -3.33100 -0.52600 43.82900
O  -4.18600 0.25000 43.40800
C  -3.90000 -1.72500 44.53900
N  1.72900 -2.85900 45.24600
C  0.43200 -3.15800 45.19100
C  0.21200 -4.53000 45.81700
C  1.60100 -4.98700 46.33600
C  2.48000 -3.87100 45.76500
C  -1.00900 -4.71000 46.77700
C  2.04900 -6.50900 46.10200
C  2.50400 -7.42100 47.24300
N  4.29700 -1.85300 44.59300
C  4.73800 -2.93800 45.29200
C  6.17300 -2.97300 45.35700
C  6.57100 -1.89000 44.57400
C  5.42300 -1.26800 44.07400
C  7.07900 -4.03900 45.98700
C  7.68900 -1.24200 44.07800
O  8.89100 -1.51300 44.14800
C  7.14500 0.04800 43.36600
C  7.63700 1.31700 43.96000
O  7.45600 1.69800 45.11700
O  8.45500 1.89300 43.10400
C  9.24500 3.05500 43.58600
H  0.73900 2.55400 42.29500
H  -1.64800 -2.84700 44.79000
H  4.37000 -4.78300 46.16500
H  5.54500 2.70400 42.62400
H  2.99600 3.28700 41.49900
H  4.51200 4.31200 43.54000
H  3.19800 3.47500 44.31800
H  2.99900 4.78000 42.97300
H  4.35100 2.36200 40.03100
H  5.01300 0.74900 40.39900
H  7.10400 1.25500 40.00800
H  7.06700 2.76200 40.82400
H  -2.34400 2.86200 43.15500
H  -2.74100 1.76900 41.87200
H  -1.18700 2.74900 41.98000
H  -3.63000 -2.58200 43.92100
H  -4.97700 -1.67300 44.70100
H  -3.52000 -1.74900 45.56100
H  -0.00200 -5.20800 44.99200
H  1.66900 -4.82600 47.41200
H  -1.69900 -3.86600 46.79500
H  -0.68800 -4.81100 47.81300
H  -1.62300 -5.53800 46.42100
H  2.94600 -6.44100 45.48700
H  1.13700 -6.85000 45.61200
H  2.66200 -6.91400 48.19400
H  3.46200 -7.90000 47.04100
H  1.80800 -8.25900 47.23100
H  6.43800 -4.51200 46.73100
H  7.89300 -3.51100 46.48300
H  7.57100 -4.62000 45.20700
H  7.59700 -0.05900 42.38000
H  8.60100 3.93400 43.56700
H  10.10900 3.10500 42.92300
H  9.54400 2.97100 44.63100
Mg 8.72200 48.14700 27.37400
C  6.76000 47.41200 30.19600
C  11.36500 48.40800 29.36000
C  10.36700 48.98600 24.51500
C  5.85100 47.59000 25.41200
N  8.97200 47.95000 29.52200
C  8.02200 47.68700 30.57800
C  8.72600 47.84900 31.99300
C  10.17200 48.17300 31.58800
C  10.17900 48.13100 30.07800
C  10.63800 49.45000 32.32500
C  8.49600 46.60800 32.91600
C  9.51200 46.49100 33.99000
H  9.14300 45.74700 35.30900
N  10.65000 48.52200 26.99800
C  11.62100 48.55300 27.92600
C  12.85400 48.75800 27.25000
C  12.65200 48.98100 25.83800
C  11.19700 48.84200 25.72900
C  14.18900 48.54800 27.98000
C  13.63400 49.14300 24.75200
O  13.38800 49.26300 23.56800
C  15.08900 49.03100 25.08300
N  8.07500 48.48600 25.31400
C  9.00800 48.89700 24.32900
C  8.39100 49.02200 22.93200
C  6.97000 48.33100 23.20300
C  6.91300 48.10900 24.73100
C  8.32100 50.53900 22.48300
C  6.63600 47.10700 22.20300
C  5.61800 47.50400 21.08800
N  6.65000 47.92400 27.70200
C  5.67400 47.58000 26.77800
C  4.46400 47.26000 27.51000
C  4.85000 47.14200 28.81600
C  6.19600 47.49600 28.88900
C  3.12700 47.05900 26.88300
C  4.29100 46.94600 30.15600
O  3.18100 46.59600 30.55500
C  5.57400 47.16100 31.09200
C  5.44900 45.91000 31.93600
O  5.92900 44.81000 31.65800
O  4.83100 46.22600 33.15600
C  4.78300 45.02600 34.06300
H  12.27500 48.60100 29.93200
H  10.83500 49.17200 23.54700
H  4.98500 47.32100 24.80500
H  8.31600 48.77100 32.40600
H  10.90700 47.41100 31.84400
H  11.69300 49.38100 32.59300
H  10.04300 49.70100 33.20200
H  10.65000 50.32400 31.67400
H  8.45800 45.70600 32.30500
H  7.57800 46.83300 33.45900
H  9.96400 47.47700 34.09600
H  10.32000 45.87900 33.59000
H  14.78700 49.44300 27.80900
H  14.72300 47.69900 27.55300
H  14.10700 48.49400 29.06500
H  15.38900 49.89700 25.67300
H  15.59200 49.14500 24.12300
H  15.20900 48.04300 25.52700
H  8.91500 48.39200 22.21300
H  6.24200 49.10700 22.96600
H  7.43000 50.63000 21.86300
H  9.20200 50.76300 21.88100
H  8.16900 51.21300 23.32600
H  6.37300 46.16700 22.68900
H  7.53100 46.84200 21.64000
H  4.92100 46.67600 20.95800
H  6.12200 47.74900 20.15300
H  4.93900 48.23900 21.52200
H  3.07400 46.75400 25.83800
H  2.53900 47.97400 26.94300
H  2.62800 46.37300 27.56700
H  5.33400 48.05800 31.66300
H  4.56200 45.45400 35.04000
H  5.73200 44.49500 34.13800
H  4.00000 44.31900 33.78600

