158

Mg 7.65100 3.95100 27.73400
C  8.96600 2.58700 30.68200
C  6.08200 6.38200 29.65700
C  5.90000 4.93600 25.02000
C  8.91600 1.18500 25.87400
N  7.62500 4.48100 29.96800
C  8.20700 3.74700 30.98100
C  7.91700 4.38500 32.34500
C  7.04000 5.59100 31.97300
C  6.95500 5.54200 30.42000
C  5.68500 5.67600 32.61800
C  9.16700 4.77000 33.20000
C  9.08900 4.43700 34.66700
H  10.39200 4.55600 35.44300
N  6.31100 5.51700 27.39900
C  5.80300 6.39700 28.32500
C  5.04800 7.43700 27.61300
C  5.03000 7.10600 26.23200
C  5.73900 5.80700 26.14800
C  4.38200 8.63100 28.19700
C  4.30600 7.77700 25.06300
O  4.28900 7.26200 23.95300
C  3.59400 9.09600 25.17400
N  7.48200 3.22600 25.80700
C  6.56500 3.72400 24.92100
C  6.56800 2.99000 23.58500
C  7.53700 1.72800 23.84100
C  8.04900 2.08300 25.25700
C  5.14500 2.65200 23.06900
C  8.70400 1.56700 22.91400
C  8.84900 0.08400 22.28600
N  8.82200 2.34100 28.12800
C  9.22900 1.31800 27.31000
C  10.07800 0.47700 28.14200
C  10.00600 0.86800 29.43700
C  9.21000 2.04400 29.40300
C  10.80400 -0.75200 27.71100
C  10.38600 0.57600 30.81700
O  11.13400 -0.20300 31.35000
C  9.59500 1.64800 31.65000
C  8.72000 0.89300 32.51400
O  7.80000 0.21200 32.10100
O  9.07000 1.10300 33.83800
C  8.22300 0.32000 34.76400
H  5.55500 7.21800 30.12200
H  5.24600 5.36300 24.25700
H  9.26600 0.33400 25.28600
H  7.28900 3.72600 32.94500
H  7.63900 6.50100 32.00000
H  5.23900 6.65500 32.79700
H  5.82500 5.37200 33.65500
H  4.96300 5.13700 32.00500
H  9.29700 5.84500 33.07300
H  10.12100 4.30300 32.95300
H  8.68800 3.44000 34.84900
H  8.25900 5.00700 35.08500
H  4.89600 9.59100 28.15000
H  4.21900 8.47000 29.26300
H  3.39300 8.73800 27.75300
H  2.67900 8.98900 25.75600
H  3.35900 9.42400 24.16100
H  4.28300 9.80700 25.63000
H  6.96900 3.69300 22.85500
H  7.04600 0.75700 23.89200
H  4.99400 3.12500 22.09800
H  4.43600 2.98600 23.82600
H  5.11900 1.56200 23.05400
H  9.59200 1.81300 23.49700
H  8.75300 2.29800 22.10700
H  8.86500 0.04200 21.19700
H  8.09900 -0.60900 22.66700
H  9.81700 -0.34300 22.54500
H  10.40600 -1.24600 26.82400
H  10.73100 -1.63800 28.34100
H  11.86200 -0.52800 27.57400
H  10.34300 2.15400 32.26100
H  7.45600 0.92300 35.24900
H  8.85300 -0.09200 35.55200
H  7.61000 -0.44100 34.28100
Mg 24.52200 1.46700 29.11800
C  26.62400 0.75100 31.89300
C  21.93100 1.35500 31.14700
C  22.54800 2.05900 26.34100
C  27.31600 1.16800 27.06800
N  24.36200 1.15000 31.30100
C  25.29800 1.00000 32.25700
C  24.73300 1.03800 33.63600
C  23.19200 1.30700 33.40000
C  23.15500 1.32200 31.86500
C  22.18200 0.34100 34.11700
C  25.50000 2.07900 34.57000
C  24.67100 2.72300 35.65200
H  25.45400 3.28100 36.82300
N  22.54200 1.65100 28.87500
C  21.59100 1.51600 29.79700
C  20.27400 1.62300 29.23500
C  20.45400 1.69300 27.81200
C  21.90400 1.85200 27.60800
C  19.01700 1.34600 30.04600
C  19.40900 1.55200 26.68900
O  19.65800 1.43200 25.47100
C  17.98100 1.52900 27.07300
N  24.85700 1.73600 27.06000
C  23.91800 1.96600 26.10800
C  24.58400 2.15200 24.75300
C  26.10500 2.02500 25.01000
C  26.12000 1.66000 26.50100
C  24.08200 1.48600 23.50000
C  26.85700 3.40300 24.79200
C  26.64200 4.42500 25.91700
N  26.49400 0.78100 29.28100
C  27.49600 0.73600 28.37000
C  28.73300 0.38400 29.01100
C  28.43600 0.50100 30.39100
C  27.03200 0.59800 30.53100
C  29.97000 0.08700 28.34200
C  29.03200 0.46200 31.67700
O  30.16000 0.25300 32.12600
C  27.87600 0.71600 32.71900
C  28.02300 -0.41400 33.73300
O  27.58300 -1.50600 33.55700
O  28.66000 0.05100 34.95600
C  28.79900 -1.02200 36.04100
H  21.14500 1.36800 31.90400
H  22.06600 2.18900 25.36900
H  28.17000 1.12500 26.38900
H  24.94000 0.04300 34.02800
H  23.05100 2.33300 33.74000
H  21.73200 0.91600 34.92700
H  22.75800 -0.41700 34.64700
H  21.60200 -0.11900 33.31700
H  25.95900 2.88400 33.99600
H  26.30200 1.56700 35.10100
H  24.00200 1.88800 35.86200
H  24.17400 3.62700 35.29800
H  18.77400 0.30600 29.82900
H  18.16100 1.98300 29.82500
H  19.29300 1.48100 31.09100
H  17.34400 1.60600 26.19200
H  17.80500 2.32100 27.80100
H  17.86800 0.50000 27.41700
H  24.35700 3.17300 24.44600
H  26.48300 1.18800 24.42300
H  23.65600 2.24000 22.83800
H  23.33600 0.72900 23.74100
H  24.90600 1.06400 22.92400
H  26.28700 3.81100 23.95700
H  27.89500 3.27800 24.48700
H  26.76000 4.13000 26.95900
H  25.65300 4.87800 25.84000
H  27.33500 5.26500 25.87500
H  29.73700 -0.18800 27.31300
H  30.52200 -0.67800 28.88600
H  30.59700 0.97600 28.40700
H  27.98800 1.68800 33.19900
H  28.34700 -1.98400 35.80100
H  28.21600 -0.67800 36.89600
H  29.81700 -1.12500 36.41600

