158

Mg 16.51500 51.81600 26.36900
C  18.41900 50.11100 28.73000
C  14.40200 52.75000 28.86300
C  14.88600 53.26900 24.09400
C  18.76100 50.46500 23.93800
N  16.50300 51.55100 28.50800
C  17.38300 50.84200 29.23900
C  17.26600 51.13500 30.74300
C  15.78800 51.54800 30.80100
C  15.53800 52.04900 29.33000
C  14.88900 50.27700 31.06700
C  18.20500 52.19800 31.29900
C  18.60700 52.01700 32.74700
H  17.44500 51.53300 33.69000
N  14.86700 52.92500 26.50600
C  14.10700 53.21800 27.58500
C  13.01500 54.06800 27.26500
C  13.23000 54.37400 25.88000
C  14.30500 53.50100 25.38300
C  12.04200 54.68200 28.18900
C  12.48400 55.32500 24.95200
O  12.79400 55.53100 23.74400
C  11.29400 56.12300 25.54900
N  16.68200 51.65600 24.20300
C  15.83600 52.46700 23.55400
C  16.22700 52.55800 22.00300
C  17.55100 51.68900 21.95100
C  17.72000 51.28600 23.43600
C  15.18000 52.15700 20.91600
C  18.79900 52.25800 21.16800
C  19.59400 53.39800 21.81000
N  18.15800 50.49000 26.28300
C  19.00900 50.05800 25.30700
C  20.20000 49.37500 25.82600
C  20.01800 49.37900 27.19800
C  18.74900 50.05100 27.41500
C  21.31800 48.71900 25.07400
C  20.50100 48.89100 28.46500
O  21.49500 48.15200 28.64100
C  19.50700 49.31600 29.52500
C  19.09300 48.18000 30.37700
O  18.15400 47.44000 30.16800
O  19.64100 48.35900 31.61200
C  19.12100 47.61900 32.72200
H  13.52200 52.85600 29.50100
H  14.52300 53.84100 23.23800
H  19.54700 50.14000 23.25400
H  17.38200 50.22600 31.33300
H  15.55800 52.31000 31.54700
H  14.14100 50.15600 30.28400
H  14.49200 50.37000 32.07800
H  15.43400 49.33500 31.11600
H  17.71500 53.16800 31.21900
H  19.14500 52.23100 30.74800
H  19.00700 52.92600 33.19800
H  19.33700 51.21200 32.82800
H  12.02100 54.29800 29.20900
H  10.99200 54.65200 27.89700
H  12.43800 55.68300 28.36300
H  10.36000 55.56200 25.58600
H  11.01000 56.82800 24.76700
H  11.63300 56.72500 26.39200
H  16.53100 53.59700 21.87000
H  17.24100 50.75600 21.47900
H  14.94000 53.02100 20.29600
H  14.32000 51.72600 21.42800
H  15.52400 51.37200 20.24300
H  18.37300 52.65300 20.24600
H  19.47200 51.43400 20.92800
H  19.12500 53.81800 22.70000
H  19.78000 54.11400 21.00900
H  20.54700 52.90900 22.01400
H  21.34400 47.65100 25.28700
H  22.27800 49.18000 25.30500
H  21.06700 48.76200 24.01400
H  19.95500 50.16000 30.04900
H  18.47100 46.79500 32.42700
H  18.63700 48.36500 33.35300
H  19.95700 47.15200 33.24200
Mg -5.88400 25.80000 26.05400
C  -4.20000 27.08600 28.93200
C  -7.62200 23.76800 28.19100
C  -6.82500 23.89600 23.43500
C  -3.98700 27.73200 24.09800
N  -5.73400 25.26500 28.42900
C  -5.10900 26.07800 29.41500
C  -5.54400 25.63900 30.77500
C  -6.89300 24.84800 30.42100
C  -6.68700 24.47900 28.92900
C  -7.16900 23.58300 31.26000
C  -5.64100 26.70600 31.81300
C  -6.75400 26.51000 32.79900
H  -6.56400 25.55000 34.02000
N  -7.16600 24.12700 25.80600
C  -7.80900 23.44900 26.79400
C  -8.66700 22.43900 26.24200
C  -8.44700 22.46000 24.80200
C  -7.44800 23.51600 24.65200
C  -9.46700 21.45500 27.06300
C  -9.07600 21.63100 23.70300
O  -8.82700 21.71200 22.54300
C  -10.09500 20.61700 24.05900
N  -5.43500 25.76100 24.05300
C  -5.85700 24.88700 23.15300
C  -5.32900 25.20700 21.72500
C  -4.66500 26.58100 21.85500
C  -4.65000 26.67200 23.44400
C  -4.53800 24.00600 21.09300
C  -5.42800 27.75500 21.20000
C  -4.58200 28.84100 20.60000
N  -4.30300 26.96100 26.38400
C  -3.66900 27.76800 25.48400
C  -2.74200 28.68500 26.13900
C  -2.84700 28.35200 27.50400
C  -3.84300 27.35700 27.58600
C  -1.77100 29.69500 25.50300
C  -2.36600 28.68300 28.74200
O  -1.42200 29.42500 29.10500
C  -3.23500 27.90200 29.78400
C  -2.26500 27.00400 30.48600
O  -1.90800 25.97600 30.03200
O  -1.83200 27.63100 31.59100
C  -0.74700 26.98400 32.23700
H  -8.30700 23.22700 28.84800
H  -7.11500 23.29200 22.57300
H  -3.46200 28.51300 23.54500
H  -4.76400 24.90600 30.98300
H  -7.77000 25.49400 30.44900
H  -7.05500 22.77400 30.53900
H  -8.15400 23.62200 31.72500
H  -6.33900 23.47200 31.95800
H  -5.75600 27.72300 31.43700
H  -4.76700 26.65300 32.46200
H  -7.73200 26.27700 32.37800
H  -6.70900 27.53200 33.17200
H  -9.39400 20.42400 26.71800
H  -10.52000 21.70400 27.20000
H  -9.23000 21.36200 28.12200
H  -9.45000 19.81900 24.42600
H  -10.53200 20.25000 23.13000
H  -10.89500 20.88900 24.74700
H  -6.21900 25.29800 21.10200
H  -3.69100 26.43600 21.38700
H  -4.43700 23.07800 21.65600
H  -3.52800 24.29200 20.79900
H  -5.04900 23.62000 20.21200
H  -6.00200 28.25900 21.97700
H  -6.01500 27.42700 20.34200
H  -3.55800 28.47600 20.51600
H  -4.44900 29.71600 21.23500
H  -4.93000 29.20300 19.63300
H  -1.06200 30.07600 26.23900
H  -2.43900 30.50500 25.21100
H  -1.21600 29.30700 24.64800
H  -3.73900 28.65100 30.39500
H  -0.98100 25.92000 32.26500
H  -0.63400 27.32100 33.26700
H  0.22400 27.19900 31.79000

