158

Mg -0.76500 7.43000 26.25300
C  -0.09200 9.50900 28.89300
C  -0.17900 4.75900 28.40900
C  -1.16200 5.51900 23.67600
C  -1.10700 10.34000 24.13500
N  -0.23700 7.16400 28.41500
C  -0.04600 8.18400 29.28000
C  0.24200 7.64900 30.72100
C  0.24300 6.09700 30.48900
C  0.03500 5.96400 28.97200
C  1.58500 5.39300 30.95900
C  -0.86900 8.12700 31.69600
C  -0.54800 8.07800 33.19800
H  0.54900 7.22000 33.88700
N  -0.70100 5.42500 26.06300
C  -0.40200 4.46500 26.98600
C  -0.29900 3.14900 26.35500
C  -0.58000 3.35900 24.94800
C  -0.85300 4.78900 24.84600
C  -0.01000 1.85100 27.20000
C  -0.53500 2.34600 23.76700
O  -0.95700 2.57800 22.64100
C  -0.16200 0.85000 23.97200
N  -1.11000 7.92000 24.23000
C  -1.22000 6.88900 23.36300
C  -1.44800 7.34500 21.97100
C  -1.87000 8.79500 22.20500
C  -1.28200 9.08900 23.55700
C  -0.13300 7.21500 21.10700
C  -3.46000 8.88600 22.14000
C  -3.92500 10.13600 21.33800
N  -0.62000 9.52700 26.40400
C  -0.70400 10.53400 25.48800
C  -0.42200 11.78500 26.10200
C  -0.16900 11.41400 27.48000
C  -0.31700 10.02600 27.55700
C  -0.46200 13.22100 25.61600
C  0.16900 12.03400 28.74700
O  0.47100 13.19700 29.02900
C  0.11500 10.79100 29.69700
C  1.26800 10.86000 30.58400
O  2.38200 10.88700 30.15200
O  0.90700 11.00900 31.87900
C  2.03900 11.04200 32.84200
H  0.02900 3.83500 28.95300
H  -1.42800 4.89000 22.82400
H  -1.14600 11.21800 23.48700
H  1.26900 7.95100 30.93000
H  -0.61700 5.63200 30.97200
H  2.23000 6.04800 31.54400
H  2.14700 5.06000 30.08700
H  1.26600 4.55600 31.58000
H  -1.58700 7.32000 31.55100
H  -1.32300 9.05600 31.34900
H  -1.48400 7.63100 33.53500
H  -0.57800 9.12000 33.51700
H  0.79700 1.96100 27.92500
H  0.28400 1.03600 26.53900
H  -0.93400 1.53900 27.68700
H  0.89000 0.85000 24.25900
H  -0.30400 0.43600 22.97300
H  -0.87500 0.40200 24.66300
H  -2.27500 6.81200 21.50100
H  -1.32100 9.47000 21.54900
H  -0.39100 6.37600 20.46000
H  0.79100 6.92800 21.60800
H  -0.03200 8.14500 20.54800
H  -3.85500 9.04800 23.14200
H  -4.02800 8.05000 21.73100
H  -3.24400 10.64400 20.65600
H  -4.23600 10.95900 21.98100
H  -4.84300 9.78200 20.86900
H  -0.75300 13.96600 26.35800
H  -1.16500 13.23400 24.78400
H  0.46400 13.58700 25.17200
H  -0.69200 10.86600 30.42500
H  2.64900 11.93500 32.70300
H  2.75300 10.23000 32.70000
H  1.75800 11.04400 33.89500
Mg -5.84000 24.80800 25.98400
C  -4.49900 26.33300 28.64300
C  -8.00000 23.07500 28.26700
C  -7.10400 23.07100 23.47900
C  -3.56600 26.44900 23.86300
N  -5.99300 24.41900 28.18100
C  -5.48000 25.38700 29.02200
C  -5.97700 25.17400 30.47100
C  -6.96800 23.99100 30.33400
C  -7.03600 23.84000 28.82600
C  -6.60800 22.64700 30.91700
C  -6.65500 26.43900 31.10500
C  -6.65300 26.52700 32.59500
H  -5.98700 25.47800 33.49400
N  -7.36500 23.25400 25.88600
C  -8.12300 22.75000 26.91000
C  -9.20300 21.97400 26.33000
C  -8.98600 21.91500 24.93500
C  -7.80800 22.77400 24.71300
C  -10.37200 21.48400 27.09500
C  -9.72700 21.16100 23.93000
O  -9.45600 21.16000 22.74800
C  -10.74100 20.08700 24.43300
N  -5.28200 24.66200 23.97900
C  -5.93900 23.83900 23.14500
C  -5.38900 23.88600 21.63200
C  -4.51600 25.20300 21.73900
C  -4.45700 25.51700 23.27200
C  -4.63200 22.56900 21.21100
C  -5.07700 26.46600 21.05900
C  -4.50100 26.96900 19.67000
N  -4.21700 26.05200 26.12600
C  -3.43400 26.72500 25.25000
C  -2.54600 27.72500 25.95500
C  -2.93800 27.47400 27.31900
C  -3.91700 26.50800 27.33700
C  -1.61700 28.72800 25.31600
C  -2.76600 28.04200 28.56800
O  -2.05400 28.93100 28.89000
C  -3.71200 27.28100 29.48900
C  -2.83300 26.55000 30.39100
O  -2.60700 25.38300 30.47000
O  -2.47100 27.42100 31.39200
C  -1.75200 26.97900 32.59900
H  -8.59800 22.53100 29.00100
H  -7.45200 22.43900 22.65900
H  -2.89600 27.00900 23.20800
H  -5.19100 24.84400 31.15000
H  -7.94600 24.19900 30.76600
H  -7.20200 22.53900 31.82400
H  -5.55500 22.56700 31.18700
H  -6.69800 21.71800 30.35400
H  -7.71200 26.53900 30.85900
H  -6.31300 27.35500 30.62400
H  -7.71500 26.60500 32.82900
H  -6.20000 27.49900 32.79300
H  -10.31200 21.88200 28.10800
H  -10.28800 20.39800 27.05800
H  -11.28200 21.94800 26.71600
H  -11.53100 20.66400 24.91400
H  -10.18000 19.37000 25.03300
H  -11.17200 19.51000 23.61500
H  -6.19900 24.00300 20.91200
H  -3.53400 25.01000 21.30700
H  -3.57900 22.78200 21.02500
H  -5.11400 22.07600 20.36700
H  -4.59200 21.84400 22.02400
H  -5.00000 27.30100 21.75600
H  -6.14800 26.28800 20.96400
H  -4.08000 27.95800 19.84800
H  -5.27000 26.93700 18.89800
H  -3.67300 26.35900 19.30800
H  -1.91700 29.75300 25.53700
H  -1.64600 28.80800 24.22900
H  -0.56400 28.50000 25.48100
H  -4.37600 27.98700 29.98700
H  -1.11300 26.11700 32.40400
H  -2.34000 26.74000 33.48500
H  -1.05600 27.78600 32.82500

