158

Mg 25.86700 0.67300 29.15500
C  27.95100 0.37300 32.07600
C  23.17900 1.35100 31.19100
C  24.10500 0.59400 26.50100
C  28.66900 -0.73600 27.32400
N  25.60500 0.73700 31.45400
C  26.62700 0.64500 32.41800
C  25.95800 0.84500 33.79500
C  24.47900 1.28100 33.46400
C  24.36600 1.09300 31.99700
C  23.39900 0.22300 34.12800
C  26.70900 1.91000 34.66300
C  26.93400 1.48700 36.08500
H  26.47100 2.47600 37.16700
N  23.90000 1.02900 28.89600
C  22.94400 1.24700 29.78300
C  21.75400 1.45300 29.15700
C  21.92800 1.18900 27.76400
C  23.38300 0.90900 27.65900
C  20.44200 1.72200 29.88100
C  20.81300 1.08100 26.67400
O  21.00500 0.53500 25.57600
C  19.39600 1.57400 26.93400
N  26.37800 -0.00800 27.21400
C  25.40100 0.18400 26.27600
C  25.92000 -0.14800 24.82500
C  27.36400 -0.62100 25.07500
C  27.52200 -0.47700 26.57500
C  25.04600 -1.05900 23.94200
C  28.35400 0.15900 24.20700
C  28.84700 1.48100 24.76500
N  27.85800 -0.05100 29.57700
C  28.81200 -0.56900 28.73200
C  30.10800 -0.67700 29.42100
C  29.77600 -0.35100 30.76800
C  28.41500 0.05800 30.78200
C  31.45400 -1.25900 28.95000
C  30.32900 -0.33600 32.13400
O  31.40400 -0.58400 32.61300
C  29.17700 0.14700 32.97600
C  28.84400 -0.87400 33.93100
O  28.13400 -1.80700 33.68600
O  29.38400 -0.61700 35.16500
C  28.92000 -1.53800 36.21100
H  22.28300 1.60100 31.76200
H  23.47400 0.76500 25.62600
H  29.54700 -0.91600 26.70000
H  25.98300 -0.09900 34.33900
H  24.22000 2.32500 33.63900
H  23.60500 -0.80600 33.83400
H  22.35200 0.41500 33.89200
H  23.45300 0.20100 35.21600
H  26.09100 2.80100 34.77200
H  27.63800 2.22000 34.18500
H  28.00600 1.56100 36.27100
H  26.68000 0.46500 36.36800
H  19.59100 1.33300 29.32200
H  20.28700 2.78900 30.04500
H  20.54300 1.22100 30.84400
H  18.84400 0.76900 27.42000
H  18.94300 1.86000 25.98500
H  19.41200 2.47400 27.54800
H  25.75200 0.83900 24.39400
H  27.36800 -1.70400 24.95100
H  24.08700 -1.37600 24.35100
H  25.62300 -1.88400 23.52500
H  24.77800 -0.38200 23.13100
H  27.77900 0.31400 23.29400
H  29.23600 -0.36700 23.84100
H  28.34600 1.72400 25.70300
H  28.68000 2.26600 24.02700
H  29.92200 1.45200 24.93900
H  32.29300 -0.72200 29.39300
H  31.60200 -0.98100 27.90600
H  31.42600 -2.33200 29.14200
H  29.48600 1.04400 33.51200
H  29.72000 -1.54900 36.95100
H  28.83100 -2.59000 35.93900
H  28.01700 -1.20300 36.72000
Mg -10.65400 16.55800 42.90600
C  -7.15700 17.06900 42.93500
C  -11.17700 19.86800 42.50400
C  -13.91500 15.87700 42.18600
C  -9.90100 13.02300 42.66100
N  -9.31900 18.25700 42.65500
C  -7.92000 18.24000 42.70400
C  -7.39700 19.73700 42.56900
C  -8.72600 20.61100 42.68300
C  -9.81700 19.52000 42.64400
C  -8.85400 21.51400 43.89600
C  -6.52900 19.98900 41.21900
C  -5.03400 20.22100 41.45300
H  -4.13600 19.38500 40.58600
N  -12.29900 17.71200 42.33000
C  -12.36900 19.08100 42.26000
C  -13.70100 19.45400 41.86700
C  -14.51100 18.30900 41.79400
C  -13.55600 17.23000 42.05700
C  -14.16400 20.88300 41.47500
C  -16.04900 18.31200 41.42200
O  -16.62400 19.38000 41.48900
C  -16.78600 17.12200 41.15700
N  -11.65900 14.66300 42.21100
C  -13.05000 14.74700 42.35100
C  -13.57500 13.31200 42.68500
C  -12.30900 12.38000 42.49200
C  -11.21300 13.42100 42.46500
C  -14.38100 13.23700 44.07500
C  -12.40700 11.55200 41.15500
C  -11.92200 10.07200 41.21500
N  -8.89800 15.24600 42.88700
C  -8.77300 13.85200 42.85700
C  -7.43400 13.54500 42.98600
C  -6.70500 14.78500 43.07900
C  -7.69400 15.76100 42.89600
C  -6.99000 12.20700 42.99800
C  -5.39200 15.35400 43.14200
O  -4.29600 14.82400 43.14200
C  -5.62600 16.92000 43.22500
C  -5.27700 17.18700 44.65800
O  -6.03000 17.06300 45.61800
O  -4.03200 17.77400 44.67800
C  -3.58500 18.29600 45.98900
H  -11.16700 20.95500 42.40400
H  -14.97700 15.67000 42.33000
H  -9.77600 11.94100 42.74400
H  -6.83000 20.00100 43.46200
H  -8.85300 21.27900 41.83100
H  -7.86700 21.97000 43.97700
H  -9.21800 20.88300 44.70600
H  -9.51600 22.34200 43.64600
H  -7.00600 20.76100 40.61600
H  -6.71400 19.11400 40.59500
H  -4.80700 19.99900 42.49600
H  -4.87600 21.28200 41.25700
H  -13.19900 21.37200 41.34600
H  -14.80000 21.30700 42.25200
H  -14.69600 20.76200 40.53100
H  -17.77900 17.45800 40.85800
H  -16.85500 16.63000 42.12700
H  -16.18900 16.50400 40.48600
H  -14.34600 12.93200 42.01400
H  -12.19400 11.72400 43.35500
H  -14.41600 14.20100 44.58100
H  -13.61500 12.82800 44.73400
H  -15.30900 12.67100 44.00000
H  -11.82500 12.14300 40.44800
H  -13.46400 11.54300 40.88800
H  -11.66300 9.85000 42.25000
H  -11.07800 9.92700 40.54100
H  -12.70300 9.34900 40.97800
H  -7.65000 11.35300 43.15200
H  -6.22500 12.19900 43.77500
H  -6.40800 12.18200 42.07700
H  -4.92400 17.41900 42.55800
H  -3.06300 19.21200 45.71400
H  -2.94600 17.49900 46.37100
H  -4.33500 18.64600 46.69800

