158

Mg 25.45400 -8.07900 47.79300
C  28.28000 -5.88300 47.05700
C  23.83400 -6.48000 45.19800
C  23.28800 -10.55100 47.68600
C  27.68500 -10.01000 49.74100
N  26.08700 -6.43600 46.28700
C  27.25600 -5.72600 46.13100
C  27.15400 -4.83500 44.92300
C  25.64400 -4.97200 44.52700
C  25.11500 -6.09000 45.36300
C  24.85900 -3.63100 44.59400
C  28.05000 -5.12200 43.71100
C  28.70200 -3.86900 43.09300
H  28.19600 -3.38100 41.74300
N  23.66500 -8.31300 46.82000
C  23.12900 -7.48800 45.83900
C  21.77800 -7.93100 45.50300
C  21.59400 -9.08300 46.29400
C  22.84700 -9.38200 47.00600
C  20.90800 -7.28600 44.48600
C  20.18000 -9.85100 46.48900
O  19.24200 -9.54400 45.81500
C  19.95200 -10.89900 47.49400
N  25.63500 -10.11000 48.46500
C  24.49500 -10.91700 48.39700
C  24.66600 -12.07200 49.33400
C  26.11000 -11.96700 49.86500
C  26.47400 -10.61000 49.36700
C  23.59600 -12.22600 50.43200
C  27.11200 -13.15300 49.28900
C  27.67500 -13.97400 50.43200
N  27.47900 -7.93400 48.44000
C  28.23100 -8.77600 49.22600
C  29.52500 -8.38900 49.26700
C  29.51700 -7.15800 48.56200
C  28.25300 -6.94000 48.03900
C  30.65000 -9.11800 49.82300
C  30.46100 -6.12100 48.13100
O  31.61700 -5.87300 48.47700
C  29.66300 -5.25000 47.09000
C  29.59900 -3.78100 47.41300
O  29.85300 -3.30800 48.51200
O  29.37000 -3.13800 46.26700
C  29.65600 -1.65700 46.29300
H  23.25800 -5.97700 44.41800
H  22.54200 -11.33900 47.81100
H  28.21300 -10.65900 50.44200
H  27.36500 -3.82800 45.28300
H  25.54000 -5.39000 43.52600
H  23.84600 -3.77400 44.21800
H  25.27900 -2.88900 43.91400
H  24.82900 -3.24400 45.61300
H  27.44200 -5.56700 42.92300
H  28.79500 -5.90400 43.85600
H  29.73800 -4.17300 42.94800
H  28.61200 -3.02400 43.77500
H  21.14100 -7.48400 43.44000
H  21.06800 -6.21100 44.40700
H  19.87500 -7.51200 44.75100
H  20.32000 -10.61900 48.48200
H  20.56200 -11.71600 47.10900
H  18.93000 -11.26600 47.58800
H  24.56400 -12.90600 48.64000
H  26.12000 -11.95400 50.95500
H  23.36800 -13.29200 50.41700
H  22.67000 -11.68000 50.25200
H  24.04700 -11.85100 51.35100
H  27.95300 -12.68900 48.77400
H  26.70900 -13.73900 48.46300
H  28.71100 -13.75800 50.69600
H  27.75000 -15.04900 50.26600
H  27.12100 -13.83300 51.36000
H  30.77500 -9.96000 49.14300
H  30.36200 -9.69500 50.70200
H  31.64100 -8.66900 49.88700
H  30.20400 -5.32700 46.14700
H  29.99400 -1.22500 47.23500
H  28.76900 -1.13100 45.93800
H  30.42900 -1.48200 45.54400
Mg 29.21900 58.71700 41.57100
C  26.26200 57.07600 40.84600
C  30.88200 56.07700 39.96800
C  31.79000 60.69800 41.36200
C  27.15300 61.48700 42.61500
N  28.63000 56.79600 40.58000
C  27.39500 56.40300 40.30600
C  27.30700 55.15600 39.53900
C  28.79400 54.67500 39.57600
C  29.51200 55.91600 40.04300
C  28.99800 53.53100 40.60500
C  26.73700 55.43300 38.03400
C  26.28300 54.25100 37.21500
H  25.73000 54.60800 35.79500
N  31.15100 58.37100 40.97400
C  31.68200 57.23000 40.34000
C  33.07400 57.38600 40.13600
C  33.33300 58.74700 40.35000
C  32.04100 59.41500 40.91200
C  34.02500 56.31900 39.68100
C  34.59700 59.45600 40.06600
O  35.57400 58.82100 39.66200
C  34.76200 60.91600 40.07900
N  29.40700 60.89500 41.85800
C  30.65300 61.40200 41.86500
C  30.61300 62.84100 42.35100
C  29.18700 63.06900 42.87600
C  28.47400 61.77500 42.32500
C  31.68800 63.33600 43.28400
C  28.56500 64.47600 42.42600
C  28.07600 65.45900 43.54500
N  27.07500 59.19000 41.84600
C  26.43100 60.30900 42.32300
C  25.01900 60.06800 42.36500
C  24.89300 58.84200 41.75400
C  26.19300 58.36900 41.51800
C  23.97700 60.91700 42.99500
C  23.95700 57.77000 41.45600
O  22.71800 57.75500 41.47500
C  24.83500 56.60600 40.76900
C  24.54100 55.39700 41.52600
O  24.57600 55.27900 42.72600
O  23.94100 54.38100 40.76500
C  23.55100 53.12600 41.54800
H  31.34600 55.21100 39.49200
H  32.65400 61.35800 41.26000
H  26.62400 62.28000 43.14900
H  26.64300 54.42400 39.99900
H  29.13600 54.32400 38.60300
H  28.22300 53.71200 41.35000
H  29.98000 53.66900 41.05700
H  29.09100 52.51500 40.22100
H  27.57700 55.83000 37.46400
H  25.97200 56.20900 38.06600
H  25.43900 53.87100 37.79000
H  27.06800 53.49800 37.15100
H  33.39100 55.43200 39.68100
H  34.68800 56.18800 40.53600
H  34.45400 56.46900 38.69000
H  34.04700 61.39300 39.40800
H  35.70800 61.34400 39.74600
H  34.73700 61.32900 41.08800
H  30.81700 63.47000 41.48500
H  29.22600 63.09400 43.96500
H  32.56300 62.68700 43.31500
H  31.43600 63.33200 44.34400
H  32.02400 64.32000 42.95500
H  27.77000 64.37800 41.68700
H  29.33400 64.96300 41.82700
H  27.01400 65.65600 43.39400
H  28.62100 66.40200 43.54100
H  28.17000 64.93800 44.49800
H  24.13300 61.99300 42.92100
H  23.98100 60.82300 44.08100
H  23.03900 60.57500 42.55900
H  24.55700 56.49600 39.72100
H  24.08700 53.01400 42.49100
H  23.71900 52.26800 40.89700
H  22.48400 53.27600 41.70900

