158

Mg 17.43600 -1.80200 27.83200
C  15.98500 0.04000 30.62400
C  19.47300 -3.34200 30.17200
C  19.09100 -3.18200 25.29900
C  15.36800 -0.01400 25.81000
N  17.70000 -1.58700 30.09200
C  16.96500 -0.84400 31.03400
C  17.45300 -1.11800 32.47600
C  18.79000 -2.02300 32.24200
C  18.64000 -2.36100 30.70800
C  20.07600 -1.21700 32.51100
C  16.41200 -1.79900 33.32300
C  16.30800 -1.20900 34.79500
H  17.47500 -0.42200 35.31000
N  19.08400 -3.12200 27.73800
C  19.71000 -3.65000 28.82100
C  20.65600 -4.69300 28.30700
C  20.60600 -4.65700 26.86800
C  19.53600 -3.65600 26.54300
C  21.32800 -5.61800 29.15500
C  21.38500 -5.49800 25.83500
O  21.03700 -5.46100 24.62000
C  22.53500 -6.39600 26.21500
N  17.32000 -1.62500 25.91000
C  18.18000 -2.20400 24.97500
C  17.98200 -1.66100 23.57100
C  16.59200 -0.96900 23.72200
C  16.32600 -0.89300 25.21000
C  19.21000 -0.82200 23.04600
C  15.40000 -1.63800 22.94700
C  15.26600 -1.07400 21.46900
N  15.88800 -0.41700 28.12800
C  15.06100 0.21400 27.18300
C  14.08200 1.11200 27.77400
C  14.41100 1.00300 29.09600
C  15.51400 0.11900 29.25900
C  13.05800 1.96000 27.12300
C  14.07500 1.50600 30.36800
O  13.25400 2.30200 30.76100
C  15.11500 1.01500 31.37200
C  15.94700 2.23900 31.74100
O  16.72500 2.87600 31.02100
O  15.56300 2.42100 33.07200
C  16.44200 3.39600 33.78300
H  20.02600 -3.88800 30.94000
H  19.52000 -3.66100 24.41700
H  14.80000 0.56700 25.08200
H  17.66100 -0.11800 32.85700
H  18.76600 -3.00700 32.71200
H  20.64400 -1.87000 33.17400
H  20.02600 -0.32300 33.13300
H  20.64500 -0.84400 31.66000
H  16.70200 -2.84700 33.39300
H  15.46100 -1.66900 32.80700
H  16.16700 -1.99600 35.53500
H  15.35600 -0.70800 34.96700
H  21.54900 -6.58000 28.69300
H  20.76300 -5.81000 30.06800
H  22.24600 -5.12400 29.47400
H  23.35600 -5.83100 26.65600
H  22.97300 -6.85600 25.32900
H  22.29500 -7.17100 26.94300
H  17.83600 -2.49600 22.88500
H  16.69200 0.06800 23.40300
H  18.97200 0.17500 22.67600
H  19.94200 -1.40000 22.48200
H  19.68300 -0.57000 23.99500
H  14.48800 -1.44500 23.51200
H  15.66700 -2.69400 22.99400
H  16.15200 -0.45100 21.34300
H  14.42300 -0.42400 21.23300
H  15.33900 -1.84400 20.70100
H  13.00000 2.90100 27.66900
H  12.06700 1.54900 27.31200
H  13.17700 2.18400 26.06300
H  14.64000 0.55300 32.23700
H  16.08900 4.42800 33.80200
H  17.51200 3.27600 33.61500
H  16.38200 3.18400 34.85000
Mg 25.37700 0.99700 29.92300
C  27.56200 0.70400 32.53400
C  22.85700 1.73900 32.06500
C  23.29100 1.03200 27.36600
C  27.99700 0.17900 27.66800
N  25.16800 1.02500 32.14600
C  26.27100 1.12700 32.95500
C  25.81000 1.62400 34.31000
C  24.19400 1.70500 34.26500
C  24.00600 1.50800 32.75200
C  23.32100 0.84300 35.16400
C  26.49900 2.86800 34.75600
C  27.24600 2.70700 36.09600
H  26.90700 3.78900 37.15500
N  23.28600 1.26700 29.69900
C  22.46200 1.56800 30.72700
C  21.09700 1.69000 30.25100
C  21.17900 1.50000 28.79500
C  22.65700 1.29300 28.54300
C  19.93600 1.89200 31.12600
C  20.06500 1.54000 27.77300
O  20.21400 1.29600 26.59900
C  18.67400 1.79600 28.21900
N  25.60200 0.87300 27.82300
C  24.55300 0.89500 26.98100
C  25.10300 0.89300 25.54000
C  26.62800 0.58600 25.63700
C  26.76100 0.58800 27.13000
C  24.37400 -0.09100 24.60000
C  27.56300 1.66600 24.90800
C  28.37000 1.16300 23.73100
N  27.34900 0.46600 30.04400
C  28.33500 0.17100 29.07100
C  29.55500 -0.11800 29.78100
C  29.30500 0.14300 31.18400
C  27.97800 0.44200 31.22100
C  30.84100 -0.41400 29.09100
C  29.95900 0.24700 32.44700
O  31.11800 0.11200 32.73400
C  28.79000 0.58300 33.46200
C  28.67800 -0.55300 34.41000
O  27.77300 -1.41200 34.45700
O  29.60700 -0.35800 35.43800
C  29.54100 -1.14700 36.68300
H  22.20600 2.13400 32.84700
H  22.58700 1.05300 26.53100
H  28.74800 -0.14200 26.94300
H  26.07000 0.81700 34.99600
H  23.80300 2.70400 34.45900
H  22.70000 1.39700 35.86700
H  23.96100 0.12800 35.68200
H  22.63300 0.38200 34.45600
H  25.75200 3.66200 34.73100
H  27.31200 3.10100 34.06800
H  28.30300 2.93200 35.95200
H  27.15000 1.67300 36.42600
H  19.41200 2.77800 30.76800
H  20.29100 2.01900 32.14900
H  19.31000 1.00000 31.13000
H  17.96800 1.70800 27.39400
H  18.76400 2.77900 28.68200
H  18.37600 1.12600 29.02500
H  24.90100 1.88500 25.13800
H  26.90900 -0.36700 25.18700
H  23.72500 -0.76600 25.15900
H  25.03500 -0.74300 24.02900
H  23.75200 0.46100 23.89500
H  28.23800 2.06700 25.66400
H  26.94900 2.38000 24.35900
H  27.80900 1.34500 22.81500
H  28.62300 0.13100 23.97200
H  29.31100 1.71300 23.69500
H  31.67200 0.18100 29.47000
H  30.75400 -0.14200 28.03900
H  31.01000 -1.49000 29.07900
H  29.02500 1.48800 34.02200
H  30.49800 -1.01700 37.18800
H  29.39800 -2.20600 36.46700
H  28.70200 -0.83400 37.30500

