158

Mg 17.39200 -1.74600 27.93300
C  16.12300 0.39800 30.64200
C  19.14400 -3.38500 30.14600
C  18.70300 -3.29200 25.30300
C  15.59700 0.43700 25.68000
N  17.74300 -1.37200 30.11100
C  16.95100 -0.68200 31.01900
C  17.43600 -0.96500 32.42000
C  18.61800 -1.97100 32.23800
C  18.41200 -2.36000 30.73300
C  20.05800 -1.36100 32.38800
C  16.30500 -1.47800 33.32400
C  16.30400 -1.37800 34.87300
H  17.47000 -0.67200 35.52700
N  18.61000 -3.29400 27.72900
C  19.28300 -3.85100 28.78900
C  20.06600 -4.92500 28.26800
C  19.94700 -4.97600 26.85300
C  19.06800 -3.87300 26.55800
C  20.81000 -5.76500 29.33800
C  20.61800 -5.88800 25.87700
O  20.36000 -5.83500 24.65000
C  21.52300 -7.07600 26.31600
N  17.23700 -1.35600 25.87800
C  17.97200 -2.20700 24.98200
C  17.71800 -1.82400 23.55800
C  16.51500 -0.82500 23.68700
C  16.43400 -0.56900 25.20300
C  19.03000 -1.24100 22.91700
C  15.23300 -1.31800 23.02600
C  15.18700 -0.86100 21.48700
N  16.11700 -0.03000 28.06200
C  15.47200 0.64000 27.01400
C  14.94500 1.79500 27.65700
C  15.08400 1.72200 29.00100
C  15.82700 0.62900 29.26600
C  14.18100 2.88300 26.97000
C  14.76100 2.40600 30.22500
O  14.14800 3.48400 30.39200
C  15.43200 1.52200 31.36300
C  16.34400 2.38300 32.16500
O  17.52600 2.57900 31.89700
O  15.55100 2.95000 33.16300
C  16.19600 4.05900 33.85800
H  19.73200 -3.99800 30.83200
H  19.15200 -3.84000 24.47100
H  15.07100 0.98900 24.89800
H  17.86300 -0.02800 32.77600
H  18.44900 -2.77200 32.95700
H  20.82700 -1.96400 31.90600
H  20.42500 -1.36200 33.41500
H  20.06200 -0.37200 31.93000
H  15.88300 -2.45800 33.09900
H  15.46600 -0.80600 33.14700
H  16.34700 -2.38500 35.28900
H  15.41100 -1.04600 35.40200
H  20.74800 -6.79600 28.99000
H  20.49000 -5.83700 30.37800
H  21.86700 -5.49700 29.36600
H  22.15200 -6.80100 27.16200
H  22.26800 -7.24900 25.53900
H  20.98100 -8.00000 26.51800
H  17.57400 -2.69600 22.92100
H  16.78700 0.08500 23.15200
H  19.75500 -0.77200 23.58200
H  18.72900 -0.44000 22.24200
H  19.70500 -1.94800 22.43600
H  14.31600 -1.07100 23.56200
H  15.37000 -2.39500 22.92700
H  15.30900 -1.67400 20.77100
H  16.04000 -0.21900 21.26800
H  14.21600 -0.43200 21.23900
H  14.50400 3.04300 25.94200
H  14.25900 3.78900 27.57100
H  13.10500 2.71400 27.01300
H  14.66900 1.21700 32.07900
H  16.25100 4.97900 33.27600
H  17.06000 3.73100 34.43500
H  15.50300 4.33100 34.65400
Mg -1.13300 34.22300 27.60200
C  -3.10100 32.44600 29.90600
C  0.26400 35.98200 30.20000
C  0.11600 36.20900 25.37900
C  -2.75200 32.37000 24.97500
N  -1.53900 34.34200 29.69000
C  -2.39400 33.50900 30.40500
C  -2.23300 33.75100 31.95500
C  -1.45100 35.16500 31.99600
C  -0.85500 35.19400 30.59200
C  -2.35800 36.47400 32.20000
C  -1.47600 32.54500 32.75400
C  -2.17600 32.12500 34.11200
H  -1.45200 31.73700 35.52800
N  0.09100 35.77800 27.74600
C  0.75500 36.32300 28.93000
C  1.69900 37.30700 28.56500
C  1.67200 37.41500 27.15200
C  0.56500 36.47900 26.69400
C  2.60400 38.10300 29.53600
C  2.58300 38.14500 26.15400
O  2.36400 38.16800 24.95400
C  3.75500 38.93100 26.59500
N  -1.57500 34.49000 25.43200
C  -0.78400 35.37300 24.77500
C  -0.79300 35.19100 23.24300
C  -1.58900 33.75300 23.17800
C  -1.99000 33.49200 24.61300
C  -1.51700 36.33700 22.43600
C  -0.62000 32.67100 22.54500
C  -1.16500 31.79800 21.47900
N  -2.66400 32.75600 27.45100
C  -3.13200 32.08400 26.27600
C  -3.99400 31.01800 26.72800
C  -4.01700 31.08700 28.12600
C  -3.19000 32.15400 28.53300
C  -4.66400 30.06800 25.81500
C  -4.46600 30.41300 29.35500
O  -5.12300 29.40600 29.53000
C  -4.06700 31.37400 30.53000
C  -5.25300 32.00400 31.17800
O  -5.73000 33.08600 30.95200
O  -5.75000 31.09900 32.15400
C  -6.62000 31.61500 33.17000
H  0.72100 36.48000 31.05800
H  0.39400 36.93300 24.61100
H  -3.18700 31.87100 24.10700
H  -3.25800 33.90000 32.29400
H  -0.65400 35.04700 32.73000
H  -3.29900 36.15400 32.64900
H  -2.69600 36.99200 31.30200
H  -1.85000 37.19900 32.83500
H  -0.40900 32.70900 32.90500
H  -1.47200 31.74200 32.01800
H  -2.75100 31.22400 33.90000
H  -2.90400 32.91800 34.28400
H  2.09400 38.23900 30.49000
H  2.67300 39.10600 29.11600
H  3.56500 37.60000 29.64600
H  4.49500 38.27300 27.05000
H  3.46700 39.75300 27.25100
H  4.26100 39.42600 25.76600
H  0.26800 35.14100 22.99800
H  -2.55100 33.95900 22.70900
H  -1.45900 37.21500 23.08100
H  -2.52600 36.01500 22.18200
H  -0.87600 36.55900 21.58300
H  -0.26800 31.96500 23.29700
H  0.21800 33.22500 22.12000
H  -1.23500 30.80400 21.92100
H  -0.50400 31.78500 20.61200
H  -2.18400 32.10300 21.24100
H  -3.97600 29.86000 24.99500
H  -5.56200 30.55600 25.43600
H  -4.90700 29.13000 26.31400
H  -3.53000 30.83100 31.30700
H  -6.02900 31.86600 34.05100
H  -7.22500 30.75900 33.46800
H  -7.26600 32.42700 32.83600

