158

Mg 25.05800 1.24200 30.13800
C  27.46900 1.14300 32.79200
C  22.63400 1.00000 32.49000
C  22.93600 1.15000 27.49500
C  27.78400 0.73100 27.91000
N  25.07100 1.10000 32.41300
C  26.19800 1.21300 33.29300
C  25.69000 1.40800 34.74700
C  24.12900 1.32900 34.66500
C  23.91500 1.09700 33.11100
C  23.40000 0.34100 35.59100
C  26.22000 2.64800 35.55700
C  26.39100 2.53200 37.11500
H  25.69000 3.62800 37.91300
N  23.13800 1.05500 30.03200
C  22.24500 1.01700 31.12300
C  20.85100 0.92600 30.61400
C  20.91300 0.98200 29.15800
C  22.37700 1.05500 28.82900
C  19.76100 0.80800 31.56500
C  19.78300 0.79900 28.26200
O  19.93600 0.68800 27.06900
C  18.35600 0.56000 28.77100
N  25.31200 0.75100 27.99300
C  24.27600 1.13100 27.11100
C  24.83600 1.36700 25.69900
C  26.34400 0.92800 25.85600
C  26.51300 0.84000 27.36800
C  24.12400 0.63000 24.57500
C  27.21400 2.06500 25.21400
C  27.38400 3.32900 26.06900
N  27.15700 1.08400 30.26600
C  28.10000 0.75300 29.29300
C  29.39200 0.50600 29.89200
C  29.20200 0.67400 31.26200
C  27.80500 0.94800 31.43200
C  30.63300 0.06900 29.19500
C  29.83900 0.56300 32.52700
O  30.90800 0.11200 32.84400
C  28.76900 0.95200 33.57600
C  28.77700 -0.00200 34.66100
O  28.55300 -1.18900 34.56400
O  29.06200 0.62100 35.86400
C  29.08700 -0.24300 37.03400
H  21.92000 1.05400 33.31400
H  22.29700 1.40500 26.64700
H  28.66100 0.74600 27.25900
H  26.06800 0.55800 35.31500
H  23.76500 2.34400 34.82900
H  23.01600 -0.57700 35.14600
H  22.58700 0.81900 36.13700
H  24.18500 0.08500 36.30300
H  25.45000 3.39600 35.37000
H  27.20900 3.03200 35.30600
H  27.38800 2.54700 37.55500
H  25.83000 1.63200 37.36800
H  19.92400 -0.15400 32.05000
H  18.72500 0.89300 31.23600
H  19.91900 1.65100 32.23800
H  17.65300 0.50100 27.93900
H  17.91200 1.32900 29.40300
H  18.25800 -0.29600 29.43800
H  24.76000 2.42800 25.45800
H  26.58300 -0.09200 25.55500
H  23.58000 -0.20000 25.02600
H  24.81700 0.10400 23.91900
H  23.50200 1.22400 23.90500
H  26.83100 2.35300 24.23500
H  28.16100 1.57700 24.98400
H  28.46900 3.39100 26.15300
H  26.89400 3.41100 27.03900
H  26.99300 4.12900 25.44100
H  31.32300 0.90100 29.05500
H  30.33800 -0.40700 28.25900
H  31.04400 -0.73500 29.80500
H  29.08800 1.88600 34.04000
H  29.10900 -1.31900 36.86600
H  28.21700 -0.07300 37.66900
H  29.92000 0.06500 37.66600
Mg 10.20300 47.11700 26.04400
C  8.09000 47.33700 28.65300
C  12.74400 48.59300 27.85300
C  12.34200 47.10900 23.23700
C  7.57400 46.72400 23.87800
N  10.42300 47.77600 28.04000
C  9.46800 47.67400 29.00000
C  10.00200 48.19600 30.36500
C  11.27900 48.97200 29.86600
C  11.51000 48.44000 28.49300
C  10.90700 50.47800 29.67000
C  10.25000 47.13400 31.44300
C  9.81800 47.35600 32.91100
H  9.76400 46.01100 33.64500
N  12.26800 47.59900 25.66100
C  13.13500 48.04200 26.61700
C  14.47600 48.09400 26.06400
C  14.42500 47.63700 24.71900
C  12.97400 47.40800 24.48500
C  15.69100 48.41900 26.80000
C  15.55700 47.39900 23.68400
O  15.33700 47.10900 22.50900
C  16.97900 47.68700 24.08200
N  10.00200 46.86000 23.90200
C  10.98700 46.80200 23.01500
C  10.48900 46.42700 21.64000
C  8.94900 46.33600 21.78800
C  8.83200 46.61800 23.28100
C  10.91600 47.24500 20.41200
C  8.29200 44.97800 21.23300
C  6.82000 45.07000 20.82100
N  8.14800 46.96300 26.21800
C  7.17700 46.77500 25.23000
C  5.87000 46.70000 25.90100
C  6.14200 46.97100 27.22200
C  7.54700 47.09200 27.37300
C  4.56600 46.32200 25.31700
C  5.61500 46.99800 28.56900
O  4.48900 46.84600 28.92900
C  6.80400 47.25300 29.54000
C  6.92300 46.03800 30.39700
O  7.44000 44.97700 30.05200
O  6.43000 46.32600 31.66700
C  6.54800 45.26600 32.68400
H  13.48600 49.15900 28.42000
H  12.83400 47.17100 22.26500
H  6.61700 46.68400 23.35400
H  9.27700 48.90800 30.75900
H  12.16300 48.71700 30.45100
H  11.32400 51.06200 30.49000
H  9.83400 50.66800 29.64400
H  11.28900 50.83100 28.71100
H  11.32100 46.99600 31.59000
H  9.86000 46.20500 31.02700
H  8.82500 47.80600 32.92600
H  10.55000 47.97500 33.43000
H  15.51100 48.39400 27.87400
H  16.21000 49.33600 26.52000
H  16.42600 47.61700 26.72200
H  17.16900 47.00300 24.91000
H  17.05300 48.70800 24.45600
H  17.59100 47.51300 23.19700
H  10.84100 45.45600 21.29200
H  8.47800 47.17000 21.26800
H  11.07800 48.20000 20.91100
H  10.07800 47.21600 19.71500
H  11.82200 46.95600 19.87800
H  8.42900 44.27500 22.05400
H  8.86200 44.66600 20.35800
H  6.34300 44.36100 21.49800
H  6.51300 44.67700 19.85200
H  6.36400 46.05400 20.93500
H  4.75600 46.06400 24.27500
H  3.94400 47.19300 25.52000
H  4.25700 45.40900 25.82700
H  6.60000 48.19000 30.05900
H  6.89200 45.93300 33.47500
H  7.23800 44.43900 32.51400
H  5.60700 44.77500 32.93200

