158

Mg 0.81100 7.56800 25.45000
C  1.15200 9.64900 28.31800
C  1.07200 4.98800 27.45900
C  0.72200 5.65500 22.65500
C  1.11900 10.49300 23.43800
N  1.16700 7.42200 27.73600
C  1.03700 8.30500 28.71600
C  1.04100 7.67500 30.09900
C  1.45200 6.20400 29.80000
C  1.20300 6.15100 28.20200
C  2.91900 5.85000 30.20900
C  -0.25000 7.83500 30.88100
C  -0.42700 7.83200 32.43900
H  0.76200 7.65300 33.39900
N  1.01000 5.59500 25.06900
C  0.99200 4.70400 26.07700
C  0.93900 3.39800 25.54800
C  0.73500 3.48000 24.14100
C  0.78200 4.98600 23.86700
C  1.31000 2.20400 26.34300
C  0.62600 2.37100 23.09000
O  0.47400 2.53100 21.87100
C  0.44800 0.95900 23.61000
N  0.90500 8.02900 23.39500
C  0.87400 7.03900 22.46100
C  0.72400 7.59200 21.07800
C  0.86600 9.18100 21.27400
C  1.02800 9.24000 22.78700
C  1.82700 7.05700 20.11800
C  -0.19100 10.03000 20.67200
C  -1.49600 10.05600 21.46300
N  1.03200 9.68700 25.77700
C  1.09300 10.69500 24.82500
C  1.16300 11.93500 25.52900
C  1.23600 11.61200 26.91000
C  1.06800 10.21200 27.02700
C  1.15600 13.26700 24.96300
C  1.39600 12.11500 28.27200
O  1.59200 13.27200 28.57100
C  1.16200 10.90400 29.24000
C  2.18800 10.67600 30.34100
O  3.24200 10.02500 30.20900
O  1.71400 11.27400 31.45700
C  2.53000 11.26800 32.76800
H  0.86400 4.08600 28.03800
H  0.67100 4.92400 21.84500
H  1.23100 11.35600 22.77800
H  1.78900 8.18800 30.70300
H  0.74200 5.56800 30.33000
H  3.59300 6.70600 30.21600
H  3.30400 5.15500 29.46300
H  3.02500 5.41900 31.20500
H  -0.96400 7.14200 30.43600
H  -0.53100 8.83300 30.54500
H  -1.14500 7.07800 32.76200
H  -0.87300 8.80100 32.66100
H  1.78000 1.43800 25.72600
H  0.50900 1.81600 26.97200
H  2.08000 2.41600 27.08500
H  1.38200 0.42600 23.79100
H  -0.16100 0.39600 22.90300
H  -0.18800 0.97100 24.49400
H  -0.19400 7.34100 20.54700
H  1.80000 9.54400 20.84400
H  2.26500 7.82500 19.48100
H  1.46900 6.30900 19.40900
H  2.62900 6.59300 20.69300
H  -0.34300 9.68700 19.64800
H  0.27000 11.00500 20.52100
H  -1.64500 9.31700 22.25000
H  -2.34300 9.97900 20.78100
H  -1.65600 11.04100 21.90300
H  0.32400 13.36500 24.26600
H  2.13600 13.46000 24.52700
H  0.79200 13.94900 25.73100
H  0.11700 10.95900 29.54400
H  3.45600 10.70400 32.65100
H  1.93700 10.92400 33.61500
H  2.82300 12.29900 32.96500
Mg 27.35000 50.16600 27.02600
C  25.11500 51.07900 29.65500
C  29.70500 49.42600 29.36900
C  29.57300 49.63700 24.55700
C  24.99500 51.23200 24.75500
N  27.33000 50.28800 29.24200
C  26.33600 50.65800 30.11100
C  26.73600 50.38100 31.60600
C  28.27400 49.89300 31.41200
C  28.46400 49.81700 29.90200
C  29.21000 50.93300 32.07100
C  25.86100 49.29100 32.22300
C  25.09100 49.67100 33.51500
H  25.25500 48.77100 34.70000
N  29.36800 49.53800 26.95400
C  30.15400 49.22500 28.00300
C  31.48900 48.68700 27.55100
C  31.49300 49.04600 26.17700
C  30.09400 49.40700 25.82200
C  32.59700 48.16500 28.42900
C  32.62900 49.11700 25.19700
O  32.52300 49.65000 24.10000
C  33.98700 48.67200 25.65500
N  27.30600 50.43900 24.94500
C  28.26900 49.98800 24.08900
C  27.80500 50.07200 22.60900
C  26.38000 50.71800 22.73900
C  26.22800 50.76600 24.21300
C  28.88500 50.70000 21.61500
C  25.20600 50.00500 22.06400
C  24.28500 50.72500 21.07900
N  25.37200 50.92800 27.10800
C  24.58900 51.39800 26.11900
C  23.38700 51.89000 26.61200
C  23.56900 51.82700 28.02000
C  24.78500 51.21300 28.27400
C  22.19800 52.53300 25.79100
C  22.96900 52.11700 29.27700
O  21.96200 52.69700 29.61500
C  23.92900 51.56200 30.43400
C  24.08600 52.77300 31.30000
O  24.36400 53.85100 30.90100
O  23.70100 52.39000 32.54300
C  23.87200 53.36600 33.61300
H  30.36600 49.08800 30.17000
H  30.26700 49.47900 23.72900
H  24.23600 51.35600 23.98000
H  26.68300 51.26000 32.24800
H  28.38200 48.90500 31.86000
H  29.81200 50.54900 32.89500
H  28.67500 51.74300 32.56600
H  29.83900 51.42600 31.33000
H  26.36600 48.35800 32.47500
H  25.07100 49.00200 31.53000
H  24.05000 49.58400 33.20400
H  25.29800 50.68900 33.84600
H  33.28700 47.52100 27.88300
H  32.21700 47.51300 29.21500
H  33.09100 48.96700 28.97800
H  34.72700 49.06200 24.95700
H  33.94200 47.58500 25.72500
H  34.06500 49.20700 26.60100
H  27.84000 49.07300 22.17300
H  26.50400 51.76700 22.46700
H  29.69500 51.21000 22.13700
H  28.32000 51.39400 20.99200
H  29.26600 49.98100 20.89000
H  24.68300 49.44500 22.84000
H  25.64900 49.23400 21.43400
H  24.53400 50.26500 20.12200
H  24.57300 51.77600 21.10800
H  23.23000 50.75400 21.35200
H  22.16000 51.86500 24.93000
H  22.39900 53.58500 25.59000
H  21.28300 52.49100 26.38200
H  23.43200 50.77900 31.00700
H  24.16400 54.35000 33.24700
H  24.61700 53.02000 34.33000
H  22.90000 53.52700 34.08000

