158

Mg 35.80600 1.62200 29.94800
C  33.63300 2.91500 32.23400
C  38.23700 1.35900 32.29600
C  38.06500 0.69800 27.47400
C  33.39400 2.10200 27.42000
N  35.90400 2.14400 31.96100
C  34.84700 2.58700 32.71900
C  35.26400 2.64100 34.24000
C  36.77200 2.31800 34.19400
C  37.01300 1.82100 32.70700
C  37.82000 3.41100 34.66200
C  34.32700 1.63400 35.09000
C  33.87800 2.06500 36.46600
H  34.69700 3.09500 37.22500
N  37.87800 1.15800 29.94900
C  38.72300 0.98100 31.02700
C  39.99500 0.50300 30.67200
C  39.91800 0.26300 29.20500
C  38.60000 0.72600 28.83400
C  41.21000 0.35400 31.58200
C  40.88500 -0.39500 28.19800
O  40.74300 -0.40600 26.96600
C  42.12300 -0.98800 28.75200
N  35.76400 1.57900 27.74900
C  36.78700 1.13000 26.98800
C  36.55700 1.31800 25.53000
C  35.02000 1.56600 25.42800
C  34.67300 1.74100 26.97000
C  37.46400 2.34500 24.81300
C  34.21900 0.53300 24.68800
C  34.27500 -0.83800 25.32100
N  33.82500 2.19400 29.84900
C  32.97700 2.39300 28.76000
C  31.73200 2.97200 29.22100
C  31.93200 3.00600 30.62300
C  33.25100 2.73700 30.89300
C  30.53400 3.23300 28.45400
C  31.24400 3.46000 31.76700
O  30.08300 3.78200 31.95300
C  32.38800 3.45200 32.95400
C  32.54800 4.76500 33.65200
O  33.22600 5.66300 33.24000
O  32.12700 4.64900 34.91600
C  32.01400 5.92000 35.63500
H  39.06500 1.41900 33.00600
H  38.59100 0.39800 26.56500
H  32.53800 2.19800 26.74900
H  35.03600 3.66300 34.54400
H  36.93100 1.54200 34.94300
H  37.21000 4.19200 35.11700
H  38.29600 3.96500 33.85300
H  38.55600 3.09800 35.40300
H  34.96200 0.77200 35.29400
H  33.51300 1.24700 34.47700
H  33.90800 1.19400 37.12100
H  32.82400 2.32200 36.36300
H  41.91100 1.15800 31.35700
H  41.71700 -0.60500 31.48000
H  40.95700 0.49000 32.63400
H  42.66700 -1.47300 27.94100
H  41.80300 -1.77000 29.44000
H  42.78700 -0.20400 29.11800
H  36.75400 0.41100 24.95900
H  34.78600 2.56100 25.04900
H  37.85000 3.01100 25.58500
H  36.98700 2.88900 23.99800
H  38.33200 1.83900 24.39100
H  34.49400 0.59400 23.63500
H  33.21800 0.95800 24.62000
H  33.27200 -1.02200 25.70600
H  34.94000 -0.84400 26.18400
H  34.42700 -1.67500 24.64000
H  29.75000 3.37200 29.19900
H  30.23200 2.43000 27.78200
H  30.53700 4.20500 27.96000
H  31.95800 2.72200 33.64000
H  32.19900 5.75900 36.69700
H  31.02400 6.36000 35.51300
H  32.65900 6.70500 35.24000
Mg 26.54400 49.82100 26.85400
C  24.47300 51.04900 29.36100
C  28.84400 49.01600 29.20700
C  28.53100 48.86300 24.29800
C  24.04500 50.91600 24.57300
N  26.62500 50.08700 29.04400
C  25.68000 50.53500 29.94500
C  26.06700 50.17800 31.39100
C  27.59500 49.82200 31.27300
C  27.71700 49.66300 29.72700
C  28.57100 50.83900 31.93500
C  25.19800 49.09600 32.01200
C  24.56500 49.14600 33.46800
H  25.25600 49.95600 34.50900
N  28.42100 48.95500 26.78800
C  29.20900 48.71700 27.86500
C  30.47900 48.26600 27.41800
C  30.44300 48.21800 25.99600
C  29.10000 48.73500 25.60700
C  31.57800 47.98200 28.40500
C  31.48100 47.80000 24.97400
O  31.31100 47.85000 23.79500
C  32.80900 47.39000 25.48500
N  26.31200 49.92900 24.74900
C  27.23800 49.37700 23.94800
C  26.76700 49.43300 22.51600
C  25.32800 50.01000 22.53400
C  25.17300 50.26800 24.03200
C  27.75900 50.17000 21.65900
C  24.21600 49.12900 21.97400
C  24.17800 47.74000 22.62100
N  24.75300 50.94400 26.88000
C  23.79600 51.18600 25.88900
C  22.65900 51.94800 26.39700
C  22.83200 51.91400 27.77200
C  24.11800 51.24600 28.02100
C  21.53700 52.53100 25.56400
C  22.24400 52.12800 29.08300
O  21.13500 52.69600 29.38300
C  23.23600 51.53000 30.21700
C  23.40500 52.51600 31.30300
O  24.40800 53.07100 31.63600
O  22.23200 52.53200 32.04700
C  22.28800 53.41500 33.28800
H  29.57900 48.75500 29.97100
H  29.09400 48.43900 23.46400
H  23.29500 51.14900 23.81400
H  26.13000 51.07500 32.00800
H  27.69700 48.82900 31.71000
H  28.11100 51.80900 32.12000
H  29.54400 50.95600 31.45800
H  28.95500 50.34100 32.82500
H  25.73100 48.14600 32.05700
H  24.28900 49.13800 31.41100
H  24.49900 48.10700 33.79200
H  23.62900 49.68800 33.33400
H  31.67600 46.90500 28.53900
H  31.51900 48.54800 29.33400
H  32.42700 48.39600 27.86100
H  33.46800 46.93500 24.74500
H  32.59700 46.74500 26.33900
H  33.25300 48.32800 25.81600
H  26.87900 48.36600 22.32200
H  25.28800 50.89500 21.90000
H  28.36900 49.47900 21.07700
H  28.48800 50.70200 22.27000
H  27.26300 50.83600 20.95200
H  24.52300 49.20400 20.93100
H  23.28300 49.69200 21.95300
H  24.58600 47.77000 23.63100
H  24.81200 47.10400 22.00400
H  23.17700 47.31500 22.69500
H  20.64500 52.53600 26.18900
H  21.34100 51.75600 24.82200
H  21.70200 53.42300 24.95900
H  22.83700 50.61100 30.64600
H  21.35900 53.41800 33.85700
H  22.57200 54.45800 33.14400
H  22.89700 52.92900 34.05000

