158

Mg 41.01800 7.91500 29.63100
C  42.73600 9.29200 32.39600
C  38.51800 6.95300 31.82700
C  39.74200 6.20200 27.12900
C  43.98300 8.38700 27.80500
N  40.76500 8.15100 31.92500
C  41.51400 8.77600 32.81600
C  40.89000 8.83700 34.21900
C  39.51000 8.14800 33.94500
C  39.59200 7.65500 32.50500
C  39.08900 7.05800 34.92000
C  40.86100 10.27900 34.88200
C  39.85100 10.41900 36.10200
H  40.31100 11.30700 37.27000
N  39.25100 6.88800 29.49400
C  38.36900 6.52800 30.47300
C  37.27100 5.86900 29.83000
C  37.53500 5.76100 28.46900
C  38.91200 6.27500 28.31200
C  36.07300 5.40000 30.64300
C  36.72000 5.18800 27.34000
O  37.11300 5.19800 26.19100
C  35.29900 4.61900 27.65000
N  41.76300 7.44100 27.69300
C  41.01800 6.72800 26.79300
C  41.74000 6.55600 25.39700
C  43.16300 7.32400 25.65000
C  43.00900 7.69300 27.15900
C  41.90400 5.04400 24.87800
C  43.38700 8.57500 24.75400
C  42.51300 9.80600 24.97100
N  42.87000 8.70900 29.95700
C  43.99300 8.84300 29.11400
C  45.07000 9.51800 29.74000
C  44.58900 9.77700 31.07800
C  43.29600 9.13800 31.16300
C  46.42900 9.75000 29.13000
C  44.95200 10.30300 32.33700
O  46.00100 10.76700 32.72500
C  43.78900 9.96400 33.30600
C  44.44800 9.05300 34.35600
O  44.71200 7.87500 34.07300
O  44.59900 9.66500 35.54600
C  44.98800 8.69000 36.61800
H  37.58400 6.77700 32.36600
H  39.36100 5.67600 26.25100
H  44.88500 8.32100 27.19300
H  41.57200 8.20900 34.79200
H  38.71400 8.89100 34.00200
H  38.31500 7.34000 35.63500
H  40.02400 6.83900 35.43500
H  38.66500 6.20000 34.39800
H  40.43600 11.01900 34.20400
H  41.82200 10.50700 35.34200
H  39.63800 9.48300 36.61900
H  38.92600 10.82500 35.69300
H  36.26100 5.45100 31.71500
H  35.77000 4.35800 30.53700
H  35.22600 6.04800 30.41500
H  35.36200 3.90600 28.47200
H  34.80800 4.26300 26.74400
H  34.67500 5.42900 28.02700
H  41.14900 7.07100 24.64000
H  43.97700 6.62500 25.46000
H  42.93900 4.70300 24.84000
H  41.47900 4.92800 23.88200
H  41.32000 4.39000 25.52500
H  43.11200 8.15900 23.78500
H  44.44600 8.82500 24.82500
H  41.71200 9.65200 25.69400
H  42.01800 9.98800 24.01700
H  43.05100 10.70400 25.27500
H  46.46100 9.65400 28.04500
H  47.04800 9.09200 29.74000
H  46.73100 10.78100 29.31200
H  43.40600 10.89100 33.73100
H  44.74900 9.13100 37.58600
H  46.06100 8.50100 36.60000
H  44.59900 7.67400 36.55200
Mg -0.11900 43.95200 26.37900
C  2.02000 43.22900 29.23300
C  -2.68100 42.72600 28.21700
C  -1.82700 44.12800 23.64100
C  2.86700 44.94800 24.62400
N  -0.28800 43.18800 28.47500
C  0.65300 42.95500 29.47000
C  0.01100 42.58800 30.76200
C  -1.43800 42.24100 30.32300
C  -1.49700 42.76900 28.92000
C  -1.84400 40.71900 30.37900
C  0.01200 43.68600 31.88000
C  0.62200 43.38000 33.28600
H  0.13300 42.08200 33.85500
N  -2.04700 43.53700 25.95100
C  -2.93900 42.99300 26.82400
C  -4.25500 42.85100 26.11400
C  -3.99200 43.08000 24.75700
C  -2.58900 43.65100 24.76100
C  -5.47900 42.34700 26.80100
C  -4.83700 42.97500 23.53900
O  -4.48200 43.28200 22.40900
C  -6.17800 42.36300 23.66300
N  0.38500 44.67400 24.46400
C  -0.54800 44.60500 23.51500
C  0.02500 44.96800 22.14000
C  1.48600 45.50600 22.50400
C  1.63100 45.01300 23.95300
C  -0.09900 43.82700 21.07200
C  1.72300 47.02300 22.39600
C  1.20600 47.95900 23.50500
N  2.04400 44.03000 26.80800
C  3.04700 44.48600 25.99800
C  4.25400 44.36900 26.78800
C  3.87400 43.90200 28.01600
C  2.51000 43.75300 28.00800
C  5.62400 44.74000 26.26000
C  4.40200 43.50100 29.30400
O  5.56200 43.40200 29.71600
C  3.19000 43.14600 30.15900
C  3.42000 41.85600 30.85800
O  3.20400 40.76000 30.39300
O  3.90700 42.08100 32.17200
C  4.14600 40.88500 32.98600
H  -3.54300 42.45200 28.82800
H  -2.41200 44.22200 22.72400
H  3.69800 45.20000 23.96200
H  0.57000 41.77100 31.21900
H  -2.15500 42.77200 30.94900
H  -1.08600 40.20200 30.96800
H  -1.74300 40.35100 29.35800
H  -2.83400 40.62800 30.82500
H  -0.97800 44.09500 32.08200
H  0.70300 44.42200 31.46800
H  0.50400 44.25900 33.92000
H  1.70000 43.40900 33.12800
H  -5.45800 42.42400 27.88800
H  -5.64200 41.32700 26.45200
H  -6.34800 42.87000 26.40100
H  -6.13300 41.48900 24.31300
H  -6.57400 42.04500 22.69800
H  -6.84400 43.06500 24.16500
H  -0.55600 45.83900 21.83600
H  2.27000 45.06300 21.89100
H  0.77100 43.95000 20.42600
H  -0.91700 43.92100 20.35900
H  -0.06000 42.79900 21.43400
H  1.28400 47.47800 21.50800
H  2.80300 47.10600 22.27400
H  2.01100 48.64300 23.77600
H  1.18000 47.39300 24.43600
H  0.23300 48.42400 23.34900
H  5.62800 44.47800 25.20200
H  6.29000 44.11100 26.85100
H  5.66000 45.82600 26.35100
H  3.12500 43.89600 30.94700
H  4.82500 40.18400 32.49900
H  3.22400 40.31900 33.11800
H  4.49300 41.13400 33.98900

