158

Mg -2.12400 16.84500 25.87800
C  -2.50300 14.68200 28.61500
C  -2.74500 19.43100 27.96100
C  -2.19900 18.75400 23.18600
C  -1.88400 14.04700 23.82400
N  -2.76800 16.97200 28.04900
C  -2.68800 16.01600 29.00200
C  -2.98600 16.50500 30.43700
C  -3.34100 18.03600 30.11300
C  -3.00400 18.17800 28.67100
C  -4.78200 18.47600 30.48000
C  -1.73500 16.35400 31.37900
C  -2.00000 15.58700 32.71300
H  -2.51000 16.38700 33.94200
N  -2.35000 18.82000 25.61500
C  -2.60800 19.75800 26.59300
C  -2.52600 21.11200 25.97500
C  -2.23800 20.94400 24.59200
C  -2.29400 19.48200 24.38900
C  -2.69900 22.38600 26.81700
C  -1.88700 22.01200 23.59300
O  -1.58400 21.80700 22.42800
C  -1.80600 23.42700 24.05600
N  -2.14800 16.47600 23.84100
C  -2.27900 17.42600 22.89200
C  -2.14000 16.94700 21.46800
C  -1.82700 15.42100 21.68700
C  -1.94100 15.29900 23.23100
C  -3.44900 17.18500 20.65200
C  -0.40100 15.07100 21.18600
C  0.90900 15.51800 22.00200
N  -2.17100 14.76200 26.14800
C  -2.06900 13.70900 25.20500
C  -2.14600 12.45000 25.83200
C  -2.36700 12.79100 27.21300
C  -2.35800 14.20500 27.31600
C  -2.08400 11.17200 24.97700
C  -2.50600 12.27800 28.50400
O  -2.70700 11.11900 28.86000
C  -2.50900 13.40300 29.52800
C  -1.19100 13.21200 30.21400
O  -0.06500 13.48900 29.76200
O  -1.33700 12.63800 31.45500
C  -0.18200 12.17600 32.16900
H  -2.90300 20.25000 28.66600
H  -2.08700 19.38400 22.30100
H  -1.72400 13.17800 23.18200
H  -3.77700 15.82500 30.75400
H  -2.71500 18.78600 30.59800
H  -5.40800 17.63600 30.77800
H  -5.30800 18.97300 29.66500
H  -4.65500 19.14500 31.33100
H  -1.37100 17.28000 31.82400
H  -1.00400 15.82000 30.77100
H  -0.98500 15.26400 32.94600
H  -2.69500 14.76200 32.55600
H  -2.95500 22.25300 27.86800
H  -3.55200 22.81200 26.28800
H  -1.88100 23.09900 26.71100
H  -2.81400 23.63800 24.41300
H  -1.48700 24.07700 23.24200
H  -1.01800 23.39200 24.80900
H  -1.35000 17.45000 20.91000
H  -2.52300 14.70200 21.25700
H  -3.56500 18.14100 20.14000
H  -4.31100 17.11800 21.31500
H  -3.32000 16.40600 19.90000
H  -0.34600 15.39800 20.14800
H  -0.46100 13.98900 21.30300
H  0.55400 16.29200 22.68300
H  1.72100 15.90500 21.38600
H  1.34900 14.73600 22.62100
H  -1.64800 10.47500 25.69300
H  -1.58700 11.23700 24.01000
H  -3.07900 10.83100 24.69000
H  -3.35600 13.22600 30.19100
H  0.66200 11.90000 31.53600
H  -0.37700 11.36900 32.87500
H  0.15100 13.08200 32.67600
Mg 47.17300 15.64700 28.44700
C  45.22800 15.53400 31.40900
C  49.36400 17.55000 29.90000
C  48.78500 15.88800 25.43800
C  44.64400 13.86800 26.87000
N  47.18800 16.50700 30.44000
C  46.38900 16.33400 31.51100
C  46.96000 17.05700 32.78600
C  48.08500 17.95300 32.14400
C  48.22900 17.37100 30.72500
C  47.68500 19.51200 32.15000
C  47.40300 16.07800 33.86700
C  47.29500 16.48900 35.36100
H  48.59500 16.28000 36.10700
N  48.95700 16.42600 27.83700
C  49.72700 17.20300 28.60800
C  50.97100 17.55300 27.86600
C  50.79800 17.01700 26.55600
C  49.48800 16.43500 26.58500
C  52.04900 18.39400 28.45400
C  51.80400 16.99100 25.49100
O  51.62100 16.52900 24.38400
C  53.29000 17.55600 25.66900
N  46.61700 15.25100 26.26700
C  47.53800 15.32600 25.23100
C  47.19900 14.43500 24.01800
C  45.72800 13.96000 24.45200
C  45.66200 14.34600 25.98900
C  47.39600 15.11000 22.75900
C  45.30000 12.48800 24.14300
C  45.78500 11.37700 25.03600
N  45.29500 14.97400 28.98100
C  44.40300 14.22500 28.22600
C  43.22600 13.82900 28.94800
C  43.55200 14.28100 30.24200
C  44.79500 14.93200 30.22500
C  42.08700 13.03500 28.45800
C  43.04200 14.36100 31.60100
O  42.09800 13.85200 32.13200
C  44.11500 15.25500 32.42700
C  43.42100 16.49100 32.91500
O  42.95800 17.38800 32.15300
O  43.24200 16.39000 34.23600
C  43.11900 17.70600 34.85800
H  50.01700 18.18600 30.50100
H  49.41400 15.94300 24.54700
H  43.93900 13.24800 26.31400
H  46.17900 17.75300 33.08900
H  49.04100 17.79100 32.64200
H  47.63400 19.81700 31.10500
H  48.52200 19.99600 32.65400
H  46.68900 19.74700 32.52300
H  48.45300 16.00600 33.58300
H  47.03300 15.05700 33.77400
H  46.52700 15.88900 35.84900
H  47.09100 17.55400 35.47100
H  51.85900 18.71400 29.47800
H  52.08500 19.31100 27.86600
H  52.95700 17.79100 28.49700
H  53.79900 17.06900 26.50000
H  53.13200 18.62600 25.80200
H  53.88500 17.40600 24.76700
H  47.84400 13.57500 24.19700
H  44.95900 14.62200 24.05400
H  46.48400 15.08100 22.16300
H  48.22800 14.63500 22.23900
H  47.79400 16.12000 22.85800
H  45.67100 12.36000 23.12600
H  44.21000 12.51400 24.13000
H  46.48400 11.74100 25.78900
H  46.34100 10.67800 24.41200
H  44.95600 10.93800 25.59000
H  41.56600 12.44200 29.20900
H  42.44900 12.35700 27.68500
H  41.29400 13.62900 28.00400
H  44.67500 14.73600 33.20600
H  43.38400 18.54700 34.21600
H  43.75100 17.78200 35.74200
H  42.12000 17.96800 35.20700

