158

Mg 36.34400 48.99900 24.55300
C  36.40600 47.22100 27.58000
C  35.09500 51.66600 26.30000
C  35.32800 50.46900 21.60200
C  37.15900 46.08900 23.00000
N  35.67200 49.32800 26.70800
C  36.01000 48.55100 27.78900
C  35.77600 49.28100 29.14800
C  35.49300 50.75500 28.66400
C  35.38200 50.59000 27.15000
C  34.22500 51.30700 29.31200
C  36.81800 49.03900 30.30300
C  36.47600 48.65900 31.71100
H  35.06900 48.79800 32.16900
N  35.51200 50.85200 24.00000
C  35.15500 51.85600 24.91700
C  34.66700 52.99600 24.14400
C  34.63700 52.64500 22.76400
C  35.13200 51.25200 22.74300
C  34.15900 54.19800 24.72000
C  34.05200 53.43900 21.54900
O  34.16100 53.11600 20.35300
C  33.66800 54.89400 21.74700
N  36.33000 48.36300 22.53400
C  35.82400 49.16700 21.51100
C  35.89000 48.30800 20.14700
C  36.78400 47.04600 20.56000
C  36.65400 47.10100 22.20500
C  34.53700 47.88700 19.65000
C  38.32600 47.04400 20.13700
C  39.28700 47.79500 21.06700
N  36.86500 47.13600 25.10100
C  37.14800 46.02000 24.34400
C  37.61900 44.95000 25.18600
C  37.26300 45.36000 26.50900
C  36.82300 46.66300 26.34200
C  38.09500 43.58600 24.76300
C  37.23500 44.98900 27.90200
O  37.50800 43.93200 28.43700
C  36.64200 46.10100 28.59800
C  35.31100 45.77500 29.21300
O  34.22900 46.21100 28.85500
O  35.54400 45.08400 30.35800
C  34.41100 44.70000 31.18600
H  34.93900 52.63300 26.78200
H  35.00600 50.86700 20.63800
H  37.54800 45.21200 22.47800
H  34.85500 48.77500 29.44100
H  36.29600 51.43300 28.95300
H  33.86300 50.73900 30.16900
H  33.44200 51.34200 28.55500
H  34.39500 52.27200 29.79000
H  37.20700 50.05600 30.35500
H  37.66600 48.44300 29.96700
H  37.07900 49.25400 32.39700
H  36.75000 47.60400 31.71200
H  34.80700 55.00000 24.36600
H  34.12300 54.11200 25.80600
H  33.13000 54.40200 24.42500
H  33.17500 55.29200 20.86000
H  34.52100 55.47300 22.10100
H  32.86300 55.02200 22.47000
H  36.16800 48.95000 19.31100
H  36.35400 46.10500 20.21700
H  33.88100 47.62200 20.48000
H  34.60200 46.92300 19.14400
H  34.08200 48.54900 18.91400
H  38.43000 47.65000 19.23700
H  38.70500 46.04500 19.92000
H  39.73300 47.16800 21.84000
H  38.90900 48.69700 21.54800
H  40.11200 48.00400 20.38600
H  38.69800 43.56000 23.85500
H  37.20200 43.03600 24.46500
H  38.68200 43.21800 25.60500
H  37.36000 46.33000 29.38600
H  33.99900 43.82600 30.68200
H  33.60600 45.43300 31.13500
H  34.64800 44.67000 32.25000
Mg -6.43900 26.04700 25.68700
C  -4.80700 27.33000 28.44600
C  -8.00600 23.80600 27.84300
C  -7.19100 24.08800 23.00300
C  -4.54900 28.18800 23.55600
N  -6.24400 25.48100 27.87100
C  -5.58700 26.28800 28.76600
C  -6.12800 25.91800 30.21500
C  -6.91800 24.64200 29.94700
C  -7.11500 24.64400 28.47900
C  -6.41000 23.30900 30.59000
C  -6.99100 27.00100 30.95900
C  -7.08300 27.07800 32.52900
H  -6.34400 26.07300 33.43200
N  -7.62700 24.30900 25.35400
C  -8.23100 23.61100 26.38600
C  -9.01600 22.57800 25.84900
C  -8.73400 22.56200 24.42800
C  -7.81000 23.68300 24.16500
C  -9.89900 21.72700 26.70300
C  -9.16300 21.53500 23.35700
O  -8.66900 21.54600 22.22200
C  -10.20300 20.57400 23.68500
N  -5.83500 26.03800 23.62100
C  -6.32500 25.15200 22.72600
C  -6.07900 25.64200 21.27800
C  -5.33000 27.03200 21.40300
C  -5.25000 27.13300 22.96500
C  -5.30800 24.64800 20.41500
C  -6.06100 28.31600 20.70000
C  -7.00200 29.16100 21.59000
N  -5.05400 27.57900 25.94800
C  -4.38600 28.37600 24.97800
C  -3.48200 29.22700 25.68100
C  -3.58200 28.87300 27.03300
C  -4.54300 27.83600 27.12900
C  -2.61700 30.30800 25.14300
C  -3.09400 29.13200 28.41700
O  -2.33300 30.05600 28.82500
C  -3.92700 28.18500 29.35700
C  -2.92700 27.46500 30.24800
O  -2.44900 26.37800 29.99000
O  -2.85900 28.16900 31.34500
C  -2.49300 27.35000 32.51400
H  -8.48800 23.08500 28.50800
H  -7.54000 23.59400 22.09400
H  -4.05500 28.89100 22.88100
H  -5.29800 25.68700 30.88200
H  -7.87400 24.65100 30.47100
H  -6.34400 22.59900 29.76600
H  -7.10500 23.02900 31.38200
H  -5.43300 23.53000 31.02000
H  -8.04000 26.87300 30.69400
H  -6.83400 27.96700 30.47800
H  -8.12200 26.87500 32.79200
H  -6.94100 28.08300 32.92800
H  -9.58200 20.68600 26.63600
H  -10.93000 21.92300 26.40800
H  -10.04200 21.98700 27.75100
H  -10.55000 19.90800 22.89600
H  -11.10600 21.05100 24.06700
H  -9.73800 19.81000 24.30900
H  -7.09100 25.82100 20.91300
H  -4.34000 26.94400 20.95500
H  -5.79000 24.68500 19.43800
H  -5.46500 23.67300 20.87600
H  -4.22800 24.78500 20.47000
H  -6.69000 27.94000 19.89200
H  -5.32000 28.97500 20.24800
H  -6.58900 30.16600 21.67500
H  -7.28700 28.69100 22.53100
H  -7.93400 29.24200 21.03100
H  -1.64400 30.45000 25.61400
H  -3.18200 31.23500 25.23900
H  -2.53700 30.25600 24.05700
H  -4.59000 28.87300 29.88100
H  -2.79400 27.86600 33.42600
H  -1.40300 27.36700 32.53800
H  -3.00700 26.38800 32.50500

