158

Mg 29.68400 60.10000 40.13100
C  26.64700 58.60800 39.01900
C  31.25900 57.23000 38.85800
C  32.66500 61.69400 40.08800
C  27.99000 62.85400 40.88800
N  29.02500 58.19800 39.01800
C  27.75000 57.79500 38.64100
C  27.67000 56.41200 37.92600
C  29.09900 55.85700 38.40700
C  29.84900 57.18700 38.71400
C  29.05700 54.88200 39.60700
C  27.47800 56.46500 36.35900
C  26.21600 55.69400 35.92500
H  25.68400 55.98300 34.54200
N  31.75100 59.47800 39.64800
C  32.11100 58.27300 39.20400
C  33.54600 58.15500 39.22900
C  34.03100 59.49600 39.63600
C  32.86800 60.28800 39.83300
C  34.30700 56.93700 38.95400
C  35.49700 59.90000 39.87200
O  36.42300 59.12700 39.49900
C  35.83200 61.16500 40.41500
N  30.25300 62.10900 40.25400
C  31.53500 62.51300 40.27800
C  31.54100 64.04500 40.62900
C  30.03400 64.40000 40.90700
C  29.38200 63.03800 40.68300
C  32.48900 64.37900 41.85700
C  29.40100 65.57400 40.10500
C  28.98800 66.75900 40.97400
N  27.78600 60.57300 40.06800
C  27.16400 61.74100 40.56500
C  25.77900 61.59300 40.59400
C  25.54300 60.34600 40.04700
C  26.73800 59.78100 39.73400
C  24.70500 62.54600 41.00800
C  24.46700 59.45600 39.60500
O  23.28900 59.56200 39.76700
C  25.13000 58.30100 38.81700
C  24.64900 57.12800 39.50700
O  25.09100 56.67400 40.56800
O  23.70200 56.53400 38.80100
C  23.06900 55.33300 39.39300
H  31.65600 56.25100 38.58300
H  33.60300 62.23800 40.21700
H  27.33800 63.66400 41.22200
H  26.89000 55.71300 38.22600
H  29.72500 55.31300 37.69900
H  28.04600 54.71400 39.97600
H  29.57500 55.30400 40.46800
H  29.46900 53.91300 39.32600
H  28.33300 56.06700 35.81300
H  27.27400 57.49100 36.05600
H  25.45300 56.11600 36.58000
H  26.29300 54.61500 36.06300
H  34.76900 56.77300 37.98100
H  33.87700 55.99200 39.28700
H  35.06500 56.99400 39.73600
H  36.89900 61.03500 40.59700
H  35.18900 61.17800 41.29400
H  35.58500 61.92600 39.67500
H  31.80400 64.54300 39.69600
H  29.82600 64.56200 41.96500
H  31.87600 64.84100 42.63100
H  33.15400 65.15100 41.46800
H  33.01800 63.48700 42.19400
H  28.60400 65.21800 39.45100
H  30.14800 66.07100 39.48600
H  28.03800 66.61100 41.48800
H  28.88200 67.67700 40.39700
H  29.66300 66.81000 41.82800
H  24.48200 63.29600 40.24900
H  25.07300 63.05900 41.89600
H  23.74800 62.12700 41.32000
H  24.86000 58.23200 37.76300
H  22.09900 55.67400 39.75500
H  23.47500 54.96900 40.33800
H  22.99800 54.53500 38.65400
Mg 6.46500 56.95000 42.38700
C  5.67200 53.46100 42.16400
C  9.23600 56.37800 40.57000
C  6.88800 60.19800 42.34900
C  3.22100 57.38000 43.71700
N  7.19100 55.13400 41.28800
C  6.82100 53.83800 41.43100
C  7.77800 52.87800 40.60600
C  9.08400 53.79700 40.57900
C  8.51600 55.23800 40.78200
C  10.18400 53.56200 41.66800
C  7.30200 52.57700 39.17300
C  7.69900 51.19700 38.56200
H  6.85200 50.54600 37.53500
N  7.78300 58.23500 41.40700
C  8.94700 57.74800 40.77100
C  9.80000 58.83900 40.59900
C  9.16700 59.98600 41.08800
C  7.87600 59.55800 41.67100
C  11.05800 58.79700 39.72000
C  9.59900 61.47800 40.90800
O  10.57400 61.74000 40.25700
C  8.81900 62.63600 41.43000
N  5.11500 58.56300 42.72800
C  5.59400 59.79200 42.68300
C  4.57900 60.80500 43.03300
C  3.38100 59.92300 43.46400
C  3.87500 58.49700 43.21800
C  5.03800 61.77800 44.14400
C  2.10200 60.28400 42.74000
C  0.88500 60.49500 43.58800
N  4.83100 55.69100 43.05700
C  3.67700 56.03900 43.63600
C  3.07300 54.80900 44.15700
C  3.82100 53.70800 43.60400
C  4.89100 54.31400 42.90600
C  1.82800 54.71700 44.90600
C  3.92200 52.24900 43.45800
O  3.19100 51.39100 43.88400
C  5.19100 52.06500 42.58000
C  4.85400 51.18100 41.44300
O  4.13500 51.48800 40.53500
O  5.29300 49.90400 41.63500
C  4.94800 48.78800 40.81000
H  10.20300 56.20800 40.09100
H  7.16400 61.23700 42.54400
H  2.23000 57.38400 44.17500
H  7.98100 51.94900 41.14000
H  9.58600 53.77000 39.61200
H  11.08100 53.15800 41.19900
H  9.84800 52.82500 42.39700
H  10.55400 54.47800 42.12900
H  7.83600 53.25500 38.50700
H  6.23800 52.81500 39.15600
H  7.70300 50.57600 39.45800
H  8.75500 51.28600 38.30600
H  11.04700 59.57600 38.95700
H  11.13100 57.92500 39.07000
H  12.02000 58.90300 40.22200
H  8.76500 62.56700 42.51700
H  7.87300 62.42000 40.93400
H  9.30000 63.54300 41.06400
H  4.42600 61.23400 42.04300
H  3.15300 60.02200 44.52500
H  5.98700 61.58000 44.64100
H  4.27600 62.04900 44.87500
H  5.05200 62.71500 43.58700
H  1.68100 59.42600 42.21700
H  2.17000 61.15000 42.08100
H  0.46000 61.48600 43.42400
H  1.27900 60.46300 44.60400
H  0.07900 59.78100 43.41600
H  1.97800 53.97800 45.69200
H  1.04600 54.19800 44.35100
H  1.44300 55.60000 45.41700
H  5.90000 51.40600 43.08200
H  3.99500 48.28200 40.96300
H  5.64000 47.95300 40.91400
H  5.09600 49.07900 39.77000

