158

Mg 2.38000 -0.67400 43.28800
C  5.78700 0.06300 42.85500
C  1.75900 2.25200 41.52700
C  -0.78100 -1.55300 42.95600
C  3.26900 -3.75900 44.69700
N  3.65300 0.99700 42.16500
C  4.98900 1.10400 42.18800
C  5.49800 2.24900 41.33600
C  4.21300 3.07600 41.13800
C  3.12200 2.07500 41.66600
C  4.17600 4.50700 41.78300
C  6.10600 1.63800 40.02900
C  7.15100 2.47700 39.28900
H  6.74800 3.02800 37.89400
N  0.74600 0.15900 42.33600
C  0.67900 1.43200 41.75800
C  -0.62600 1.67100 41.38500
C  -1.38900 0.50200 41.61500
C  -0.46100 -0.34800 42.34300
C  -1.10700 2.90900 40.67300
C  -2.87500 0.21600 41.16800
O  -3.45000 1.09700 40.51600
C  -3.59300 -1.11800 41.34900
N  1.34700 -2.39400 43.81000
C  0.02700 -2.49900 43.60100
C  -0.50700 -3.83500 44.15100
C  0.79400 -4.64600 44.46700
C  1.88300 -3.54600 44.32100
C  -1.48300 -3.58700 45.32600
C  1.13900 -5.82400 43.48400
C  1.63700 -7.17100 44.02400
N  4.13300 -1.61000 43.87900
C  4.38300 -2.86100 44.45900
C  5.82100 -3.01200 44.72000
C  6.38800 -1.82400 44.21600
C  5.33600 -1.06100 43.57600
C  6.50500 -4.16900 45.44600
C  7.65700 -1.08300 44.05400
O  8.78800 -1.29400 44.37000
C  7.34000 0.14000 43.18200
C  7.42300 1.24700 44.12800
O  6.65300 1.40700 45.07400
O  8.40800 2.12700 43.79200
C  8.65900 3.23400 44.75700
H  1.40300 3.19100 41.09800
H  -1.85800 -1.72200 43.01000
H  3.44800 -4.70200 45.22000
H  6.30500 2.78200 41.84000
H  4.13600 3.33100 40.08100
H  5.11900 4.59700 42.32300
H  3.33200 4.71600 42.44100
H  4.26700 5.33300 41.07800
H  5.22700 1.36200 39.44600
H  6.61400 0.68900 40.20300
H  7.99600 1.82600 39.06200
H  7.52900 3.30700 39.88500
H  -1.88200 2.78900 39.91600
H  -0.28100 3.33200 40.10100
H  -1.49700 3.62000 41.40100
H  -4.55500 -1.14200 40.83700
H  -3.77500 -1.23500 42.41700
H  -2.96600 -1.89800 40.91700
H  -1.06300 -4.30500 43.33900
H  0.80700 -5.04900 45.48000
H  -1.24500 -4.10900 46.25300
H  -2.49600 -3.85600 45.02700
H  -1.50200 -2.50700 45.47300
H  1.95300 -5.44200 42.86700
H  0.32000 -6.07300 42.80900
H  1.14100 -8.03300 43.57800
H  1.65600 -7.24000 45.11200
H  2.68100 -7.29900 43.74100
H  6.14100 -4.28400 46.46700
H  7.58400 -4.03100 45.36500
H  6.35400 -5.00700 44.76500
H  7.95600 0.18700 42.28300
H  7.69100 3.67100 45.00200
H  9.40000 3.95800 44.41600
H  8.94800 2.76500 45.69700
Mg 48.22500 15.09500 28.42300
C  45.79100 15.07800 30.97600
C  50.12700 17.21600 30.30500
C  50.21300 15.44400 25.72600
C  45.88200 13.53100 26.29900
N  47.94800 16.13000 30.38600
C  46.99400 15.80800 31.35100
C  47.30500 16.45800 32.72500
C  48.54800 17.38800 32.32100
C  48.94200 16.89200 30.91400
C  48.17100 18.87400 32.44500
C  47.70800 15.26300 33.66000
C  47.19300 15.33300 35.08500
H  47.21300 16.65700 35.84600
N  49.92800 16.11800 28.10700
C  50.63500 16.81100 29.01400
C  51.92300 17.17900 28.40300
C  52.05200 16.58700 27.12200
C  50.69200 16.04100 26.94600
C  52.92600 18.06100 29.17500
C  53.23200 16.47200 26.16600
O  53.21800 15.73200 25.16400
C  54.54800 17.04600 26.55300
N  47.92700 14.86300 26.25100
C  48.97400 14.94800 25.39600
C  48.70600 14.26600 24.04800
C  47.39900 13.61700 24.32200
C  47.05600 14.00600 25.72900
C  48.79100 15.21600 22.82400
C  47.28700 12.12200 23.86400
C  47.78300 11.11800 24.90500
N  46.30500 14.29100 28.59700
C  45.52300 13.67200 27.68600
C  44.29200 13.22500 28.32100
C  44.40300 13.72700 29.66500
C  45.61300 14.39500 29.77300
C  43.37400 12.23300 27.75300
C  43.72700 13.71700 30.94700
O  42.66800 13.16000 31.26800
C  44.59300 14.60800 31.87900
C  43.79800 15.64200 32.48700
O  43.22000 16.60200 31.98100
O  43.63100 15.38000 33.79700
C  42.69000 16.21400 34.60300
H  50.83100 17.79000 30.91000
H  50.70400 15.39100 24.75200
H  45.22500 13.04500 25.57500
H  46.64600 17.19200 33.19000
H  49.38400 17.28700 33.01300
H  48.67100 19.44900 31.66500
H  48.64900 19.20300 33.36800
H  47.11700 19.14300 32.38200
H  48.77400 15.03800 33.64500
H  47.30500 14.37000 33.18200
H  47.92200 14.74100 35.63900
H  46.23900 14.80600 35.06300
H  53.61800 17.35800 29.63800
H  52.37800 18.65800 29.90400
H  53.44100 18.71800 28.47400
H  54.94300 16.74200 27.52200
H  54.43400 18.13000 26.56800
H  55.28700 16.75000 25.80900
H  49.45300 13.52400 23.76700
H  46.68500 14.13900 23.68500
H  49.80700 15.19100 22.43000
H  48.53600 16.26200 22.99700
H  48.19400 14.85300 21.98700
H  47.82100 11.95200 22.92900
H  46.22700 11.93500 23.69100
H  46.85200 10.79200 25.37000
H  48.54400 11.40400 25.63100
H  48.22400 10.32800 24.29800
H  42.42000 12.46400 28.22900
H  43.77500 11.27500 28.08400
H  43.29100 12.35700 26.67400
H  45.05500 13.95700 32.62100
H  43.34300 17.06500 34.79400
H  42.34700 15.84900 35.57200
H  41.80500 16.52900 34.05000

