158

Mg 15.78700 51.55900 25.43200
C  17.50500 50.66600 28.34100
C  13.19100 52.74800 27.31600
C  14.32700 52.33500 22.68300
C  18.56000 50.21600 23.61800
N  15.48000 51.68000 27.65700
C  16.35000 51.43100 28.67600
C  15.81600 51.76400 30.09300
C  14.27000 52.25300 29.62600
C  14.30600 52.28800 28.08800
C  13.15000 51.28800 30.21300
C  16.69000 52.91700 30.74200
C  16.30100 53.23100 32.14900
H  15.48600 52.27700 32.92300
N  13.92600 52.33200 25.06100
C  13.00300 52.84600 25.92000
C  11.87300 53.37100 25.24600
C  12.21800 53.32400 23.83200
C  13.51900 52.61600 23.79100
C  10.58100 53.97900 25.88300
C  11.40200 53.70100 22.57600
O  11.81400 53.42100 21.43500
C  10.16700 54.43100 22.84700
N  16.38600 51.36000 23.48700
C  15.53000 51.71700 22.46200
C  16.15300 51.55500 21.04800
C  17.58600 50.90900 21.40000
C  17.54900 50.83800 22.92900
C  15.33600 50.67200 20.01000
C  18.85500 51.72400 20.84000
C  20.14600 50.90500 20.53900
N  17.59500 50.50400 25.79400
C  18.55800 49.97300 24.99300
C  19.62700 49.38600 25.77100
C  19.18800 49.56200 27.06200
C  18.01700 50.31700 27.05400
C  20.81800 48.57300 25.20900
C  19.52000 49.28000 28.39400
O  20.41700 48.52400 28.83500
C  18.50800 50.07000 29.27200
C  17.89700 49.14200 30.25900
O  17.11800 48.20200 30.06600
O  18.20100 49.50900 31.58300
C  17.67600 48.63900 32.64400
H  12.39000 53.15800 27.93600
H  14.05100 52.69900 21.69200
H  19.38000 49.72000 23.09500
H  15.74000 50.90900 30.76500
H  13.87900 53.16300 30.08100
H  13.65400 50.56900 30.86000
H  12.62800 50.87000 29.35200
H  12.48900 51.86700 30.85800
H  16.74100 53.89300 30.25900
H  17.73700 52.61600 30.71600
H  15.68500 54.12300 32.03300
H  17.26300 53.36400 32.64300
H  10.45600 55.03100 25.62600
H  10.68200 53.89500 26.96500
H  9.59800 53.52600 25.75600
H  10.36000 55.32800 23.43500
H  9.37900 53.80000 23.25900
H  9.72800 54.76500 21.90700
H  16.34500 52.52500 20.58800
H  17.56400 49.91500 20.95200
H  14.66300 51.35300 19.49100
H  14.81100 49.93500 20.61800
H  16.03500 50.38000 19.22600
H  19.06800 52.62400 21.41700
H  18.51300 52.21100 19.92700
H  20.56200 51.06900 19.54500
H  19.90300 49.84700 20.63300
H  20.94500 51.08200 21.25900
H  20.58900 48.24300 24.19600
H  21.01700 47.63200 25.72100
H  21.66500 49.25800 25.17700
H  19.10100 50.82500 29.78800
H  16.72100 48.15700 32.43600
H  17.43900 49.16900 33.56600
H  18.35800 47.82900 32.90000
Mg -9.31600 18.65600 42.93700
C  -5.90200 17.79800 43.08300
C  -8.48200 21.97800 42.60200
C  -12.54500 19.32700 42.38600
C  -10.04700 15.14500 42.76600
N  -7.36100 19.70000 42.63600
C  -6.03800 19.20600 42.82500
C  -5.01800 20.38600 42.81300
C  -5.96300 21.67500 42.97800
C  -7.37800 21.07900 42.61900
C  -5.88500 22.55200 44.31900
C  -4.14300 20.19700 41.55200
C  -4.71000 19.52700 40.27800
H  -4.35400 20.08500 38.91500
N  -10.40400 20.41500 42.68700
C  -9.82900 21.63500 42.57800
C  -10.90600 22.57700 42.26100
C  -12.15700 21.88600 42.18200
C  -11.68300 20.47600 42.42200
C  -10.80200 24.07200 42.04900
C  -13.56900 22.49900 42.08700
O  -13.79400 23.73200 41.94700
C  -14.92600 21.66200 42.16600
N  -10.96600 17.39900 42.46500
C  -12.21900 17.95800 42.46500
C  -13.31500 16.90100 42.34200
C  -12.50000 15.62100 42.57100
C  -11.09900 16.07200 42.56100
C  -14.48100 17.00500 43.34600
C  -12.76300 14.43800 41.55700
C  -13.48100 13.15500 42.16400
N  -8.28400 16.79800 43.03200
C  -8.71300 15.48300 43.01800
C  -7.58200 14.58300 43.32000
C  -6.52800 15.53900 43.39600
C  -6.90800 16.79600 43.13900
C  -7.63900 13.13000 43.58700
C  -5.07600 15.61800 43.61900
O  -4.25800 14.69300 43.93000
C  -4.65800 17.07900 43.42500
C  -3.79800 17.42200 44.65100
O  -2.57700 17.43200 44.70500
O  -4.66100 17.63100 45.69800
C  -3.98800 18.01200 46.98300
H  -8.22700 23.04000 42.58700
H  -13.62200 19.44600 42.24800
H  -10.18200 14.06100 42.77300
H  -4.34100 20.32700 43.66500
H  -5.62800 22.39100 42.22700
H  -5.01600 22.43400 44.96700
H  -6.84600 22.47900 44.82900
H  -5.91500 23.58900 43.98600
H  -3.18900 19.79000 41.88700
H  -3.82200 21.16500 41.16600
H  -5.78800 19.69200 40.28700
H  -4.44100 18.47300 40.21400
H  -10.96600 24.40600 41.02400
H  -9.79000 24.31000 42.37700
H  -11.63800 24.52600 42.58100
H  -14.93800 20.99500 43.02800
H  -15.22900 21.19000 41.23100
H  -15.73600 22.37500 42.31900
H  -13.78900 16.84700 41.36200
H  -12.69000 15.25500 43.58000
H  -14.09300 17.75100 44.04000
H  -14.55200 16.05400 43.87300
H  -15.35100 17.36300 42.79700
H  -11.81400 14.12600 41.12000
H  -13.35100 14.72400 40.68500
H  -13.87700 13.25100 43.17500
H  -12.68200 12.41900 42.25100
H  -14.27500 12.76600 41.52500
H  -6.61400 12.81300 43.77900
H  -7.92600 12.57400 42.69500
H  -8.17200 12.86100 44.49900
H  -4.10200 17.12100 42.48800
H  -4.65600 18.70800 47.49000
H  -2.99300 18.44400 46.87200
H  -3.91400 17.17500 47.67700

