158

Mg 35.72400 2.91500 30.93800
C  33.12300 3.92200 32.93200
C  37.85800 2.93800 33.49400
C  38.26400 1.92900 28.79000
C  33.59200 3.38000 28.15100
N  35.42100 3.37800 32.93200
C  34.33700 3.62200 33.59600
C  34.57300 3.53600 35.09500
C  36.16200 3.47700 35.24600
C  36.53300 3.35000 33.76500
C  36.82300 4.75900 35.94100
C  33.87800 2.30100 35.72700
C  33.41100 2.54900 37.18500
H  34.09800 3.49300 38.14100
N  37.79400 2.48400 31.14900
C  38.49300 2.50000 32.30100
C  39.85900 2.03300 32.14000
C  39.91800 1.71300 30.77700
C  38.61600 2.01400 30.16800
C  40.85300 1.90300 33.27500
C  41.11400 1.04900 29.97700
O  41.12100 0.99500 28.77900
C  42.31700 0.41600 30.69700
N  35.94300 2.76000 28.73600
C  37.02500 2.19300 28.15700
C  36.86500 2.16800 26.61600
C  35.42800 2.72800 26.42600
C  34.93900 3.05000 27.83200
C  38.01300 3.00800 25.81500
C  34.54400 1.78900 25.52400
C  34.15100 0.46100 26.20000
N  33.68800 3.51300 30.55800
C  32.91300 3.66000 29.38700
C  31.63700 4.02200 29.72800
C  31.58800 4.08800 31.15100
C  32.88200 3.79100 31.58400
C  30.47900 4.25200 28.74000
C  30.73500 4.29500 32.30600
O  29.55200 4.46000 32.41800
C  31.76800 4.12800 33.55300
C  31.73700 5.42600 34.34800
O  31.73700 6.54900 33.88400
O  31.50300 5.19300 35.70900
C  31.21000 6.29300 36.58800
H  38.46800 2.76100 34.38300
H  39.02600 1.55900 28.10000
H  32.96000 3.56900 27.28000
H  34.18400 4.45300 35.53800
H  36.46400 2.51300 35.65400
H  37.67600 5.10900 35.36000
H  37.11600 4.44200 36.94200
H  36.03500 5.50900 35.99700
H  34.62600 1.51200 35.80100
H  33.05600 1.98000 35.08600
H  33.32300 1.57600 37.66900
H  32.35100 2.79200 37.25500
H  41.00700 0.85500 33.53300
H  40.47600 2.16100 34.26400
H  41.78300 2.45900 33.15800
H  43.06600 0.06600 29.98700
H  42.02100 -0.17800 31.56200
H  42.86000 1.23800 31.16200
H  36.90200 1.11000 26.35700
H  35.46900 3.73000 26.00000
H  37.66000 3.77600 25.12700
H  38.52200 2.33000 25.13000
H  38.71500 3.47900 26.50400
H  35.12000 1.52100 24.63900
H  33.69700 2.35000 25.13000
H  34.76000 0.27800 27.08500
H  34.18100 -0.40900 25.54400
H  33.13300 0.48700 26.58900
H  30.29300 3.28100 28.28200
H  30.77100 4.89000 27.90600
H  29.61000 4.72100 29.20200
H  31.47500 3.27200 34.16200
H  30.48800 5.99700 37.34800
H  30.64500 7.08100 36.08900
H  32.15600 6.68400 36.96300
Mg 5.67700 54.56100 41.21800
C  5.20800 50.87900 40.58000
C  8.64300 54.16400 39.74000
C  5.68600 57.68500 41.26500
C  2.41300 54.35500 42.54500
N  6.69400 52.74100 40.17200
C  6.38600 51.37400 40.03700
C  7.55800 50.68400 39.41300
C  8.80200 51.70300 39.51900
C  7.97800 52.95800 39.79600
C  9.81800 51.32700 40.61800
C  7.36700 50.00300 38.00400
C  6.37200 50.70400 37.00300
H  5.68000 49.74400 35.98000
N  6.93700 55.76700 40.39400
C  8.21100 55.44500 39.86700
C  8.91700 56.61100 39.58000
C  8.11000 57.72000 40.07200
C  6.83700 57.07600 40.61300
C  10.35300 56.69200 39.13000
C  8.56800 59.15300 40.10300
O  9.64500 59.52900 39.62100
C  7.76800 60.26000 40.80900
N  4.25000 55.85600 41.84900
C  4.49900 57.14300 41.72700
C  3.28900 57.96800 42.24300
C  2.20200 56.91200 42.64900
C  3.04800 55.62800 42.40900
C  3.70100 58.86900 43.38500
C  0.87800 57.00600 41.79300
C  0.87000 56.39100 40.38100
N  4.15600 52.96800 41.69500
C  2.89000 53.10000 42.24000
C  2.24000 51.76100 42.29900
C  3.21700 50.91100 41.69700
C  4.27800 51.71100 41.24400
C  0.82300 51.46900 42.68400
C  3.40500 49.56700 41.24400
O  2.63500 48.60700 41.25100
C  4.72800 49.46400 40.60900
C  4.55500 48.69100 39.34900
O  3.96200 48.96500 38.28500
O  5.14500 47.44700 39.54700
C  5.01300 46.46000 38.46200
H  9.61600 54.12200 39.24600
H  5.65300 58.77300 41.17700
H  1.40600 54.39800 42.96500
H  7.77700 49.90800 40.14700
H  9.37200 51.89600 38.61000
H  9.70900 50.26500 40.83800
H  9.60300 51.96600 41.47500
H  10.85100 51.56000 40.35800
H  6.88500 49.06800 38.28800
H  8.31100 49.92200 37.46500
H  7.10300 51.28700 36.44100
H  5.65500 51.34800 37.51200
H  10.92300 56.80400 40.05200
H  10.51100 57.52500 38.44400
H  10.57200 55.73900 38.64800
H  8.40000 61.08200 41.14800
H  7.45100 59.92100 41.79500
H  7.03000 60.60300 40.08400
H  2.86300 58.57000 41.44100
H  1.97900 57.09600 43.70000
H  3.44600 59.88100 43.06800
H  4.76200 59.06600 43.53900
H  3.17600 58.65500 44.31600
H  0.68300 58.07700 41.74100
H  0.13800 56.64100 42.50500
H  0.71800 57.08000 39.55000
H  -0.00700 55.74800 40.30700
H  1.75500 55.76600 40.26900
H  0.27300 52.38700 42.89100
H  0.71000 50.74600 43.49200
H  0.38900 50.99300 41.80500
H  5.37700 48.90200 41.28200
H  5.86500 45.78900 38.57400
H  5.16500 46.90700 37.47900
H  4.17900 45.75900 38.49900

