158

Mg 1.28100 7.81300 25.79400
C  1.87000 9.82700 28.67300
C  1.63700 5.02700 27.78200
C  0.51300 5.96000 23.11100
C  1.15200 10.72400 23.96000
N  1.76700 7.60700 27.92900
C  1.87200 8.52600 28.98800
C  2.00200 7.84000 30.35900
C  2.18700 6.31700 29.98300
C  1.89300 6.26100 28.42500
C  3.52700 5.71900 30.35800
C  0.72700 8.24100 31.25500
C  0.99600 8.63000 32.70200
H  2.07500 7.75100 33.45100
N  1.10500 5.77100 25.43800
C  1.21400 4.75000 26.38500
C  0.71100 3.47100 25.86600
C  0.46000 3.74700 24.46000
C  0.61500 5.21900 24.28400
C  0.55300 2.23500 26.75800
C  0.07900 2.74800 23.40000
O  -0.07000 3.10500 22.22600
C  -0.23000 1.33900 23.70500
N  1.01600 8.21700 23.74700
C  0.63000 7.36700 22.82200
C  0.47700 8.07000 21.48300
C  0.70700 9.59700 21.78200
C  0.94200 9.56200 23.28600
C  1.40400 7.34600 20.40800
C  -0.52600 10.53100 21.37400
C  -0.10900 11.81500 20.70300
N  1.48200 9.89200 26.19000
C  1.27700 10.96900 25.33800
C  1.51500 12.21800 26.01900
C  1.75900 11.81000 27.40800
C  1.64700 10.40400 27.42700
C  1.36400 13.65100 25.50400
C  2.09800 12.26500 28.67800
O  2.40400 13.35700 29.03200
C  2.09100 10.96600 29.60900
C  3.30900 10.88800 30.31900
O  4.41100 10.65700 29.78900
O  3.06500 11.15300 31.66300
C  4.25100 11.30500 32.54700
H  1.90900 4.11300 28.31300
H  0.16100 5.43900 22.21800
H  1.04200 11.61600 23.33900
H  2.87100 8.37200 30.74800
H  1.38800 5.79300 30.50700
H  3.38500 4.97100 31.13800
H  4.05200 6.55800 30.81600
H  4.14300 5.43200 29.50700
H  -0.06100 7.48900 31.29200
H  0.28500 9.16200 30.87200
H  0.02100 8.38000 33.12100
H  1.03100 9.71400 32.81600
H  -0.32400 1.77500 26.30100
H  0.33800 2.56200 27.77500
H  1.34200 1.48200 26.77000
H  0.55100 0.94300 24.35400
H  -0.38500 0.68600 22.84600
H  -1.14200 1.33200 24.30100
H  -0.56300 7.96500 21.17500
H  1.62700 10.00200 21.36100
H  2.24800 6.80400 20.83500
H  1.80400 8.03100 19.65900
H  0.70500 6.62100 19.99300
H  -1.04600 10.78600 22.29700
H  -1.17900 10.02400 20.66200
H  0.91000 12.08100 20.42000
H  -0.59900 12.58900 21.29400
H  -0.68800 11.78400 19.78000
H  1.40700 14.41900 26.27700
H  0.58200 13.88800 24.78300
H  2.22800 13.84100 24.86800
H  1.25100 11.03100 30.30000
H  4.78800 12.23500 32.35900
H  5.01800 10.54900 32.37700
H  4.02200 11.07900 33.58800
Mg 43.82800 3.45500 48.04900
C  41.52600 5.91700 47.13200
C  41.30000 1.15700 47.72600
C  46.04900 1.02700 48.22200
C  46.39200 5.86800 47.83000
N  41.72500 3.54000 47.25400
C  40.92300 4.68100 47.02400
C  39.44500 4.31200 46.77100
C  39.44100 2.80200 47.28100
C  40.93200 2.48400 47.59000
C  38.46700 2.63300 48.57300
C  39.06100 4.50000 45.22000
C  37.86400 5.38600 44.95100
H  38.00300 6.25500 43.77400
N  43.68700 1.33400 47.89100
C  42.56500 0.54700 47.92900
C  42.88400 -0.84700 48.04900
C  44.29200 -0.89300 48.31300
C  44.74200 0.47600 48.14400
C  41.83600 -1.92400 48.11100
C  45.04800 -2.16700 48.75400
O  44.49700 -3.24400 48.87300
C  46.49200 -2.16900 49.04500
N  45.93600 3.41100 47.59400
C  46.63600 2.26700 47.90100
C  48.18800 2.49000 47.82500
C  48.21500 4.04900 47.62100
C  46.78100 4.49700 47.58700
C  48.92700 2.03500 49.11200
C  49.00500 4.43300 46.35300
C  50.42900 3.86800 46.27200
N  43.99200 5.54400 47.74000
C  45.11100 6.32400 47.60300
C  44.65300 7.68900 47.43500
C  43.23900 7.57600 47.27700
C  42.91100 6.23700 47.40800
C  45.52400 8.87700 47.27400
C  42.00800 8.36900 47.15500
O  41.82800 9.57600 47.03500
C  40.86200 7.29900 47.14900
C  40.06000 7.47400 48.39500
O  40.27800 7.01100 49.51400
O  39.09700 8.41700 48.05700
C  38.07900 8.89200 49.03900
H  40.44200 0.48300 47.74800
H  46.79600 0.24400 48.37400
H  47.18200 6.61200 47.94900
H  38.85500 4.94200 47.43800
H  39.02600 2.25800 46.43200
H  37.87100 1.72100 48.52800
H  37.72300 3.42900 48.59400
H  39.03300 2.68100 49.50400
H  38.69100 3.55400 44.82700
H  39.84900 4.88500 44.57300
H  37.66300 6.02500 45.81100
H  37.01800 4.72300 44.77100
H  42.13100 -2.64400 47.34900
H  40.80100 -1.73300 47.82800
H  41.74800 -2.57600 48.98000
H  47.04000 -1.96900 48.12500
H  46.74900 -3.09200 49.56600
H  46.62000 -1.39600 49.80300
H  48.58800 2.01600 46.92900
H  48.68000 4.47000 48.51200
H  49.73000 2.71600 49.39200
H  49.28600 1.08600 48.71500
H  48.32300 1.82300 49.99500
H  49.02300 5.52200 46.40200
H  48.55100 4.00500 45.45900
H  50.53200 3.16300 45.44700
H  50.70400 3.33200 47.18000
H  51.11500 4.71000 46.18200
H  45.12200 9.70100 47.86200
H  45.59600 9.25900 46.25600
H  46.57100 8.81400 47.57100
H  40.27100 7.52800 46.26200
H  37.75800 9.87500 48.69600
H  38.35700 8.98300 50.09000
H  37.23800 8.20300 48.96300

