158

Mg 35.73000 2.15300 30.13600
C  33.18800 3.51000 32.19200
C  37.84800 2.00500 32.81700
C  38.26700 1.49300 28.04100
C  33.55500 2.62100 27.37600
N  35.59000 2.85400 32.27500
C  34.44000 3.28800 32.95500
C  34.70400 3.28500 34.38900
C  36.30500 3.19400 34.52900
C  36.62200 2.60400 33.13900
C  37.02400 4.56700 34.75100
C  33.98100 2.13600 35.08600
C  33.39900 2.38300 36.54900
H  33.99600 3.59000 37.39500
N  37.69700 1.59900 30.43100
C  38.34600 1.53800 31.63100
C  39.62500 1.02400 31.41200
C  39.89300 0.97100 30.01500
C  38.62400 1.39000 29.43800
C  40.55700 0.70600 32.52300
C  41.14700 0.56400 29.22300
O  41.25500 0.77700 27.98800
C  42.22600 -0.13700 29.96700
N  35.94100 2.19100 28.01300
C  37.07100 1.85200 27.40600
C  36.79800 1.68800 25.85600
C  35.31000 2.08400 25.70900
C  34.87300 2.24100 27.16600
C  37.77800 2.48000 24.96000
C  34.37600 1.06600 24.83000
C  33.67000 -0.08600 25.47300
N  33.76000 2.95800 29.78500
C  33.02500 2.97000 28.59200
C  31.65300 3.35100 28.90700
C  31.64200 3.57600 30.35300
C  32.91700 3.32800 30.80300
C  30.54600 3.44200 27.95600
C  30.82200 3.96700 31.52100
O  29.60800 4.26000 31.62500
C  31.82800 3.81700 32.78100
C  31.86200 5.10000 33.48100
O  32.07700 6.17400 32.99700
O  31.64700 4.92700 34.83100
C  31.71200 6.08300 35.68000
H  38.47000 1.79800 33.69100
H  39.09300 1.27500 27.36100
H  32.83900 2.42000 26.57600
H  34.36300 4.26800 34.71500
H  36.71800 2.49300 35.25400
H  37.67600 4.68100 33.88500
H  37.68700 4.49700 35.61300
H  36.32200 5.38000 34.93700
H  34.58700 1.26300 35.33000
H  33.13300 1.81100 34.48500
H  33.57100 1.47800 37.13300
H  32.33700 2.57700 36.40000
H  41.33200 1.47100 32.48800
H  41.00700 -0.28600 32.48800
H  39.99900 0.64100 33.45800
H  42.91100 -0.37100 29.15200
H  41.91200 -1.03300 30.50200
H  42.57700 0.69400 30.58000
H  36.87100 0.63300 25.59300
H  35.18400 3.08500 25.29900
H  38.36700 3.16900 25.56600
H  37.25200 3.12200 24.25300
H  38.42700 1.87800 24.32500
H  35.06400 0.56200 24.15000
H  33.62200 1.64400 24.29700
H  33.81100 -0.92900 24.79600
H  32.58300 -0.08500 25.55300
H  34.19600 -0.30500 26.40300
H  30.79200 3.40700 26.89500
H  29.95200 4.34400 28.10800
H  29.74200 2.74100 28.17900
H  31.44200 2.94800 33.31300
H  30.90200 6.75100 35.39000
H  32.68500 6.53700 35.49000
H  31.61400 5.79500 36.72700
Mg -2.36200 34.53600 26.60600
C  -4.21300 32.78600 29.20000
C  -1.20700 36.51400 29.03500
C  -0.84500 36.16000 24.17900
C  -4.04500 32.47300 24.30200
N  -2.79800 34.76600 28.95300
C  -3.42200 33.83300 29.75800
C  -3.21900 34.22000 31.20100
C  -2.39700 35.53400 31.08100
C  -2.06100 35.64200 29.57500
C  -3.13100 36.79200 31.61600
C  -2.54700 33.09600 32.03300
C  -3.34200 32.36200 33.15000
H  -3.39300 33.23500 34.39800
N  -1.20700 36.13900 26.56800
C  -0.74300 36.80000 27.70500
C  0.20300 37.82600 27.32700
C  0.33500 37.72500 25.94300
C  -0.62000 36.64800 25.48000
C  0.91100 38.68900 28.35400
C  1.28000 38.46100 25.01400
O  1.26300 38.34400 23.80600
C  2.34500 39.32900 25.57500
N  -2.73000 34.46700 24.51600
C  -1.72600 35.15400 23.78400
C  -1.68400 34.60800 22.35100
C  -2.61900 33.38700 22.36000
C  -3.19700 33.38300 23.77900
C  -1.98500 35.64500 21.28700
C  -1.87300 32.05900 22.06300
C  -2.69500 30.81000 21.61400
N  -4.03400 33.13500 26.69900
C  -4.54700 32.34200 25.63100
C  -5.42900 31.32900 26.17500
C  -5.32900 31.43900 27.56200
C  -4.45900 32.58800 27.83000
C  -6.18500 30.17800 25.44800
C  -5.72300 30.88600 28.80800
O  -6.59100 30.02000 28.99700
C  -5.06700 31.77900 29.91600
C  -6.25700 32.36700 30.59900
O  -6.73600 33.43800 30.29400
O  -6.63400 31.70300 31.68500
C  -7.59800 32.20600 32.61800
H  -0.80800 37.18600 29.79800
H  -0.14700 36.44000 23.38700
H  -4.41200 31.76900 23.55200
H  -4.23100 34.37200 31.57700
H  -1.44000 35.53600 31.60200
H  -4.08800 36.49100 32.04300
H  -3.32500 37.46700 30.78200
H  -2.54700 37.34200 32.35500
H  -1.64800 33.53800 32.46300
H  -2.12800 32.40800 31.29900
H  -2.75100 31.47500 33.38200
H  -4.31900 32.04400 32.78500
H  1.99200 38.68500 28.21000
H  0.65100 38.51600 29.39800
H  0.56900 39.69700 28.11900
H  3.00100 39.62400 24.75600
H  3.02700 38.70700 26.15500
H  1.94200 40.11400 26.21500
H  -0.64000 34.32600 22.21400
H  -3.39300 33.60800 21.62400
H  -1.15700 35.72800 20.58400
H  -2.08100 36.60200 21.79900
H  -2.97500 35.45600 20.87100
H  -1.39900 31.69400 22.97400
H  -1.01600 32.14800 21.39500
H  -2.38700 30.50800 20.61300
H  -3.74700 31.09500 21.59000
H  -2.56200 30.04400 22.37800
H  -5.91100 29.23600 25.92200
H  -5.91300 30.24300 24.39400
H  -7.25600 30.36300 25.53800
H  -4.49500 31.20400 30.64500
H  -7.03200 32.85000 33.29100
H  -8.12000 31.42100 33.16500
H  -8.32400 32.78900 32.05200

