158

Mg 7.02800 53.42300 40.41400
C  6.67300 49.90700 40.38200
C  10.33300 53.00500 39.95700
C  7.09900 56.61500 39.59800
C  3.65700 53.68000 41.03500
N  8.36100 51.61800 40.07600
C  7.99300 50.27500 40.13200
C  9.21600 49.36600 40.19900
C  10.35100 50.36600 40.46800
C  9.69200 51.77900 40.17800
C  11.02900 50.27000 41.90300
C  9.43000 48.57600 38.86400
C  9.54600 49.32900 37.49400
H  8.25000 49.28900 36.59900
N  8.51600 54.65700 39.86600
C  9.85900 54.30100 39.69700
C  10.58500 55.41600 39.32800
C  9.75100 56.52000 39.31400
C  8.38500 56.00100 39.55000
C  12.11200 55.51400 39.14300
C  10.23100 57.95900 39.02000
O  11.41500 58.25800 38.93200
C  9.23100 59.06500 38.79800
N  5.49800 54.93400 40.05200
C  5.85100 56.26400 39.98800
C  4.60800 57.20900 40.09500
C  3.43900 56.23000 40.60200
C  4.24400 54.84400 40.58800
C  4.83300 58.37500 41.09100
C  2.15500 56.33600 39.71400
C  1.02200 56.95900 40.41700
N  5.50100 52.20400 40.70700
C  4.23500 52.38500 41.01800
C  3.50100 51.14600 41.11700
C  4.49300 50.15100 40.92400
C  5.64500 50.83900 40.60200
C  2.13700 50.91900 41.66900
C  4.79200 48.71300 41.08700
O  4.09000 47.81600 41.49100
C  6.13100 48.53900 40.51100
C  6.04300 47.83600 39.18300
O  5.42300 48.27400 38.18800
O  6.55400 46.62500 39.28300
C  6.52700 45.76500 38.02000
H  11.41300 52.84800 39.92300
H  6.96000 57.67400 39.37300
H  2.61100 53.88800 41.26800
H  9.06000 48.60000 40.95800
H  11.16200 50.42400 39.74100
H  12.11500 50.36200 41.88600
H  10.78500 49.30900 42.35600
H  10.85300 51.21400 42.41900
H  8.62000 47.84700 38.83300
H  10.31500 47.95000 38.97300
H  10.35100 48.88900 36.90600
H  9.89400 50.36000 37.55400
H  12.48200 54.51400 39.36900
H  12.49100 56.11300 39.97100
H  12.43100 55.80000 38.14100
H  8.68400 58.80900 37.89000
H  9.79600 59.98400 38.64400
H  8.56200 59.01200 39.65600
H  4.44100 57.67200 39.12300
H  3.28500 56.48900 41.64900
H  5.08300 59.14400 40.36000
H  5.71000 58.20800 41.71600
H  3.98500 58.57900 41.74600
H  1.98100 55.32600 39.34300
H  2.38400 56.99000 38.87300
H  1.18200 56.82700 41.48700
H  0.17100 56.33500 40.14500
H  0.82000 57.95900 40.03200
H  1.71200 51.85500 42.03000
H  2.22400 50.35900 42.60000
H  1.52100 50.54800 40.84900
H  6.69300 47.98700 41.26400
H  6.10200 44.80700 38.31800
H  7.53400 45.76000 37.60300
H  5.85200 46.11900 37.24000
Mg 16.50300 51.97300 24.33600
C  18.37200 50.78900 27.35600
C  14.01100 52.82900 26.72000
C  14.74000 52.74000 21.85100
C  19.00900 50.58300 22.47700
N  16.20500 51.57600 26.83800
C  17.15000 51.35600 27.76400
C  16.64600 51.55200 29.17500
C  15.16900 52.09900 28.91800
C  15.12900 52.18300 27.39100
C  14.08700 51.08500 29.44200
C  17.53500 52.52200 29.94700
C  17.82300 52.26700 31.41400
H  16.91200 51.35300 32.25700
N  14.69200 52.77500 24.23800
C  13.73200 53.02600 25.29600
C  12.57400 53.61800 24.74700
C  12.73100 53.53400 23.30700
C  14.09700 52.98000 23.10500
C  11.46800 54.21400 25.58600
C  11.77600 54.01600 22.20800
O  11.97900 53.90900 20.99400
C  10.42200 54.57100 22.64900
N  16.67300 51.47100 22.41200
C  15.92200 52.02900 21.51300
C  16.36300 51.74700 20.01700
C  17.79600 51.17600 20.26700
C  17.90000 51.21300 21.79700
C  15.32600 50.84800 19.25500
C  18.95900 51.94100 19.57300
C  19.04100 51.81900 18.09100
N  18.35300 50.95900 24.79600
C  19.18400 50.40200 23.83400
C  20.41900 49.96400 24.50600
C  20.08200 50.01700 25.88100
C  18.79900 50.59400 25.99100
C  21.69700 49.45200 23.94100
C  20.58000 49.70100 27.21400
O  21.62400 49.25100 27.58200
C  19.44200 50.12700 28.21000
C  18.97700 48.96100 29.02300
O  18.21600 48.09200 28.69300
O  19.71400 48.99600 30.23800
C  19.33000 47.94200 31.15700
H  13.28600 53.16300 27.46500
H  14.18800 53.06800 20.96800
H  19.72000 50.13100 21.78300
H  16.67000 50.58100 29.67000
H  15.01800 53.10900 29.29900
H  13.54400 50.58400 28.64100
H  13.40400 51.67000 30.05800
H  14.51300 50.30500 30.07300
H  17.15200 53.54200 29.90500
H  18.49900 52.59000 29.44400
H  18.04300 53.23600 31.86200
H  18.77700 51.74500 31.48000
H  11.57100 53.99400 26.64900
H  10.46200 53.96600 25.24800
H  11.63400 55.27600 25.40700
H  10.59200 55.35200 23.39000
H  9.83300 53.75000 23.05600
H  10.10400 54.98100 21.69100
H  16.37400 52.67500 19.44500
H  17.75100 50.11300 20.03000
H  15.01700 51.24200 18.28700
H  14.41600 50.82000 19.85400
H  15.80300 49.88100 19.10100
H  19.82700 51.47000 20.03300
H  19.07500 52.97200 19.90700
H  18.00100 51.65100 17.80800
H  19.67400 50.97100 17.83000
H  19.43800 52.72700 17.63800
H  21.47100 49.26200 22.89100
H  21.91200 48.46500 24.35000
H  22.57200 50.09500 24.03700
H  19.74000 50.94400 28.86700
H  19.94800 48.03700 32.05000
H  19.55700 46.93800 30.79800
H  18.33900 48.13900 31.56600

