158

Mg -2.53600 18.09100 26.23100
C  -2.87300 15.92900 28.88100
C  -3.32100 20.68400 28.28500
C  -2.73200 20.16500 23.53500
C  -2.35100 15.27600 24.03300
N  -3.12400 18.28000 28.36200
C  -3.17100 17.20700 29.29300
C  -3.43300 17.71200 30.75900
C  -3.45300 19.29600 30.46800
C  -3.33800 19.47400 28.92100
C  -4.72400 20.00000 31.01400
C  -2.40100 17.21800 31.75000
C  -2.29700 17.82700 33.16300
H  -2.13000 16.90100 34.40500
N  -2.85500 20.19900 25.90500
C  -3.12900 21.02700 26.92900
C  -3.21600 22.35800 26.35600
C  -3.39900 22.19600 24.95900
C  -2.94700 20.81300 24.71900
C  -3.36000 23.56900 27.23300
C  -3.73600 23.22400 23.96600
O  -3.73900 22.88000 22.80700
C  -4.08000 24.64300 24.27600
N  -2.41400 17.76600 24.07400
C  -2.42200 18.80400 23.19200
C  -2.54400 18.36000 21.74000
C  -2.47000 16.77300 21.89300
C  -2.45900 16.55700 23.44100
C  -3.73200 18.91900 20.92500
C  -1.30200 16.20700 21.03300
C  -1.71400 15.82700 19.64100
N  -2.48600 16.07400 26.36600
C  -2.36800 15.08600 25.40600
C  -2.12400 13.81700 26.13100
C  -2.42600 14.09000 27.50900
C  -2.57900 15.45100 27.55600
C  -1.83300 12.45300 25.48800
C  -2.60300 13.52200 28.80600
O  -2.63300 12.37500 29.15200
C  -2.70900 14.68700 29.78100
C  -1.39300 14.65500 30.45500
O  -0.34000 15.14400 30.00200
O  -1.48900 14.03600 31.62900
C  -0.24000 13.71000 32.34500
H  -3.49100 21.45300 29.04100
H  -2.76100 20.77100 22.62700
H  -2.28100 14.39900 23.38600
H  -4.43300 17.42200 31.08200
H  -2.58200 19.77100 30.91800
H  -5.38000 19.29800 31.52900
H  -5.40000 20.38100 30.24900
H  -4.33200 20.74400 31.70800
H  -1.39100 17.18000 31.34000
H  -2.81100 16.26100 32.07200
H  -3.16200 18.47500 33.30700
H  -1.43100 18.49000 33.16800
H  -4.39400 23.72900 27.54000
H  -3.00900 24.49100 26.76900
H  -2.68300 23.44600 28.07800
H  -4.20400 25.13600 23.31200
H  -3.17700 25.13800 24.63400
H  -4.92000 24.91500 24.91500
H  -1.60400 18.61000 21.24900
H  -3.45800 16.51100 21.51400
H  -3.30000 19.33100 20.01300
H  -4.26300 19.65400 21.52900
H  -4.43800 18.15400 20.60000
H  -1.04200 15.30400 21.58500
H  -0.50500 16.94700 20.96400
H  -1.28800 14.84400 19.43900
H  -1.16600 16.48500 18.96600
H  -2.78200 15.88000 19.43000
H  -1.08800 12.62900 24.71200
H  -2.72900 11.93800 25.14200
H  -1.41400 11.91700 26.34100
H  -3.55800 14.51100 30.44200
H  -0.40100 12.63200 32.36800
H  -0.28200 14.24100 33.29600
H  0.70700 13.83600 31.82100
Mg -13.53600 38.03600 41.89100
C  -11.10700 35.63900 41.24700
C  -11.40600 40.46900 40.56300
C  -15.84900 40.28900 42.40600
C  -15.83600 35.41900 42.30200
N  -11.55200 37.92600 40.71200
C  -10.69300 36.89300 40.67900
C  -9.34900 37.27600 40.13600
C  -9.36200 38.82300 40.38400
C  -10.89800 39.11500 40.53600
C  -8.53100 39.28700 41.65200
C  -9.12100 36.84000 38.67400
C  -7.91900 35.92900 38.34800
H  -6.91100 36.55700 37.37800
N  -13.63200 40.19400 41.49100
C  -12.66400 41.01200 41.00400
C  -13.13400 42.37100 41.14600
C  -14.39400 42.31000 41.71800
C  -14.66600 40.89200 41.91700
C  -12.37100 43.58600 40.60800
C  -15.24300 43.49900 42.00900
O  -14.89600 44.60700 41.65200
C  -16.37900 43.29400 42.95600
N  -15.63300 37.89500 41.97200
C  -16.33700 38.94300 42.42100
C  -17.73800 38.54200 42.93100
C  -17.70600 36.99300 42.87700
C  -16.32400 36.71300 42.29300
C  -18.01500 39.06800 44.38700
C  -18.93000 36.34700 42.03600
C  -18.69100 36.14800 40.57700
N  -13.51300 35.94500 42.02200
C  -14.48900 35.03800 42.27900
C  -13.88000 33.77100 42.43400
C  -12.55000 33.88200 42.03300
C  -12.39800 35.29000 41.79500
C  -14.59100 32.41700 42.67600
C  -11.29300 33.24500 41.68900
O  -10.89200 32.09200 41.60000
C  -10.29700 34.34200 41.36500
C  -9.23600 34.37900 42.37700
O  -9.42600 34.18800 43.55600
O  -7.99000 34.46000 41.78600
C  -6.81600 34.16300 42.63800
H  -10.57200 41.14900 40.37900
H  -16.65800 40.86300 42.86400
H  -16.46300 34.59400 42.64600
H  -8.65600 36.77200 40.80900
H  -9.08400 39.38100 39.49100
H  -8.11600 38.39700 42.12600
H  -9.07200 39.82000 42.43300
H  -7.73400 39.89500 41.22400
H  -9.17500 37.73900 38.06100
H  -9.87400 36.15500 38.28400
H  -8.31200 34.97600 37.99300
H  -7.29300 35.79300 39.23000
H  -11.42200 43.22100 40.21300
H  -11.98500 44.20900 41.41500
H  -12.89100 44.14600 39.83000
H  -17.17000 42.78100 42.40900
H  -16.84100 44.25800 43.16900
H  -15.94300 42.81900 43.83500
H  -18.51000 38.85900 42.23000
H  -17.74600 36.57600 43.88300
H  -17.16600 39.65600 44.73400
H  -18.05600 38.31100 45.16900
H  -18.88600 39.71800 44.47400
H  -19.82300 36.94400 42.22000
H  -19.30100 35.40300 42.43500
H  -18.64300 35.06300 40.48300
H  -17.72400 36.50600 40.22500
H  -19.50200 36.56900 39.98200
H  -13.78300 31.89200 43.18600
H  -14.78000 31.94500 41.71200
H  -15.47900 32.42600 43.30900
H  -9.83900 34.19900 40.38600
H  -5.96800 34.00400 41.97200
H  -6.93900 33.26600 43.24500
H  -6.57600 35.05700 43.21400

