158

Mg -1.72300 17.74700 26.55900
C  -2.32000 15.53100 29.23400
C  -2.38600 20.37800 28.70300
C  -1.91500 19.71800 23.78200
C  -1.80800 14.93400 24.42800
N  -2.47900 17.93900 28.74700
C  -2.34200 16.89600 29.66100
C  -2.51500 17.40500 31.11800
C  -2.73500 18.96600 30.90800
C  -2.49000 19.15700 29.38000
C  -3.95000 19.62600 31.61000
C  -1.30800 16.98200 32.10600
C  -1.01400 17.76100 33.36000
H  -0.48700 17.06100 34.54500
N  -2.00200 19.77900 26.31200
C  -2.15200 20.68500 27.36900
C  -2.05800 22.04900 26.75700
C  -1.87000 21.87200 25.37900
C  -1.97300 20.38700 25.08500
C  -1.87400 23.37700 27.56100
C  -1.50100 22.88900 24.26000
O  -1.39000 22.56900 23.06000
C  -1.21800 24.28700 24.51200
N  -1.73900 17.37800 24.38700
C  -1.83300 18.39100 23.42800
C  -1.98000 17.80400 22.01400
C  -1.80800 16.22400 22.27300
C  -1.87200 16.20600 23.76900
C  -3.23400 18.30000 21.21000
C  -0.56600 15.54700 21.61500
C  0.74300 16.23800 21.80100
N  -1.98100 15.66000 26.80100
C  -1.93100 14.66200 25.85300
C  -2.11700 13.37700 26.49300
C  -2.22400 13.69700 27.86200
C  -2.16300 15.08300 27.96100
C  -2.28600 12.13000 25.79500
C  -2.37700 13.08700 29.05600
O  -2.39900 11.93300 29.40600
C  -2.45200 14.28600 30.04500
C  -1.23400 14.08300 30.85800
O  -0.12400 14.39300 30.47600
O  -1.58300 13.36300 31.93400
C  -0.38100 12.84300 32.75500
H  -2.59600 21.23900 29.34200
H  -2.03000 20.49200 23.02000
H  -1.85700 14.14000 23.68000
H  -3.37000 16.81000 31.43700
H  -1.77400 19.41100 31.16400
H  -4.54300 20.31100 31.00500
H  -3.66400 20.28400 32.43000
H  -4.66300 18.91200 32.02300
H  -0.42800 16.94900 31.46300
H  -1.48100 15.96200 32.45000
H  -1.79000 18.47600 33.62900
H  -0.12500 18.32800 33.08500
H  -0.84500 23.72900 27.63700
H  -2.45400 23.33100 28.48300
H  -2.36500 24.20900 27.05700
H  -2.15400 24.61600 24.96400
H  -1.01000 24.97100 23.69000
H  -0.44400 24.40100 25.27200
H  -1.08400 18.16200 21.50600
H  -2.69500 15.72700 21.87900
H  -3.95600 17.48700 21.12000
H  -3.00100 18.51300 20.16700
H  -3.54900 19.23100 21.68100
H  -0.74800 15.38300 20.55300
H  -0.51800 14.52000 21.97600
H  1.30400 16.50800 20.90600
H  1.26800 15.48500 22.38800
H  0.68000 17.02100 22.55600
H  -3.25600 12.09300 25.30000
H  -2.26600 11.27900 26.47600
H  -1.37400 12.00800 25.21000
H  -3.31500 14.13600 30.69400
H  -0.29200 11.76600 32.90000
H  -0.61500 13.22500 33.74800
H  0.57000 13.30500 32.48800
Mg 25.26500 1.31100 29.68400
C  27.26100 1.00700 32.54500
C  22.58000 1.62400 31.66200
C  23.47500 1.23200 26.80700
C  28.10600 0.11800 27.84100
N  24.96300 1.40400 31.88500
C  25.91500 1.27400 32.84600
C  25.25800 1.33000 34.30700
C  23.71900 1.28100 33.98600
C  23.72700 1.46600 32.43800
C  23.02500 -0.08100 34.38000
C  25.81600 2.51000 35.17000
C  26.62600 2.18300 36.42900
H  26.45800 3.18400 37.54800
N  23.28200 1.55300 29.30100
C  22.29900 1.71700 30.28200
C  21.01500 1.90600 29.59300
C  21.28500 1.68600 28.15600
C  22.74200 1.54000 28.06500
C  19.69000 1.99100 30.36300
C  20.32300 1.65500 26.93900
O  20.62700 1.40900 25.77500
C  18.89100 1.88400 27.29100
N  25.70900 0.61200 27.69000
C  24.80100 0.86400 26.69900
C  25.45700 0.91800 25.29400
C  26.90100 0.69200 25.60200
C  26.98900 0.49900 27.16300
C  24.97400 -0.19200 24.35600
C  27.85800 1.77300 25.09300
C  27.92100 3.01000 25.93900
N  27.28400 0.68000 30.10100
C  28.27000 0.13900 29.27000
C  29.48300 -0.03600 30.07600
C  29.13900 0.37100 31.36900
C  27.82300 0.71300 31.29300
C  30.75700 -0.61400 29.53700
C  29.66600 0.57900 32.70700
O  30.78200 0.37400 33.19100
C  28.41400 0.94600 33.54100
C  28.26000 -0.11100 34.60300
O  27.64400 -1.14100 34.46300
O  29.00500 0.14600 35.73100
C  28.72100 -0.70600 36.88000
H  21.65500 1.61300 32.24300
H  22.93000 1.29200 25.86300
H  29.01600 -0.14700 27.29800
H  25.38800 0.35800 34.78200
H  23.16000 2.13800 34.36200
H  23.67900 -0.47100 35.16000
H  22.94100 -0.77600 33.54400
H  22.07700 0.17400 34.85400
H  24.90800 2.97500 35.55500
H  26.38000 3.31200 34.69500
H  27.67900 2.19000 36.14800
H  26.34300 1.19300 36.78500
H  19.27200 2.96000 30.08900
H  19.69900 1.73600 31.42300
H  18.98400 1.24400 30.00100
H  18.53900 0.98500 27.79900
H  18.25600 2.02700 26.41700
H  18.87500 2.79900 27.88200
H  25.31900 1.93200 24.91800
H  27.29800 -0.24800 25.21800
H  24.09800 0.26800 23.89900
H  24.73900 -1.17900 24.75300
H  25.67100 -0.41200 23.54800
H  27.52400 2.14100 24.12300
H  28.85000 1.32200 25.07500
H  27.27100 3.00400 26.81400
H  27.51700 3.84000 25.36100
H  28.92900 3.30000 26.23700
H  31.37800 0.24500 29.28200
H  30.63100 -1.26900 28.67500
H  31.14400 -1.29800 30.29200
H  28.81700 1.84800 34.00200
H  28.91100 -1.76600 36.71100
H  27.72100 -0.68600 37.31400
H  29.31700 -0.36100 37.72500

