158

Mg -2.13800 18.18900 27.39400
C  -2.58100 15.81900 30.09400
C  -2.99400 20.63300 29.63800
C  -2.06600 20.16400 24.83100
C  -2.22100 15.46100 25.17900
N  -2.68600 18.24600 29.66600
C  -2.73200 17.20000 30.57700
C  -2.98600 17.64800 32.06900
C  -3.32200 19.15500 31.79800
C  -2.98600 19.40800 30.27400
C  -4.78300 19.53100 32.22800
C  -1.75200 17.37400 32.94500
C  -1.56200 18.28100 34.18800
H  -1.12700 17.65300 35.51900
N  -2.39100 20.08700 27.29900
C  -2.66600 21.01700 28.34400
C  -2.71600 22.39100 27.80300
C  -2.41500 22.20600 26.39100
C  -2.28700 20.81200 26.11600
C  -2.91900 23.62800 28.64400
C  -2.26200 23.30400 25.38400
O  -1.91900 23.09800 24.20300
C  -2.35000 24.69700 25.88200
N  -2.36700 17.91700 25.24000
C  -2.00500 18.90900 24.39400
C  -1.95700 18.38700 22.84900
C  -1.62900 16.85900 23.19200
C  -2.10100 16.72600 24.59800
C  -3.30100 18.55100 22.07400
C  -0.10600 16.43300 23.01700
C  0.96400 16.89100 24.12600
N  -2.27300 16.07400 27.52500
C  -2.32000 15.15500 26.56400
C  -2.43600 13.86000 27.17000
C  -2.36000 14.10100 28.58000
C  -2.40900 15.44000 28.70500
C  -2.64300 12.58600 26.46400
C  -2.45800 13.38800 29.86200
O  -2.36200 12.23500 30.16800
C  -2.64800 14.48300 30.90100
C  -1.52600 14.29300 31.82600
O  -0.35800 14.64700 31.60400
O  -2.03500 13.79800 33.00800
C  -1.04100 13.45200 33.91100
H  -3.27200 21.43400 30.32700
H  -1.74700 20.80100 24.00400
H  -2.13700 14.63400 24.47000
H  -3.89200 17.15200 32.41700
H  -2.69300 19.90300 32.28100
H  -5.20500 18.68400 32.76800
H  -5.27600 19.77500 31.28700
H  -4.57500 20.40400 32.84700
H  -0.76400 17.41500 32.48800
H  -1.88000 16.36800 33.34400
H  -2.52200 18.77200 34.34700
H  -0.80200 19.01800 33.92700
H  -3.99600 23.77900 28.57400
H  -2.30700 24.49800 28.40300
H  -2.83600 23.42400 29.71100
H  -2.20700 25.41300 25.07300
H  -1.55200 25.05600 26.53100
H  -3.34400 24.75600 26.32600
H  -1.08000 18.78100 22.33300
H  -2.23500 16.08900 22.71400
H  -3.92900 19.25200 22.62400
H  -3.86200 17.62600 21.94000
H  -3.16800 19.08400 21.13300
H  0.12500 16.62600 21.96900
H  -0.05900 15.34400 22.99900
H  1.77100 16.17800 24.29600
H  0.43900 17.16000 25.04300
H  1.41700 17.81000 23.75400
H  -3.53700 12.02600 26.73900
H  -1.72300 12.01900 26.60600
H  -2.70800 12.67100 25.37900
H  -3.60800 14.46100 31.41700
H  -0.55500 12.58900 33.45500
H  -1.61200 13.23100 34.81300
H  -0.41900 14.33200 34.07700
Mg -5.56500 26.06800 26.57800
C  -4.41600 27.66900 29.48300
C  -7.40900 24.09100 28.46300
C  -6.52500 24.51100 23.67700
C  -3.27600 27.87100 24.69200
N  -5.71000 25.89100 28.63900
C  -5.11700 26.58400 29.71400
C  -5.74700 26.25000 31.03200
C  -6.34100 24.81200 30.66800
C  -6.53300 24.89600 29.20800
C  -5.58600 23.55700 31.16000
C  -6.83200 27.20600 31.67500
C  -6.88500 27.27200 33.24500
H  -6.08300 26.20400 34.01900
N  -6.78800 24.51400 26.13600
C  -7.59100 23.91400 27.10000
C  -8.36000 22.86600 26.47700
C  -8.11200 22.91000 25.08500
C  -7.10600 24.00700 24.88000
C  -9.22200 21.94800 27.24600
C  -8.64900 21.97100 23.89200
O  -8.36900 22.15500 22.72000
C  -9.60200 20.85500 24.22100
N  -5.06900 26.28100 24.47000
C  -5.56300 25.47600 23.49000
C  -4.99600 25.77300 22.15200
C  -3.89800 26.81000 22.42200
C  -4.12000 27.04200 23.94300
C  -4.25800 24.52300 21.53200
C  -4.26800 28.08600 21.68000
C  -3.84500 28.25500 20.19900
N  -4.16900 27.52500 26.91400
C  -3.36200 28.18600 26.06600
C  -2.59000 29.16100 26.84100
C  -3.01900 29.00900 28.20600
C  -4.03200 28.02500 28.20300
C  -1.49400 29.97600 26.22400
C  -2.78400 29.56800 29.48100
O  -2.08400 30.46400 29.93300
C  -3.82300 28.77600 30.36400
C  -3.01400 28.30300 31.52800
O  -2.04300 27.56100 31.44000
O  -3.29900 29.04000 32.63600
C  -2.30200 28.83000 33.76600
H  -7.80600 23.39100 29.20000
H  -6.81000 23.98400 22.76400
H  -2.40700 28.29200 24.18200
H  -4.87900 26.18300 31.68800
H  -7.37300 24.76400 31.01500
H  -6.11300 23.13900 32.01800
H  -4.61400 23.89700 31.52000
H  -5.49300 22.87800 30.31300
H  -7.82900 27.07700 31.25500
H  -6.47100 28.17700 31.33500
H  -7.92100 27.37400 33.56800
H  -6.29200 28.17400 33.40100
H  -10.26700 21.92300 26.93700
H  -9.18900 22.25700 28.29100
H  -8.86400 20.92900 27.10700
H  -9.27300 20.23400 25.05400
H  -9.72900 20.20500 23.35500
H  -10.54400 21.15300 24.68100
H  -5.81700 26.16800 21.55400
H  -2.88400 26.44500 22.25800
H  -4.37500 23.64300 22.16500
H  -3.18500 24.55000 21.34500
H  -4.87100 24.32400 20.65300
H  -3.86300 28.91300 22.26400
H  -5.34000 28.26900 21.76300
H  -3.55300 27.29400 19.77500
H  -2.97800 28.91300 20.14300
H  -4.64700 28.81300 19.71600
H  -1.90100 30.66100 25.48000
H  -0.80500 29.31200 25.70300
H  -0.99000 30.56600 26.98900
H  -4.54200 29.50600 30.73700
H  -1.29400 28.97400 33.37600
H  -2.43600 27.86900 34.26300
H  -2.49300 29.58100 34.53200

