158

Mg 26.69000 -0.99300 29.33800
C  28.45400 -0.96500 32.59100
C  23.73100 -1.13900 31.38600
C  24.86000 -1.24700 26.49500
C  29.52800 -1.14700 27.82400
N  26.19700 -0.97400 31.73800
C  27.08900 -0.75900 32.74400
C  26.39700 -0.69300 34.13800
C  24.92300 -0.62700 33.72300
C  24.88700 -0.90200 32.15900
C  24.04800 -1.76100 34.47900
C  26.87100 0.49800 35.09500
C  27.15800 0.15500 36.61200
H  26.61400 1.16200 37.61800
N  24.56300 -1.20500 29.00600
C  23.56700 -1.23300 29.96300
C  22.32800 -1.39100 29.22100
C  22.53600 -1.34300 27.75800
C  24.03300 -1.23000 27.71300
C  20.95300 -1.58700 29.83500
C  21.57100 -1.39500 26.64000
O  22.01200 -1.44000 25.49600
C  20.07500 -1.41100 26.82100
N  27.06300 -1.26100 27.35800
C  26.21600 -1.17400 26.33100
C  26.95500 -0.99600 24.96900
C  28.43400 -0.79200 25.50300
C  28.37400 -1.01500 27.03400
C  26.78700 -2.23800 24.07900
C  29.08200 0.62300 25.21400
C  30.49700 0.44700 24.73500
N  28.59900 -1.19100 30.05900
C  29.70100 -1.30500 29.23200
C  30.86500 -1.42200 29.99600
C  30.40100 -1.23700 31.33800
C  29.05300 -1.07500 31.28200
C  32.30100 -1.57900 29.48200
C  30.82000 -1.08000 32.71400
O  31.91600 -1.21100 33.21800
C  29.58100 -0.91400 33.57400
C  29.56700 -2.03600 34.61000
O  29.08400 -3.17400 34.47900
O  30.05400 -1.52200 35.79000
C  29.83200 -2.41700 36.95000
H  22.81800 -1.19900 31.98300
H  24.30900 -1.41200 25.56700
H  30.42600 -0.95400 27.23300
H  26.59000 -1.61800 34.68200
H  24.54600 0.37500 33.93000
H  23.57900 -2.53000 33.86500
H  23.27600 -1.23200 35.03600
H  24.59600 -2.26200 35.27700
H  25.95700 1.07800 35.22100
H  27.71800 1.11200 34.79000
H  28.21300 0.00900 36.84300
H  26.74100 -0.84500 36.73600
H  20.47300 -2.39000 29.27500
H  20.36000 -0.69700 29.62400
H  21.05600 -1.77700 30.90300
H  19.72100 -2.41300 27.06200
H  19.74000 -1.20500 25.80500
H  19.85400 -0.62400 27.54200
H  26.60700 -0.11200 24.43500
H  29.07700 -1.58400 25.12000
H  26.54300 -1.96900 23.05100
H  25.93500 -2.78500 24.48100
H  27.69100 -2.84700 24.06100
H  29.01900 1.16000 26.16000
H  28.43700 1.22000 24.56900
H  30.78200 -0.59300 24.57600
H  31.19200 1.00700 25.36000
H  30.54800 0.97500 23.78300
H  32.85300 -1.89600 30.36700
H  32.64600 -0.63500 29.06000
H  32.47200 -2.39200 28.77700
H  29.56800 0.05300 34.07700
H  28.81600 -2.38700 37.34500
H  30.47400 -2.22600 37.81000
H  29.97300 -3.47300 36.71700
Mg 47.83800 15.10800 28.61200
C  45.67400 15.11100 31.43100
C  50.10200 16.87800 30.27400
C  49.61000 15.13600 25.77200
C  45.13400 13.55500 26.78400
N  47.88100 15.85100 30.65400
C  46.96400 15.68200 31.70900
C  47.60000 16.20000 33.07700
C  48.98500 16.73700 32.61700
C  49.03300 16.48000 31.05800
C  49.26600 18.23700 33.08000
C  47.68300 15.14600 34.20900
C  46.71300 15.33000 35.43000
H  46.38700 16.73100 36.01300
N  49.65300 15.79800 28.07800
C  50.46100 16.57600 28.93400
C  51.71900 16.83100 28.28400
C  51.62700 16.37400 26.92800
C  50.23100 15.71800 26.84300
C  52.83700 17.67200 28.93300
C  52.50500 16.65600 25.78200
O  52.27200 16.21600 24.71000
C  53.90900 17.37500 25.98400
N  47.38600 14.37800 26.69800
C  48.33700 14.54900 25.69900
C  47.95700 13.96300 24.32900
C  46.47000 13.51700 24.64900
C  46.29300 13.89300 26.10700
C  47.94700 15.09300 23.26100
C  46.36400 11.98100 24.42000
C  47.43200 11.08300 25.11100
N  45.83200 14.46000 28.99900
C  44.87300 13.81500 28.15900
C  43.67700 13.53800 28.88000
C  43.94500 14.05700 30.19400
C  45.21600 14.55400 30.18300
C  42.39700 12.85200 28.34800
C  43.41300 14.21800 31.60900
O  42.35500 13.81300 32.00900
C  44.50500 14.97200 32.40400
C  43.93300 16.14500 33.00700
O  44.01300 17.29200 32.60400
O  43.25100 15.70800 34.04200
C  42.31100 16.80600 34.41200
H  50.80100 17.51700 30.81900
H  50.18400 15.22300 24.84700
H  44.44300 12.99900 26.14800
H  46.94100 17.02000 33.36000
H  49.83500 16.17100 32.99800
H  49.31800 18.99800 32.30200
H  50.22000 18.26000 33.60500
H  48.47300 18.66300 33.69400
H  48.70700 15.21100 34.57600
H  47.52600 14.15600 33.78000
H  47.04200 14.71400 36.26600
H  45.71000 14.98400 35.18300
H  53.70200 17.12700 29.31100
H  52.38800 18.32900 29.67800
H  53.07600 18.37200 28.13200
H  54.36300 16.80300 26.79300
H  53.86400 18.46400 25.99600
H  54.44700 17.01700 25.10700
H  48.70100 13.21800 24.04800
H  45.65300 14.03600 24.14700
H  46.95300 15.52800 23.16000
H  48.09300 14.55200 22.32600
H  48.69600 15.86500 23.43800
H  46.47000 11.75900 23.35800
H  45.33300 11.80200 24.72700
H  46.86600 10.33000 25.65800
H  47.97900 11.69100 25.83100
H  48.08800 10.58800 24.39400
H  41.94400 12.22500 29.11600
H  42.54500 12.18900 27.49500
H  41.63300 13.54300 27.99400
H  44.98800 14.38900 33.18900
H  41.87200 17.27600 33.53300
H  42.68400 17.68100 34.94400
H  41.47000 16.42400 34.99100

