158

Mg -2.15200 17.31000 25.63900
C  -2.60200 14.91900 28.35500
C  -2.91200 19.77700 27.89200
C  -2.04300 19.35700 23.12300
C  -2.05400 14.55000 23.40300
N  -2.73900 17.25800 27.88000
C  -2.85400 16.23000 28.75200
C  -3.19400 16.68900 30.11600
C  -3.56800 18.19500 29.92100
C  -3.11500 18.48400 28.46200
C  -4.98500 18.71500 30.18800
C  -2.12100 16.43300 31.28000
C  -2.47300 17.06700 32.72000
H  -2.33700 16.07300 33.81500
N  -2.27400 19.31500 25.51600
C  -2.52100 20.18000 26.58700
C  -2.38100 21.48600 26.00900
C  -2.05200 21.41700 24.62800
C  -2.10400 19.97400 24.32700
C  -2.59100 22.76900 26.85800
C  -1.75000 22.55400 23.53700
O  -1.55300 22.43100 22.34700
C  -1.71800 24.00800 23.97000
N  -2.20100 16.95800 23.55000
C  -2.04700 18.01300 22.72200
C  -1.78500 17.62600 21.23700
C  -1.84700 15.98100 21.40500
C  -1.95400 15.78100 22.86900
C  -2.86200 18.15100 20.25900
C  -0.71400 15.10600 20.77400
C  0.63500 15.15200 21.45500
N  -2.37200 15.19100 25.79400
C  -2.21900 14.26300 24.78400
C  -2.15600 12.91300 25.36800
C  -2.42600 13.12600 26.75800
C  -2.41300 14.54400 26.98200
C  -2.15600 11.62400 24.58900
C  -2.65900 12.44000 27.98500
O  -2.77000 11.25400 28.26900
C  -2.63200 13.55200 29.11100
C  -1.53800 13.29000 29.97300
O  -0.41500 13.34800 29.58400
O  -1.91500 12.92800 31.20200
C  -0.75800 12.60900 32.07600
H  -3.10100 20.59300 28.59200
H  -1.83600 20.03100 22.28900
H  -1.66400 13.69200 22.85200
H  -4.11500 16.18300 30.40400
H  -2.88200 18.69500 30.60400
H  -4.90200 19.34200 31.07600
H  -5.62600 17.87900 30.46600
H  -5.46700 19.21300 29.34600
H  -1.15800 16.77000 30.89600
H  -1.98700 15.38200 31.53300
H  -3.52900 17.32800 32.66300
H  -1.88600 17.97200 32.87500
H  -3.47600 23.34400 26.58600
H  -1.67800 23.34000 26.69300
H  -2.47200 22.48900 27.90500
H  -2.73500 24.38900 24.06300
H  -1.16800 24.55300 23.20200
H  -1.13200 24.15700 24.87700
H  -0.75400 17.89200 21.00500
H  -2.80300 15.73100 20.94600
H  -2.28300 18.52700 19.41600
H  -3.41200 18.96700 20.72800
H  -3.65700 17.45400 19.99100
H  -0.57600 15.32900 19.71600
H  -1.12600 14.09900 20.83600
H  0.61500 15.91400 22.23500
H  1.43300 15.56900 20.84100
H  0.93300 14.19400 21.88000
H  -2.72200 11.72200 23.66300
H  -2.74700 10.88400 25.12900
H  -1.15600 11.21700 24.44000
H  -3.55900 13.48400 29.68100
H  -0.28600 11.66800 31.79600
H  -1.10300 12.36000 33.08000
H  -0.06900 13.40900 32.34800
Mg 30.32900 58.58000 40.27400
C  27.55200 56.91400 39.32700
C  32.29600 56.06400 38.83000
C  33.12500 60.45000 40.55400
C  28.36600 61.47300 40.93900
N  29.95700 56.72000 39.28300
C  28.70600 56.22500 38.97800
C  28.80100 54.96300 38.14600
C  30.21200 54.48200 38.52400
C  30.89800 55.80700 38.86200
C  30.28100 53.49400 39.78700
C  28.52800 55.24100 36.62100
C  27.50000 54.24900 35.90900
H  26.56200 54.82300 34.95300
N  32.49000 58.28400 39.94200
C  33.09000 57.18600 39.28400
C  34.55000 57.37600 39.24700
C  34.84200 58.66700 39.74200
C  33.50000 59.17700 40.08300
C  35.47400 56.33200 38.71200
C  36.18200 59.30400 39.91600
O  37.20800 58.69100 39.57900
C  36.36600 60.68300 40.59200
N  30.67300 60.66700 40.68800
C  31.92000 61.12600 40.89300
C  31.96700 62.63000 41.31000
C  30.43100 62.99400 41.31000
C  29.78200 61.64900 40.94500
C  32.60100 62.82100 42.80000
C  30.11000 64.05300 40.23500
C  29.96500 65.54800 40.70100
N  28.33900 59.05600 40.25700
C  27.69800 60.25700 40.56000
C  26.27500 60.03400 40.49300
C  26.17900 58.75800 39.91800
C  27.46400 58.19700 39.83800
C  25.10300 60.95300 40.89200
C  25.29300 57.73300 39.47800
O  24.06900 57.70200 39.40900
C  26.14200 56.55600 39.02000
C  25.61900 55.36900 39.71400
O  25.99100 55.04300 40.83400
O  24.74700 54.65700 38.97300
C  24.14000 53.39600 39.48300
H  32.98600 55.28500 38.50200
H  33.97700 61.12300 40.67400
H  27.71700 62.30000 41.23500
H  28.15400 54.20200 38.58400
H  30.66600 53.92700 37.70300
H  30.75100 54.02700 40.61400
H  30.84000 52.61800 39.45600
H  29.27900 53.13300 40.01800
H  29.40500 55.16600 35.97900
H  28.01100 56.18700 36.46500
H  26.97500 53.74100 36.71800
H  28.01600 53.51900 35.28600
H  36.45500 56.72800 38.45300
H  35.09000 55.88300 37.79600
H  35.65200 55.59900 39.49900
H  37.42800 60.71600 40.83600
H  35.64600 60.74600 41.40800
H  36.05400 61.41800 39.85000
H  32.63700 63.20500 40.67100
H  30.12600 63.40000 42.27400
H  32.75800 63.89100 42.93500
H  33.46100 62.25000 43.15300
H  31.84900 62.41900 43.47800
H  29.23100 63.73900 39.67100
H  30.95700 63.92200 39.56100
H  29.07400 66.05000 40.32400
H  30.84000 66.11100 40.37800
H  29.87700 65.54800 41.78800
H  25.47200 61.72500 41.56700
H  24.28500 60.42800 41.38600
H  24.70400 61.56400 40.08200
H  25.90900 56.45800 37.96000
H  24.41900 53.27600 40.53000
H  24.51700 52.52800 38.94100
H  23.05200 53.45100 39.51000

