158

Mg 35.68500 0.98500 29.75800
C  33.31300 2.17800 32.11100
C  37.93800 1.14000 32.30400
C  38.04600 0.04800 27.51700
C  33.40500 1.35800 27.17700
N  35.68200 1.76000 31.91900
C  34.51800 1.94800 32.67600
C  34.74100 2.04600 34.18000
C  36.30500 1.64800 34.22900
C  36.66600 1.57100 32.72300
C  37.22600 2.65100 35.09200
C  33.93400 1.04000 35.02200
C  33.35900 1.46400 36.39700
H  34.00800 2.62900 37.14700
N  37.67900 0.62900 29.89600
C  38.47500 0.75800 31.03300
C  39.80600 0.16600 30.79000
C  39.86700 -0.09300 29.35500
C  38.47500 0.19500 28.89500
C  40.85200 -0.15300 31.84200
C  41.10500 -0.54200 28.51500
O  40.98400 -0.83900 27.36700
C  42.48300 -0.45700 29.16500
N  35.71400 0.69300 27.64500
C  36.77600 0.32100 27.00800
C  36.54400 0.22100 25.42400
C  34.97500 0.43900 25.34800
C  34.65900 0.83900 26.80600
C  37.29000 1.37900 24.63500
C  34.19300 -0.74100 24.80700
C  33.56200 -0.54800 23.44500
N  33.78600 1.75800 29.60900
C  32.98400 1.75700 28.50300
C  31.70400 2.24900 28.86800
C  31.71000 2.41000 30.28700
C  33.05900 2.12500 30.71000
C  30.62700 2.46600 27.89300
C  30.98200 2.67400 31.45300
O  29.82500 2.92800 31.56400
C  31.96800 2.55900 32.72700
C  32.03900 4.01500 33.27600
O  32.94900 4.85000 33.09500
O  31.11900 4.10200 34.26500
C  31.24700 5.12500 35.29600
H  38.53600 0.97800 33.20300
H  38.85500 -0.34300 26.89800
H  32.57100 1.28700 26.47500
H  34.53100 3.04900 34.55100
H  36.54300 0.62800 34.53000
H  37.95000 2.06400 35.65800
H  36.67200 3.23000 35.83000
H  37.84400 3.33500 34.51200
H  34.57100 0.18700 35.25500
H  33.13400 0.50500 34.51100
H  33.50500 0.61400 37.06400
H  32.27500 1.56900 36.37200
H  41.21900 -1.17800 31.89500
H  40.29500 -0.01200 32.76700
H  41.63400 0.60600 31.83900
H  42.59900 0.53700 29.59800
H  43.19000 -0.54600 28.34100
H  42.73600 -1.15200 29.96500
H  36.93500 -0.75500 25.13800
H  34.69900 1.38300 24.87800
H  38.12600 1.69600 25.25900
H  36.61100 2.17600 24.33300
H  37.68500 0.95100 23.71300
H  33.37500 -1.00900 25.47600
H  34.82900 -1.60800 24.62600
H  33.74800 -1.35900 22.74000
H  33.88300 0.38800 22.98800
H  32.47800 -0.50400 23.54700
H  31.11300 2.88200 27.01000
H  29.96500 3.24700 28.26800
H  30.04900 1.57300 27.65500
H  31.57200 1.94100 33.53300
H  31.08000 4.69700 36.28400
H  30.60000 5.96000 35.02700
H  32.27400 5.49100 35.31000
Mg -2.30900 35.37100 27.29500
C  -3.57700 33.43900 29.82500
C  -1.11000 37.59100 29.53900
C  -1.24600 37.05200 24.68700
C  -3.48400 32.87300 25.01200
N  -2.48300 35.54200 29.38200
C  -2.98900 34.64300 30.26800
C  -2.61500 34.94900 31.75600
C  -2.04200 36.42000 31.58200
C  -1.88100 36.55800 30.07600
C  -2.92800 37.54600 32.16600
C  -1.63100 33.97400 32.34400
C  -2.09200 33.11800 33.56000
H  -1.23100 32.97900 34.70500
N  -1.34200 37.12900 27.05500
C  -0.85800 37.85000 28.14200
C  -0.14900 38.99300 27.58700
C  -0.30100 38.91900 26.13100
C  -1.01800 37.68100 25.90500
C  0.61600 40.07500 28.43100
C  0.16600 39.90400 25.08500
O  -0.05500 39.79200 23.82200
C  0.93500 41.20000 25.60000
N  -2.52400 35.06900 25.16100
C  -1.84100 35.84800 24.29300
C  -1.97100 35.42800 22.82400
C  -2.45900 33.93400 22.96200
C  -2.92000 33.94000 24.41300
C  -2.82300 36.29700 21.86200
C  -1.44300 32.85800 22.61200
C  -0.36700 32.62100 23.71200
N  -3.38500 33.53000 27.37100
C  -3.86000 32.71500 26.32600
C  -4.58800 31.60800 26.96800
C  -4.39700 31.81100 28.38000
C  -3.79800 33.05600 28.55000
C  -5.26400 30.61400 26.15500
C  -4.69000 31.29200 29.69100
O  -5.28600 30.25900 29.97000
C  -4.09600 32.28200 30.68600
C  -5.17800 32.75100 31.59200
O  -6.11100 33.51800 31.39500
O  -5.06200 32.01200 32.69800
C  -5.89100 32.33600 33.90200
H  -0.70800 38.24400 30.31700
H  -0.91400 37.65000 23.83600
H  -3.70900 32.04100 24.34000
H  -3.42900 35.11000 32.46300
H  -1.08100 36.56500 32.07400
H  -3.93800 37.21000 32.40300
H  -3.00300 38.43500 31.54000
H  -2.51700 37.72900 33.15900
H  -0.71200 34.48100 32.63600
H  -1.44700 33.18600 31.61400
H  -2.17800 32.10800 33.16000
H  -3.08300 33.35800 33.94600
H  1.68200 39.91800 28.26000
H  0.36300 39.97800 29.48700
H  0.33000 41.09300 28.16800
H  1.83600 41.01500 26.18500
H  0.30700 41.87600 26.18100
H  1.16600 41.76900 24.69900
H  -0.92100 35.37500 22.53600
H  -3.39400 33.68300 22.46200
H  -3.28500 35.64400 21.12100
H  -2.06800 36.91300 21.37300
H  -3.55000 36.99200 22.28400
H  -0.97100 33.23000 21.70200
H  -1.97900 31.97200 22.27000
H  -0.66700 32.71000 24.75600
H  0.60400 33.07900 23.52500
H  -0.00600 31.59900 23.59600
H  -6.21800 30.98200 25.77800
H  -5.62700 29.79500 26.77700
H  -4.70400 30.04500 25.41300
H  -3.22500 31.79600 31.12500
H  -6.81000 32.87900 33.68300
H  -5.31200 32.91200 34.62300
H  -6.09700 31.33900 34.29200

