158

Mg 35.46500 48.83100 25.13000
C  36.06700 46.94800 28.12300
C  34.46000 51.40200 27.26900
C  34.66000 50.67900 22.30400
C  36.34500 46.13600 23.23900
N  35.41900 49.13400 27.46900
C  35.67500 48.23200 28.48000
C  35.52000 48.89100 29.82100
C  34.66500 50.19200 29.44800
C  34.86800 50.30000 27.96100
C  33.18100 50.03200 29.80500
C  36.85500 49.09300 30.47600
C  36.87000 49.00900 32.06600
H  35.49100 48.83100 32.78500
N  34.71000 50.72500 24.78400
C  34.42600 51.60600 25.79200
C  34.04900 52.82100 25.17500
C  33.93900 52.63800 23.77000
C  34.51900 51.31300 23.57600
C  33.82700 54.10300 25.90200
C  33.30100 53.61500 22.76300
O  33.29000 53.40000 21.58500
C  32.76900 54.91000 23.15800
N  35.25700 48.44300 23.17200
C  35.03600 49.33000 22.16000
C  35.08200 48.72700 20.75900
C  35.75000 47.33000 21.01900
C  35.75600 47.26100 22.60000
C  33.69600 48.65300 20.08300
C  37.26800 47.19200 20.37100
C  38.44900 47.88800 21.15300
N  35.98700 46.91000 25.47300
C  36.40400 45.91900 24.62900
C  36.90300 44.79700 25.34700
C  36.71300 45.10700 26.72600
C  36.20200 46.42000 26.79200
C  37.31000 43.49400 24.80900
C  37.03600 44.70300 28.09500
O  37.70500 43.74600 28.55300
C  36.46200 45.83100 29.01400
C  35.25900 45.34300 29.72500
O  34.17300 45.05200 29.22700
O  35.60600 45.33400 31.09100
C  34.54900 44.93600 32.00300
H  34.09600 52.25400 27.84700
H  34.46200 51.32200 21.44400
H  36.74500 45.31400 22.64100
H  34.91600 48.15100 30.34600
H  35.03800 51.11900 29.88300
H  32.52000 50.09200 28.94100
H  32.87500 50.91100 30.37200
H  33.05500 49.09700 30.35100
H  37.12800 50.11300 30.20800
H  37.61200 48.41700 30.08000
H  37.33800 49.89400 32.49800
H  37.50900 48.18700 32.38900
H  34.27000 54.95500 25.38500
H  34.22500 54.11700 26.91600
H  32.75700 54.24200 26.05700
H  32.11900 54.91000 24.03300
H  32.14300 55.24300 22.33000
H  33.58600 55.60900 23.34100
H  35.67800 49.43100 20.17900
H  35.10300 46.58400 20.55700
H  33.47600 49.47700 19.40400
H  32.91600 48.45400 20.81700
H  33.63000 47.76700 19.45100
H  37.27500 47.53500 19.33600
H  37.46000 46.12400 20.47600
H  38.88900 48.53800 20.39600
H  39.20200 47.10600 21.24500
H  38.23600 48.30700 22.13700
H  36.74000 42.80500 25.43200
H  38.39900 43.47500 24.84600
H  36.89300 43.43900 23.80300
H  37.18300 46.14300 29.77000
H  34.99800 44.92900 32.99600
H  34.15000 43.95600 31.74300
H  33.85700 45.77400 31.91100
Mg -5.47300 25.33400 25.79300
C  -4.38000 26.47000 28.98300
C  -7.54400 23.03100 27.43200
C  -5.88100 23.82800 22.81100
C  -2.91000 27.34900 24.36400
N  -5.73200 24.78000 27.94300
C  -5.30600 25.42800 29.05100
C  -5.81500 24.83700 30.36200
C  -6.71400 23.64700 29.82200
C  -6.70800 23.85700 28.27000
C  -6.03100 22.25600 30.34400
C  -6.60300 25.89900 31.18500
C  -6.16900 26.17100 32.63100
H  -5.54000 25.03200 33.31200
N  -6.63700 23.72400 25.18900
C  -7.49100 22.92600 25.97000
C  -8.26800 22.10800 25.06000
C  -7.78300 22.29600 23.76600
C  -6.73800 23.36900 23.86600
C  -9.41600 21.28300 25.57400
C  -8.26100 21.60700 22.46700
O  -7.89800 22.01000 21.33400
C  -9.17000 20.46800 22.48000
N  -4.54400 25.57700 23.81200
C  -4.88400 24.83900 22.72300
C  -4.13400 25.23300 21.45400
C  -3.37000 26.50300 21.93500
C  -3.54400 26.48200 23.47200
C  -3.41700 24.21200 20.64100
C  -3.87700 27.84800 21.30700
C  -5.19800 28.39600 21.86700
N  -4.01300 26.71200 26.47100
C  -3.11300 27.51400 25.74200
C  -2.46800 28.39300 26.65500
C  -2.97500 28.10800 27.96100
C  -3.81600 26.98500 27.77600
C  -1.54100 29.56800 26.29600
C  -2.90800 28.54500 29.37900
O  -2.36200 29.48500 29.96300
C  -3.79900 27.46300 30.11300
C  -2.69700 26.66300 30.87400
O  -1.93500 25.74200 30.48600
O  -2.58800 27.29700 32.08500
C  -1.40400 27.02000 32.81100
H  -8.18000 22.41500 28.07100
H  -6.14100 23.22100 21.94100
H  -2.12500 27.91300 23.85700
H  -4.95300 24.49300 30.93500
H  -7.76100 23.63800 30.12500
H  -5.66200 21.75400 29.44900
H  -6.63700 21.51700 30.86900
H  -5.23000 22.51000 31.03900
H  -7.62500 25.52300 31.23700
H  -6.67200 26.86500 30.68500
H  -7.02400 26.48800 33.22800
H  -5.45800 26.99500 32.57900
H  -9.21200 20.21200 25.59900
H  -10.28800 21.54600 24.97400
H  -9.66700 21.58600 26.59000
H  -8.72000 19.52400 22.78600
H  -9.65400 20.31300 21.51500
H  -10.06000 20.72400 23.05500
H  -4.83300 25.68000 20.74700
H  -2.32300 26.36700 21.66500
H  -2.34400 24.36800 20.53500
H  -3.96900 24.19100 19.70200
H  -3.50400 23.26700 21.17600
H  -3.98300 27.72400 20.22900
H  -3.05700 28.56500 21.34200
H  -5.87000 28.69600 21.06200
H  -5.08300 29.28600 22.48500
H  -5.67900 27.63300 22.47900
H  -1.31900 30.28200 27.08900
H  -2.22300 30.06600 25.60800
H  -0.66900 29.10900 25.83000
H  -4.59400 27.91400 30.70700
H  -0.56900 27.06700 32.11100
H  -1.46200 26.00200 33.19500
H  -1.33400 27.68300 33.67300

