158

Mg -10.19800 40.17500 42.80300
C  -9.39200 36.70200 42.19700
C  -7.14700 40.99200 41.09800
C  -11.16400 43.26800 42.49900
C  -13.47000 39.10500 43.66600
N  -8.56300 38.93900 41.70100
C  -8.47400 37.55400 41.71600
C  -7.15500 37.14100 41.15800
C  -6.33000 38.51000 41.09200
C  -7.43000 39.56400 41.27700
C  -5.34800 38.58600 42.28600
C  -7.30000 36.29700 39.87400
C  -6.15400 35.32800 39.55000
H  -5.04700 35.89700 38.52600
N  -9.25300 41.94500 42.01900
C  -8.07300 42.04900 41.42100
C  -7.77800 43.47500 41.18700
C  -8.95700 44.19300 41.39000
C  -9.86500 43.12000 41.95500
C  -6.49600 43.96700 40.50000
C  -9.14000 45.73000 41.22700
O  -8.24400 46.41800 40.75200
C  -10.39000 46.52500 41.57300
N  -12.08500 41.04200 42.97100
C  -12.15700 42.43000 43.01100
C  -13.58800 42.83200 43.49100
C  -14.30200 41.53500 43.91100
C  -13.26900 40.46300 43.42900
C  -13.65500 43.99000 44.56300
C  -15.72900 41.38200 43.15400
C  -16.73400 42.48600 43.38500
N  -11.28400 38.33000 43.01900
C  -12.53300 38.06600 43.36700
C  -12.82300 36.62800 43.39200
C  -11.60300 36.06800 42.94600
C  -10.73600 37.13700 42.69900
C  -14.16800 35.91400 43.55000
C  -10.92400 34.84000 42.58800
O  -11.30900 33.71700 42.67300
C  -9.39700 35.20200 42.27700
C  -8.51900 34.58200 43.38200
O  -9.03700 34.33900 44.45000
O  -7.23400 34.42100 43.05000
C  -6.35300 33.73100 44.00900
H  -6.21400 41.21300 40.57600
H  -11.54400 44.28300 42.36100
H  -14.38900 38.75400 44.13800
H  -6.88400 36.43500 41.94200
H  -5.78900 38.59100 40.15000
H  -5.55300 37.81300 43.02700
H  -5.48800 39.53700 42.79900
H  -4.31100 38.58700 41.95200
H  -7.28700 37.06900 39.10500
H  -8.23800 35.74500 39.82000
H  -6.60900 34.43700 39.11700
H  -5.64100 35.15200 40.49500
H  -6.79600 44.36200 39.52900
H  -5.75600 43.18300 40.33700
H  -5.90300 44.70700 41.03800
H  -10.31500 47.53300 41.16400
H  -10.57400 46.51700 42.64700
H  -11.28700 46.02500 41.20800
H  -14.00800 43.09500 42.52000
H  -14.38500 41.47600 44.99600
H  -12.73800 44.57500 44.48600
H  -13.76600 43.64700 45.59100
H  -14.48000 44.64600 44.28200
H  -16.16600 40.51900 43.65400
H  -15.72600 41.15900 42.08700
H  -17.78600 42.20300 43.41000
H  -16.55000 43.34300 42.73700
H  -16.57300 42.82500 44.40800
H  -14.18200 34.93300 43.07600
H  -14.82500 36.60800 43.02600
H  -14.49100 35.97800 44.58900
H  -9.15800 34.69700 41.34100
H  -6.62300 32.67600 44.06000
H  -6.49500 34.14500 45.00700
H  -5.34800 33.79400 43.59200
Mg -6.28800 24.81000 26.59600
C  -4.56600 26.40700 29.22600
C  -7.29700 22.51300 28.80000
C  -7.55800 22.96100 24.02500
C  -4.25300 26.69800 24.35300
N  -5.96800 24.53800 28.74200
C  -5.37800 25.35700 29.65500
C  -5.77100 25.03100 31.09700
C  -6.32300 23.60500 30.93600
C  -6.53200 23.50300 29.39000
C  -5.40800 22.43000 31.45900
C  -6.72800 26.11600 31.73300
C  -7.44000 25.87900 33.12500
H  -7.14000 24.57800 33.97100
N  -7.56000 23.12500 26.43000
C  -7.84200 22.29700 27.52000
C  -8.62900 21.21300 27.00300
C  -8.71600 21.35100 25.56900
C  -7.96600 22.57200 25.29600
C  -9.19700 20.21300 27.92300
C  -9.60100 20.58100 24.61500
O  -9.62800 20.81800 23.45400
C  -10.52200 19.40600 25.19600
N  -5.95400 24.89800 24.53200
C  -6.70200 24.06500 23.63300
C  -6.24900 24.29900 22.15700
C  -5.44700 25.63000 22.32600
C  -5.12800 25.71600 23.83600
C  -5.47700 23.13000 21.43800
C  -6.37000 26.91800 22.00200
C  -6.83700 27.09500 20.55000
N  -4.76600 26.28900 26.68900
C  -4.05300 26.97300 25.69500
C  -3.09000 27.91800 26.30000
C  -3.36300 27.79400 27.72400
C  -4.32700 26.77000 27.88500
C  -2.00000 28.82400 25.67800
C  -2.98100 28.29900 29.00700
O  -2.27300 29.22500 29.40500
C  -3.81200 27.41800 30.02600
C  -2.90700 26.78100 31.07200
O  -1.85700 26.17900 30.88300
O  -3.34200 27.10400 32.30800
C  -2.45500 26.81500 33.40900
H  -7.60900 21.79100 29.55700
H  -7.92000 22.40900 23.15500
H  -3.69500 27.39600 23.72500
H  -4.85200 24.93700 31.67600
H  -7.30400 23.45600 31.38800
H  -4.72900 22.73700 32.25400
H  -4.75200 22.26000 30.60500
H  -5.91700 21.50700 31.73900
H  -7.46100 26.26800 30.94100
H  -6.22900 27.08500 31.75900
H  -8.49900 25.87000 32.86500
H  -7.21500 26.72900 33.77000
H  -10.26600 20.39400 28.03400
H  -8.79500 20.24600 28.93600
H  -8.82300 19.27400 27.51600
H  -9.92200 18.62800 25.66900
H  -11.23300 19.22400 24.39100
H  -11.10900 20.02500 25.87300
H  -7.11700 24.46000 21.51800
H  -4.55400 25.58500 21.70400
H  -6.19500 22.84000 20.67100
H  -5.31400 22.38800 22.22000
H  -4.52700 23.49600 21.04900
H  -5.82700 27.82900 22.25500
H  -7.25500 26.98900 22.63500
H  -6.41400 28.02500 20.17000
H  -7.92400 27.11200 20.46600
H  -6.59000 26.20500 19.97100
H  -2.39200 29.39300 24.83500
H  -1.26800 28.06600 25.40000
H  -1.44400 29.48100 26.34700
H  -4.51200 27.98700 30.63700
H  -1.46800 27.26700 33.30500
H  -2.51600 25.74500 33.60700
H  -2.84300 27.34700 34.27700

