158

Mg 34.42400 3.15100 29.81500
C  32.27500 4.17600 32.41100
C  36.91700 3.24400 32.22100
C  36.53700 3.02000 27.26500
C  31.74700 3.56300 27.52200
N  34.64200 3.91000 32.05800
C  33.54200 4.11100 32.89700
C  33.93400 4.04100 34.36500
C  35.51400 4.23900 34.28200
C  35.72400 3.61700 32.79700
C  36.16900 5.69900 34.51900
C  33.53900 2.74800 35.10100
C  33.32300 2.92600 36.60000
H  33.94900 4.12700 37.34900
N  36.44900 2.98600 29.75100
C  37.32100 3.02000 30.83400
C  38.66100 2.87300 30.42100
C  38.57100 2.80900 28.96700
C  37.14900 2.86100 28.58200
C  39.84700 2.82300 31.34400
C  39.69100 2.65700 27.98400
O  39.54700 2.64900 26.77000
C  41.09300 2.42600 28.42800
N  34.21400 3.51800 27.74100
C  35.24900 3.28300 26.84300
C  34.70100 3.22300 25.33700
C  33.15900 3.21200 25.48900
C  33.02600 3.42900 26.98500
C  35.29400 4.33600 24.52000
C  32.44000 2.05800 24.88400
C  32.30100 0.70500 25.61300
N  32.46900 3.72200 29.90400
C  31.50900 3.76800 28.91500
C  30.25400 4.13900 29.52100
C  30.46600 4.20600 30.82900
C  31.87000 4.02500 31.03500
C  29.00300 4.44000 28.73900
C  29.83400 4.39400 32.11400
O  28.63100 4.62000 32.44700
C  30.95400 4.41100 33.16500
C  30.92800 5.69300 33.97900
O  31.34600 6.78500 33.64200
O  30.33000 5.47500 35.24200
C  30.47600 6.48800 36.31800
H  37.64600 3.07200 33.01500
H  37.20500 2.86500 26.41500
H  30.89600 3.44100 26.84800
H  33.41300 4.84600 34.88400
H  35.98400 3.52700 34.96200
H  36.65500 5.74300 35.49400
H  35.25300 6.22600 34.78900
H  36.65300 6.21500 33.69000
H  34.05400 1.81800 34.86000
H  32.50100 2.57900 34.81500
H  33.68600 2.01000 37.06500
H  32.28000 2.81500 36.89600
H  39.62300 2.74400 32.40800
H  40.47800 3.68900 31.14300
H  40.41100 1.90800 31.15800
H  41.35800 3.17900 29.17000
H  41.77600 2.62200 27.60200
H  41.08900 1.41600 28.83900
H  35.03100 2.25500 24.95800
H  32.70700 4.13300 25.12200
H  35.74300 4.97000 25.28400
H  34.59500 4.96200 23.96400
H  36.12000 4.03500 23.87600
H  32.91100 1.67800 23.97700
H  31.50000 2.48000 24.52700
H  31.22800 0.77500 25.79300
H  32.87100 0.83800 26.53200
H  32.50800 -0.17200 24.99900
H  28.32100 5.10400 29.27000
H  28.51400 3.53100 28.38800
H  29.25500 4.99400 27.83500
H  30.80600 3.52700 33.78600
H  29.90200 7.35700 35.99700
H  31.50600 6.66400 36.62800
H  30.00600 6.09700 37.22000
Mg 17.42300 52.24000 25.86300
C  19.59000 50.75800 28.24400
C  15.30100 53.02400 28.38400
C  15.48200 53.46100 23.52900
C  19.83800 51.28900 23.42100
N  17.48400 51.85400 28.05100
C  18.46700 51.28600 28.82400
C  18.11400 51.40700 30.34800
C  16.66600 52.01600 30.34600
C  16.48600 52.38300 28.85200
C  15.44200 51.14900 30.82900
C  18.97300 52.35600 31.12400
C  19.41100 51.90200 32.54100
H  18.38500 51.18000 33.38500
N  15.58500 52.99600 25.90800
C  14.80900 53.25800 27.03500
C  13.46200 53.75800 26.59600
C  13.52000 54.01100 25.21800
C  14.87400 53.47500 24.85600
C  12.37700 53.96400 27.48100
C  12.55500 54.55600 24.23100
O  12.67100 54.64600 23.01700
C  11.31400 55.31100 24.84600
N  17.60100 52.21700 23.76000
C  16.68200 52.92200 23.09400
C  17.01900 52.99500 21.59400
C  18.39900 52.41500 21.51800
C  18.65400 51.89300 22.96200
C  15.95200 52.40400 20.60900
C  19.55000 53.40100 21.06000
C  20.04600 54.44900 22.08900
N  19.34000 51.27400 25.77700
C  20.17300 50.97000 24.71800
C  21.38100 50.29000 25.15300
C  21.20100 50.20500 26.56200
C  19.93000 50.78100 26.87200
C  22.54500 49.83100 24.33000
C  21.77900 49.71900 27.85200
O  22.82300 49.10800 28.10100
C  20.73600 50.02700 28.91300
C  20.45100 48.73100 29.50400
O  20.15600 47.72200 28.86300
O  20.28200 48.88300 30.82400
C  19.73500 47.76900 31.60400
H  14.72600 53.39200 29.23600
H  14.88700 53.95700 22.75900
H  20.64800 51.15800 22.70000
H  18.11200 50.41000 30.78800
H  16.44900 52.95300 30.85900
H  15.91300 50.43400 31.50400
H  15.01200 50.51600 30.05300
H  14.77000 51.82700 31.35600
H  18.53500 53.33200 31.33400
H  19.89800 52.50500 30.56800
H  19.88500 52.75600 33.02400
H  20.22100 51.18900 32.39100
H  12.11200 55.01300 27.61300
H  12.65100 53.49200 28.42400
H  11.46200 53.50100 27.10900
H  10.69600 54.74100 25.54000
H  10.70800 55.73600 24.04600
H  11.64500 56.21100 25.36600
H  17.10300 54.04900 21.33100
H  18.36700 51.55000 20.85500
H  16.44300 51.59200 20.07300
H  15.46700 53.11800 19.94300
H  15.09400 52.02200 21.16200
H  19.21000 53.71700 20.07400
H  20.42400 52.75500 20.98800
H  19.32800 54.59100 22.89700
H  20.04500 55.38100 21.52300
H  21.08600 54.29800 22.37700
H  23.20000 49.15900 24.88300
H  23.12500 50.70000 24.01900
H  22.15700 49.26300 23.48400
H  21.12400 50.79000 29.58900
H  20.36100 46.91900 31.33200
H  18.69700 47.55600 31.35100
H  19.82600 47.93700 32.67800

