158

Mg 1.69000 -1.07100 44.12900
C  5.09800 -0.25300 43.43300
C  0.81400 1.69400 42.26600
C  -1.37600 -2.05200 44.54200
C  2.87700 -4.04800 45.47300
N  2.84700 0.48000 42.88700
C  4.19100 0.64500 42.83200
C  4.58500 1.76200 41.91600
C  3.22800 2.58700 41.75200
C  2.21300 1.54200 42.26400
C  2.99900 3.82400 42.65200
C  5.35700 1.34300 40.58500
C  6.70000 2.01000 40.28300
H  7.00200 2.72900 39.02100
N  -0.01800 -0.19400 43.62600
C  -0.18800 0.87100 42.80400
C  -1.63700 1.14400 42.60900
C  -2.28600 0.14400 43.28500
C  -1.25000 -0.74400 43.91500
C  -2.22200 2.22600 41.79100
C  -3.86600 0.08300 43.36100
O  -4.56600 0.88500 42.75600
C  -4.59200 -1.01400 44.06400
N  0.91000 -2.85200 44.79900
C  -0.44700 -3.03500 44.83100
C  -0.86700 -4.41700 45.36500
C  0.48000 -4.90500 45.99200
C  1.48200 -3.90700 45.33600
C  -2.21400 -4.67500 46.18500
C  0.69300 -6.45200 45.91400
C  0.87700 -7.17900 47.23100
N  3.57100 -2.01700 44.37200
C  3.87900 -3.26200 44.88200
C  5.32600 -3.47700 44.91400
C  5.82200 -2.24100 44.49000
C  4.73800 -1.43200 44.03500
C  6.03500 -4.69100 45.45400
C  7.04600 -1.47400 44.36200
O  8.16300 -1.73000 44.77400
C  6.60800 -0.16700 43.63500
C  6.99900 0.95300 44.50700
O  6.67500 1.06600 45.67900
O  7.77500 1.84600 43.82900
C  8.57900 2.81600 44.61400
H  0.55500 2.55300 41.64300
H  -2.41600 -2.37300 44.63600
H  3.18200 -4.92500 46.04800
H  5.36500 2.35100 42.39900
H  2.90900 2.82200 40.73600
H  3.84200 4.13800 43.26700
H  2.18500 3.69300 43.36500
H  2.69400 4.65700 42.02000
H  4.69100 1.40200 39.72300
H  5.58700 0.28100 40.67100
H  7.47900 1.25300 40.38100
H  6.83900 2.77100 41.05100
H  -2.91300 1.82500 41.05000
H  -1.48300 2.87900 41.32800
H  -2.89700 2.81100 42.41600
H  -5.62500 -0.70500 44.22600
H  -4.18400 -0.95800 45.07400
H  -4.35200 -2.00900 43.68900
H  -1.01100 -4.87500 44.38600
H  0.41300 -4.67600 47.05500
H  -2.91000 -5.35300 45.69000
H  -2.66500 -3.71200 46.42100
H  -1.88600 -5.17400 47.09700
H  1.58600 -6.60600 45.30700
H  -0.09900 -6.89500 45.31100
H  0.34500 -8.12300 47.11200
H  0.41500 -6.65300 48.06700
H  1.95600 -7.16400 47.38500
H  7.07800 -4.58400 45.15600
H  5.64900 -5.58200 44.95900
H  5.98100 -4.72200 46.54200
H  7.23800 -0.13400 42.74700
H  9.51000 2.97000 44.06900
H  8.69000 2.46200 45.64000
H  8.18200 3.83100 44.60800
Mg 8.78800 48.23400 25.94700
C  6.81900 48.21000 28.73200
C  11.48400 48.75200 27.90000
C  10.53500 47.57800 23.18700
C  5.84600 48.24200 23.91200
N  9.03500 48.59600 28.12100
C  8.11000 48.48700 29.05500
C  8.75200 48.77200 30.46400
C  10.14400 49.44000 30.11600
C  10.26900 48.91200 28.65200
C  10.23600 50.97200 30.07800
C  8.91000 47.44300 31.31800
C  8.50200 47.60800 32.85400
H  8.73700 46.33500 33.72900
N  10.77300 48.29800 25.59800
C  11.74600 48.42800 26.55900
C  13.07400 48.21200 25.83800
C  12.80700 47.80800 24.51100
C  11.30800 47.87700 24.37700
C  14.47700 48.22500 26.56900
C  13.76000 47.46800 23.35800
O  13.39000 47.29600 22.20000
C  15.24200 47.53200 23.56200
N  8.19800 48.21600 23.72900
C  9.13900 47.73400 22.86700
C  8.52200 47.49200 21.45300
C  7.06100 47.81800 21.66200
C  7.00500 48.21400 23.12400
C  9.24900 48.05900 20.26400
C  6.01600 46.82600 21.17100
C  5.25800 47.13800 19.82500
N  6.79500 48.18000 26.20600
C  5.68300 48.22600 25.32100
C  4.46900 48.11600 26.09300
C  4.89500 48.00400 27.47000
C  6.27800 48.03200 27.43200
C  3.10700 48.16700 25.53300
C  4.36500 47.95800 28.85400
O  3.18800 47.81600 29.28000
C  5.66300 48.09800 29.75300
C  5.66000 46.84600 30.47000
O  6.06200 45.80500 30.01500
O  5.06800 46.89700 31.69700
C  5.08600 45.68000 32.54800
H  12.35200 48.99600 28.51600
H  11.16100 47.20900 22.37200
H  4.92200 48.35600 23.34100
H  8.12900 49.48000 31.00900
H  10.93300 49.15400 30.81200
H  10.76500 51.40700 30.92600
H  9.22800 51.38000 30.00700
H  10.57200 51.32900 29.10500
H  9.92200 47.05100 31.21400
H  8.27900 46.62200 30.97900
H  7.48100 47.97300 32.96900
H  9.18000 48.38700 33.20100
H  14.35800 48.18100 27.65200
H  15.03000 49.10400 26.23900
H  14.98600 47.29500 26.31600
H  15.97000 47.47400 22.75300
H  15.53000 46.74200 24.25600
H  15.34900 48.47700 24.09500
H  8.68300 46.46000 21.14200
H  6.93000 48.68100 21.00800
H  9.49000 47.32500 19.49500
H  10.16700 48.46500 20.69000
H  8.67300 48.83900 19.76700
H  5.19000 46.61700 21.85000
H  6.62900 46.00500 20.79800
H  4.18500 47.04000 19.99200
H  5.66600 46.50000 19.04100
H  5.48600 48.16200 19.52900
H  2.86200 49.05500 24.95200
H  2.37100 48.19300 26.33700
H  2.95900 47.31100 24.87500
H  5.64400 48.93100 30.45600
H  5.77600 44.92200 32.17800
H  4.08500 45.27100 32.68500
H  5.53100 45.99300 33.49200

