158

Mg 54.34100 24.33100 44.80200
C  51.74000 26.61200 43.99200
C  52.51400 21.80000 43.32600
C  57.17400 22.51000 44.58200
C  56.28500 27.17500 45.45400
N  52.32600 24.24400 43.79800
C  51.44300 25.30200 43.50400
C  50.32400 24.76300 42.62400
C  50.36600 23.24000 42.86200
C  51.80000 23.01100 43.40400
C  49.31000 22.64400 43.88600
C  50.34100 25.22600 41.16600
C  51.65300 25.78500 40.66100
H  52.57600 24.81800 39.87100
N  54.77700 22.36600 44.13500
C  53.86100 21.53600 43.59100
C  54.62500 20.32800 43.21000
C  55.96500 20.38300 43.71700
C  56.02900 21.76700 44.12900
C  53.91800 19.19600 42.41000
C  57.02300 19.25800 43.65300
O  56.69200 18.11400 43.27600
C  58.54100 19.49200 43.83000
N  56.51400 24.78900 44.83700
C  57.38800 23.83700 44.88300
C  58.83200 24.34300 45.21200
C  58.54200 25.86400 45.55100
C  56.97500 25.96700 45.22100
C  59.56400 23.71900 46.41900
C  59.36200 26.97100 44.89900
C  58.91600 27.61800 43.56500
N  54.02900 26.44600 44.96100
C  54.91900 27.48000 45.32700
C  54.18600 28.72000 45.47300
C  52.94800 28.46300 44.87000
C  52.92300 27.04600 44.57400
C  54.70300 29.97800 46.10400
C  51.59800 29.01300 44.64400
O  51.07000 30.13200 44.83400
C  50.88400 27.84900 43.89700
C  50.55800 28.35400 42.55100
O  51.38000 28.87200 41.82600
O  49.23900 28.18000 42.27500
C  48.78300 28.51300 40.84800
H  52.03400 20.90000 42.93700
H  58.14800 22.01700 44.60800
H  57.00300 27.98500 45.60000
H  49.45200 25.18000 43.12800
H  50.31500 22.68400 41.92600
H  48.84700 21.74800 43.47200
H  48.60700 23.45200 44.08900
H  49.78800 22.34100 44.81700
H  49.49200 25.89700 41.03200
H  50.31200 24.39400 40.46200
H  52.27900 26.26200 41.41500
H  51.43700 26.56700 39.93300
H  54.64300 18.63300 41.82300
H  53.21900 19.50600 41.63200
H  53.44500 18.59300 43.18400
H  58.73200 20.44100 43.32900
H  59.04900 18.67600 43.31500
H  58.58800 19.54100 44.91800
H  59.48800 24.41400 44.34400
H  58.60500 26.03900 46.62500
H  60.39700 23.13800 46.02200
H  58.81800 23.02900 46.81500
H  59.99500 24.40100 47.15200
H  60.31700 26.47000 44.73900
H  59.65000 27.77400 45.57800
H  59.49800 27.23800 42.72500
H  59.13800 28.68300 43.63200
H  57.88800 27.35200 43.32000
H  55.52800 30.49100 45.61000
H  55.02000 29.70300 47.11000
H  53.86100 30.66800 46.15100
H  49.93600 27.62900 44.38600
H  49.49800 28.33800 40.04400
H  48.46900 29.55700 40.87300
H  47.88300 27.92900 40.66000
Mg -11.38500 37.69600 41.87500
C  -9.38400 35.26100 40.48600
C  -9.42200 40.08500 40.26200
C  -13.85900 39.96400 42.42300
C  -13.41800 35.15100 43.26200
N  -9.68400 37.61100 40.41900
C  -8.93800 36.53000 40.13300
C  -7.62000 36.89300 39.44200
C  -7.60200 38.40400 39.56400
C  -9.01300 38.78800 40.11200
C  -6.39800 38.95000 40.41300
C  -7.60600 36.35300 37.96600
C  -6.40900 35.47600 37.58100
H  -5.68800 35.94200 36.33700
N  -11.50100 39.78800 41.67700
C  -10.58300 40.55000 40.88600
C  -11.08600 41.86800 40.84300
C  -12.41700 41.84400 41.40500
C  -12.65100 40.51800 41.90600
C  -10.29200 42.98700 40.17600
C  -13.23000 43.08800 41.47300
O  -12.87500 44.08800 40.87100
C  -14.49100 43.08800 42.29700
N  -13.35300 37.61400 42.70000
C  -14.17100 38.63800 42.74500
C  -15.52500 38.32500 43.38300
C  -15.34000 36.81000 43.72600
C  -13.93500 36.45900 43.23300
C  -16.00800 39.20700 44.53600
C  -16.48900 35.93800 43.19300
C  -17.05800 34.76900 44.13900
N  -11.48500 35.53400 41.82700
C  -12.20100 34.70100 42.70300
C  -11.70400 33.36400 42.53500
C  -10.60800 33.57400 41.60500
C  -10.50900 34.90500 41.21900
C  -12.25200 32.18100 43.13600
C  -9.63700 32.83000 40.89700
O  -9.46300 31.65000 40.74000
C  -8.77200 33.85900 40.15900
C  -7.32800 33.75500 40.61300
O  -6.44400 33.41000 39.87900
O  -7.18900 34.05900 41.96000
C  -5.81700 34.19000 42.42900
H  -8.70300 40.85800 39.98400
H  -14.74800 40.59300 42.51000
H  -14.07000 34.46200 43.80300
H  -6.81300 36.45700 40.03100
H  -7.52800 38.93100 38.61300
H  -6.21400 40.00200 40.19400
H  -5.51200 38.32900 40.28000
H  -6.64200 39.01900 41.47300
H  -7.63000 37.21400 37.29800
H  -8.52400 35.79600 37.77700
H  -6.77500 34.46300 37.41100
H  -5.79800 35.46100 38.48300
H  -10.70400 43.37600 39.24500
H  -9.28600 42.70400 39.86500
H  -10.20800 43.90900 40.75200
H  -14.68100 44.14000 42.51100
H  -14.23600 42.58600 43.23000
H  -15.28700 42.61800 41.72000
H  -16.20500 38.47700 42.54400
H  -15.28000 36.55200 44.78300
H  -16.22900 38.61900 45.42700
H  -16.98100 39.66500 44.35800
H  -15.32200 40.02700 44.74800
H  -16.21500 35.62500 42.18500
H  -17.37500 36.54400 43.00000
H  -16.62100 33.81300 43.84900
H  -18.13900 34.66500 44.05300
H  -16.74400 34.92200 45.17200
H  -12.73100 31.57600 42.36700
H  -13.02900 32.53300 43.81400
H  -11.48300 31.60700 43.65300
H  -8.83500 33.60400 39.10100
H  -5.42700 33.18100 42.30000
H  -5.72600 34.57000 43.44700
H  -5.22600 34.79200 41.73800

