158

Mg 1.89300 -1.80500 44.05200
C  5.38600 -1.48000 43.73800
C  1.46200 1.01200 42.42800
C  -1.31700 -2.73700 43.50900
C  2.54900 -5.03300 45.31200
N  3.24900 -0.47800 43.13600
C  4.62300 -0.45000 43.15100
C  5.17600 0.77100 42.34400
C  3.92900 1.75400 42.29400
C  2.77500 0.71900 42.66300
C  4.06700 2.93300 43.30000
C  5.71800 0.33800 40.92300
C  7.14100 0.86400 40.54700
H  7.41200 0.86800 39.05900
N  0.18400 -0.93900 43.09200
C  0.26400 0.27600 42.58100
C  -1.05100 0.58800 42.07800
C  -1.81800 -0.65900 42.13600
C  -0.98000 -1.47300 42.95300
C  -1.39200 1.99800 41.53000
C  -3.19000 -0.91800 41.64300
O  -3.70100 -0.08700 40.84200
C  -3.97400 -2.16600 41.75600
N  0.82200 -3.66600 44.32000
C  -0.50400 -3.73200 44.14900
C  -1.15700 -4.93400 44.92600
C  0.11700 -5.66700 45.45500
C  1.30300 -4.74300 44.97600
C  -2.17800 -4.47700 45.98200
C  0.29100 -7.15400 44.94400
C  0.63800 -8.11300 46.01500
N  3.56000 -3.00900 44.56700
C  3.64800 -4.27600 45.12600
C  4.98000 -4.59900 45.48300
C  5.73000 -3.51900 44.94200
C  4.80200 -2.66700 44.36000
C  5.52800 -5.87700 45.96900
C  7.07400 -2.94100 44.70600
O  8.20600 -3.30900 45.02700
C  6.90400 -1.66300 43.89500
C  7.56200 -0.50400 44.56200
O  7.45200 -0.27200 45.76500
O  8.27600 0.23000 43.67800
C  8.64800 1.64000 44.08400
H  1.44100 2.04700 42.08100
H  -2.32900 -3.09600 43.31000
H  2.77600 -5.96900 45.82700
H  6.06500 1.08100 42.89500
H  3.79500 2.14900 41.28700
H  4.42800 3.83700 42.81000
H  4.71700 2.74600 44.15500
H  3.11200 3.09300 43.80100
H  4.95800 0.65400 40.20800
H  5.82900 -0.73400 40.75900
H  7.83200 0.16700 41.02100
H  7.18300 1.88600 40.92400
H  -0.73700 2.30200 40.71400
H  -1.07900 2.67900 42.32200
H  -2.42900 2.31900 41.43000
H  -4.94700 -2.01700 41.28700
H  -4.23300 -2.25700 42.81100
H  -3.51900 -3.11000 41.45700
H  -1.60100 -5.54500 44.14000
H  0.14200 -5.67700 46.54500
H  -3.17100 -4.63100 45.56000
H  -1.95200 -3.42100 46.12800
H  -2.06200 -5.00100 46.93100
H  1.09200 -7.15500 44.20500
H  -0.64500 -7.47000 44.48300
H  -0.21600 -8.22800 46.68300
H  1.50300 -7.76800 46.58100
H  1.04000 -9.07900 45.71100
H  6.51900 -5.71700 46.39600
H  5.74200 -6.66500 45.24600
H  5.06900 -6.27300 46.87500
H  7.40000 -1.84900 42.94300
H  9.46600 1.55600 44.80000
H  7.87800 2.21900 44.59400
H  9.01800 2.31000 43.30800
Mg -4.71800 25.95600 26.34400
C  -3.55800 27.49100 29.18300
C  -6.49300 23.67400 28.25700
C  -5.25900 24.13900 23.65000
C  -2.52700 28.04200 24.39300
N  -4.98000 25.58500 28.47700
C  -4.46100 26.42400 29.46300
C  -5.01700 26.00000 30.82200
C  -5.72100 24.68200 30.53100
C  -5.73800 24.62700 28.99900
C  -5.05400 23.38600 31.18700
C  -6.10500 27.06900 31.28600
C  -6.43300 27.49500 32.72100
H  -5.82000 26.59800 33.84500
N  -5.96800 24.31300 25.92200
C  -6.64000 23.60100 26.87800
C  -7.38700 22.56700 26.13600
C  -6.98000 22.60900 24.79000
C  -6.03400 23.69600 24.74500
C  -8.42700 21.74100 26.87700
C  -7.41100 21.63800 23.70000
O  -6.87800 21.70700 22.61300
C  -8.31400 20.52700 23.92300
N  -3.98200 26.16100 24.27900
C  -4.37500 25.22200 23.39100
C  -3.84900 25.45800 21.96500
C  -3.04300 26.77400 22.23600
C  -3.18600 27.03200 23.69100
C  -2.96100 24.26800 21.45100
C  -3.51500 27.97100 21.32600
C  -2.79300 28.26400 20.03800
N  -3.26800 27.42300 26.67900
C  -2.47200 28.18500 25.81700
C  -1.70900 29.13600 26.60600
C  -2.15700 28.95000 27.96700
C  -3.09600 27.89600 27.90800
C  -0.70000 30.12600 26.09900
C  -2.11600 29.49400 29.28800
O  -1.50700 30.52900 29.66000
C  -3.07600 28.63200 30.20100
C  -2.42000 28.14100 31.44000
O  -1.48900 27.34100 31.39900
O  -2.87000 28.77900 32.62200
C  -2.07400 28.60400 33.76900
H  -7.01900 22.93500 28.86600
H  -5.50100 23.69300 22.68300
H  -1.85500 28.65100 23.78600
H  -4.22400 25.76500 31.53200
H  -6.79000 24.68600 30.74200
H  -5.63600 22.80600 31.90300
H  -4.06000 23.62400 31.56700
H  -4.98800 22.68600 30.35400
H  -7.07300 26.84600 30.83700
H  -5.91600 28.02600 30.79900
H  -7.50000 27.30400 32.83300
H  -6.13100 28.53700 32.82700
H  -7.92900 21.38400 27.77900
H  -9.06500 20.96700 26.45200
H  -9.14900 22.43100 27.31300
H  -8.28700 19.86200 23.05900
H  -9.32900 20.91300 24.01700
H  -7.90100 20.02200 24.79600
H  -4.66400 25.55900 21.24800
H  -1.97200 26.77100 22.03400
H  -2.86300 23.43700 22.14900
H  -1.94900 24.58700 21.20000
H  -3.36400 23.88600 20.51400
H  -3.68400 28.84200 21.95900
H  -4.56200 27.74400 21.12800
H  -3.40100 28.21000 19.13500
H  -1.98600 27.54200 19.91600
H  -2.44100 29.29500 19.98400
H  -1.08800 30.66400 25.23400
H  0.27800 29.68500 25.90700
H  -0.49000 30.89700 26.84000
H  -3.72300 29.40500 30.61400
H  -2.05400 29.52900 34.34500
H  -1.00600 28.47200 33.59500
H  -2.53700 27.82600 34.37600

