158

Mg 4.96700 54.84500 40.38900
C  4.47700 51.47200 41.05100
C  7.69200 54.21000 38.55500
C  4.76100 57.99600 39.24100
C  1.67600 55.34800 41.75200
N  5.85400 53.00800 39.70700
C  5.60800 51.73900 40.25100
C  6.58600 50.73100 39.70500
C  7.84100 51.69700 39.36600
C  7.09600 53.03700 39.19000
C  8.93100 51.70000 40.46900
C  6.13700 49.86400 38.49000
C  4.83000 50.20300 37.74100
H  4.94500 49.76500 36.25800
N  6.11700 56.04400 39.08000
C  7.21200 55.56100 38.45600
C  7.82100 56.68800 37.81300
C  7.03700 57.78000 38.00100
C  5.92100 57.34200 38.80100
C  9.16800 56.52700 37.07700
C  7.35400 59.15200 37.40700
O  8.21000 59.35500 36.50000
C  6.69700 60.35900 37.94800
N  3.32500 56.35100 40.36500
C  3.61300 57.56100 39.87500
C  2.49100 58.57500 40.21100
C  1.37600 57.73600 40.74800
C  2.14700 56.40700 40.94600
C  2.90400 59.75600 41.09900
C  0.12600 57.62200 39.74900
C  -1.27600 58.04300 40.40600
N  3.46600 53.73900 41.44400
C  2.26900 54.06500 41.99300
C  1.78000 52.95900 42.81000
C  2.73600 51.94600 42.52100
C  3.64100 52.42700 41.64200
C  0.47000 52.93900 43.74600
C  3.02100 50.52900 42.81900
O  2.59100 49.75400 43.56600
C  4.14900 50.19500 41.76800
C  3.58100 49.13100 40.89200
O  2.62100 49.34100 40.13200
O  4.32200 47.95400 41.03700
C  3.87400 46.72700 40.34400
H  8.70900 54.01800 38.20600
H  4.61000 59.01600 38.88300
H  0.71100 55.51700 42.23300
H  6.72900 50.10200 40.58400
H  8.25600 51.26400 38.45500
H  8.76700 50.86500 41.15000
H  8.93400 52.64800 41.00500
H  9.90300 51.64100 39.97900
H  5.92000 48.91400 38.97800
H  6.94000 49.63600 37.79000
H  4.68000 51.28000 37.80600
H  3.99900 49.61200 38.12800
H  9.80300 57.38700 36.86300
H  9.17300 55.94700 36.15500
H  9.74100 55.94100 37.79600
H  7.29700 61.24100 37.72100
H  6.46100 60.27500 39.00900
H  5.80600 60.40100 37.32200
H  2.20200 59.04200 39.27000
H  0.99500 58.13000 41.69000
H  2.30500 59.92300 41.99400
H  2.61000 60.69100 40.62100
H  3.98000 59.67200 41.25400
H  0.03700 56.61400 39.34200
H  0.20800 58.31100 38.90900
H  -1.15500 58.66700 41.29200
H  -1.74700 57.16500 40.84800
H  -1.90600 58.57500 39.69400
H  0.68800 52.69400 44.78500
H  -0.32100 52.30400 43.34800
H  -0.01800 53.91400 43.75900
H  5.00600 49.69600 42.22200
H  3.87500 45.86800 41.01500
H  4.55500 46.41200 39.55300
H  2.89500 46.77100 39.86600
Mg -5.55500 26.01600 25.77700
C  -4.48700 27.45300 28.75200
C  -7.57200 23.76200 27.54100
C  -6.26100 24.56400 22.88500
C  -3.14300 28.01600 24.02600
N  -5.73900 25.55200 27.86500
C  -5.40300 26.39700 28.87400
C  -6.06100 25.97400 30.18100
C  -6.71500 24.57500 29.79500
C  -6.73900 24.65300 28.27800
C  -5.86500 23.36400 30.28000
C  -6.99400 26.97800 30.86200
C  -7.03900 27.20400 32.36100
H  -6.45000 26.10000 33.20100
N  -6.74900 24.36100 25.25500
C  -7.55000 23.61300 26.10500
C  -8.28200 22.65400 25.29200
C  -7.92800 22.80000 23.92600
C  -6.95400 23.95000 23.95000
C  -9.12100 21.63000 25.93400
C  -8.29700 21.96700 22.73400
O  -7.83600 22.14600 21.62000
C  -9.36900 20.83300 22.95500
N  -4.72600 26.15600 23.75900
C  -5.19100 25.45800 22.73100
C  -4.55000 25.79900 21.41200
C  -3.60300 26.93200 21.79100
C  -3.80200 27.05100 23.28700
C  -3.78800 24.67200 20.69900
C  -3.99400 28.19800 20.92200
C  -2.86100 29.23100 20.67100
N  -4.20600 27.49400 26.22100
C  -3.35300 28.22100 25.45000
C  -2.70400 29.20500 26.23100
C  -3.09800 28.95200 27.58400
C  -4.00400 27.89400 27.51000
C  -1.74000 30.14900 25.75900
C  -2.95300 29.31900 28.99800
O  -2.24600 30.18900 29.52500
C  -3.80500 28.33000 29.75900
C  -2.83800 27.65900 30.61000
O  -2.02600 26.86200 30.23700
O  -3.05800 27.88200 31.97400
C  -2.29800 27.17000 32.96300
H  -8.13200 23.10000 28.20400
H  -6.59400 24.21000 21.90800
H  -2.41100 28.67400 23.55300
H  -5.28000 25.82900 30.92800
H  -7.77200 24.43600 30.02300
H  -5.04200 23.61200 30.95100
H  -5.38300 22.84700 29.45100
H  -6.50000 22.65100 30.80500
H  -8.00100 26.60300 30.67800
H  -6.88800 27.96000 30.40100
H  -8.10800 27.32600 32.53800
H  -6.52400 28.12200 32.64300
H  -10.13500 21.67900 25.53700
H  -9.09400 21.56800 27.02200
H  -8.72700 20.64000 25.70300
H  -9.10300 20.09700 23.71300
H  -9.59200 20.35200 22.00300
H  -10.27200 21.38100 23.22600
H  -5.37300 26.10400 20.76600
H  -2.57500 26.66400 21.54600
H  -2.91800 25.08600 20.18900
H  -4.37400 24.33900 19.84300
H  -3.58100 23.74300 21.23100
H  -4.85900 28.68900 21.36700
H  -4.10700 27.80400 19.91200
H  -2.47700 29.23600 19.65100
H  -1.97500 29.10900 21.29400
H  -3.29400 30.17700 20.99500
H  -0.79800 29.76200 25.37100
H  -1.40900 30.94700 26.42400
H  -2.21000 30.74500 24.97800
H  -4.49400 28.89200 30.38900
H  -1.26600 27.02100 32.64600
H  -2.74600 26.22700 33.27400
H  -2.36700 27.77300 33.86900

