158

Mg 1.04700 7.87100 26.14400
C  1.77500 9.77900 28.88700
C  1.34000 5.02300 28.12800
C  0.44100 5.94200 23.37900
C  1.53300 10.61800 23.96400
N  1.39600 7.53000 28.25500
C  1.61400 8.41800 29.24400
C  1.75800 7.79900 30.62400
C  2.02200 6.30400 30.26700
C  1.57900 6.27700 28.78200
C  3.38300 5.63500 30.68200
C  0.44200 8.06800 31.42700
C  0.61000 8.18200 32.91900
H  1.68300 7.40800 33.65500
N  0.75200 5.78300 25.82800
C  0.91600 4.79500 26.76600
C  0.52600 3.55800 26.17300
C  0.25900 3.76800 24.74000
C  0.49200 5.23300 24.63300
C  0.46800 2.27200 27.00800
C  -0.16800 2.73800 23.65200
O  -0.50900 3.12600 22.54800
C  -0.21600 1.29000 23.91400
N  0.92100 8.23600 23.94600
C  0.65900 7.25700 23.02500
C  0.59300 7.87000 21.61800
C  0.63100 9.37200 21.89800
C  1.00000 9.48600 23.37600
C  1.79500 7.45900 20.70400
C  -0.68300 10.13300 21.57800
C  -1.03700 10.47000 20.15400
N  1.57300 9.79400 26.34000
C  1.80200 10.78300 25.30300
C  1.89700 12.04600 26.09900
C  1.96300 11.76400 27.43500
C  1.77100 10.34800 27.58900
C  1.96300 13.47000 25.57400
C  2.11300 12.30400 28.77100
O  2.25100 13.44200 29.21000
C  1.98300 11.02500 29.76500
C  3.10900 10.92200 30.82500
O  4.22900 10.42500 30.78500
O  2.62200 11.57200 31.92300
C  3.46800 11.57200 33.12500
H  1.32900 4.15700 28.79400
H  0.13800 5.39700 22.48200
H  1.52500 11.49100 23.30900
H  2.61700 8.28800 31.08200
H  1.30600 5.78100 30.90100
H  4.09700 5.47000 29.87600
H  3.10300 4.69900 31.16600
H  3.91900 6.26000 31.39600
H  -0.30100 7.37800 31.02700
H  0.02400 9.02900 31.12700
H  -0.37000 8.10600 33.39100
H  0.78400 9.23500 33.14000
H  -0.02500 1.44400 26.49900
H  -0.20400 2.40500 27.85600
H  1.39900 2.00100 27.50600
H  -0.98300 1.09800 24.66400
H  0.69700 0.87600 24.34300
H  -0.52400 0.75900 23.01300
H  -0.35900 7.55000 21.19600
H  1.43700 9.93700 21.42900
H  2.19100 6.49700 21.02800
H  2.61700 8.17100 20.78300
H  1.50200 7.55700 19.65900
H  -0.65100 11.02800 22.20000
H  -1.53300 9.61000 22.01500
H  -0.14500 10.20900 19.58500
H  -1.12600 11.55000 20.03300
H  -1.87400 9.89500 19.75800
H  1.55500 14.12700 26.34200
H  1.31100 13.39300 24.70400
H  2.97000 13.71600 25.23500
H  1.03200 11.27400 30.23600
H  4.45400 12.01700 32.99300
H  3.55600 10.53400 33.44400
H  2.90900 12.19700 33.82100
Mg 36.50300 49.48900 25.05200
C  36.73500 47.73000 28.20000
C  35.63100 52.35600 26.83100
C  36.41000 51.16300 22.20200
C  37.24700 46.45900 23.49900
N  36.20100 49.88700 27.21400
C  36.52100 49.10900 28.31100
C  36.41100 49.90500 29.63200
C  35.85000 51.29500 29.19600
C  35.81100 51.19500 27.60900
C  34.51000 51.74000 29.89700
C  37.81400 50.05400 30.25300
C  38.04300 50.17800 31.83700
H  36.76300 50.40100 32.67100
N  36.02900 51.52500 24.58500
C  35.63700 52.50800 25.41100
C  35.49200 53.75400 24.66800
C  35.67400 53.41600 23.23800
C  35.98900 51.97800 23.31400
C  34.99200 55.01200 25.27400
C  35.56200 54.26900 22.01300
O  35.69000 53.83400 20.82800
C  35.38500 55.67900 22.27600
N  36.60800 48.87400 23.10700
C  36.65200 49.81000 22.07700
C  37.11600 49.13500 20.75200
C  37.60000 47.64700 21.24300
C  37.14300 47.62700 22.70700
C  36.04400 49.13500 19.57200
C  39.14300 47.48000 21.09000
C  39.55700 46.04100 20.69100
N  36.75600 47.50900 25.62400
C  37.06900 46.40200 24.86000
C  37.14500 45.26400 25.70600
C  37.01500 45.78600 27.01000
C  36.76900 47.13900 26.93500
C  37.60200 43.96700 25.35200
C  37.12100 45.37200 28.39200
O  37.46500 44.36300 28.94000
C  36.84700 46.65900 29.23400
C  35.63500 46.37300 30.11300
O  34.65900 45.85200 29.62500
O  35.94200 46.69300 31.40500
C  34.78000 46.39500 32.29400
H  35.48900 53.24100 27.45400
H  36.33600 51.65600 21.23000
H  37.51100 45.55200 22.95100
H  35.68300 49.47800 30.32300
H  36.50700 52.15000 29.35400
H  34.67400 52.61600 30.52500
H  34.13200 51.05600 30.65600
H  33.66500 51.94400 29.23900
H  38.34300 50.86600 29.75400
H  38.37500 49.17100 29.94600
H  38.70600 51.04200 31.88000
H  38.56000 49.31500 32.25700
H  35.67900 55.82400 25.03300
H  35.13200 55.09300 26.35300
H  33.96900 55.35800 25.13000
H  36.13300 56.06100 22.97100
H  34.35100 55.95700 22.47800
H  35.63500 56.14800 21.32500
H  37.96800 49.73600 20.43500
H  36.95100 46.95900 20.70000
H  35.07800 49.12900 20.07600
H  36.09700 48.32400 18.84600
H  36.22500 50.08800 19.07500
H  39.71300 47.44600 22.01900
H  39.63800 48.21900 20.46000
H  38.68100 45.39300 20.71800
H  40.28200 45.61200 21.38300
H  40.05500 46.09500 19.72300
H  38.42200 43.65200 25.99600
H  37.80600 43.81400 24.29300
H  36.72000 43.34700 25.51200
H  37.70900 46.90400 29.85500
H  34.55800 45.33300 32.19400
H  33.94700 47.06900 32.09400
H  34.99600 46.46800 33.36000

