158

Mg 7.04900 53.43700 41.91900
C  6.22700 50.00300 41.18500
C  10.28300 52.79900 40.68900
C  7.73700 56.69500 41.87600
C  3.60700 54.01800 42.32300
N  8.11100 51.61800 40.85000
C  7.57300 50.34500 40.91100
C  8.71300 49.34300 40.35700
C  10.01700 50.17200 40.46800
C  9.45100 51.62500 40.71600
C  11.00900 49.67100 41.56100
C  8.31600 48.78400 38.94100
C  7.42400 49.66000 38.05900
H  7.15900 49.14900 36.71200
N  8.80900 54.60100 41.38200
C  10.02000 54.18200 40.96300
C  10.96000 55.24000 40.92000
C  10.13600 56.36600 41.17900
C  8.79200 55.93400 41.49300
C  12.44400 55.01200 40.44400
C  10.63200 57.78300 41.04100
O  11.81500 58.02400 40.78900
C  9.73500 59.00100 41.08400
N  5.81200 55.11300 41.96900
C  6.40600 56.40200 42.13800
C  5.29900 57.37900 42.43800
C  4.04500 56.52600 42.62400
C  4.47900 55.13700 42.26700
C  5.52300 58.49200 43.50300
C  2.80800 57.05700 41.77600
C  1.40700 56.94400 42.41900
N  5.33200 52.30000 41.90100
C  3.97500 52.68200 42.09000
C  3.11900 51.51600 42.05800
C  4.05200 50.41500 41.84500
C  5.31100 50.99900 41.59300
C  1.62300 51.48000 42.33400
C  4.12500 49.01000 41.82700
O  3.26600 48.20700 42.13800
C  5.56700 48.61500 41.33300
C  5.39400 47.68400 40.11800
O  4.93000 47.99800 39.03100
O  5.59400 46.42300 40.54700
C  5.18900 45.31100 39.62300
H  11.33800 52.56400 40.53300
H  7.72100 57.78500 41.82200
H  2.52500 54.15000 42.39000
H  8.66200 48.53700 41.08900
H  10.56400 50.15300 39.52500
H  11.96900 49.30900 41.19500
H  10.57300 48.81100 42.07000
H  11.26700 50.41500 42.31500
H  7.76100 47.86300 39.12000
H  9.17800 48.42800 38.37700
H  7.98200 50.59400 37.99300
H  6.48400 49.93800 38.53800
H  12.41500 54.41700 39.53000
H  12.90900 54.39800 41.21500
H  13.10400 55.87600 40.36900
H  10.36800 59.88700 41.03700
H  9.40500 59.03000 42.12300
H  9.00700 58.99300 40.27300
H  5.24400 57.85200 41.45800
H  3.86900 56.44500 43.69600
H  5.55300 59.50300 43.09700
H  6.43900 58.36600 44.08000
H  4.67500 58.51600 44.18800
H  2.80400 56.66200 40.76100
H  3.02400 58.08400 41.48100
H  0.73100 56.44100 41.72700
H  1.01400 57.94300 42.61000
H  1.43900 56.40300 43.36500
H  1.48400 51.93400 43.31500
H  1.21800 50.46800 42.33500
H  1.14400 52.25700 41.73800
H  5.99200 48.03300 42.15100
H  5.68400 44.35600 39.79900
H  5.43700 45.64300 38.61500
H  4.11100 45.15000 39.66600
Mg 17.87300 51.34900 25.87700
C  19.58000 49.94900 28.67700
C  15.26200 52.08400 28.12100
C  15.90400 52.15900 23.30400
C  20.00500 49.77200 23.79900
N  17.56300 51.22400 28.22000
C  18.33500 50.55600 29.04400
C  17.80400 50.65100 30.56200
C  16.34100 51.07700 30.22600
C  16.42000 51.55100 28.73900
C  15.22600 49.99300 30.53800
C  18.63000 51.56100 31.50000
C  18.61900 51.26400 33.01200
H  17.48800 50.30700 33.57900
N  15.96700 52.19700 25.74100
C  15.03900 52.30600 26.76800
C  13.77800 52.83800 26.25800
C  14.03200 53.06900 24.83900
C  15.38700 52.54000 24.60100
C  12.63600 53.25400 27.05800
C  13.14400 53.74200 23.79400
O  13.41500 53.73900 22.61300
C  11.73400 54.33400 24.23800
N  17.82000 50.81500 23.71000
C  17.04300 51.42900 22.88600
C  17.41300 51.21800 21.42300
C  18.80400 50.36100 21.53900
C  18.88500 50.27300 23.06300
C  16.35000 50.65000 20.52100
C  20.04900 51.08200 20.97900
C  20.90800 50.20100 20.07300
N  19.44600 50.23400 26.08900
C  20.28700 49.60800 25.16800
C  21.32800 48.82500 25.81200
C  21.12300 48.99000 27.21200
C  19.96500 49.88600 27.31100
C  22.36300 48.03000 25.18400
C  21.68100 48.64900 28.52000
O  22.63100 47.95100 28.85300
C  20.65400 49.32100 29.56400
C  20.11200 48.21300 30.33500
O  19.23600 47.45000 29.96300
O  20.72000 48.13800 31.57300
C  20.31800 47.06500 32.40600
H  14.48100 52.14500 28.88200
H  15.28200 52.32400 22.42100
H  20.73100 49.44900 23.05000
H  17.91200 49.63800 30.95000
H  16.15400 52.00600 30.76500
H  14.72200 49.55500 29.67600
H  14.50000 50.42400 31.22600
H  15.60200 49.16300 31.13600
H  18.23800 52.55800 31.29900
H  19.64700 51.36300 31.16200
H  18.58100 52.23000 33.51700
H  19.52100 50.74000 33.32700
H  12.79000 54.18300 27.60700
H  12.52500 52.42600 27.75800
H  11.73600 53.41400 26.46400
H  11.86700 55.07000 25.03100
H  11.02200 53.56700 24.54300
H  11.26000 54.83000 23.39100
H  17.63900 52.22300 21.06800
H  18.70700 49.40300 21.02800
H  15.38000 50.58300 21.01400
H  16.62200 49.65100 20.18100
H  16.13500 51.22100 19.61800
H  20.71600 51.40000 21.78000
H  19.62200 51.95100 20.47900
H  21.01000 49.17100 20.41400
H  21.91500 50.59700 19.94300
H  20.31600 50.20600 19.15800
H  22.84600 48.62600 24.40900
H  21.94400 47.10000 24.79900
H  22.99800 47.77400 26.03100
H  21.22100 50.03200 30.16500
H  20.52600 46.17400 31.81400
H  19.25400 47.11200 32.63800
H  20.87500 46.98600 33.34000

