158

Mg 45.02300 5.90300 48.02400
C  42.75200 8.58500 47.17700
C  42.47000 3.66100 46.91900
C  47.17600 3.41100 48.13300
C  47.59900 8.18900 47.97000
N  42.83500 6.14400 47.21000
C  42.13800 7.33800 47.02400
C  40.63100 7.00700 46.69600
C  40.63000 5.41100 46.63300
C  42.03900 5.02100 46.89500
C  39.71200 4.75900 47.70500
C  40.00000 7.69000 45.49300
C  40.84800 8.16000 44.39100
H  40.38200 7.95700 42.96300
N  44.81400 3.81700 47.81200
C  43.78100 3.12500 47.30100
C  44.08500 1.75900 47.38400
C  45.41800 1.59000 47.88300
C  45.88300 2.96500 47.97600
C  43.11900 0.69900 46.90600
C  46.12700 0.23200 48.10500
O  45.57500 -0.82600 47.84600
C  47.59700 0.15800 48.64000
N  47.21600 5.75500 47.65500
C  47.80600 4.63000 48.03000
C  49.26400 4.82400 48.13900
C  49.39500 6.35800 48.36000
C  47.97700 6.82700 47.94400
C  50.02300 3.98900 49.17900
C  50.53600 7.13200 47.52000
C  51.45700 8.11300 48.26900
N  45.16700 7.90300 47.77000
C  46.29300 8.73300 47.83200
C  45.96100 10.13900 47.67100
C  44.55800 10.11100 47.55000
C  44.14000 8.75500 47.48800
C  46.97800 11.28600 47.71000
C  43.40000 10.99500 47.41800
O  43.38100 12.23300 47.34700
C  42.16600 10.03900 47.18700
C  41.12800 10.27500 48.30900
O  41.06800 9.59100 49.34700
O  40.17000 11.20000 47.93700
C  39.04400 11.24700 48.86700
H  41.62400 2.99200 46.74900
H  47.91300 2.64900 48.39600
H  48.42100 8.85500 48.23700
H  40.10600 7.41000 47.56200
H  40.43000 5.22800 45.57800
H  39.03400 5.45600 48.19700
H  40.34500 4.32200 48.47800
H  39.05500 4.04200 47.21300
H  39.53300 8.53400 46.00000
H  39.28800 7.02000 45.01100
H  41.88100 7.89700 44.61900
H  40.64500 9.22900 44.45700
H  42.16500 1.11200 46.57700
H  42.94400 0.06400 47.77400
H  43.56700 0.02500 46.17500
H  47.60400 -0.81200 49.13600
H  47.84300 0.93400 49.36500
H  48.29100 0.13100 47.80000
H  49.59200 4.48600 47.15600
H  49.58900 6.49800 49.42300
H  50.40300 3.15200 48.59300
H  49.27500 3.56500 49.84800
H  50.84200 4.52600 49.65700
H  50.04600 7.66100 46.70300
H  51.00900 6.32100 46.96600
H  52.46300 7.69700 48.20500
H  51.21900 7.99400 49.32600
H  51.47900 9.18400 48.06700
H  46.44200 12.22700 47.58700
H  47.56200 11.09400 46.81100
H  47.73900 11.26800 48.49000
H  41.69400 10.24600 46.22700
H  38.43100 12.14100 48.75400
H  39.36300 11.21600 49.90900
H  38.52700 10.33800 48.56100
Mg 54.55900 24.82400 44.51600
C  52.24000 27.25200 43.52600
C  52.49600 22.39300 43.28600
C  57.15100 22.66900 44.49400
C  56.85400 27.44500 45.03300
N  52.57300 24.87500 43.56400
C  51.86200 25.94800 43.14300
C  50.57500 25.48500 42.27300
C  50.43600 24.11200 42.92800
C  51.93900 23.73600 43.27400
C  49.62900 23.91000 44.25100
C  51.00100 25.50400 40.76700
C  49.97200 26.21000 39.78500
H  49.75800 25.47800 38.48800
N  54.75400 22.73900 44.02300
C  53.77600 21.93300 43.59200
C  54.32300 20.60900 43.43300
C  55.64400 20.64700 43.93000
C  55.96600 22.02700 44.16400
C  53.40400 19.46400 42.88600
C  56.52900 19.42600 44.10600
O  56.18800 18.29100 43.83000
C  57.95800 19.53100 44.52800
N  56.79900 25.05800 44.42600
C  57.58200 23.99200 44.60100
C  58.98800 24.44000 44.97300
C  58.95500 26.01900 44.89700
C  57.46300 26.20200 44.88100
C  59.55700 23.94300 46.32200
C  59.78800 26.79100 43.87900
C  60.91800 27.64500 44.42600
N  54.51900 26.95500 44.60300
C  55.50800 27.89000 44.91700
C  54.87700 29.25300 44.85000
C  53.59000 29.02400 44.29100
C  53.47300 27.66200 44.13600
C  55.54300 30.54300 45.15100
C  52.43000 29.67100 43.80600
O  52.18600 30.85100 43.74700
C  51.49800 28.57600 43.39400
C  50.99000 28.81400 42.04300
O  51.61200 29.07500 40.98700
O  49.64100 28.77000 42.11100
C  48.87600 29.50800 41.12100
H  51.82500 21.61000 42.92700
H  57.98000 21.95800 44.46100
H  57.53100 28.29800 45.12300
H  49.73700 26.16800 42.41100
H  50.13300 23.36800 42.19100
H  49.08100 24.84700 44.35300
H  50.31700 23.67900 45.06400
H  48.93000 23.08700 44.10000
H  51.44900 24.57400 40.41500
H  51.83800 26.18500 40.61400
H  50.41400 27.17200 39.53000
H  49.02700 26.32400 40.31700
H  53.92600 18.51000 42.82000
H  53.00800 19.70100 41.89900
H  52.52800 19.21100 43.48300
H  58.49500 18.59700 44.69500
H  58.07800 20.10300 45.44700
H  58.51900 20.11800 43.80000
H  59.74900 24.07700 44.28200
H  59.29600 26.38900 45.86400
H  58.78700 23.97100 47.09300
H  60.38100 24.55300 46.69000
H  59.84400 22.91400 46.10500
H  59.08900 27.35900 43.26400
H  60.22900 26.01000 43.25900
H  61.95400 27.34900 44.26000
H  60.81300 27.83600 45.49400
H  60.79800 28.63600 43.98800
H  54.94400 31.35200 44.73400
H  56.50600 30.49200 44.64200
H  55.76900 30.66700 46.21100
H  50.64600 28.56700 44.07300
H  48.89700 29.01800 40.14800
H  49.19700 30.53600 40.95400
H  47.84800 29.45800 41.48100

