158

Mg 24.45200 2.95100 29.38500
C  26.90000 2.74900 32.02900
C  22.01900 3.18100 31.62300
C  22.40500 2.82000 26.78000
C  27.19300 2.36800 27.05700
N  24.50500 2.93200 31.59300
C  25.55300 2.97700 32.41900
C  25.09500 3.06600 33.92000
C  23.52300 3.25200 33.77700
C  23.29700 3.12300 32.20400
C  22.72600 2.30600 34.61500
C  25.78500 4.25200 34.67800
C  26.19400 3.92500 36.12000
H  25.26500 4.71000 37.08700
N  22.52300 2.85800 29.21100
C  21.65300 3.00600 30.26500
C  20.26400 3.02700 29.82400
C  20.38500 2.83400 28.41600
C  21.82700 2.81300 28.08800
C  18.97300 3.22700 30.67700
C  19.27800 2.82800 27.43400
O  19.39700 2.82700 26.21200
C  17.94900 2.53700 28.02500
N  24.75500 2.67400 27.07800
C  23.72600 2.87900 26.25000
C  24.25300 3.15900 24.83400
C  25.82500 3.05200 25.02800
C  25.94800 2.72900 26.46700
C  23.72800 2.25800 23.64900
C  26.67700 4.23800 24.67400
C  26.60000 5.52200 25.68400
N  26.55500 2.63500 29.48500
C  27.47700 2.23500 28.46700
C  28.78600 2.03700 29.07800
C  28.58300 2.20500 30.47000
C  27.29500 2.60100 30.69800
C  30.06900 1.55400 28.45600
C  29.24500 2.19900 31.72400
O  30.39900 1.99900 32.08400
C  28.10800 2.52700 32.80600
C  28.02500 1.36300 33.83000
O  27.39100 0.30500 33.83100
O  28.72800 1.80300 34.99600
C  28.89600 0.79200 36.10100
H  21.19200 3.49700 32.26300
H  21.59300 2.97400 26.06600
H  28.11800 2.44500 26.48100
H  25.29300 2.06500 34.30400
H  23.21300 4.25800 34.05700
H  22.61500 1.37900 34.05100
H  21.81400 2.78200 34.97600
H  23.16700 1.97600 35.55600
H  25.14200 5.13100 34.63500
H  26.67400 4.53800 34.11500
H  27.19900 4.26500 36.37200
H  26.01200 2.86800 36.31000
H  18.32500 4.02800 30.32100
H  19.19200 3.53900 31.69800
H  18.41200 2.29200 30.65800
H  17.93400 1.63000 28.63000
H  17.31200 2.32500 27.16600
H  17.38300 3.39200 28.39500
H  24.12100 4.17400 24.45900
H  26.18700 2.18700 24.47200
H  24.33300 1.35300 23.58900
H  23.73900 2.87400 22.75000
H  22.71300 1.92200 23.86400
H  26.47400 4.48900 23.63200
H  27.71300 3.90100 24.69000
H  26.33900 5.19700 26.69100
H  25.88000 6.15400 25.16300
H  27.56300 6.01800 25.80800
H  30.81600 1.74300 29.22700
H  30.36800 2.19200 27.62400
H  30.11500 0.49900 28.18600
H  28.39900 3.47100 33.26600
H  29.25800 -0.16400 35.72200
H  28.04400 0.47600 36.70300
H  29.53800 1.23500 36.86200
Mg 34.90000 3.91300 30.02800
C  32.41900 5.06700 32.26100
C  37.04300 3.67300 32.51800
C  37.24100 3.45000 27.83700
C  32.61100 4.73800 27.49600
N  34.71900 4.30600 32.17600
C  33.60100 4.69800 32.89800
C  33.95900 4.62800 34.37100
C  35.55800 4.50500 34.44500
C  35.79100 4.13000 32.96600
C  36.32500 5.77000 34.83500
C  33.16000 3.38400 34.89100
C  32.43300 3.55300 36.22500
H  33.01700 4.53300 37.16500
N  36.81600 3.44700 30.17400
C  37.52400 3.29200 31.25000
C  38.84800 2.86200 30.89500
C  38.90000 2.72900 29.50800
C  37.60900 3.21000 29.11200
C  39.89800 2.70500 32.04200
C  40.01300 2.26000 28.64300
O  39.90500 1.85300 27.50800
C  41.41500 2.09700 29.28000
N  34.92800 4.09700 27.95400
C  36.09000 3.90100 27.25400
C  35.90900 4.31400 25.75400
C  34.40100 4.77700 25.74200
C  33.95100 4.47100 27.14500
C  36.93500 5.42500 25.35400
C  33.49400 4.06700 24.62500
C  32.70300 2.80600 24.91300
N  32.81500 4.51600 29.82300
C  32.03800 4.81400 28.74900
C  30.72600 5.14400 29.16400
C  30.83700 5.21900 30.55700
C  32.15100 4.92600 30.88900
C  29.48900 5.41900 28.29100
C  30.06600 5.78600 31.71000
O  29.01000 6.41300 31.85400
C  31.05900 5.46400 32.88200
C  31.16900 6.66700 33.70700
O  32.06300 7.48300 33.64200
O  30.22900 6.75500 34.70100
C  30.45800 7.70700 35.83900
H  37.74400 3.64600 33.35500
H  38.01800 3.29700 27.08600
H  32.10500 5.19700 26.64400
H  33.51600 5.53500 34.78200
H  35.90800 3.64800 35.02200
H  36.92400 6.17300 34.01900
H  37.09800 5.60000 35.58500
H  35.73400 6.61700 35.18200
H  33.80400 2.55500 35.18400
H  32.46600 2.91700 34.19200
H  32.49600 2.64900 36.83100
H  31.41800 3.86200 35.97700
H  40.63300 1.93900 31.79500
H  39.50300 2.40400 33.01300
H  40.30700 3.62600 32.45900
H  42.08000 2.22900 28.42700
H  41.58600 1.08700 29.65400
H  41.73500 2.87700 29.97100
H  35.96100 3.40800 25.15100
H  34.36100 5.85000 25.55300
H  36.37300 6.34000 25.16500
H  37.34100 5.09300 24.39900
H  37.70900 5.62900 26.09400
H  34.13800 3.85800 23.77100
H  32.83500 4.80800 24.17100
H  31.64500 2.98800 24.72200
H  32.90100 2.54400 25.95300
H  33.00500 1.94200 24.32100
H  28.72900 4.65300 28.44600
H  29.76300 5.35800 27.23700
H  29.07200 6.42300 28.36000
H  30.68400 4.64600 33.49600
H  29.71100 7.41400 36.57600
H  30.30800 8.66600 35.34200
H  31.46300 7.59400 36.24700

