158

Mg 30.13500 57.32600 38.89300
C  27.22200 55.62300 37.95300
C  31.93300 54.53100 38.20300
C  32.92600 59.21000 38.43300
C  28.24800 60.27000 39.12300
N  29.56600 55.36300 38.26100
C  28.34400 54.85700 37.91600
C  28.40200 53.28900 37.72800
C  29.88100 52.98800 38.17100
C  30.52100 54.33400 38.20600
C  30.00700 52.07000 39.44400
C  28.09300 52.79100 36.24000
C  28.82400 53.57400 35.16400
H  27.93400 54.53200 34.35200
N  32.23700 56.90300 38.57100
C  32.70800 55.69700 38.29300
C  34.12500 55.78400 38.00700
C  34.46800 57.13500 38.09600
C  33.22600 57.84500 38.40200
C  35.07500 54.56400 37.68300
C  35.80500 57.72600 37.77200
O  36.74800 56.93100 37.74200
C  36.14600 59.08700 37.62700
N  30.51300 59.41000 38.81100
C  31.77200 59.95100 38.70400
C  31.76400 61.49800 38.68000
C  30.30200 61.82500 39.17000
C  29.62800 60.41300 38.98800
C  32.92000 62.12000 39.62200
C  29.65100 63.06000 38.44400
C  29.42400 64.32200 39.30800
N  28.04600 57.89500 38.72600
C  27.48000 59.13700 38.87900
C  25.99300 59.02100 38.72700
C  25.88700 57.59400 38.38100
C  27.13000 56.99600 38.33500
C  24.96400 60.14300 38.74600
C  24.93700 56.52900 38.13600
O  23.72000 56.61700 38.12200
C  25.75500 55.27100 37.69500
C  25.40100 54.19000 38.66400
O  25.36900 54.25700 39.91100
O  25.10500 53.10400 37.94600
C  24.59500 51.95700 38.69500
H  32.41800 53.55800 38.10000
H  33.71700 59.96200 38.42100
H  27.85700 61.26300 39.35600
H  27.59200 52.92500 38.36000
H  30.34600 52.39900 37.38000
H  30.39400 52.66700 40.27000
H  30.74100 51.29600 39.21800
H  29.00400 51.69200 39.64400
H  27.02300 52.95800 36.12000
H  28.35100 51.73700 36.13600
H  29.22200 52.83900 34.46300
H  29.66200 54.12400 35.59200
H  35.55000 54.76100 36.72200
H  34.60100 53.58900 37.56900
H  35.81000 54.41100 38.47400
H  36.56300 59.42500 38.57600
H  35.26400 59.65400 37.32800
H  36.77000 59.27200 36.75200
H  31.84500 61.86100 37.65500
H  30.32700 61.97700 40.24900
H  33.25300 61.28000 40.23100
H  32.63800 62.80700 40.42000
H  33.77900 62.44700 39.03600
H  28.71700 62.58700 38.14000
H  30.28100 63.45000 37.64500
H  30.06600 64.26900 40.18700
H  28.38100 64.24500 39.61600
H  29.50900 65.16100 38.61700
H  24.45500 60.21700 37.78400
H  25.59200 61.02700 38.85000
H  24.19400 60.19700 39.51500
H  25.50200 55.04400 36.65900
H  24.05300 52.28900 39.58100
H  25.43200 51.34100 39.02500
H  24.01600 51.23000 38.12600
Mg 16.90300 51.49500 26.49600
C  18.84300 50.38800 29.13800
C  14.49800 52.49600 28.60500
C  15.22000 52.44700 23.78600
C  19.46800 50.22700 24.22400
N  16.81500 51.65400 28.68300
C  17.65100 51.03100 29.56800
C  17.07400 51.11000 30.97800
C  15.66100 51.68800 30.85500
C  15.59700 51.91800 29.27100
C  14.53100 50.80500 31.41700
C  18.05800 51.71800 32.00300
C  17.50400 52.52000 33.21600
H  16.51700 51.78900 34.10200
N  15.16500 52.43400 26.31500
C  14.29600 52.75200 27.30300
C  13.14300 53.45300 26.64200
C  13.41900 53.52700 25.23800
C  14.61800 52.74800 25.05700
C  12.07600 54.00500 27.50000
C  12.51500 54.16100 24.13300
O  12.71500 54.03100 22.92600
C  11.24100 54.92800 24.49200
N  17.24900 51.24800 24.24500
C  16.40500 51.81400 23.35400
C  16.83600 51.66800 21.93200
C  18.37700 51.27100 22.06800
C  18.39200 50.83200 23.57600
C  16.03700 50.58200 21.14200
C  19.42800 52.39100 21.79700
C  20.80600 51.86400 21.29500
N  18.74000 50.40700 26.59300
C  19.68500 50.06400 25.58700
C  20.79000 49.49900 26.20700
C  20.52100 49.51200 27.58400
C  19.28800 50.20400 27.80200
C  22.02400 48.93100 25.45400
C  21.03600 49.20600 28.97300
O  22.02700 48.62500 29.39500
C  19.97600 49.79400 29.99100
C  19.47100 48.62700 30.67900
O  18.60800 47.86000 30.25900
O  19.95200 48.54900 31.93200
C  19.24000 47.56900 32.70500
H  13.67500 52.81500 29.24900
H  14.77500 52.98100 22.94300
H  20.27300 49.96600 23.53400
H  16.96900 50.04500 31.18100
H  15.62300 52.70000 31.25900
H  13.93300 51.34800 32.14800
H  14.94000 49.91600 31.89700
H  13.85800 50.50900 30.61200
H  18.89200 52.25400 31.55000
H  18.52500 50.85800 32.48200
H  16.96500 53.39200 32.84600
H  18.37000 52.85800 33.78600
H  12.33200 55.04700 27.69500
H  11.77200 53.43000 28.37500
H  11.12400 54.14400 26.98900
H  10.64400 54.05300 24.74900
H  10.79500 55.57500 23.73800
H  11.39600 55.53200 25.38600
H  16.81000 52.69300 21.56200
H  18.64700 50.32900 21.59000
H  16.75900 49.87500 20.73400
H  15.53600 51.18700 20.38600
H  15.41100 50.20100 21.94900
H  19.63000 52.83500 22.77200
H  18.89500 53.08000 21.14200
H  21.04300 52.44800 20.40600
H  20.67200 50.82100 21.00900
H  21.60000 51.94500 22.03700
H  22.85200 48.78300 26.14700
H  22.27900 49.63500 24.66200
H  21.90100 47.96000 24.97600
H  20.55400 50.38100 30.70500
H  19.84800 47.46600 33.60300
H  19.22500 46.56700 32.27700
H  18.23700 47.86700 33.01200

