158

Mg 53.25700 23.62700 44.90100
C  50.46000 25.72300 44.02100
C  51.25900 20.97600 43.98000
C  56.01200 21.88300 45.02200
C  55.13300 26.63000 45.49000
N  51.17200 23.36100 43.79800
C  50.19900 24.40400 43.68600
C  48.93100 23.82300 43.11200
C  49.01000 22.37800 43.63600
C  50.61100 22.18900 43.81300
C  48.24300 22.02900 44.88700
C  48.97900 23.90900 41.58800
C  47.65900 24.53200 40.93200
H  46.91200 23.53100 39.99300
N  53.63400 21.67900 44.49400
C  52.66500 20.69600 44.16400
C  53.34000 19.42000 43.95200
C  54.71000 19.68900 44.26300
C  54.85200 21.08700 44.68600
C  52.69700 18.08500 43.68900
C  55.82900 18.66800 44.20800
O  55.49400 17.48900 43.93500
C  57.16500 18.92300 44.45800
N  55.24800 24.24300 45.16800
C  56.16200 23.22800 45.32900
C  57.56400 23.83200 45.36500
C  57.30800 25.36400 45.50200
C  55.82200 25.39700 45.37000
C  58.61000 23.35600 46.40300
C  57.88200 26.28100 44.42600
C  58.58000 27.48200 44.93100
N  52.81800 25.69500 44.98400
C  53.71500 26.74100 45.36500
C  52.98900 27.95100 45.34000
C  51.66200 27.58200 44.86400
C  51.67100 26.19900 44.62600
C  53.46200 29.31600 45.70500
C  50.40400 28.17400 44.47800
O  50.00800 29.38000 44.50600
C  49.56400 26.96000 43.95800
C  49.05000 27.21500 42.58900
O  49.68600 27.21300 41.57100
O  47.83900 27.81100 42.74100
C  47.18400 28.18600 41.52500
H  50.55600 20.17600 43.73700
H  56.96700 21.35500 45.01900
H  55.77200 27.47600 45.75000
H  48.09800 24.35600 43.57200
H  48.71700 21.64800 42.88200
H  47.86600 22.84900 45.49700
H  48.82800 21.32600 45.48000
H  47.30600 21.51700 44.66900
H  49.21300 22.99700 41.03800
H  49.81300 24.56100 41.32700
H  47.96500 25.46700 40.46100
H  46.95100 24.78100 41.72300
H  53.01400 17.76100 42.69700
H  51.63200 18.31600 43.71200
H  52.86700 17.35200 44.47700
H  57.79900 18.04500 44.33100
H  57.23400 19.33700 45.46400
H  57.40000 19.69100 43.72200
H  58.00100 23.58100 44.39900
H  57.54400 25.63300 46.53100
H  59.05500 24.18700 46.95100
H  59.52100 22.90100 46.01300
H  58.25800 22.51600 47.00200
H  57.20700 26.56500 43.61900
H  58.61500 25.61600 43.96800
H  58.19300 28.37300 44.43700
H  59.63400 27.51200 44.65500
H  58.39100 27.57600 46.00100
H  53.09200 29.69900 46.65500
H  53.15500 29.98400 44.90100
H  54.54900 29.35200 45.63200
H  48.68500 26.80500 44.58400
H  46.25500 27.62100 41.45400
H  47.66900 27.85900 40.60600
H  46.94600 29.24900 41.50700
Mg -9.54100 40.67700 42.73300
C  -8.59500 37.39400 41.63700
C  -6.76600 41.95400 41.02500
C  -10.81200 43.71900 43.07300
C  -12.54100 39.23500 43.78400
N  -7.98400 39.78300 41.39900
C  -7.79700 38.38600 41.12200
C  -6.41800 38.19700 40.43900
C  -5.78800 39.63500 40.50500
C  -6.93900 40.54800 40.98600
C  -4.43400 39.82900 41.30200
C  -6.46400 37.63300 39.03600
C  -5.51800 36.37800 38.74600
H  -4.38400 36.61100 37.70900
N  -8.92200 42.55100 42.16400
C  -7.74500 42.81900 41.51700
C  -7.59100 44.27500 41.38500
C  -8.71100 44.87800 42.04200
C  -9.56000 43.76800 42.48900
C  -6.38400 44.98300 40.72500
C  -9.01400 46.46400 42.17900
O  -8.27800 47.32000 41.73000
C  -10.26000 46.96400 42.89100
N  -11.49200 41.40700 43.40900
C  -11.65500 42.74700 43.47800
C  -13.20000 42.97700 43.73600
C  -13.77000 41.52400 44.00200
C  -12.52300 40.65700 43.81600
C  -13.40800 44.00500 44.87500
C  -15.05700 41.12400 43.16900
C  -15.78300 39.85900 43.62300
N  -10.45900 38.70800 42.69200
C  -11.59800 38.34400 43.23500
C  -11.69100 36.92600 43.24800
C  -10.50000 36.53300 42.66100
C  -9.78600 37.63700 42.34800
C  -12.87100 36.12600 43.60800
C  -9.78200 35.37200 42.23700
O  -10.01000 34.15200 42.33200
C  -8.53500 35.89200 41.55100
C  -7.32300 35.23400 42.18800
O  -7.06200 35.20500 43.34300
O  -6.71600 34.44800 41.25300
C  -5.63800 33.51300 41.77900
H  -5.86600 42.34400 40.54400
H  -11.26700 44.70800 43.16500
H  -13.44000 38.76100 44.18400
H  -5.88200 37.53800 41.12100
H  -5.57900 39.99100 39.49600
H  -3.89000 38.89000 41.41200
H  -4.75000 40.16000 42.29100
H  -3.83100 40.66100 40.93800
H  -6.14100 38.34400 38.27600
H  -7.47400 37.37700 38.71600
H  -6.11500 35.52600 38.41900
H  -5.06300 36.03500 39.67600
H  -6.67600 45.22600 39.70300
H  -5.54700 44.29300 40.83300
H  -6.10100 45.87200 41.28800
H  -10.08800 48.02200 43.08800
H  -10.30500 46.44900 43.85100
H  -11.15300 46.84100 42.27700
H  -13.70700 43.35100 42.84600
H  -13.92600 41.41900 45.07600
H  -12.47900 44.04300 45.44400
H  -14.26700 43.73200 45.48700
H  -13.46700 45.01900 44.47800
H  -14.79600 40.98400 42.12100
H  -15.82800 41.89000 43.24600
H  -15.40800 39.64800 44.62400
H  -15.73100 38.97400 42.98900
H  -16.82400 40.17100 43.71000
H  -13.50000 36.68200 44.30300
H  -12.65600 35.20100 44.14400
H  -13.34700 35.84800 42.66700
H  -8.54400 35.74400 40.47100
H  -5.92700 32.99300 42.69300
H  -4.67500 34.00200 41.92100
H  -5.36600 32.79000 41.01100

