158

Mg -0.48500 7.69500 27.21100
C  -0.21500 10.15900 29.70200
C  0.07700 5.33800 29.68700
C  -0.55200 5.52400 24.77000
C  -0.55700 10.35800 24.78500
N  -0.13900 7.70400 29.47000
C  -0.31100 8.89000 30.21300
C  -0.48700 8.51900 31.66300
C  -0.02000 6.98800 31.74800
C  -0.07500 6.59600 30.24800
C  1.36700 6.71900 32.39100
C  -1.91200 8.81300 32.27200
C  -2.19200 8.53500 33.75700
H  -0.93000 8.31200 34.66800
N  -0.31100 5.73100 27.20000
C  -0.08700 4.90700 28.30800
C  0.02100 3.54000 27.80000
C  -0.25300 3.53300 26.40600
C  -0.43000 5.00600 26.05700
C  0.32000 2.33400 28.67200
C  -0.31500 2.36400 25.40900
O  -0.67300 2.64500 24.28300
C  -0.17500 0.97800 25.79300
N  -0.62600 7.94200 25.07100
C  -0.70000 6.88300 24.26200
C  -0.89500 7.32200 22.75200
C  -1.08500 8.87700 22.86200
C  -0.70000 9.06900 24.32700
C  0.15900 6.80300 21.74600
C  -2.47300 9.36500 22.57000
C  -2.62900 10.68500 21.85600
N  -0.26100 9.79100 27.16700
C  -0.39500 10.75500 26.14200
C  -0.20600 12.07600 26.73200
C  -0.03700 11.88700 28.08100
C  -0.09300 10.45700 28.34600
C  -0.26200 13.32200 25.94200
C  0.14300 12.57400 29.29300
O  0.30700 13.79800 29.58300
C  -0.03800 11.50000 30.42800
C  1.04800 11.49300 31.46300
O  2.13100 10.98800 31.25300
O  0.64100 12.04400 32.62600
C  1.62400 12.09400 33.70200
H  0.20100 4.47500 30.34500
H  -0.51200 4.95600 23.83800
H  -0.73900 11.19600 24.10900
H  0.12600 9.17700 32.27900
H  -0.84700 6.49900 32.26200
H  1.13000 6.14800 33.28900
H  1.75700 7.70900 32.62800
H  1.99100 6.19100 31.67000
H  -2.53200 8.13000 31.69100
H  -2.17900 9.87000 32.24100
H  -2.71700 7.58000 33.76900
H  -2.76800 9.33400 34.22500
H  -0.60700 1.76200 28.68600
H  0.69900 2.58100 29.66400
H  1.07100 1.74100 28.14800
H  0.73100 0.75200 26.35500
H  -0.04000 0.35900 24.90600
H  -1.05900 0.73500 26.38300
H  -1.82900 6.83400 22.47100
H  -0.33100 9.47300 22.34800
H  0.50900 7.36500 20.88000
H  -0.18100 5.81600 21.43400
H  1.04300 6.49600 22.30500
H  -2.95400 9.35500 23.54800
H  -2.95900 8.69100 21.86400
H  -1.67300 11.20400 21.78700
H  -3.35600 11.26500 22.42400
H  -3.01500 10.63200 20.83800
H  -1.27900 13.30700 25.55000
H  0.54200 13.50800 25.23100
H  -0.10100 13.99300 26.78600
H  -0.93000 11.76100 30.99800
H  1.03200 11.67900 34.51700
H  2.03400 13.07300 33.95000
H  2.42600 11.37400 33.54000
Mg 23.90200 -4.86200 45.74700
C  25.86900 -2.66700 43.76200
C  21.15900 -3.92700 44.00600
C  22.43400 -7.64300 46.72800
C  26.93800 -5.88400 47.33000
N  23.51300 -3.56600 43.89800
C  24.45800 -2.71000 43.40500
C  23.83300 -1.76400 42.37700
C  22.29800 -2.05400 42.59900
C  22.29800 -3.22800 43.55100
C  21.41600 -0.87100 43.10100
C  24.44000 -2.05700 40.96300
C  24.82300 -0.85300 40.11000
H  24.60800 -1.06900 38.62800
N  22.04200 -5.66100 45.54900
C  21.03100 -5.09500 44.87400
C  19.81200 -5.79200 45.02700
C  20.10700 -6.86700 45.93000
C  21.58100 -6.79800 46.04900
C  18.43900 -5.42700 44.48600
C  19.20700 -7.82800 46.52600
O  17.97800 -7.99100 46.31000
C  19.78700 -8.85500 47.41100
N  24.53900 -6.44900 47.00400
C  23.72100 -7.48900 47.22800
C  24.52300 -8.58900 48.00100
C  25.85400 -7.87900 48.49700
C  25.78000 -6.61800 47.63300
C  23.81300 -9.31800 49.17900
C  27.20100 -8.74500 48.31900
C  28.11400 -8.62200 49.58300
N  25.99500 -4.47500 45.61700
C  27.07300 -4.86200 46.40000
C  28.19100 -4.02100 46.16700
C  27.75100 -3.15500 45.13200
C  26.43000 -3.49700 44.78600
C  29.44100 -4.08200 46.91900
C  28.17900 -2.08700 44.35100
O  29.24800 -1.54300 44.31400
C  26.99600 -1.71600 43.36100
C  26.74900 -0.26200 43.63500
O  26.13300 0.07900 44.62700
O  27.55400 0.48300 42.77500
C  27.56200 1.89900 43.23200
H  20.21400 -3.54600 43.61400
H  22.15900 -8.69700 46.79400
H  27.81900 -6.23500 47.87100
H  24.08300 -0.74400 42.66800
H  21.80800 -2.43100 41.70200
H  21.31700 -0.75100 44.17900
H  20.44700 -0.92800 42.60500
H  21.87200 0.00600 42.64200
H  23.71300 -2.58700 40.34700
H  25.32300 -2.66600 41.15400
H  25.84400 -0.68400 40.45100
H  24.12400 -0.07400 40.41300
H  18.34500 -5.72400 43.44100
H  18.40200 -4.33800 44.49700
H  17.60800 -5.83700 45.06100
H  19.01600 -9.31700 48.02700
H  20.49400 -8.41400 48.11400
H  20.19700 -9.63500 46.77000
H  24.77000 -9.39000 47.30400
H  25.81000 -7.41300 49.48200
H  24.20300 -10.33100 49.28100
H  22.73700 -9.14300 49.21300
H  24.18800 -8.86000 50.09400
H  27.75700 -8.40900 47.44400
H  26.82900 -9.75400 48.14400
H  28.16700 -9.54800 50.15600
H  27.82400 -7.70200 50.09100
H  29.12600 -8.49100 49.20000
H  30.16400 -3.56400 46.29000
H  29.83800 -5.07600 47.12800
H  29.37500 -3.49000 47.83200
H  27.40500 -1.76900 42.35200
H  27.75500 1.90500 44.30400
H  26.63700 2.45300 43.06900
H  28.44700 2.42300 42.87200

