158

Mg 9.83300 47.24900 26.27200
C  7.36900 47.25900 28.73100
C  12.04800 48.20900 28.64200
C  12.27000 46.95900 23.89200
C  7.47300 46.31200 23.88400
N  9.68900 47.72600 28.48900
C  8.61600 47.42900 29.32000
C  9.00400 47.66800 30.83900
C  10.56300 47.96300 30.73600
C  10.77500 48.05300 29.21600
C  10.95900 49.15700 31.72100
C  8.53900 46.51400 31.72900
C  9.47100 46.14800 32.91700
H  8.92600 45.62500 34.21000
N  11.84700 47.66700 26.27900
C  12.53600 48.02300 27.31500
C  13.94900 48.20800 26.92200
C  14.00200 47.83400 25.57100
C  12.65000 47.39300 25.17900
C  15.03200 48.68800 27.87000
C  15.23300 47.66300 24.76200
O  15.20000 47.40800 23.56100
C  16.66200 47.81700 25.34900
N  9.89400 46.83500 24.11600
C  11.00500 46.80300 23.34700
C  10.74300 46.48500 21.92900
C  9.19000 46.39000 21.83400
C  8.83900 46.42500 23.35800
C  11.47800 47.40700 20.89600
C  8.62200 45.13800 21.14700
C  8.97600 44.97700 19.70900
N  7.86200 47.05900 26.20300
C  6.99100 46.67700 25.15200
C  5.63900 46.71200 25.60000
C  5.71200 46.88800 26.99500
C  7.10400 47.04800 27.32900
C  4.50700 46.52300 24.71500
C  4.98700 47.02300 28.19800
O  3.78500 47.01800 28.37200
C  5.99800 47.28400 29.35100
C  5.72900 46.20600 30.21900
O  6.18000 45.11100 30.05100
O  4.86900 46.58100 31.09100
C  4.42300 45.60900 32.00700
H  12.84500 48.33700 29.37700
H  13.12100 46.76000 23.23700
H  6.72500 46.02100 23.14400
H  8.37100 48.49900 31.15000
H  11.19000 47.14500 31.09100
H  11.82600 48.81900 32.28800
H  10.20100 49.36900 32.47400
H  11.21800 50.05100 31.15500
H  8.39700 45.58400 31.17800
H  7.60600 46.80200 32.21300
H  9.88300 47.07400 33.31800
H  10.27500 45.51900 32.53500
H  14.67000 48.86000 28.88400
H  15.58200 49.57100 27.54400
H  15.81900 47.93500 27.83500
H  16.88400 48.86700 25.53600
H  17.32100 47.48100 24.54800
H  16.87600 47.21500 26.23200
H  11.06200 45.45600 21.76400
H  8.82800 47.27400 21.31000
H  11.89400 48.28800 21.38500
H  10.77500 47.80400 20.16500
H  12.24400 46.77800 20.44300
H  7.54500 45.27400 21.05500
H  8.88000 44.20600 21.65100
H  8.05100 44.75800 19.17600
H  9.50400 44.03400 19.56900
H  9.55000 45.77900 19.24500
H  4.67600 45.67200 24.05600
H  4.28700 47.34100 24.02900
H  3.63900 46.28900 25.33100
H  5.73200 48.23600 29.81200
H  4.31000 44.60400 31.60100
H  3.43800 45.94500 32.33000
H  5.08300 45.66000 32.87300
Mg -5.99100 25.25500 25.54300
C  -4.42300 26.37800 28.28800
C  -7.88500 23.18700 27.65600
C  -7.11400 23.43300 22.85000
C  -3.69000 26.80600 23.54600
N  -6.08400 24.83900 27.71000
C  -5.45600 25.50200 28.71300
C  -5.98500 25.24400 30.12000
C  -6.85300 23.98500 29.85700
C  -6.91000 23.95300 28.26600
C  -6.29500 22.70000 30.40100
C  -6.68200 26.49200 30.78800
C  -6.07800 26.88500 32.13300
H  -5.52100 25.74500 32.97900
N  -7.50000 23.74600 25.26000
C  -8.16700 23.11200 26.26900
C  -9.08800 22.16900 25.66400
C  -8.80900 22.14000 24.28200
C  -7.79800 23.12900 24.07700
C  -9.94900 21.29700 26.37500
C  -9.53100 21.23600 23.21700
O  -9.39000 21.46400 22.00800
C  -10.49100 20.14500 23.57800
N  -5.39800 25.07200 23.41800
C  -6.03800 24.24600 22.51800
C  -5.32500 24.37100 21.12100
C  -4.34600 25.62500 21.37100
C  -4.50000 25.92300 22.89500
C  -4.64400 23.13000 20.58600
C  -4.74800 26.92300 20.47500
C  -3.56200 27.42200 19.63900
N  -4.32400 26.41000 25.86500
C  -3.49400 27.06100 24.93100
C  -2.64300 27.93000 25.64600
C  -2.96700 27.65800 27.00600
C  -3.98900 26.72400 27.04900
C  -1.76300 28.94500 24.95200
C  -2.61100 27.95400 28.35100
O  -1.69400 28.61400 28.85500
C  -3.56300 27.11400 29.18200
C  -2.51500 26.31100 30.01900
O  -1.92400 25.33800 29.59200
O  -2.43600 26.76300 31.29000
C  -1.39400 26.05700 32.14600
H  -8.45900 22.55100 28.33300
H  -7.44100 23.06800 21.87400
H  -3.12500 27.44300 22.86200
H  -5.19200 24.90500 30.78700
H  -7.90200 24.04900 30.14400
H  -5.21900 22.79700 30.54400
H  -6.38700 21.93700 29.62700
H  -6.83900 22.40700 31.29900
H  -7.76300 26.35900 30.83800
H  -6.53800 27.30200 30.07300
H  -6.87100 27.32600 32.73600
H  -5.40900 27.74600 32.11900
H  -10.93100 21.24500 25.90300
H  -10.18800 21.73700 27.34300
H  -9.42400 20.35100 26.50400
H  -10.13400 19.50300 24.38300
H  -10.73200 19.51800 22.72000
H  -11.39400 20.62400 23.95800
H  -6.14500 24.62700 20.45100
H  -3.38000 25.24100 21.04200
H  -3.57600 23.26700 20.41800
H  -5.12000 22.90900 19.63100
H  -4.78800 22.25400 21.22000
H  -4.91600 27.77600 21.13300
H  -5.74700 26.80500 20.05600
H  -2.73200 26.71900 19.56700
H  -3.23000 28.29400 20.20200
H  -4.01900 27.61300 18.66800
H  -1.38000 28.60600 23.98900
H  -0.93000 29.10400 25.63700
H  -2.28600 29.89700 24.86500
H  -4.14900 27.73700 29.85900
H  -1.86200 25.65900 33.04700
H  -0.73100 26.87000 32.44000
H  -0.80300 25.25600 31.70200

