158

Mg 48.14100 35.29900 26.86100
C  46.20800 33.99300 29.48100
C  48.54200 38.12700 28.70200
C  49.36400 36.60500 24.05600
C  47.16700 32.40100 24.95800
N  47.64900 35.87100 28.97500
C  46.96300 35.10800 29.88200
C  47.13800 35.65500 31.25900
C  47.61200 37.22400 30.98600
C  47.93300 37.08400 29.40600
C  46.63400 38.33100 31.44300
C  48.26800 34.77700 31.86600
C  48.21200 34.50600 33.30200
H  47.26300 35.36900 34.11800
N  48.86800 37.12100 26.39700
C  49.10800 38.14500 27.36100
C  49.89800 39.16900 26.70800
C  50.01700 38.81000 25.32100
C  49.36300 37.49400 25.16100
C  50.35400 40.40400 27.37900
C  50.71000 39.55400 24.20900
O  50.87400 39.13400 23.07800
C  51.22200 40.94500 24.46600
N  48.23400 34.61000 24.76700
C  48.86000 35.40600 23.79500
C  48.98200 34.64100 22.41700
C  48.50000 33.16400 22.83300
C  47.91200 33.38000 24.27100
C  48.35800 35.32900 21.20300
C  49.52400 31.96300 22.76600
C  49.56400 31.10600 21.46800
N  47.03700 33.54200 27.11700
C  46.61100 32.53400 26.24600
C  45.68500 31.65500 26.93500
C  45.44400 32.23000 28.16800
C  46.32100 33.32900 28.23100
C  45.13800 30.37800 26.35100
C  44.69300 32.14200 29.40400
O  43.78800 31.42500 29.74400
C  45.13300 33.34100 30.25200
C  45.49400 32.78100 31.57800
O  46.45300 32.17700 31.84800
O  44.41300 33.00400 32.40800
C  44.37800 32.33400 33.68700
H  48.86300 39.02700 29.23100
H  49.83600 37.10500 23.20800
H  47.02000 31.47300 24.40100
H  46.21200 35.57600 31.82900
H  48.57400 37.41300 31.46200
H  45.67500 37.95100 31.79600
H  46.44800 39.02300 30.62200
H  47.09300 38.78400 32.32200
H  49.19700 35.33300 31.73500
H  48.38300 33.78600 31.42700
H  49.23800 34.66400 33.63500
H  48.00400 33.44200 33.41400
H  50.25400 40.23300 28.45000
H  49.69400 41.23800 27.13800
H  51.41100 40.66000 27.30000
H  50.58700 41.59700 25.06500
H  51.19200 41.44600 23.49800
H  52.21900 40.85800 24.89700
H  50.04500 34.66100 22.17600
H  47.65500 32.82400 22.23400
H  47.59100 34.75000 20.68900
H  49.22100 35.55500 20.57800
H  47.94000 36.28400 21.52200
H  49.19800 31.24700 23.52000
H  50.46000 32.48900 22.95100
H  49.15000 30.11800 21.67000
H  50.62000 31.06300 21.20300
H  49.00700 31.50700 20.62200
H  44.37200 29.97700 27.01500
H  45.96700 29.67000 26.33500
H  44.72900 30.48200 25.34600
H  44.28600 34.00900 30.40400
H  45.29900 32.29800 34.26900
H  44.00100 31.32900 33.49800
H  43.62800 32.91900 34.21900
Mg 30.03900 57.54800 40.55900
C  27.33500 55.55100 39.93400
C  32.19800 55.17800 39.46200
C  32.68600 59.71700 40.75100
C  27.96100 60.05100 41.77900
N  29.77700 55.65700 39.61400
C  28.55500 54.98000 39.61300
C  28.77600 53.55400 39.19000
C  30.30400 53.46900 39.21700
C  30.81400 54.79800 39.51300
C  30.90500 52.41300 40.13900
C  28.06900 53.28700 37.82100
C  28.49200 54.10000 36.61500
H  27.47600 54.95700 35.76700
N  32.11300 57.50100 39.94300
C  32.76400 56.40200 39.50700
C  34.13600 56.64200 39.27600
C  34.30000 57.94400 39.66600
C  33.01200 58.50200 40.18100
C  35.10500 55.76900 38.65100
C  35.55700 58.78000 39.51400
O  36.64100 58.23300 39.33100
C  35.58500 60.34800 39.67900
N  30.26700 59.63900 40.94200
C  31.47600 60.26600 41.03500
C  31.27500 61.74300 41.37800
C  29.89400 61.73100 42.08300
C  29.29200 60.34600 41.56300
C  32.32100 62.53200 42.22900
C  28.99500 62.94700 41.81200
C  28.55700 63.61800 43.16200
N  28.07700 57.77900 40.79700
C  27.35700 58.87200 41.31800
C  25.91500 58.50500 41.38800
C  25.84800 57.24200 40.77200
C  27.22600 56.81200 40.44600
C  24.72600 59.48100 41.62400
C  25.04400 56.09300 40.27300
O  23.83800 56.04400 40.24800
C  25.92400 55.01800 39.81300
C  25.56400 53.83900 40.61000
O  25.97700 53.59800 41.72000
O  24.61200 53.07400 39.92100
C  24.05000 51.92600 40.51100
H  32.97800 54.46000 39.19700
H  33.57000 60.30300 41.01000
H  27.36600 60.79900 42.30600
H  28.34200 52.90600 39.95200
H  30.50900 53.27000 38.16500
H  30.60900 51.38900 39.91100
H  30.49900 52.67200 41.11700
H  31.98200 52.46400 40.29400
H  26.98000 53.26200 37.86200
H  28.32900 52.24900 37.61100
H  28.97300 53.41800 35.91400
H  29.19500 54.86900 36.93600
H  35.82200 56.31100 38.03500
H  34.73700 54.95400 38.02700
H  35.67300 55.18600 39.37600
H  34.67900 60.77700 39.25200
H  36.35600 60.58200 38.94500
H  35.77500 60.56900 40.73000
H  31.19200 62.19900 40.39100
H  30.05000 61.61100 43.15500
H  33.17000 61.85100 42.27900
H  31.92200 62.79100 43.21000
H  32.61300 63.45900 41.73700
H  28.09000 62.63000 41.29500
H  29.56900 63.67300 41.23600
H  28.95300 64.60800 43.38500
H  28.68500 63.04700 44.08100
H  27.47700 63.73700 43.25000
H  25.04900 60.27500 42.29700
H  23.88100 58.94300 42.05400
H  24.42300 59.91200 40.67000
H  25.63100 54.95100 38.76500
H  23.03200 51.92000 40.12200
H  24.12500 51.82100 41.59400
H  24.54900 50.99700 40.23400

