158

Mg 7.77700 2.93200 26.89700
C  9.21700 1.68800 29.99500
C  5.55800 4.59700 28.86600
C  6.33500 3.91100 24.06300
C  9.60700 0.48900 25.22800
N  7.54600 3.21500 29.16300
C  8.20300 2.62200 30.23100
C  7.63300 3.04700 31.57100
C  6.29900 3.84400 31.18400
C  6.42900 3.83500 29.61300
C  4.96300 3.08700 31.64600
C  8.62400 3.80700 32.38700
C  8.54200 3.51500 33.92100
H  9.37800 4.45000 34.85400
N  6.36500 4.32500 26.51900
C  5.55300 4.86400 27.45200
C  4.68700 5.85100 26.81500
C  4.94100 5.72800 25.39100
C  5.92100 4.62400 25.21400
C  3.65700 6.72700 27.50300
C  4.49700 6.64700 24.17600
O  4.75300 6.35200 23.02000
C  3.66400 7.91600 24.54400
N  8.00300 2.30400 24.94000
C  7.20000 2.80600 23.91100
C  7.49100 2.09600 22.57600
C  8.68600 1.13100 22.95700
C  8.82200 1.32900 24.45200
C  6.26100 1.32300 22.14300
C  10.06100 1.51700 22.21200
C  10.71100 0.23000 21.66300
N  9.18700 1.49600 27.42000
C  9.78700 0.57000 26.61500
C  10.69600 -0.20600 27.39100
C  10.53400 0.21600 28.74100
C  9.58900 1.26200 28.67100
C  11.62300 -1.32000 26.90200
C  11.02200 0.01300 30.07600
O  11.92600 -0.68200 30.60600
C  10.03900 0.93200 30.95200
C  9.32400 0.01200 31.96300
O  8.23800 -0.55700 31.69500
O  9.98800 -0.02500 33.22100
C  9.16300 -0.67400 34.27800
H  4.93700 5.25200 29.48200
H  5.96400 4.32200 23.12100
H  10.19400 -0.28500 24.73000
H  7.43000 2.13900 32.13800
H  6.32100 4.86600 31.56200
H  5.16100 2.21000 32.26200
H  4.32200 2.85700 30.79500
H  4.37900 3.71200 32.32200
H  8.59100 4.89000 32.26500
H  9.64200 3.54700 32.09600
H  9.01200 2.54000 34.04800
H  7.51800 3.46800 34.29200
H  2.70300 6.44700 27.05600
H  3.68600 7.81500 27.44900
H  3.48100 6.43400 28.53800
H  4.32500 8.65300 24.99800
H  2.80800 7.73400 25.19400
H  3.16500 8.21200 23.62100
H  7.64900 2.89600 21.85200
H  8.43800 0.08700 22.76900
H  5.38800 1.50900 22.77000
H  6.34200 0.25600 21.93500
H  5.90800 1.55800 21.13900
H  10.68900 2.08300 22.90000
H  9.80600 2.20700 21.40900
H  11.41100 0.60500 20.91500
H  10.02400 -0.47200 21.19100
H  11.18700 -0.41600 22.40100
H  11.10500 -1.67400 26.01000
H  11.53100 -2.15900 27.59200
H  12.60500 -0.93100 26.63300
H  10.64900 1.56900 31.59300
H  8.51300 0.11900 34.64700
H  9.85000 -0.87400 35.10100
H  8.57600 -1.56600 34.06000
Mg 25.21200 2.00400 29.65200
C  27.18600 1.35600 32.35100
C  22.42000 2.45600 31.68000
C  23.15100 2.20000 26.83000
C  27.86500 1.37400 27.52200
N  24.86400 1.89500 31.76500
C  25.85100 1.75600 32.66600
C  25.37800 2.04300 34.08900
C  23.84400 2.32600 33.91600
C  23.67400 2.25200 32.35400
C  22.93500 1.27700 34.68100
C  26.13200 3.31300 34.71600
C  26.90000 3.19400 36.08400
H  26.40900 4.08400 37.22700
N  23.11200 2.29500 29.34600
C  22.17200 2.40100 30.33000
C  20.87800 2.42000 29.69700
C  21.08100 2.36600 28.27800
C  22.51900 2.25600 28.11500
C  19.54000 2.32100 30.48300
C  20.00200 2.20600 27.20900
O  20.17500 2.14100 25.98600
C  18.50300 2.16100 27.57700
N  25.43800 1.84400 27.54800
C  24.53100 2.11600 26.62000
C  25.16600 2.40100 25.20200
C  26.65500 2.24900 25.46500
C  26.66400 1.73400 26.89800
C  24.60000 1.55100 24.01900
C  27.48500 3.57600 25.38500
C  27.04700 4.72900 26.31400
N  27.13400 1.36000 29.83100
C  28.13500 1.16200 28.90600
C  29.41800 0.86400 29.55100
C  29.13600 0.92900 30.96600
C  27.72700 1.20900 31.04300
C  30.75900 0.62000 28.82500
C  29.68000 0.91700 32.34100
O  30.82400 0.85500 32.82500
C  28.41000 1.19000 33.21300
C  28.32200 0.10000 34.24500
O  27.80800 -1.00400 34.01400
O  28.82100 0.58000 35.37300
C  28.65700 -0.27000 36.54200
H  21.59200 2.80000 32.30200
H  22.53600 2.41000 25.95200
H  28.65300 1.35800 26.76600
H  25.64500 1.19800 34.72300
H  23.58500 3.33000 34.25300
H  23.56000 0.88700 35.48400
H  22.66700 0.58500 33.88200
H  22.03900 1.74100 35.09300
H  25.44200 4.15500 34.67600
H  26.87400 3.65500 33.99400
H  27.93800 3.51700 36.00000
H  26.75800 2.17300 36.43700
H  19.05500 1.34700 30.41400
H  18.85300 3.15700 30.35300
H  19.54000 2.34100 31.57300
H  18.12800 1.21300 27.96200
H  17.99900 2.18700 26.61100
H  18.20900 2.97700 28.23700
H  25.10800 3.46600 24.97300
H  27.11000 1.54500 24.76800
H  25.39800 0.89600 23.66900
H  24.25900 2.17600 23.19400
H  23.72000 1.02200 24.38700
H  27.41200 3.98400 24.37700
H  28.54700 3.40800 25.56300
H  27.71500 4.96100 27.14400
H  26.08300 4.47700 26.75700
H  26.81900 5.66900 25.81100
H  31.25200 1.58500 28.70400
H  30.48400 0.10300 27.90600
H  31.31800 -0.06500 29.46200
H  28.50800 2.18800 33.64000
H  29.56700 -0.85700 36.66200
H  27.81800 -0.96600 36.55700
H  28.56000 0.41600 37.38300

