158

Mg 8.05000 2.63300 28.10800
C  9.76900 1.36900 30.95900
C  6.09300 4.54900 30.25900
C  6.67100 3.96400 25.46200
C  10.02400 0.57000 26.18800
N  7.88800 2.80300 30.36000
C  8.79500 2.34500 31.33600
C  8.61700 2.95400 32.71500
C  7.36500 3.83000 32.46400
C  7.10800 3.76700 30.94300
C  6.03400 3.60500 33.26900
C  9.88100 3.66300 33.20600
C  9.57100 4.43700 34.51900
H  10.52000 4.24300 35.72400
N  6.54500 3.98100 27.85300
C  5.88700 4.75000 28.84800
C  4.84400 5.54600 28.24500
C  4.98300 5.40700 26.84800
C  6.12300 4.46100 26.66300
C  3.79600 6.41200 29.02700
C  4.13000 6.05100 25.74500
O  4.25100 5.80200 24.62500
C  2.92500 6.93000 26.05500
N  8.11500 2.12700 26.17100
C  7.59000 2.93800 25.21400
C  7.94800 2.49700 23.73900
C  8.98200 1.46000 23.96800
C  9.04800 1.39200 25.55700
C  6.71700 2.03100 22.96100
C  10.40500 1.65900 23.31800
C  10.90100 0.43200 22.46500
N  9.51000 1.23500 28.44200
C  10.19100 0.46900 27.58900
C  11.13500 -0.42900 28.25900
C  11.01000 -0.13300 29.60800
C  10.00300 0.89800 29.63700
C  12.15800 -1.32800 27.62600
C  11.57600 -0.26900 30.92100
O  12.42900 -1.04400 31.23400
C  10.73000 0.69200 31.86800
C  10.10900 -0.01100 32.99900
O  9.24100 -0.87700 32.85500
O  10.53600 0.45500 34.18200
C  10.15300 -0.21900 35.43500
H  5.54800 5.23800 30.90700
H  6.38000 4.55800 24.59400
H  10.45000 -0.21500 25.55900
H  8.34700 2.17100 33.42300
H  7.60000 4.87700 32.65400
H  5.18900 3.59300 32.58200
H  5.84000 4.46200 33.91600
H  5.98300 2.70400 33.88100
H  10.24500 4.44500 32.54100
H  10.72900 3.00300 33.38600
H  8.60200 4.06800 34.85700
H  9.61400 5.50200 34.28800
H  4.03200 6.43100 30.09100
H  2.85200 5.92700 28.77700
H  3.88200 7.42500 28.63500
H  2.28800 6.28600 26.66100
H  2.32700 7.40600 25.27800
H  3.33400 7.76100 26.62900
H  8.35900 3.36300 23.22000
H  8.61600 0.46300 23.72100
H  5.75200 2.13600 23.45700
H  6.78800 1.03300 22.52700
H  6.71000 2.74200 22.13500
H  11.08700 2.02100 24.08700
H  10.32000 2.45000 22.57400
H  10.12500 -0.32100 22.60000
H  11.79900 -0.01200 22.89400
H  10.94700 0.61600 21.39200
H  13.13900 -1.01100 27.98100
H  12.17500 -1.25700 26.53800
H  11.89900 -2.36900 27.82000
H  11.56400 1.35100 32.11000
H  11.03300 -0.33600 36.06700
H  9.70300 -1.20600 35.33100
H  9.42500 0.35500 36.00900
Mg 49.61900 45.98600 42.14400
C  46.31300 46.79300 41.50100
C  49.15100 42.81700 40.66700
C  53.03200 45.53700 41.96800
C  50.15700 49.16200 43.37500
N  47.93500 44.97400 41.21700
C  46.75400 45.53400 40.96200
C  45.80400 44.67300 40.12100
C  46.69700 43.36200 39.99000
C  48.03100 43.74700 40.65000
C  46.05500 42.15700 40.59000
C  45.41700 45.39700 38.71500
C  43.95600 45.17300 38.42400
H  43.58300 44.77500 36.98400
N  50.87200 44.32600 41.55500
C  50.49200 43.10300 41.04100
C  51.63600 42.23600 40.86200
C  52.77000 43.03300 41.18400
C  52.30900 44.38600 41.55300
C  51.52700 40.85900 40.20400
C  54.19600 42.49200 41.18600
O  54.40100 41.27500 40.92700
C  55.42800 43.37700 41.60800
N  51.30200 47.17100 42.55500
C  52.65800 46.74700 42.45100
C  53.68600 47.84300 42.95500
C  52.73000 49.01500 43.39100
C  51.25600 48.40700 43.14500
C  54.73800 47.42500 44.03100
C  52.99800 50.40000 42.64900
C  53.69100 51.45300 43.50600
N  48.49100 47.69000 42.34700
C  48.80900 48.86500 43.04200
C  47.66200 49.71800 43.17100
C  46.59700 48.86400 42.65600
C  47.18600 47.67200 42.08800
C  47.64600 51.08500 43.65300
C  45.10400 48.77000 42.38900
O  44.18600 49.48100 42.77400
C  44.86400 47.35400 41.63000
C  43.90300 46.52600 42.43100
O  43.99900 46.19500 43.59700
O  42.85500 46.09000 41.60500
C  41.90500 45.14900 42.28600
H  48.84100 41.83700 40.29800
H  54.10600 45.35500 42.04000
H  50.29500 50.14400 43.83200
H  44.96000 44.43000 40.76700
H  46.73300 43.17800 38.91600
H  46.24200 41.31900 39.91900
H  44.97100 42.23500 40.50800
H  46.33100 41.88500 41.60800
H  46.04500 44.92000 37.96300
H  45.63000 46.46500 38.77500
H  43.56800 46.18100 38.57200
H  43.59000 44.33300 39.01400
H  52.30500 40.09900 40.13100
H  51.19200 40.97100 39.17300
H  50.73100 40.27900 40.67000
H  55.11800 43.66300 42.61300
H  55.46800 44.20900 40.90600
H  56.35800 42.80800 41.62600
H  54.23900 48.04700 42.03800
H  52.87400 49.09800 44.46900
H  55.72700 47.66000 43.63800
H  54.64600 46.37600 44.31300
H  54.56200 48.08500 44.88100
H  52.08300 50.92700 42.38200
H  53.60100 50.25900 41.75100
H  54.71600 51.43600 43.13400
H  53.51500 51.23900 44.56000
H  53.30800 52.46500 43.36900
H  47.94200 51.78800 42.87400
H  48.20200 51.12800 44.59000
H  46.61900 51.36700 43.88600
H  44.38000 47.47600 40.66100
H  41.20200 44.64500 41.62300
H  41.46600 45.79100 43.05000
H  42.59100 44.44300 42.75300

