158

Mg 35.65800 1.20800 30.25700
C  33.44900 2.42700 32.71100
C  38.07200 1.31300 32.72800
C  37.78700 0.12200 27.98300
C  33.15600 1.59000 27.79000
N  35.68500 1.77500 32.43500
C  34.71200 2.20800 33.21500
C  35.11000 2.28000 34.68500
C  36.63300 1.98400 34.63200
C  36.84000 1.70900 33.15100
C  37.55700 3.16600 35.21300
C  34.39500 1.18000 35.51100
C  34.02700 1.48600 36.96900
H  34.80600 2.60300 37.62900
N  37.55200 0.68500 30.37400
C  38.39300 0.79000 31.47400
C  39.73200 0.41300 31.11900
C  39.68200 0.10000 29.68500
C  38.28200 0.24800 29.26400
C  40.89600 0.35200 32.09200
C  40.89500 -0.22000 28.76100
O  40.80800 -0.56500 27.60700
C  42.34600 -0.07700 29.27500
N  35.58100 1.05500 28.09100
C  36.55000 0.47700 27.42000
C  36.17900 0.34400 25.88900
C  34.71000 0.83400 25.86800
C  34.40100 1.24100 27.26700
C  37.09700 1.18000 24.96700
C  33.64200 -0.21500 25.23600
C  33.10800 0.24700 23.86800
N  33.69900 1.92800 30.13100
C  32.77600 1.98600 29.10600
C  31.46300 2.48500 29.61500
C  31.79100 2.71300 31.01100
C  33.09000 2.31500 31.29600
C  30.23000 2.71700 28.92600
C  31.18100 3.20300 32.21300
O  30.12300 3.74100 32.38300
C  32.14100 2.94700 33.39000
C  32.22900 4.24400 34.10500
O  32.52600 5.32000 33.66400
O  31.66800 4.01600 35.35300
C  31.26000 5.19000 36.11200
H  38.75000 1.24500 33.58100
H  38.51400 -0.08900 27.19500
H  32.30100 1.48900 27.11800
H  35.02700 3.24900 35.17600
H  36.89800 1.04000 35.10800
H  36.99500 3.79700 35.90300
H  37.87200 3.94000 34.51300
H  38.51700 2.88500 35.64500
H  34.92000 0.22600 35.47700
H  33.41700 0.96300 35.08200
H  34.26700 0.65200 37.62900
H  32.94800 1.62200 37.03500
H  41.37200 1.32300 31.95100
H  41.57500 -0.45400 31.81400
H  40.60700 0.26300 33.13900
H  43.04200 -0.01500 28.43800
H  42.60300 -0.89800 29.94500
H  42.45100 0.79400 29.92200
H  36.24800 -0.71900 25.65600
H  34.72600 1.74100 25.26400
H  37.77500 0.58100 24.36000
H  37.63100 1.89100 25.59900
H  36.60200 1.68100 24.13500
H  32.74100 -0.29700 25.84500
H  34.09400 -1.20600 25.18800
H  33.65600 1.09700 23.46100
H  32.06200 0.53900 23.96900
H  33.04800 -0.51900 23.09500
H  30.39000 3.13300 27.93100
H  29.65600 3.48200 29.44800
H  29.69800 1.79300 28.69800
H  31.70400 2.19500 34.04700
H  32.08100 5.48800 36.76400
H  30.44500 4.74800 36.68400
H  30.95300 6.05500 35.52400
Mg -0.13300 43.31500 26.40600
C  2.30600 42.76500 28.77400
C  -2.50300 42.89300 29.08800
C  -2.65800 43.58000 24.13300
C  2.27700 43.44300 23.84900
N  -0.02800 43.04300 28.65900
C  1.06800 42.87100 29.42200
C  0.81900 42.83600 30.96400
C  -0.74200 42.71500 30.93700
C  -1.12300 42.84900 29.46500
C  -1.23000 41.34600 31.49400
C  1.28900 44.10000 31.75000
C  0.81200 44.38100 33.19000
H  0.42000 43.24200 34.10800
N  -2.22700 43.27000 26.59900
C  -3.00700 43.00900 27.72000
C  -4.43100 42.97500 27.28100
C  -4.46600 43.21600 25.94500
C  -3.06600 43.37900 25.49600
C  -5.42300 42.55900 28.29900
C  -5.72900 43.26900 25.06800
O  -5.60000 43.45100 23.85200
C  -7.13600 43.01800 25.64400
N  -0.17100 43.51400 24.39200
C  -1.32600 43.57600 23.65600
C  -1.04400 43.58300 22.18500
C  0.47400 43.74000 22.10600
C  0.94400 43.53100 23.54000
C  -1.73100 42.47500 21.30900
C  1.01600 45.11400 21.50000
C  1.56300 44.99400 20.07500
N  1.83600 43.19500 26.26400
C  2.71900 43.26300 25.19700
C  4.10400 43.25700 25.71000
C  3.96800 43.14200 27.04900
C  2.57000 43.04700 27.40000
C  5.41500 43.33300 24.90900
C  4.69200 43.08300 28.33400
O  5.89900 43.06600 28.50500
C  3.64200 42.79100 29.49500
C  4.11100 41.60800 30.29100
O  4.39200 40.54200 29.85500
O  4.06800 41.95800 31.64800
C  4.60900 40.85600 32.48100
H  -3.09800 42.82400 30.00100
H  -3.49300 43.69100 23.43900
H  3.05800 43.46900 23.08700
H  1.26400 41.92400 31.36000
H  -1.20200 43.55300 31.46000
H  -0.51900 40.97700 32.23300
H  -1.23800 40.57900 30.72000
H  -2.22500 41.49600 31.91400
H  1.13100 44.96100 31.10100
H  2.36000 44.30200 31.76900
H  0.01400 45.09800 32.99500
H  1.53800 44.99500 33.72200
H  -4.87700 42.23400 29.18400
H  -5.77800 41.63400 27.84600
H  -6.22000 43.26600 28.52900
H  -7.25700 42.00800 26.03600
H  -7.87700 43.09000 24.84800
H  -7.35500 43.80300 26.36900
H  -1.49400 44.49800 21.80200
H  0.77600 42.88600 21.50000
H  -2.07400 41.66300 21.95100
H  -1.04100 41.98300 20.62300
H  -2.60000 42.96500 20.86900
H  1.86100 45.41600 22.11800
H  0.32500 45.94800 21.62600
H  2.64900 45.07700 20.09500
H  1.13500 45.77600 19.44700
H  1.39400 43.99300 19.67700
H  5.93500 44.26600 25.12600
H  5.23800 43.25900 23.83600
H  6.00900 42.46500 25.19700
H  3.64000 43.69800 30.10100
H  4.20200 41.06900 33.46900
H  5.69100 40.72300 32.48100
H  4.13800 39.91300 32.20400

