158

Mg 24.52200 1.46700 29.11800
C  26.62400 0.75100 31.89300
C  21.93100 1.35500 31.14700
C  22.54800 2.05900 26.34100
C  27.31600 1.16800 27.06800
N  24.36200 1.15000 31.30100
C  25.29800 1.00000 32.25700
C  24.73300 1.03800 33.63600
C  23.19200 1.30700 33.40000
C  23.15500 1.32200 31.86500
C  22.18200 0.34100 34.11700
C  25.50000 2.07900 34.57000
C  24.67100 2.72300 35.65200
H  25.45400 3.28100 36.82300
N  22.54200 1.65100 28.87500
C  21.59100 1.51600 29.79700
C  20.27400 1.62300 29.23500
C  20.45400 1.69300 27.81200
C  21.90400 1.85200 27.60800
C  19.01700 1.34600 30.04600
C  19.40900 1.55200 26.68900
O  19.65800 1.43200 25.47100
C  17.98100 1.52900 27.07300
N  24.85700 1.73600 27.06000
C  23.91800 1.96600 26.10800
C  24.58400 2.15200 24.75300
C  26.10500 2.02500 25.01000
C  26.12000 1.66000 26.50100
C  24.08200 1.48600 23.50000
C  26.85700 3.40300 24.79200
C  26.64200 4.42500 25.91700
N  26.49400 0.78100 29.28100
C  27.49600 0.73600 28.37000
C  28.73300 0.38400 29.01100
C  28.43600 0.50100 30.39100
C  27.03200 0.59800 30.53100
C  29.97000 0.08700 28.34200
C  29.03200 0.46200 31.67700
O  30.16000 0.25300 32.12600
C  27.87600 0.71600 32.71900
C  28.02300 -0.41400 33.73300
O  27.58300 -1.50600 33.55700
O  28.66000 0.05100 34.95600
C  28.79900 -1.02200 36.04100
H  21.14500 1.36800 31.90400
H  22.06600 2.18900 25.36900
H  28.17000 1.12500 26.38900
H  24.94000 0.04300 34.02800
H  23.05100 2.33300 33.74000
H  21.73200 0.91600 34.92700
H  22.75800 -0.41700 34.64700
H  21.60200 -0.11900 33.31700
H  25.95900 2.88400 33.99600
H  26.30200 1.56700 35.10100
H  24.00200 1.88800 35.86200
H  24.17400 3.62700 35.29800
H  18.77400 0.30600 29.82900
H  18.16100 1.98300 29.82500
H  19.29300 1.48100 31.09100
H  17.34400 1.60600 26.19200
H  17.80500 2.32100 27.80100
H  17.86800 0.50000 27.41700
H  24.35700 3.17300 24.44600
H  26.48300 1.18800 24.42300
H  23.65600 2.24000 22.83800
H  23.33600 0.72900 23.74100
H  24.90600 1.06400 22.92400
H  26.28700 3.81100 23.95700
H  27.89500 3.27800 24.48700
H  26.76000 4.13000 26.95900
H  25.65300 4.87800 25.84000
H  27.33500 5.26500 25.87500
H  29.73700 -0.18800 27.31300
H  30.52200 -0.67800 28.88600
H  30.59700 0.97600 28.40700
H  27.98800 1.68800 33.19900
H  28.34700 -1.98400 35.80100
H  28.21600 -0.67800 36.89600
H  29.81700 -1.12500 36.41600
Mg 42.46900 41.70100 27.17600
C  41.51900 44.18400 29.49000
C  43.56200 39.73800 29.66500
C  43.66500 39.60600 24.89000
C  41.91600 44.17400 24.63300
N  42.52400 41.93400 29.32000
C  42.00600 42.96500 30.04800
C  41.90800 42.55000 31.50700
C  42.95900 41.37400 31.54100
C  42.99600 40.93700 30.07300
C  44.33200 41.70100 32.07300
C  40.50900 42.10800 32.00200
C  40.00600 42.92200 33.22200
H  39.51900 42.09100 34.43900
N  43.22900 39.83200 27.27200
C  43.64200 39.13400 28.36900
C  43.97500 37.73600 28.05900
C  43.86500 37.72100 26.61300
C  43.59600 39.10200 26.15800
C  44.59200 36.74300 29.01000
C  44.13000 36.56700 25.63300
O  43.86300 36.68000 24.47200
C  44.67700 35.18600 26.08900
N  42.86700 41.90800 25.04100
C  43.30900 40.85700 24.35900
C  43.50200 41.30300 22.87200
C  42.79600 42.67600 22.80000
C  42.48200 42.92900 24.23800
C  45.00000 41.31900 22.33100
C  41.59200 42.79300 21.81300
C  40.30500 42.11200 22.18600
N  41.80100 43.75100 26.97500
C  41.60100 44.55600 25.92900
C  41.05700 45.86000 26.39400
C  40.99100 45.69200 27.81100
C  41.51200 44.49200 28.14100
C  40.60500 47.02400 25.53800
C  40.56300 46.31900 29.08100
O  40.03100 47.38700 29.33300
C  40.86200 45.29300 30.23600
C  41.93700 46.00900 31.13500
O  43.10100 46.28200 30.86500
O  41.36400 46.12100 32.35400
C  42.13500 46.45800 33.54200
H  43.89600 39.12500 30.50400
H  43.90500 38.95600 24.04600
H  41.68400 44.83600 23.79600
H  42.25200 43.31600 32.20300
H  42.61500 40.47600 32.05400
H  44.48300 42.77700 31.98400
H  45.08800 41.11500 31.55000
H  44.34800 41.35200 33.10500
H  40.46100 41.08800 32.38400
H  39.84100 42.21500 31.14700
H  39.12100 43.44400 32.85800
H  40.79600 43.50200 33.69800
H  44.55000 37.04000 30.05800
H  45.64700 36.52800 28.84000
H  44.21400 35.72600 28.90200
H  44.89200 34.62900 25.17700
H  43.75400 34.67300 26.35800
H  45.46700 35.22800 26.83900
H  42.95900 40.58000 22.26300
H  43.56100 43.36400 22.44000
H  45.47100 42.28700 22.50800
H  44.88200 40.99400 21.29800
H  45.35500 40.45600 22.89500
H  41.98400 42.39300 20.87800
H  41.37200 43.85600 21.71300
H  39.47000 42.80900 22.24600
H  40.37400 41.54400 23.11400
H  40.01500 41.43100 21.38600
H  40.69400 47.96500 26.08100
H  39.54800 46.95500 25.28200
H  41.14100 47.18000 24.60200
H  40.03000 44.97200 30.86200
H  41.61700 47.39700 33.73700
H  43.22300 46.41900 33.48000
H  41.83500 45.85600 34.40000

