158

Mg 46.97300 16.79400 28.47000
C  45.27200 16.84200 31.44200
C  49.45600 18.67500 30.21700
C  48.72000 17.40500 25.63700
C  44.47200 15.30500 26.79200
N  47.25500 17.63400 30.60800
C  46.51300 17.42000 31.68800
C  47.09500 17.94700 32.97600
C  48.16500 18.97300 32.45900
C  48.28300 18.46500 30.95500
C  47.79200 20.38300 32.61000
C  47.70000 16.78800 33.87900
C  47.32000 16.70400 35.34600
H  46.97400 18.07900 36.02400
N  48.88000 17.75100 28.00000
C  49.68000 18.51000 28.83600
C  50.80100 18.94800 28.09600
C  50.65300 18.52800 26.71900
C  49.42600 17.86100 26.72900
C  51.95200 19.84000 28.66400
C  51.52600 18.86500 25.52900
O  51.35600 18.36400 24.45900
C  52.63800 19.74100 25.72100
N  46.69400 16.27900 26.48500
C  47.49300 16.68800 25.49800
C  46.94100 16.27600 24.12700
C  45.61100 15.56900 24.48700
C  45.59800 15.56300 25.99500
C  46.66800 17.51600 23.17300
C  45.44400 14.11300 23.96500
C  44.47200 13.84100 22.78900
N  45.29600 16.14100 28.94600
C  44.33300 15.47300 28.16600
C  43.23400 15.18300 28.97900
C  43.51100 15.70900 30.26700
C  44.81200 16.20000 30.21600
C  42.05700 14.39300 28.57700
C  43.03700 15.84300 31.59900
O  41.98500 15.41700 32.07300
C  44.19700 16.53100 32.43000
C  43.64000 17.74000 33.17400
O  43.57300 18.91400 32.77800
O  43.03300 17.26500 34.32200
C  42.23100 18.25500 35.01900
H  50.26700 19.16700 30.75700
H  49.15600 17.63600 24.66300
H  43.60100 14.97600 26.22100
H  46.31800 18.43500 33.56500
H  49.16300 18.83800 32.87500
H  48.62000 20.88000 33.11500
H  46.84500 20.42600 33.14800
H  47.78700 21.00900 31.71800
H  48.78200 16.76800 33.74900
H  47.35700 15.87700 33.38900
H  48.30300 16.45300 35.74300
H  46.61100 15.91500 35.59800
H  51.89400 20.82000 28.19100
H  52.91300 19.32500 28.65100
H  51.70600 19.94500 29.72100
H  52.30500 20.77800 25.76800
H  53.17600 19.62200 24.78100
H  53.28700 19.42200 26.53700
H  47.70000 15.64600 23.66300
H  44.67400 16.03400 24.18000
H  45.63800 17.55200 22.81800
H  47.35000 17.42900 22.32700
H  46.81100 18.52600 23.55700
H  45.08200 13.40400 24.71000
H  46.43700 13.74400 23.70800
H  45.04400 13.38800 21.98000
H  43.83300 14.68400 22.52600
H  43.76800 13.09600 23.15900
H  41.61000 14.79800 27.66900
H  41.26900 14.23800 29.31400
H  42.44500 13.45600 28.17900
H  44.65600 15.82300 33.12000
H  41.82000 17.67300 35.84400
H  41.35900 18.48400 34.40700
H  42.75200 19.16700 35.31200
Mg -11.36700 37.23300 41.80900
C  -9.36800 34.41800 40.91800
C  -8.72500 39.11000 40.35100
C  -13.24900 39.85300 41.87300
C  -13.99000 35.22600 42.40400
N  -9.29500 36.75600 40.73300
C  -8.73500 35.54600 40.52800
C  -7.29200 35.66900 39.99100
C  -7.06800 37.25800 40.06200
C  -8.44600 37.76500 40.41400
C  -5.98900 37.65400 41.09500
C  -7.04700 34.97000 38.59800
C  -5.54700 35.08600 38.15800
H  -5.30800 35.59400 36.76300
N  -11.03300 39.17900 41.35200
C  -9.90500 39.73000 40.72300
C  -10.02900 41.10700 40.49100
C  -11.26400 41.44600 41.05700
C  -11.91700 40.14800 41.45600
C  -9.10000 42.01400 39.68200
C  -11.92400 42.90300 41.19400
O  -11.30800 43.91100 40.74200
C  -13.29500 43.13300 41.74100
N  -13.48400 37.44400 41.55200
C  -13.95900 38.67000 41.86900
C  -15.38300 38.59900 42.46600
C  -15.75000 37.04500 42.23000
C  -14.33500 36.56100 42.04500
C  -15.33500 39.13900 43.95600
C  -16.66600 36.82900 40.92100
C  -16.78600 35.43900 40.34600
N  -11.68000 35.24900 41.71900
C  -12.76200 34.53100 42.15500
C  -12.48000 33.13800 42.15500
C  -11.13800 33.02300 41.75600
C  -10.67400 34.37800 41.48400
C  -13.51600 32.14800 42.50000
C  -10.01100 32.12300 41.49900
O  -9.86500 30.95500 41.75900
C  -8.91900 32.99700 40.75500
C  -7.59300 32.70500 41.35000
O  -6.60400 32.27700 40.71800
O  -7.59700 33.12500 42.65000
C  -6.24300 32.92700 43.27100
H  -7.81200 39.56800 39.96400
H  -13.81300 40.75500 42.11800
H  -14.76100 34.61000 42.87200
H  -6.69400 35.04100 40.65100
H  -6.84000 37.58700 39.04800
H  -5.36600 36.77100 41.23800
H  -6.42300 37.96400 42.04600
H  -5.37100 38.43900 40.65800
H  -7.68300 35.24600 37.75700
H  -7.18400 33.94400 38.93800
H  -4.94400 34.18700 38.28500
H  -5.03500 35.84800 38.74500
H  -8.73000 42.71700 40.42700
H  -9.63500 42.60100 38.93500
H  -8.31600 41.50200 39.12400
H  -13.44600 44.20700 41.85300
H  -13.33800 42.67800 42.73000
H  -14.06800 42.78500 41.05500
H  -16.15300 39.14800 41.92400
H  -16.26800 36.48500 43.00800
H  -15.81800 40.09900 44.13800
H  -14.33800 39.30600 44.36200
H  -15.81500 38.36300 44.55200
H  -16.31200 37.59000 40.22500
H  -17.64100 37.19500 41.24400
H  -17.42400 34.81600 40.97300
H  -15.86400 34.86300 40.42100
H  -17.09600 35.40400 39.30100
H  -14.25200 32.63200 43.14300
H  -13.00700 31.36600 43.06400
H  -13.97900 31.64400 41.65200
H  -8.87900 32.68200 39.71200
H  -5.91500 33.92200 43.57000
H  -5.38300 32.54700 42.71900
H  -6.54500 32.38300 44.16600

