158

Mg 0.20700 7.79300 26.34700
C  1.24500 9.51600 29.16700
C  0.13100 4.87900 28.03100
C  -0.16000 6.16800 23.40800
C  0.31000 10.85500 24.55300
N  0.73100 7.27800 28.32700
C  1.05200 8.13400 29.39800
C  0.99400 7.37600 30.66500
C  0.79200 5.83200 30.26800
C  0.47300 5.98800 28.77700
C  2.07600 4.96700 30.51500
C  -0.15900 7.99800 31.52900
C  0.19100 8.38600 32.98400
H  1.27200 7.58400 33.80500
N  0.08300 5.75700 25.79800
C  0.01100 4.74700 26.61700
C  -0.24200 3.51000 25.94100
C  -0.18300 3.84600 24.60000
C  -0.18100 5.31200 24.52500
C  -0.45100 2.19900 26.65800
C  -0.34900 2.94300 23.32600
O  -0.38700 3.36800 22.15400
C  -0.38600 1.50900 23.45600
N  0.02900 8.43300 24.37000
C  -0.08600 7.52000 23.35800
C  -0.12000 8.14800 22.03600
C  -0.36900 9.68400 22.38300
C  0.04100 9.67600 23.84800
C  1.09100 7.92300 21.08700
C  -1.82400 10.22400 22.18700
C  -2.03000 11.48100 21.28000
N  0.60300 9.83100 26.81600
C  0.70500 10.90000 25.88200
C  1.19100 12.06400 26.64100
C  1.50100 11.62100 27.94300
C  1.03500 10.22600 27.95300
C  1.57600 13.43300 26.03700
C  2.00400 11.94200 29.27000
O  2.47800 13.03400 29.69600
C  1.67000 10.61600 30.09100
C  2.78000 10.21800 30.97100
O  3.84700 9.69900 30.62900
O  2.54100 10.74000 32.25100
C  3.68500 10.78000 33.13600
H  -0.09100 4.01700 28.66300
H  -0.33100 5.55600 22.52000
H  0.25000 11.74900 23.92900
H  1.95100 7.42000 31.18400
H  -0.05500 5.35500 30.76100
H  2.75300 5.43700 31.22800
H  2.58900 4.73800 29.58100
H  1.63300 4.08800 30.98300
H  -0.99000 7.29800 31.44700
H  -0.42100 8.88300 30.95000
H  -0.74900 8.28800 33.52700
H  0.49100 9.43000 32.89500
H  -0.93500 1.52200 25.95500
H  -1.07000 2.38000 27.53600
H  0.48500 1.81300 27.06200
H  -1.35400 1.27300 23.89900
H  0.45100 1.14200 24.05000
H  -0.47200 1.20500 22.41300
H  -0.97800 7.68300 21.55000
H  0.26600 10.36000 21.81100
H  1.23000 6.87900 20.80800
H  2.00200 8.29300 21.55700
H  0.76500 8.43200 20.18000
H  -2.29800 10.25200 23.16800
H  -2.36100 9.40100 21.71600
H  -2.68100 11.20100 20.45200
H  -1.10500 11.82300 20.81700
H  -2.47900 12.35000 21.76000
H  2.47600 13.88400 26.45600
H  0.77500 14.09500 26.36400
H  1.51900 13.31900 24.95400
H  0.85100 10.87000 30.76400
H  4.67800 10.51500 32.77200
H  3.41000 10.08700 33.93000
H  3.80700 11.78900 33.53000
Mg 36.33200 49.75200 24.50600
C  36.49600 48.31000 27.69100
C  35.06500 52.64100 25.94800
C  35.47300 50.93400 21.37000
C  37.07900 46.61000 23.04100
N  35.69700 50.30100 26.65600
C  36.05000 49.66400 27.81600
C  35.96300 50.55500 29.04300
C  35.41600 51.86800 28.40800
C  35.34700 51.58800 26.91000
C  34.11900 52.54700 29.02300
C  37.33300 50.59100 29.91900
C  37.29400 50.61000 31.43100
H  35.89600 50.67600 32.17900
N  35.43600 51.58600 23.71900
C  35.04200 52.58100 24.53700
C  34.60200 53.69100 23.71400
C  34.56100 53.20600 22.34600
C  35.20400 51.84500 22.47200
C  34.19800 55.00000 24.23100
C  34.04200 53.83300 21.09200
O  34.10700 53.20400 20.05300
C  33.47300 55.24500 21.06400
N  36.24100 48.88800 22.50900
C  36.06500 49.64700 21.38700
C  36.29500 48.79900 20.15000
C  36.97500 47.47400 20.70700
C  36.71100 47.61600 22.13900
C  35.06400 48.50700 19.25500
C  38.46100 47.44900 20.23800
C  38.60300 46.40400 19.10800
N  36.80700 47.85500 25.14300
C  37.13700 46.68700 24.44300
C  37.40300 45.63700 25.42900
C  37.18400 46.21800 26.64000
C  36.81700 47.56100 26.50000
C  37.80700 44.11000 25.16200
C  37.13900 45.85600 28.05600
O  37.44200 44.80900 28.59100
C  36.75800 47.22400 28.77200
C  35.45700 46.95400 29.43700
O  34.39300 46.63000 28.90200
O  35.58500 47.24900 30.72600
C  34.42100 46.97700 31.46700
H  34.88700 53.56600 26.50100
H  35.36500 51.20500 20.31800
H  37.18600 45.65700 22.51800
H  35.11400 50.14600 29.59100
H  36.24800 52.56500 28.50900
H  33.78800 52.01000 29.91200
H  33.32700 52.54200 28.27500
H  34.09200 53.61700 29.22900
H  37.91500 51.47100 29.64700
H  37.85100 49.66700 29.66300
H  37.79500 51.49200 31.83100
H  37.90400 49.80500 31.84200
H  33.11500 54.97600 24.11000
H  34.57100 55.82900 23.63000
H  34.51500 55.19200 25.25600
H  32.88300 55.35500 20.15400
H  34.02000 56.18800 21.05600
H  32.67700 55.23800 21.81000
H  36.90100 49.35400 19.43400
H  36.43600 46.56800 20.43000
H  34.15100 48.49500 19.85100
H  35.29500 47.56100 18.76500
H  34.92400 49.31400 18.53600
H  39.04200 47.14300 21.10800
H  38.72900 48.47600 19.98800
H  38.68500 46.94800 18.16700
H  37.77500 45.69800 19.05400
H  39.51500 45.81600 19.21600
H  37.34500 43.32500 25.76100
H  38.89100 44.05700 25.05700
H  37.57000 43.91200 24.11700
H  37.57800 47.54700 29.41300
H  33.85100 46.11800 31.11300
H  33.69700 47.78500 31.56900
H  34.71600 46.71400 32.48300

