158

Mg 24.16500 -5.58600 45.21600
C  26.50300 -3.42400 43.51200
C  21.77400 -4.46400 43.12300
C  22.63700 -8.45000 45.77500
C  26.99900 -6.68500 47.03800
N  24.19700 -4.25400 43.48100
C  25.14900 -3.37500 43.00900
C  24.59000 -2.24700 42.03400
C  23.06300 -2.35100 42.33000
C  22.98000 -3.79800 43.01700
C  22.48000 -1.25100 43.19500
C  25.04200 -2.54400 40.60800
C  24.87600 -1.47300 39.50800
H  25.06900 -1.93800 38.05800
N  22.34700 -6.32100 44.64100
C  21.48200 -5.64100 43.84900
C  20.29500 -6.41200 43.71300
C  20.45000 -7.58400 44.53500
C  21.81900 -7.53000 45.04300
C  19.20100 -5.93400 42.78700
C  19.36900 -8.44000 44.91300
O  18.24100 -8.34500 44.44300
C  19.58700 -9.58100 45.80300
N  24.77600 -7.35000 46.26500
C  23.89300 -8.35800 46.43200
C  24.45600 -9.43300 47.37900
C  25.74200 -8.70600 47.97300
C  25.87400 -7.54100 47.05500
C  23.47500 -10.21800 48.41800
C  27.11600 -9.57200 48.03500
C  28.03800 -9.43200 49.27600
N  26.29900 -5.05000 45.38700
C  27.29200 -5.66900 46.14300
C  28.58100 -5.02400 45.85700
C  28.28300 -4.11300 44.79000
C  26.94200 -4.20300 44.53600
C  29.92800 -5.32900 46.50900
C  28.87500 -3.14300 43.86700
O  30.08100 -2.82000 43.77900
C  27.68000 -2.58200 43.03700
C  27.63600 -1.20300 43.54900
O  27.01800 -0.79700 44.47000
O  28.50600 -0.39700 42.86200
C  28.96300 0.88300 43.54400
H  20.93200 -4.02100 42.58600
H  22.14700 -9.36700 46.10900
H  27.94200 -6.96800 47.51200
H  24.95700 -1.26100 42.32200
H  22.41700 -2.37100 41.45200
H  21.76700 -1.74100 43.85800
H  21.91300 -0.53500 42.60000
H  23.24500 -0.71200 43.75500
H  24.46300 -3.41300 40.29200
H  26.06900 -2.87300 40.45000
H  25.77000 -0.89000 39.72900
H  23.96500 -0.88600 39.61700
H  19.55800 -6.19500 41.79100
H  18.97700 -4.88200 42.96400
H  18.23400 -6.37100 43.03700
H  18.65400 -10.09800 46.02700
H  19.97500 -9.29400 46.78000
H  20.33000 -10.24300 45.35900
H  24.82700 -10.23800 46.74400
H  25.59700 -8.35900 48.99700
H  22.44500 -9.86100 48.42300
H  23.90200 -9.99700 49.39600
H  23.59500 -11.28000 48.20600
H  27.68500 -9.34300 47.13400
H  26.92300 -10.64100 47.94100
H  29.03400 -9.10900 48.97300
H  28.14100 -10.37700 49.80900
H  27.65700 -8.80300 50.08000
H  29.99400 -5.79500 47.49100
H  30.40600 -4.34900 46.52200
H  30.58200 -5.96100 45.90800
H  27.91000 -2.64900 41.97400
H  29.43200 0.65400 44.50100
H  28.03900 1.38400 43.83100
H  29.54200 1.47100 42.83100
Mg 53.93600 24.41300 43.90100
C  51.16800 26.55400 43.31900
C  52.23800 21.85700 42.57800
C  56.88300 22.70200 43.53000
C  55.79100 27.40600 44.72300
N  52.04200 24.35600 42.82300
C  50.98000 25.22600 42.89600
C  49.68500 24.58500 42.36600
C  50.02000 23.10700 42.39400
C  51.53100 23.08700 42.70300
C  49.27000 22.21700 43.39700
C  49.04300 25.04800 41.03300
C  49.99800 25.58300 39.90000
H  50.04500 24.73000 38.65400
N  54.50000 22.42500 43.21400
C  53.63200 21.55700 42.68700
C  54.29200 20.27000 42.45300
C  55.66600 20.42900 42.87700
C  55.74800 21.90400 43.28900
C  53.53500 19.10100 41.88900
C  56.75900 19.38600 42.80000
O  56.53800 18.29500 42.30900
C  58.07900 19.59200 43.42600
N  55.96100 24.96700 43.94900
C  56.98800 24.08300 43.83400
C  58.41900 24.72700 44.04600
C  58.02300 26.25900 44.23500
C  56.45000 26.20600 44.34100
C  59.13500 24.03800 45.32300
C  58.73500 27.26800 43.16400
C  59.22100 28.63300 43.73900
N  53.57400 26.53000 44.25900
C  54.36400 27.57600 44.65500
C  53.52000 28.66800 44.96100
C  52.30700 28.29400 44.39300
C  52.37200 27.05400 43.95500
C  53.88100 29.92400 45.41900
C  50.96900 28.85800 44.16600
O  50.49800 29.93800 44.45900
C  50.30200 27.77600 43.32200
C  49.98200 28.38800 42.07200
O  50.82400 28.71700 41.26100
O  48.63500 28.44800 41.79200
C  48.21700 28.90200 40.43100
H  51.59000 20.99000 42.43300
H  57.85100 22.20700 43.42700
H  56.33400 28.33100 44.92800
H  49.03200 24.81100 43.20900
H  49.95500 22.72800 41.37500
H  48.21300 22.48000 43.41800
H  49.67500 22.28300 44.40700
H  49.20000 21.15900 43.14600
H  48.44100 25.90900 41.32200
H  48.39500 24.30000 40.57700
H  51.00800 25.65600 40.30400
H  49.56900 26.52600 39.56300
H  53.38600 18.99900 40.81400
H  52.58500 19.00300 42.41400
H  54.14400 18.24900 42.19000
H  58.60300 18.63900 43.49600
H  57.95900 20.02600 44.41800
H  58.57000 20.20000 42.66600
H  59.01800 24.64200 43.13900
H  58.39400 26.59200 45.20400
H  60.10600 24.49900 45.50900
H  59.28000 22.96800 45.17800
H  58.47000 23.94500 46.18100
H  57.92000 27.47500 42.47000
H  59.51500 26.72700 42.62800
H  58.73400 28.87800 44.68400
H  58.88500 29.45100 43.10100
H  60.30600 28.55600 43.80400
H  53.11700 30.70000 45.36700
H  54.76800 30.30200 44.91100
H  54.17700 29.76700 46.45600
H  49.33800 27.55100 43.78100
H  48.49700 29.95300 40.34900
H  47.14700 28.70100 40.38500
H  48.71800 28.37800 39.61700

