158

Mg 25.55600 0.55800 29.61700
C  27.48000 0.26200 32.43900
C  22.84500 1.47300 31.51700
C  23.62300 0.52200 26.81200
C  28.24600 -0.75000 27.72400
N  25.17800 0.56400 31.76900
C  26.15000 0.60800 32.72900
C  25.54500 1.13700 34.06900
C  24.02900 1.24100 33.78300
C  24.00300 1.02700 32.29200
C  23.10200 0.34300 34.61400
C  26.17600 2.45900 34.62600
C  26.87300 2.27600 35.94700
H  26.58100 3.20200 37.15800
N  23.46500 0.96700 29.20300
C  22.62500 1.40800 30.09400
C  21.29400 1.64200 29.47400
C  21.48800 1.29600 28.11800
C  22.88600 0.92800 27.94500
C  20.01900 1.99200 30.21000
C  20.44700 1.18000 26.94400
O  20.67700 0.52700 25.92700
C  19.11900 1.75200 27.13000
N  25.87700 -0.01700 27.53700
C  24.95000 0.15200 26.59100
C  25.53400 -0.16500 25.22200
C  27.03600 -0.45000 25.46300
C  27.06700 -0.39900 26.96500
C  24.81900 -1.19600 24.29500
C  28.05200 0.53900 24.73200
C  28.31400 1.93800 25.39600
N  27.46500 -0.06000 29.93200
C  28.44500 -0.54000 29.06600
C  29.68100 -0.64000 29.84500
C  29.34100 -0.29200 31.19700
C  27.99000 -0.02700 31.20400
C  31.07500 -1.01000 29.38600
C  29.84700 -0.13000 32.55700
O  30.90600 -0.27800 32.99100
C  28.66900 0.33500 33.45800
C  28.48200 -0.67000 34.52100
O  28.18600 -1.80300 34.36000
O  28.86200 -0.05400 35.76800
C  28.49300 -0.76600 36.95300
H  21.97600 1.81000 32.08600
H  23.03100 0.44300 25.89800
H  29.12100 -1.02200 27.12900
H  25.64500 0.34000 34.80500
H  23.62400 2.25200 33.83300
H  23.57700 -0.07400 35.50200
H  22.69900 -0.43900 33.97000
H  22.25900 0.95900 34.92800
H  25.36100 3.15900 34.80700
H  26.86700 2.94300 33.93600
H  27.91700 2.46500 35.69700
H  26.72800 1.28400 36.37400
H  19.31700 1.15900 30.18500
H  19.40900 2.77300 29.75500
H  20.24100 2.31800 31.22600
H  18.60800 2.03700 26.21000
H  19.30900 2.67700 27.67400
H  18.46000 1.17700 27.78000
H  25.58400 0.75700 24.64300
H  27.27500 -1.46400 25.14100
H  23.89300 -1.60700 24.69700
H  25.49100 -2.02900 24.08600
H  24.50300 -0.69300 23.38200
H  27.73200 0.63200 23.69400
H  29.02600 0.05500 24.80400
H  27.67700 2.10400 26.26500
H  28.09600 2.85100 24.84100
H  29.35600 1.98300 25.71100
H  31.91900 -0.67100 29.98600
H  31.25300 -0.67800 28.36300
H  31.14300 -2.09800 29.42000
H  28.87500 1.31100 33.89700
H  28.16700 -0.05400 37.71100
H  29.43400 -1.26400 37.18800
H  27.79700 -1.60100 36.86600
Mg 48.14400 34.45900 26.49900
C  46.35500 33.05300 29.29700
C  48.27400 37.39800 28.16300
C  48.97300 35.71200 23.51300
C  47.01400 31.40900 24.62900
N  47.53600 35.08800 28.58100
C  46.96800 34.36900 29.53100
C  46.93300 35.15800 30.82900
C  47.06200 36.61400 30.31200
C  47.59700 36.44700 28.90200
C  45.74500 37.43200 30.34300
C  48.07200 34.65400 31.79600
C  47.82000 34.56200 33.26500
H  46.82900 35.61000 33.83000
N  48.84900 36.27500 25.99800
C  48.79300 37.33300 26.79900
C  49.33900 38.53400 25.96000
C  49.58600 38.01400 24.59800
C  49.08700 36.62300 24.64700
C  49.55600 39.88800 26.63100
C  50.10200 38.72000 23.34600
O  50.20800 38.16300 22.19400
C  50.48800 40.16400 23.53100
N  48.12500 33.59200 24.40300
C  48.62500 34.36100 23.40200
C  48.43700 33.70300 22.03600
C  48.12800 32.17500 22.38800
C  47.76600 32.34200 23.89600
C  47.37400 34.48600 21.15300
C  49.27300 31.14700 22.11800
C  50.57000 31.28800 22.98800
N  46.93700 32.61900 26.85600
C  46.57800 31.53800 26.05000
C  45.76800 30.59400 26.76800
C  45.67600 31.16400 28.02300
C  46.30200 32.39900 28.04200
C  45.17800 29.37800 26.12600
C  45.11600 30.94500 29.36900
O  44.41400 30.05600 29.73400
C  45.33700 32.27200 30.13100
C  45.59600 31.90200 31.55500
O  46.60600 31.45600 32.10400
O  44.44700 32.19500 32.21200
C  44.29500 31.63400 33.57100
H  48.18100 38.36600 28.66100
H  49.14300 36.12700 22.51700
H  46.67800 30.49200 24.14200
H  45.94100 35.03600 31.26300
H  47.88700 37.09600 30.83700
H  44.94000 36.89900 30.84900
H  45.62300 37.76000 29.31100
H  45.95900 38.30800 30.95600
H  48.96300 35.26700 31.66000
H  48.31800 33.60600 31.62700
H  48.74600 34.76900 33.80100
H  47.49900 33.54800 33.50300
H  50.60500 39.88500 26.92900
H  49.05800 39.92100 27.60000
H  49.31100 40.72200 25.97400
H  49.68400 40.75300 23.97300
H  50.83700 40.51200 22.55900
H  51.26300 40.28200 24.28800
H  49.35300 33.80400 21.45400
H  47.32400 31.86100 21.72300
H  47.93200 35.02700 20.38800
H  46.84500 35.28200 21.67700
H  46.73000 33.75700 20.66200
H  49.54800 31.23100 21.06700
H  48.85100 30.20300 22.46300
H  51.40200 30.94500 22.37400
H  50.49700 30.54900 23.78500
H  50.78000 32.22000 23.51200
H  45.84500 28.93800 25.38400
H  44.24900 29.73700 25.68500
H  44.98900 28.58800 26.85200
H  44.36700 32.76200 30.04200
H  44.52100 30.57300 33.67200
H  43.28900 31.87900 33.91400
H  45.09700 32.12800 34.12100

