158

Mg 34.97400 49.15300 24.43100
C  35.17600 47.20900 27.33000
C  33.62700 51.65400 26.46500
C  34.68600 51.02700 21.67400
C  35.97500 46.33000 22.52800
N  34.27900 49.34000 26.65500
C  34.76800 48.51500 27.62300
C  34.42900 49.06500 29.06700
C  33.63300 50.38600 28.75700
C  33.79100 50.45300 27.17300
C  32.17200 50.59200 29.19400
C  35.66100 49.07100 30.01100
C  35.45700 48.42900 31.40500
H  34.00500 48.60500 32.02400
N  34.23200 51.07200 24.13300
C  33.80900 51.98500 25.07900
C  33.44000 53.20700 24.42700
C  33.75400 53.02700 23.03900
C  34.22800 51.65800 22.89200
C  32.99100 54.41400 25.32400
C  33.64800 54.10300 21.89900
O  33.98200 53.87600 20.73300
C  33.02900 55.50300 22.26900
N  35.27900 48.78600 22.41100
C  35.20500 49.75800 21.49500
C  35.60800 49.24800 20.06400
C  36.20700 47.81600 20.41800
C  35.83000 47.62700 21.83700
C  34.46500 49.34100 19.02300
C  37.75600 47.62600 20.37000
C  38.23600 46.18100 20.05900
N  35.33500 47.18500 24.74500
C  35.75200 46.19500 23.89000
C  35.87700 45.02300 24.62400
C  35.73000 45.35500 25.96300
C  35.34600 46.68200 26.00200
C  36.25900 43.73200 24.06700
C  35.74300 44.86000 27.34200
O  36.08000 43.82100 27.88900
C  35.35700 46.05900 28.25600
C  34.15500 45.73300 29.08000
O  33.04500 46.00100 28.69400
O  34.41300 44.95800 30.19100
C  33.33600 44.50600 31.05800
H  33.22300 52.43700 27.11000
H  34.54600 51.57300 20.73800
H  36.43100 45.54000 21.92700
H  33.70600 48.38200 29.51200
H  34.11700 51.18100 29.32500
H  31.95500 49.75700 29.86000
H  31.41000 50.64000 28.41700
H  32.01600 51.37000 29.94200
H  35.92500 50.12900 30.02000
H  36.47800 48.53600 29.52600
H  36.13000 48.73700 32.20500
H  35.68200 47.39100 31.16200
H  33.68200 55.22200 25.08200
H  32.93000 54.33800 26.41000
H  32.01300 54.81000 25.05000
H  33.13800 56.14000 21.39200
H  33.75700 55.86100 22.99700
H  31.98900 55.43100 22.58400
H  36.47700 49.81700 19.73400
H  35.67700 47.12400 19.76300
H  33.58900 49.73500 19.53900
H  34.09100 48.34900 18.77000
H  34.60400 50.00100 18.16700
H  38.00300 47.89400 21.39700
H  38.32100 48.23900 19.66700
H  38.83400 45.72100 20.84600
H  38.85600 46.21400 19.16400
H  37.44300 45.49000 19.77200
H  35.91700 43.00500 24.80400
H  37.30200 43.59700 23.78200
H  35.71200 43.56700 23.13900
H  36.26100 46.15100 28.85900
H  32.46700 45.16200 31.11700
H  33.69600 44.46000 32.08600
H  32.84000 43.58400 30.75300
Mg -4.80400 25.60100 26.12300
C  -3.31500 27.01100 28.87900
C  -6.51000 23.34000 28.27400
C  -6.00700 23.99000 23.53300
C  -2.76900 27.63600 24.02400
N  -4.94100 25.28900 28.29200
C  -4.24700 26.04200 29.25000
C  -4.71900 25.69800 30.72500
C  -5.68200 24.42700 30.39200
C  -5.70500 24.36200 28.87900
C  -5.06300 23.15900 31.03400
C  -5.46400 26.95000 31.28500
C  -5.25400 27.17300 32.73100
H  -5.18500 25.99200 33.68300
N  -6.14500 23.90100 25.95800
C  -6.74000 23.14900 26.95200
C  -7.68500 22.28700 26.34100
C  -7.65200 22.51700 24.92100
C  -6.62100 23.52000 24.72100
C  -8.49400 21.33200 27.23600
C  -8.47200 21.91200 23.88500
O  -8.50700 22.34800 22.72600
C  -9.56200 20.89400 24.24800
N  -4.48400 25.85400 24.12200
C  -5.12000 25.00600 23.29300
C  -4.94000 25.45500 21.77400
C  -3.89600 26.63400 21.95100
C  -3.65400 26.67100 23.42800
C  -4.40500 24.36100 20.79100
C  -4.27400 28.01900 21.33400
C  -3.09000 28.73000 20.70200
N  -3.16700 26.86100 26.31400
C  -2.54400 27.72900 25.43000
C  -1.53800 28.54100 26.19200
C  -1.79000 28.32700 27.54800
C  -2.81600 27.28800 27.57000
C  -0.49000 29.50400 25.61400
C  -1.37600 28.68700 28.86500
O  -0.50800 29.48400 29.25800
C  -2.34100 27.84300 29.80000
C  -1.47300 27.05500 30.71500
O  -1.14200 25.89700 30.61600
O  -1.20600 27.92900 31.73200
C  -0.75000 27.39000 32.93400
H  -6.93800 22.63200 28.98700
H  -6.40100 23.65200 22.57200
H  -2.20400 28.33200 23.40000
H  -3.83200 25.48100 31.32100
H  -6.72300 24.53300 30.70000
H  -3.97600 23.16800 30.95000
H  -5.60400 22.28600 30.67100
H  -5.25700 23.22300 32.10500
H  -6.53700 26.83600 31.12600
H  -5.08600 27.81200 30.73600
H  -5.97100 27.86200 33.17700
H  -4.26100 27.59300 32.88800
H  -8.13600 20.30400 27.18900
H  -9.55900 21.20600 27.04600
H  -8.32100 21.63600 28.26900
H  -10.21500 20.51800 23.46100
H  -10.20800 21.43100 24.94200
H  -9.08600 20.01300 24.67700
H  -5.94800 25.71900 21.45400
H  -3.01400 26.39400 21.35600
H  -4.00200 23.50100 21.32600
H  -3.61000 24.70000 20.12800
H  -5.12600 24.09700 20.01600
H  -4.73000 28.69200 22.06000
H  -5.08600 27.81900 20.63500
H  -3.39800 29.05200 19.70700
H  -2.21700 28.09000 20.57600
H  -2.98400 29.64700 21.28100
H  0.08300 30.01600 26.38700
H  -1.18400 30.24400 25.21600
H  0.27000 29.18400 24.90100
H  -2.89900 28.65200 30.27100
H  0.33600 27.37500 33.03100
H  -1.16200 26.39600 33.10800
H  -1.10300 27.94600 33.80200

