158

Mg 24.34100 -6.37600 45.31700
C  26.42100 -4.14900 43.76500
C  21.70700 -5.38200 43.40000
C  22.72500 -9.34800 46.14000
C  27.17600 -7.65900 47.08800
N  24.13300 -4.94500 43.79200
C  25.11200 -4.08600 43.33000
C  24.51800 -3.02600 42.29500
C  22.94400 -3.28000 42.34000
C  22.89900 -4.67000 43.14000
C  22.10300 -2.14200 43.05400
C  25.11700 -3.32200 40.81100
C  25.32900 -2.00200 40.04400
H  24.87400 -1.87900 38.55900
N  22.42200 -7.18900 45.00400
C  21.47800 -6.62100 44.14500
C  20.29100 -7.49200 44.15500
C  20.50300 -8.48400 45.10100
C  21.92500 -8.41300 45.38300
C  19.06600 -7.18300 43.31400
C  19.47100 -9.36700 45.68300
O  18.36000 -9.10000 45.39900
C  19.82800 -10.34600 46.60000
N  24.97000 -8.32100 46.36100
C  24.07700 -9.34300 46.58800
C  24.63700 -10.41200 47.56700
C  26.05900 -9.76800 47.90600
C  26.07500 -8.50000 47.12200
C  23.74100 -11.03000 48.72600
C  27.26200 -10.80300 47.64000
C  28.46600 -10.96300 48.64300
N  26.40200 -6.03300 45.30400
C  27.38400 -6.55500 46.17100
C  28.67100 -5.82300 46.01700
C  28.31400 -4.93000 44.94500
C  26.99800 -5.08200 44.65300
C  29.89200 -5.97700 46.69600
C  28.86800 -3.87700 44.09700
O  29.95400 -3.38500 44.01000
C  27.58800 -3.33800 43.31500
C  27.54100 -1.86300 43.53700
O  26.90600 -1.31900 44.39300
O  28.34700 -1.21200 42.66700
C  28.43300 0.26800 42.87200
H  20.85900 -5.01800 42.81600
H  22.19000 -10.26600 46.39300
H  28.06100 -7.96800 47.64700
H  24.78500 -2.00100 42.55200
H  22.58100 -3.34100 41.31400
H  22.71700 -1.24500 43.14200
H  21.84600 -2.42600 44.07400
H  21.17000 -2.11800 42.49200
H  24.37800 -3.95400 40.31800
H  25.99400 -3.95200 40.96400
H  26.39100 -1.75800 40.01300
H  24.96800 -1.10500 40.54800
H  19.32800 -6.80700 42.32500
H  18.32800 -6.58800 43.85200
H  18.55100 -8.11900 43.09500
H  20.38800 -9.85400 47.39500
H  20.41400 -11.13900 46.13600
H  18.97800 -10.88300 47.02100
H  24.98500 -11.17100 46.86600
H  25.96400 -9.35900 48.91200
H  24.39200 -11.30500 49.55600
H  23.10900 -11.80600 48.29400
H  23.14700 -10.26200 49.22200
H  27.65200 -10.33100 46.73800
H  26.84500 -11.80500 47.53800
H  28.09900 -11.70500 49.35200
H  28.75100 -9.98200 49.02300
H  29.32900 -11.32100 48.08100
H  29.68800 -6.04600 47.76400
H  30.48500 -5.08500 46.48900
H  30.52000 -6.82300 46.41800
H  27.63300 -3.44400 42.23100
H  28.59300 0.52600 43.91900
H  27.46500 0.66000 42.55900
H  29.18800 0.83700 42.32900
Mg 47.32000 24.81700 27.66300
C  48.50400 26.86700 30.33800
C  46.64400 22.39700 29.99700
C  46.42700 22.81000 25.11100
C  48.37900 27.29600 25.35200
N  47.54700 24.68300 29.86100
C  47.90100 25.64900 30.75900
C  47.87900 25.19500 32.25200
C  47.44700 23.69600 32.03800
C  47.11000 23.59700 30.55000
C  48.46800 22.66300 32.48100
C  46.88500 26.11600 33.13400
C  47.15100 25.99100 34.63200
H  46.42000 26.86200 35.68600
N  46.61200 22.86000 27.58800
C  46.41200 22.02600 28.69800
C  45.90000 20.75100 28.18200
C  45.94200 20.82800 26.74700
C  46.32900 22.18000 26.39100
C  45.69300 19.56700 29.05300
C  45.78400 19.68600 25.80800
O  45.99200 19.68100 24.59700
C  45.17400 18.40300 26.35600
N  47.60000 24.92900 25.53000
C  46.95900 24.07900 24.65900
C  46.78800 24.61100 23.23700
C  47.38500 26.06900 23.34500
C  47.71800 26.15900 24.85200
C  47.46500 23.79000 22.05800
C  46.56300 27.27100 22.81400
C  47.14300 27.92900 21.55400
N  48.28900 26.63800 27.77100
C  48.76600 27.49300 26.73800
C  49.45700 28.61900 27.33900
C  49.26500 28.46400 28.70000
C  48.64100 27.19000 28.95900
C  50.08900 29.76200 26.65600
C  49.58800 29.08500 29.95800
O  50.17200 30.16100 30.19000
C  49.10400 28.05400 31.06400
C  50.09500 27.71700 32.06700
O  51.06200 26.99300 31.84800
O  49.85200 28.35600 33.24300
C  50.75600 28.22000 34.41200
H  46.32100 21.72500 30.79500
H  46.02700 22.17600 24.31700
H  48.56500 28.11500 24.65400
H  48.88000 25.34300 32.65800
H  46.58400 23.53900 32.68400
H  47.94900 21.90700 33.07000
H  49.21900 23.05500 33.16700
H  49.05500 22.20600 31.68500
H  45.83500 25.88400 32.95300
H  47.01700 27.17800 32.92800
H  48.22500 25.93000 34.81200
H  46.82300 24.99200 34.91800
H  44.65800 19.23000 28.99600
H  45.82900 19.76300 30.11600
H  46.43700 18.82900 28.75200
H  45.81300 18.01200 27.14800
H  45.21000 17.71800 25.50900
H  44.16300 18.56400 26.72900
H  45.78800 24.76100 22.83000
H  48.36100 26.02500 22.86000
H  48.30300 24.31700 21.60100
H  46.81500 23.67700 21.19100
H  47.79800 22.83700 22.47000
H  46.48000 28.10100 23.51600
H  45.56400 26.96700 22.50100
H  47.51700 28.95300 21.57700
H  46.26400 28.12300 20.93900
H  47.78500 27.32000 20.91800
H  49.56500 30.70500 26.80900
H  50.22500 29.59200 25.58800
H  51.13000 29.93400 26.93000
H  48.27800 28.62500 31.49000
H  51.25700 29.11300 34.78800
H  51.47200 27.40800 34.28700
H  50.09600 28.13500 35.27500

