158

Mg 24.69900 -7.59200 48.17400
C  27.03100 -5.29300 47.06300
C  22.38200 -6.53400 45.80800
C  22.74400 -10.12000 49.06400
C  27.36400 -9.28100 49.97300
N  24.71800 -6.19500 46.57900
C  25.78500 -5.32600 46.36500
C  25.38800 -4.36300 45.22400
C  23.85300 -4.48300 45.16400
C  23.65300 -5.86900 45.80400
C  22.97800 -3.43800 45.87200
C  26.06800 -4.81900 43.94800
C  26.66800 -3.65800 43.28100
H  25.72900 -2.59300 42.72400
N  22.76200 -8.18200 47.51200
C  22.00700 -7.66000 46.51600
C  20.81900 -8.38900 46.37100
C  20.79100 -9.41800 47.36700
C  22.13400 -9.30200 48.04900
C  19.71700 -8.13100 45.35000
C  19.71500 -10.45900 47.57100
O  18.65300 -10.48000 46.95500
C  19.84200 -11.49700 48.71300
N  25.14800 -9.57700 49.16100
C  24.00400 -10.22100 49.56100
C  24.25300 -11.22000 50.68500
C  25.81900 -11.15100 50.77500
C  26.12200 -9.94100 49.94600
C  23.58500 -11.00300 52.06600
C  26.57500 -12.45900 50.37900
C  27.46400 -12.50100 49.05000
N  26.73200 -7.33000 48.51000
C  27.64600 -8.08600 49.30400
C  28.90900 -7.27600 49.21500
C  28.68900 -6.17100 48.41000
C  27.37500 -6.20900 47.98100
C  30.20900 -7.73500 49.75600
C  29.27800 -4.95200 47.90600
O  30.39900 -4.47400 48.13400
C  28.25200 -4.47100 46.82800
C  28.02600 -3.03700 47.01200
O  27.48700 -2.46800 47.96800
O  28.55100 -2.41500 45.97000
C  28.25200 -0.97900 45.82600
H  21.49200 -6.11000 45.33900
H  22.17000 -10.88000 49.59800
H  28.08600 -9.80800 50.60000
H  25.75900 -3.36500 45.45700
H  23.58000 -4.52600 44.10900
H  22.51200 -3.87300 46.75700
H  22.24000 -2.98900 45.20700
H  23.62900 -2.66600 46.28100
H  25.40100 -5.42300 43.33300
H  26.89600 -5.47700 44.21500
H  27.30700 -4.14000 42.54000
H  27.44100 -3.21400 43.90900
H  20.02300 -8.88800 44.62700
H  19.87300 -7.18100 44.84100
H  18.66000 -8.34500 45.51000
H  20.40900 -12.26500 48.18700
H  18.82400 -11.86800 48.82800
H  20.14100 -11.04600 49.66000
H  23.97200 -12.23400 50.40000
H  26.13600 -10.99000 51.80500
H  23.21900 -9.99000 52.23200
H  24.09600 -11.23700 53.00100
H  22.66800 -11.59100 52.05100
H  25.75500 -13.17000 50.28000
H  27.17500 -12.75700 51.23800
H  27.43200 -13.56800 48.83100
H  28.48500 -12.17200 49.24300
H  27.14600 -12.11800 48.08000
H  31.12000 -7.74500 49.15700
H  30.01200 -8.67900 50.26400
H  30.63900 -7.08200 50.51500
H  28.53400 -4.66200 45.79300
H  29.29600 -0.66600 45.81300
H  27.78100 -0.51500 46.69200
H  27.61700 -0.83000 44.95200
Mg 9.72000 47.45200 27.23500
C  7.59100 46.73800 29.96000
C  12.32800 47.66200 29.47700
C  11.67000 48.19800 24.67500
C  6.87300 47.43900 25.21200
N  9.93000 47.03100 29.48500
C  8.93300 46.85700 30.35800
C  9.52100 46.92300 31.78700
C  11.00300 47.41000 31.63100
C  11.12700 47.32700 30.10400
C  11.26700 48.83400 32.24500
C  9.12200 45.80300 32.86000
C  10.18000 45.52200 34.02900
H  9.81300 44.89600 35.31900
N  11.73800 47.74400 27.06900
C  12.65800 47.75100 28.10200
C  14.01400 47.96300 27.57300
C  13.77800 48.20600 26.17500
C  12.39500 48.00400 25.93100
C  15.27800 48.05800 28.43600
C  14.77800 48.56500 25.14600
O  14.52500 48.75700 23.93200
C  16.30800 48.49900 25.40900
N  9.36700 47.89900 25.23800
C  10.31000 48.18900 24.33000
C  9.80200 48.25300 22.87300
C  8.29500 47.97100 23.08700
C  8.16500 47.80500 24.62300
C  10.09300 49.68400 22.30400
C  7.96000 46.62700 22.43900
C  7.28500 46.60500 21.05500
N  7.61200 47.29600 27.46500
C  6.60900 47.21300 26.56200
C  5.28900 47.06900 27.21400
C  5.58400 46.82400 28.58000
C  7.03800 47.03100 28.65700
C  3.89100 47.14200 26.62800
C  5.07400 46.64200 29.96000
O  3.93600 46.66900 30.43400
C  6.35400 46.55200 30.84800
C  6.35100 45.22700 31.44500
O  6.86100 44.20800 30.93200
O  5.59300 45.26600 32.63300
C  5.62600 43.97300 33.32100
H  13.20800 47.84100 30.09800
H  12.17500 48.42800 23.73500
H  6.01000 47.43300 24.54300
H  8.88100 47.74000 32.11900
H  11.75200 46.68200 31.94500
H  10.48200 49.06900 32.96400
H  11.16800 49.50200 31.38900
H  12.27900 48.97400 32.62800
H  8.89500 44.84100 32.40100
H  8.25900 46.11000 33.45000
H  10.64100 46.44400 34.38300
H  11.03200 44.91300 33.72700
H  15.88200 47.33600 27.88700
H  15.05400 47.78400 29.46700
H  15.79900 49.01500 28.41100
H  16.86400 48.73200 24.50100
H  16.52900 47.52900 25.85500
H  16.41600 49.34700 26.08600
H  10.33100 47.48100 22.31500
H  7.63000 48.72400 22.66600
H  9.44500 50.37900 22.83700
H  9.98400 49.74500 21.22100
H  11.13400 49.93600 22.50600
H  7.18400 46.12600 23.01800
H  8.81000 45.94600 22.42700
H  7.78000 45.87100 20.41800
H  7.18000 47.60200 20.62700
H  6.24400 46.30700 21.17500
H  3.81500 46.70900 25.63100
H  3.69200 48.20800 26.51800
H  3.05300 46.72100 27.18400
H  6.32200 47.34100 31.60000
H  4.83000 43.32800 32.95100
H  5.50300 44.16600 34.38700
H  6.55400 43.40700 33.24100

