158

Mg 35.59200 2.57300 30.07400
C  33.14900 3.63200 32.32800
C  37.86400 2.49800 32.70300
C  37.98800 2.11200 27.94000
C  33.40400 3.47800 27.46800
N  35.47200 3.07900 32.27900
C  34.39300 3.47700 32.95200
C  34.65200 3.59200 34.52800
C  36.27300 3.40000 34.64200
C  36.59700 2.89600 33.12600
C  37.22700 4.61400 34.89700
C  33.85000 2.61500 35.34900
C  33.53700 2.88400 36.88700
H  34.36600 4.01600 37.57100
N  37.61500 2.28400 30.35500
C  38.33900 2.21000 31.47000
C  39.71700 1.90200 31.21800
C  39.75400 1.73200 29.77600
C  38.41500 2.03900 29.31900
C  40.76500 1.59400 32.26000
C  40.93500 1.23300 28.92600
O  40.86500 1.09000 27.70600
C  42.31400 0.88900 29.55400
N  35.67900 2.83600 27.94800
C  36.79300 2.45300 27.28800
C  36.59400 2.52900 25.78900
C  35.09600 2.96500 25.60300
C  34.65600 3.05300 27.06700
C  37.66600 3.37600 24.99200
C  34.27100 1.95600 24.73800
C  33.62200 0.73700 25.39200
N  33.62100 3.23400 29.92300
C  32.83300 3.51500 28.77700
C  31.46700 3.76400 29.24200
C  31.50700 3.85500 30.62400
C  32.85800 3.53100 30.98600
C  30.37700 3.95500 28.31300
C  30.74700 4.21000 31.80900
O  29.56100 4.43100 31.95300
C  31.76500 4.02400 32.96600
C  31.78100 5.34600 33.64800
O  32.52300 6.25800 33.31900
O  30.77100 5.40100 34.57400
C  30.78800 6.62400 35.41600
H  38.55800 2.67500 33.52800
H  38.73300 1.82700 27.19300
H  32.60800 3.64600 26.73900
H  34.47600 4.64300 34.75600
H  36.47300 2.59400 35.34800
H  36.60900 5.49700 35.05600
H  37.84400 4.82000 34.02200
H  37.90100 4.36200 35.71600
H  34.29300 1.62700 35.47700
H  32.89200 2.43700 34.86000
H  33.61400 1.96800 37.47300
H  32.51900 3.26500 36.96000
H  41.80500 1.69400 31.95000
H  40.69200 0.61400 32.73200
H  40.69400 2.38200 33.01000
H  42.79100 0.37200 28.72100
H  42.21500 0.18200 30.37800
H  42.90000 1.79900 29.67900
H  36.78500 1.52500 25.40800
H  35.09500 4.02600 25.35300
H  38.35500 3.84800 25.69200
H  37.09300 4.11400 24.43000
H  38.24000 2.77300 24.28900
H  34.99500 1.60900 24.00100
H  33.62800 2.59000 24.12700
H  34.00700 0.71500 26.41200
H  34.00900 -0.13900 24.87200
H  32.53300 0.73300 25.35800
H  29.42400 4.16400 28.79800
H  30.28300 3.10200 27.64200
H  30.44000 4.87400 27.73100
H  31.29400 3.29900 33.63100
H  30.48500 7.51300 34.86300
H  31.71800 6.82300 35.94900
H  29.97100 6.52400 36.13000
Mg -5.93200 25.22900 26.23100
C  -4.88900 26.82300 29.12000
C  -7.68600 23.03100 28.16100
C  -6.83500 23.68800 23.35000
C  -3.98300 27.52100 24.37400
N  -6.26400 25.06100 28.39400
C  -5.79400 25.85500 29.36900
C  -6.38100 25.43000 30.70200
C  -7.14200 24.10200 30.37900
C  -7.07300 24.06700 28.93800
C  -6.47800 22.93700 31.24100
C  -7.29900 26.51200 31.27200
C  -7.04900 27.05000 32.64800
H  -6.66000 26.08300 33.70600
N  -6.99400 23.52600 25.77500
C  -7.67100 22.78100 26.70000
C  -8.49800 21.78700 25.98000
C  -8.12700 21.92200 24.55000
C  -7.33600 23.08600 24.50000
C  -9.49900 20.89400 26.69200
C  -8.57700 21.09400 23.43300
O  -8.15900 21.18200 22.29100
C  -9.64300 20.19600 23.65900
N  -5.43400 25.55500 24.19000
C  -5.94200 24.79200 23.17600
C  -5.51700 25.22500 21.85800
C  -4.75400 26.48900 22.12400
C  -4.73100 26.58900 23.62500
C  -4.62700 24.08600 21.14900
C  -5.33400 27.73700 21.51000
C  -5.30300 27.66400 20.01500
N  -4.59900 26.76600 26.58400
C  -3.88200 27.60200 25.77700
C  -3.12800 28.57100 26.54500
C  -3.48100 28.27200 27.86500
C  -4.31800 27.12100 27.86100
C  -2.39100 29.73100 26.12500
C  -3.30400 28.79800 29.21100
O  -2.73100 29.75000 29.72600
C  -4.23000 27.78600 30.11400
C  -3.53400 27.09100 31.23500
O  -2.97900 25.97700 31.09600
O  -3.53900 27.84300 32.36900
C  -2.49400 27.42800 33.33800
H  -8.26200 22.42600 28.86400
H  -7.03900 23.21200 22.38900
H  -3.37700 28.14000 23.70800
H  -5.53600 25.25300 31.36800
H  -8.16400 24.07800 30.75700
H  -7.12600 22.64700 32.06800
H  -5.49600 23.20400 31.63300
H  -6.44100 21.96400 30.75100
H  -8.34300 26.20200 31.22600
H  -7.17200 27.42900 30.69700
H  -8.04400 27.44900 32.84700
H  -6.32600 27.86600 32.65200
H  -9.14900 19.86300 26.74200
H  -10.39400 20.98600 26.07700
H  -9.64600 21.30800 27.68900
H  -9.32600 19.64100 24.54100
H  -9.74400 19.54300 22.79200
H  -10.58700 20.70900 23.84300
H  -6.41300 25.30700 21.24400
H  -3.71800 26.38100 21.80500
H  -4.53600 23.23700 21.82600
H  -3.59400 24.41700 21.04200
H  -4.99400 23.89800 20.14000
H  -4.72500 28.60800 21.75200
H  -6.30200 27.98000 21.94900
H  -6.30500 27.56900 19.59600
H  -4.72600 26.82100 19.63600
H  -4.79200 28.53200 19.59900
H  -1.37400 29.52100 25.79400
H  -2.40800 30.54500 26.84900
H  -2.88700 30.16100 25.25500
H  -5.03000 28.45800 30.42500
H  -2.65000 27.87800 34.31900
H  -1.54400 27.89300 33.07700
H  -2.35800 26.35000 33.41800

