158

Mg 30.56400 58.23800 40.60000
C  27.93700 56.07400 39.61800
C  32.76100 55.87400 39.32100
C  32.98400 60.58500 40.64800
C  28.21200 60.83400 40.69800
N  30.32900 56.14300 39.61700
C  29.23600 55.47300 39.30900
C  29.55700 54.13900 38.56500
C  31.04500 53.97200 38.96500
C  31.40100 55.39900 39.37300
C  31.31800 53.07000 40.24400
C  29.35000 54.29400 37.04800
C  28.25700 53.32200 36.46700
H  27.33200 53.92400 35.40700
N  32.64900 58.22300 40.02500
C  33.31800 57.18500 39.44900
C  34.65900 57.61700 39.21400
C  34.76400 58.99800 39.55200
C  33.38700 59.32900 40.10300
C  35.69500 56.79700 38.58300
C  36.01700 59.87200 39.34400
O  37.07000 59.31200 38.95400
C  36.07500 61.40700 39.52800
N  30.53200 60.50900 40.63600
C  31.68800 61.11400 40.88400
C  31.49700 62.55100 41.39800
C  29.93900 62.69400 41.28100
C  29.50800 61.24000 40.88200
C  32.15700 62.80200 42.80700
C  29.42500 63.81700 40.32200
C  28.76200 64.94800 41.13300
N  28.48400 58.44600 40.43800
C  27.66400 59.56100 40.47100
C  26.29900 59.18200 40.38400
C  26.28400 57.77400 40.05000
C  27.69700 57.39300 40.05000
C  25.19500 60.15400 40.42600
C  25.53800 56.61100 39.63900
O  24.33400 56.38400 39.45800
C  26.55100 55.39900 39.52800
C  26.28200 54.43600 40.59500
O  26.11500 54.74300 41.77000
O  26.11200 53.19800 40.09200
C  25.65900 52.15900 40.96400
H  33.40000 55.11900 38.85800
H  33.85900 61.16100 40.95800
H  27.41100 61.56100 40.84000
H  29.06600 53.25700 38.97600
H  31.67400 53.71400 38.11300
H  30.41100 53.14000 40.84500
H  32.21300 53.39300 40.77600
H  31.62500 52.04400 40.04500
H  30.21400 54.12000 36.40700
H  29.00500 55.31000 36.85600
H  27.60600 53.03500 37.29200
H  28.81300 52.54900 35.93800
H  36.72700 57.07700 38.79400
H  35.49200 56.84900 37.51300
H  35.63800 55.73600 38.82300
H  36.28900 61.63900 40.57200
H  35.05700 61.77700 39.40600
H  36.85400 61.98900 39.03600
H  32.15300 63.17900 40.79500
H  29.44200 62.84000 42.24000
H  32.73400 61.91100 43.05500
H  31.28900 62.94700 43.45100
H  32.70800 63.74000 42.74200
H  28.65500 63.46600 39.63500
H  30.27200 64.20400 39.75700
H  28.64100 65.79500 40.45800
H  29.35900 65.21000 42.00700
H  27.74600 64.65000 41.39200
H  25.12900 60.50700 41.45500
H  24.34700 59.51400 40.18500
H  25.22800 61.02200 39.76700
H  26.55200 54.84800 38.58700
H  25.49600 51.31700 40.29100
H  24.80200 52.58400 41.48600
H  26.43300 51.81900 41.65100
Mg 1.60900 42.42600 25.45900
C  3.29900 42.33600 28.62300
C  -1.28400 41.60600 27.23600
C  0.21900 41.51700 22.60900
C  4.71800 42.52500 23.93800
N  1.08700 42.02800 27.71200
C  1.95500 42.11800 28.78900
C  1.16200 42.21100 30.05400
C  -0.26200 41.70900 29.60500
C  -0.21000 41.81800 28.10000
C  -0.54500 40.29100 30.06400
C  1.21400 43.67700 30.71800
C  1.53500 43.83300 32.31200
H  1.33400 42.53100 33.03100
N  -0.27500 41.73900 25.01000
C  -1.34200 41.52200 25.85400
C  -2.55900 41.13300 25.06500
C  -2.11100 41.05500 23.73100
C  -0.69000 41.49100 23.72700
C  -3.89600 40.77700 25.68100
C  -2.86300 40.50300 22.58300
O  -2.36600 40.42600 21.42500
C  -4.31300 40.09000 22.76400
N  2.35900 42.18200 23.50300
C  1.54300 41.81300 22.49100
C  2.21500 41.92400 21.11600
C  3.68000 42.40700 21.54800
C  3.60400 42.46100 23.04600
C  2.11600 40.56900 20.36100
C  4.07500 43.75100 20.97700
C  4.98000 43.79700 19.75000
N  3.65800 42.44600 26.08800
C  4.79300 42.48000 25.33700
C  5.93900 42.63600 26.20700
C  5.43000 42.56200 27.48500
C  4.01300 42.40300 27.38000
C  7.45200 42.68800 25.78200
C  5.75600 42.57100 28.87400
O  6.79300 42.86600 29.48800
C  4.45900 42.40600 29.65200
C  4.66800 41.17600 30.52000
O  4.45200 40.04600 30.10900
O  5.13300 41.55700 31.78300
C  5.23800 40.49200 32.69000
H  -2.18400 41.37800 27.81100
H  -0.19100 41.53500 21.59700
H  5.63800 42.67100 23.37000
H  1.63700 41.56900 30.79500
H  -0.99400 42.41500 29.99800
H  0.35000 39.79700 30.44100
H  -1.02700 39.72000 29.27000
H  -1.42100 40.23700 30.71100
H  0.18200 44.02700 30.73100
H  1.74100 44.38200 30.07600
H  0.97800 44.70000 32.66700
H  2.61600 43.97500 32.31800
H  -4.15500 39.75700 25.39900
H  -4.58500 41.56400 25.37400
H  -3.82500 40.89400 26.76200
H  -4.17000 39.21800 23.40300
H  -4.80700 39.71600 21.86800
H  -4.81800 40.88200 23.31800
H  1.77900 42.59700 20.37800
H  4.43700 41.68100 21.25000
H  1.40900 40.67800 19.53900
H  1.65200 39.79800 20.97600
H  3.08200 40.22200 19.99200
H  4.32900 44.35500 21.84800
H  3.19100 44.27100 20.60700
H  5.91300 44.32100 19.95700
H  4.64700 44.33000 18.86000
H  5.16100 42.76800 19.43800
H  7.88900 41.69100 25.74500
H  7.97700 43.50800 26.27200
H  7.50500 42.92500 24.72000
H  4.35800 43.20900 30.38200
H  4.30800 40.24500 33.20100
H  5.94100 40.75300 33.48200
H  5.59300 39.57700 32.21600

