158

Mg -1.68700 17.53600 27.26800
C  -2.38800 15.12200 29.84300
C  -2.66100 19.96700 29.47500
C  -1.55900 19.76500 24.71900
C  -1.47800 14.97900 25.01200
N  -2.52800 17.45800 29.40100
C  -2.66300 16.44600 30.26400
C  -2.95600 17.01900 31.65400
C  -3.47600 18.44100 31.38500
C  -2.86700 18.65600 30.00500
C  -5.02500 18.61500 31.48400
C  -1.70400 16.79300 32.61900
C  -1.46900 17.74600 33.81900
H  -1.01500 17.17400 35.08600
N  -2.03400 19.63600 27.08700
C  -2.21400 20.41900 28.18100
C  -2.19900 21.76800 27.60000
C  -1.74200 21.77200 26.30400
C  -1.74900 20.37400 25.96300
C  -2.51800 22.94200 28.55400
C  -1.45000 22.93400 25.34100
O  -1.02000 22.78100 24.16500
C  -1.39900 24.44400 25.78900
N  -1.83200 17.48700 25.08800
C  -1.69400 18.52300 24.24100
C  -1.59700 17.93700 22.80400
C  -1.41900 16.43700 23.01800
C  -1.56100 16.27200 24.46700
C  -2.67400 18.57700 21.90500
C  -0.06300 15.90700 22.44500
C  -0.18400 14.64500 21.62800
N  -1.76700 15.51700 27.33800
C  -1.71100 14.63000 26.32200
C  -1.76300 13.26100 26.85200
C  -2.01700 13.43000 28.21900
C  -2.03600 14.83700 28.42600
C  -1.65000 12.01000 26.04100
C  -2.25700 12.73900 29.46200
O  -2.15700 11.52500 29.72200
C  -2.34300 13.80800 30.52500
C  -1.12800 13.78500 31.40500
O  -0.01300 14.23500 31.12200
O  -1.53400 13.33900 32.69800
C  -0.45100 13.34100 33.68200
H  -2.99600 20.68800 30.22400
H  -1.36100 20.46900 23.90800
H  -1.32100 14.19300 24.27000
H  -3.63700 16.24400 32.00600
H  -3.00300 19.21800 31.98500
H  -5.50500 18.53500 30.50900
H  -5.12400 19.65600 31.79100
H  -5.51700 17.97200 32.21300
H  -0.80800 16.74200 32.00100
H  -1.77300 15.79700 33.05600
H  -2.44700 18.22300 33.89400
H  -0.67200 18.43800 33.54900
H  -2.77800 22.72200 29.59000
H  -3.40900 23.46200 28.20200
H  -1.69400 23.65600 28.56200
H  -1.46700 24.50500 26.87500
H  -2.29000 24.92100 25.38000
H  -0.42800 24.82300 25.47200
H  -0.66200 18.40500 22.49700
H  -2.29800 15.89700 22.66600
H  -3.67600 18.31000 22.24200
H  -2.51300 18.09900 20.93900
H  -2.53100 19.65700 21.94200
H  0.67700 15.73700 23.22700
H  0.26800 16.68000 21.75100
H  -1.01600 13.97900 21.85800
H  0.64900 13.96900 21.82200
H  -0.11500 14.90900 20.57300
H  -0.76300 12.06000 25.41000
H  -2.50700 11.93100 25.37300
H  -1.55200 11.14100 26.69200
H  -3.27600 13.63300 31.06200
H  -0.10800 12.30600 33.71100
H  -0.86400 13.60900 34.65500
H  0.28300 14.12800 33.51100
Mg 40.90900 8.94400 29.52200
C  42.47700 9.74100 32.45900
C  38.66700 7.21600 31.06100
C  39.61100 8.12700 26.47800
C  43.64400 10.49100 27.75900
N  40.77400 8.40900 31.46600
C  41.40800 8.88400 32.60500
C  40.80000 8.39200 33.88300
C  39.86900 7.26200 33.29200
C  39.72500 7.65500 31.82300
C  40.55500 5.80600 33.34200
C  40.03500 9.55800 34.64600
C  40.12400 9.38500 36.19000
H  39.92000 10.67500 37.05500
N  39.20400 8.02900 28.83400
C  38.37600 7.39400 29.64600
C  37.27800 6.92400 28.89500
C  37.50400 7.15100 27.53300
C  38.88700 7.77400 27.55400
C  36.11500 6.12500 29.57100
C  36.65900 6.78900 26.35700
O  37.10900 6.99200 25.22300
C  35.24400 6.31800 26.56400
N  41.54100 9.22600 27.39400
C  40.86800 8.67200 26.36700
C  41.66400 8.83200 24.97900
C  42.91500 9.74000 25.44900
C  42.67600 9.86900 26.94600
C  42.06900 7.46200 24.24900
C  42.86300 11.14400 24.74900
C  41.58400 12.00400 24.93100
N  42.68800 9.92600 30.00100
C  43.71800 10.47300 29.19800
C  44.60900 11.17800 30.14300
C  44.16900 10.89400 31.43700
C  43.06600 10.12200 31.26100
C  45.78300 11.90300 29.71800
C  44.46200 11.17800 32.84000
O  45.32400 11.85000 33.48600
C  43.32200 10.37000 33.53700
C  43.83700 9.46900 34.59700
O  44.54300 8.52300 34.41200
O  43.44600 9.94600 35.88100
C  44.00600 9.13800 37.05400
H  37.94000 6.71400 31.70200
H  39.20500 7.81800 25.51300
H  44.56600 10.82100 27.27500
H  41.47600 7.91300 34.59000
H  38.89400 7.31100 33.77800
H  39.92100 5.05100 33.80900
H  41.40200 5.88800 34.02300
H  40.95800 5.59500 32.35200
H  38.97900 9.37800 34.44400
H  40.38600 10.51000 34.24800
H  41.07300 8.91100 36.44200
H  39.34000 8.73300 36.57400
H  36.31900 6.15500 30.64200
H  36.18900 5.08600 29.25100
H  35.20600 6.67900 29.33500
H  35.28500 5.40900 27.16300
H  34.87700 6.05600 25.57100
H  34.71600 7.17900 26.97400
H  41.01100 9.33900 24.26900
H  43.91800 9.32400 25.35900
H  41.52700 7.31900 23.31400
H  41.82200 6.71900 25.00700
H  43.12500 7.33000 24.01500
H  43.01900 11.00600 23.67900
H  43.74200 11.72100 25.03800
H  41.32100 12.20000 23.89100
H  41.94400 12.94000 25.35800
H  40.72800 11.70900 25.53800
H  46.55000 11.15900 29.50300
H  46.21500 12.52700 30.50000
H  45.59200 12.37900 28.75600
H  42.94400 11.20900 34.12200
H  44.27100 8.14800 36.68300
H  43.36900 9.20100 37.93600
H  44.96100 9.57700 37.34200

