158

Mg 53.68200 24.04500 45.12300
C  50.96700 26.12400 44.53400
C  51.75700 21.41500 43.79500
C  56.41400 22.02500 44.98300
C  55.52800 26.71300 46.03100
N  51.66800 23.83200 44.17700
C  50.72400 24.87700 44.09000
C  49.41800 24.29100 43.64900
C  49.59500 22.76800 44.00400
C  51.10600 22.61500 44.04800
C  48.98200 22.16600 45.27500
C  48.89400 24.68800 42.21500
C  50.00000 24.67800 41.16200
H  50.53300 23.30800 40.75700
N  54.02000 21.97600 44.51400
C  53.13700 21.08900 44.05100
C  53.79100 19.79800 44.00800
C  55.08800 19.97200 44.58500
C  55.24000 21.32600 44.74300
C  53.07500 18.54100 43.46700
C  56.03800 18.78600 44.90300
O  55.74600 17.62600 44.61400
C  57.27200 18.95400 45.80200
N  55.73200 24.42700 45.15100
C  56.66100 23.41600 45.25100
C  58.03300 24.02300 45.71600
C  57.66200 25.48400 46.01100
C  56.18200 25.56200 45.70400
C  58.78400 23.34600 46.85700
C  58.41200 26.51000 45.14900
C  57.90900 26.71600 43.61600
N  53.36900 25.98200 45.36800
C  54.17200 26.98700 45.81100
C  53.44600 28.18500 46.07400
C  52.23400 27.90800 45.41600
C  52.21300 26.58700 45.05100
C  53.84000 29.41400 46.68700
C  50.93400 28.45800 45.02300
O  50.54800 29.60700 45.12600
C  50.06000 27.30000 44.50200
C  49.68500 27.79300 43.10300
O  50.40300 28.01000 42.12000
O  48.30300 27.75800 43.06000
C  47.67200 28.47400 41.93700
H  51.22700 20.52100 43.45900
H  57.37400 21.53500 45.15400
H  56.17200 27.55000 46.31000
H  48.67300 24.70400 44.33000
H  49.12500 22.23700 43.17500
H  48.50900 22.89100 45.93700
H  49.72600 21.67300 45.90100
H  48.29800 21.39300 44.92400
H  48.33400 25.61700 42.32400
H  48.14300 23.99700 41.83200
H  50.86300 25.25200 41.49700
H  49.72900 25.13200 40.20800
H  53.61200 18.33600 42.54100
H  52.01700 18.65400 43.23100
H  52.95900 17.67100 44.11300
H  57.49900 18.12100 46.46800
H  57.18300 19.86200 46.39800
H  58.15000 18.91900 45.15700
H  58.67100 24.02600 44.83200
H  57.72800 25.68800 47.08000
H  59.64200 22.80100 46.46200
H  58.12700 22.64900 47.37800
H  59.22100 24.08000 47.53400
H  59.41200 26.07800 45.11600
H  58.49800 27.49900 45.59900
H  57.02900 26.11000 43.39700
H  58.78100 26.49600 43.00000
H  57.63100 27.76400 43.51000
H  54.22600 30.09400 45.92800
H  54.60500 29.21000 47.43700
H  52.93400 29.87000 47.08600
H  49.18200 27.18000 45.13700
H  48.29800 29.11000 41.31100
H  46.94900 29.22100 42.26300
H  47.14000 27.74400 41.32700
Mg 46.53500 26.02100 29.03500
C  47.65400 27.77600 31.92900
C  45.25000 23.66600 31.22700
C  45.94100 24.06600 26.50800
C  48.65300 28.06500 27.12600
N  46.47000 25.77800 31.30200
C  46.91900 26.63800 32.24400
C  46.55700 26.13300 33.58000
C  45.72200 24.86600 33.38300
C  45.90000 24.69000 31.90100
C  46.16200 23.65600 34.18000
C  45.86900 27.29300 34.47300
C  46.51900 27.50900 35.82400
H  45.82300 28.21500 37.03800
N  45.56600 24.20700 28.91500
C  45.00100 23.44200 29.89500
C  44.33100 22.26000 29.21200
C  44.50100 22.43700 27.83700
C  45.38300 23.58800 27.67900
C  43.73600 21.12200 30.00000
C  44.12700 21.59800 26.59800
O  44.35600 21.86600 25.40000
C  43.39000 20.34200 26.91500
N  47.35900 25.98000 27.07500
C  46.84600 25.11900 26.19900
C  47.41600 25.39500 24.77000
C  48.07500 26.88600 24.94500
C  48.04200 27.05200 26.48100
C  48.26000 24.19800 24.27100
C  47.22500 27.96600 24.24900
C  47.01900 27.69800 22.74700
N  47.82700 27.61700 29.41000
C  48.56400 28.40000 28.47500
C  49.14300 29.53900 29.16200
C  48.88200 29.29600 30.56900
C  48.05300 28.15000 30.60900
C  50.07000 30.52400 28.53800
C  49.12800 29.72500 31.87200
O  49.94100 30.58800 32.21500
C  48.43100 28.78700 32.80500
C  49.52700 28.09800 33.42100
O  49.96200 27.08100 32.90500
O  49.85300 28.55700 34.65300
C  50.77400 27.70900 35.35000
H  44.97700 22.75700 31.76700
H  45.67700 23.64400 25.53700
H  48.87600 28.75700 26.31100
H  47.54700 25.95300 33.99900
H  44.68700 25.03600 33.67900
H  47.15400 23.53200 33.74700
H  45.56200 22.76600 33.99000
H  46.43600 23.81100 35.22300
H  44.87900 26.91100 34.72300
H  45.74600 28.24100 33.95000
H  47.49600 27.97200 35.68500
H  46.75900 26.50800 36.18200
H  42.66700 21.30600 29.89500
H  43.91700 21.07300 31.07400
H  43.92000 20.10800 29.64600
H  43.90300 19.56000 27.47500
H  43.06900 19.86100 25.99100
H  42.55600 20.70500 27.51500
H  46.54200 25.39300 24.11800
H  49.07900 27.04300 24.55100
H  48.19000 23.22300 24.75300
H  49.28800 24.49700 24.48000
H  48.20500 24.16300 23.18300
H  47.80600 28.88300 24.34900
H  46.26400 28.07700 24.75200
H  47.52100 26.79200 22.40500
H  47.50300 28.46600 22.14300
H  45.95800 27.82400 22.53300
H  50.06800 31.55700 28.88700
H  49.63100 30.55400 27.54100
H  51.05900 30.14900 28.27400
H  47.90800 29.33000 33.59200
H  50.42300 26.86200 35.94100
H  51.33500 28.36600 36.01400
H  51.46900 27.36700 34.58400

