158

Mg 42.49700 42.04200 26.40000
C  41.42500 44.22200 28.95200
C  43.47000 39.69700 28.80500
C  43.75800 40.08900 23.88300
C  41.37500 44.42700 24.11500
N  42.67000 42.12500 28.71200
C  42.03400 43.04800 29.53000
C  42.10000 42.52400 31.01600
C  42.82500 41.15300 30.92800
C  43.01800 40.95200 29.37300
C  44.03600 41.02000 31.86400
C  40.69300 42.42100 31.64000
C  40.65100 41.79600 33.08600
H  39.95500 42.38100 34.41100
N  43.54100 40.21700 26.43300
C  43.76400 39.36200 27.46200
C  44.46200 38.21000 27.03000
C  44.47300 38.21000 25.64400
C  43.93400 39.51900 25.20100
C  45.00500 37.24900 28.01100
C  44.96500 37.16400 24.61600
O  44.92400 37.41000 23.44200
C  45.58000 35.95900 25.19200
N  42.65700 42.22800 24.36200
C  43.04600 41.23800 23.50100
C  42.86700 41.74400 22.07400
C  41.87600 42.83500 22.23900
C  41.92800 43.21300 23.69400
C  44.18100 42.04300 21.42000
C  40.42700 42.64700 21.54000
C  39.63100 41.43300 22.11600
N  41.54800 43.99400 26.44300
C  41.20800 44.87000 25.43100
C  40.59500 46.04400 26.01900
C  40.60800 45.82600 27.42400
C  41.17500 44.51500 27.61900
C  40.02000 47.21900 25.23300
C  40.26900 46.36600 28.71500
O  39.81200 47.47600 29.02400
C  40.65300 45.32200 29.78300
C  41.42500 45.99800 30.85100
O  42.61300 46.30300 30.83100
O  40.50900 46.30400 31.88900
C  40.98900 46.91300 33.10400
H  43.76200 38.95500 29.55100
H  44.15100 39.52400 23.03500
H  40.79700 44.93500 23.34100
H  42.67200 43.30800 31.51400
H  42.11300 40.36500 31.17100
H  44.92800 41.13800 31.25000
H  44.06800 40.09600 32.44100
H  44.16300 41.85500 32.55400
H  39.93200 41.94500 31.02100
H  40.40200 43.47000 31.70200
H  41.70200 41.74300 33.37000
H  40.32700 40.76000 32.98400
H  44.43700 36.32400 27.90400
H  44.96300 37.49000 29.07300
H  46.04800 37.17300 27.70300
H  46.57500 35.99300 25.63700
H  45.79100 35.27900 24.36700
H  44.86700 35.39600 25.79500
H  42.42700 40.95500 21.46500
H  42.34000 43.68800 21.74300
H  45.03400 42.26500 22.06100
H  44.11700 42.90300 20.75500
H  44.48300 41.26700 20.71600
H  40.67900 42.42000 20.50400
H  39.78000 43.51400 21.67300
H  38.57700 41.70100 22.04300
H  39.83300 41.23400 23.16800
H  39.88900 40.52600 21.57000
H  39.17100 47.64400 25.76900
H  39.72700 46.87800 24.24000
H  40.88300 47.88000 25.15800
H  39.61300 45.07600 29.99600
H  41.35800 46.21000 33.85100
H  40.22100 47.56000 33.52600
H  41.80300 47.61700 32.93100
Mg -12.69700 37.65300 42.18800
C  -10.22500 35.28800 41.54400
C  -10.66900 40.10200 40.99300
C  -15.24200 39.70700 42.66100
C  -14.67300 34.95300 43.46500
N  -10.67600 37.70100 41.12300
C  -9.83000 36.61100 41.13500
C  -8.44300 37.04700 40.54900
C  -8.50200 38.62900 40.84100
C  -9.99600 38.85600 40.94400
C  -7.76800 39.07800 42.16000
C  -8.37300 36.55100 39.01500
C  -7.23400 35.53100 38.69700
H  -6.35400 35.93800 37.56200
N  -13.00000 39.59200 41.78100
C  -12.05300 40.46700 41.30900
C  -12.62600 41.83900 41.29000
C  -13.86700 41.72000 41.90300
C  -14.13300 40.31200 42.14900
C  -11.91800 43.05000 40.81400
C  -14.80500 42.97900 42.13100
O  -14.45500 44.09300 41.73300
C  -16.06500 42.85100 42.83200
N  -14.91900 37.36700 42.73100
C  -15.67200 38.39200 42.92700
C  -16.95600 38.01600 43.71000
C  -16.78800 36.41000 43.74700
C  -15.35500 36.17100 43.34300
C  -17.24900 38.61800 45.11200
C  -17.81200 35.58500 42.85800
C  -17.32300 35.14800 41.42000
N  -12.58200 35.56500 42.33800
C  -13.44000 34.63600 42.93100
C  -12.77700 33.36600 42.94800
C  -11.53100 33.51200 42.39100
C  -11.43200 34.89500 42.04000
C  -13.33100 32.04800 43.44600
C  -10.30700 32.89600 41.97300
O  -9.88300 31.72500 42.14900
C  -9.38100 34.04800 41.47800
C  -8.03600 34.03600 42.26300
O  -6.93000 33.86000 41.76300
O  -8.30900 34.13300 43.60400
C  -7.26200 34.15700 44.56900
H  -10.08600 40.92100 40.56800
H  -15.98900 40.46900 42.89000
H  -15.32100 34.20800 43.93300
H  -7.65800 36.58800 41.14900
H  -8.10800 39.19000 39.99300
H  -8.50700 39.18400 42.95400
H  -7.26400 40.02000 41.94200
H  -6.98500 38.36900 42.42900
H  -8.28000 37.38400 38.31900
H  -9.28900 36.06200 38.68300
H  -7.55800 34.50700 38.51300
H  -6.58000 35.44000 39.56500
H  -12.13800 43.83400 41.53900
H  -12.38600 43.36600 39.88100
H  -10.83300 42.95500 40.78400
H  -16.40100 43.86200 43.06300
H  -15.97200 42.31200 43.77500
H  -16.80300 42.29100 42.25700
H  -17.79000 38.31500 43.07500
H  -16.87800 36.04300 44.77000
H  -17.96000 39.42800 44.94900
H  -16.34100 38.96900 45.60400
H  -17.69500 37.76500 45.62200
H  -18.72700 36.15000 42.67900
H  -18.19500 34.72300 43.40300
H  -17.66000 34.11200 41.38100
H  -16.24000 35.24400 41.34600
H  -17.90000 35.49900 40.56400
H  -14.35100 31.94500 43.07600
H  -13.15000 31.96100 44.51700
H  -12.79500 31.20800 43.00300
H  -9.12000 33.78700 40.45200
H  -6.40800 33.49000 44.44800
H  -7.79800 34.11400 45.51700
H  -6.96800 35.18600 44.77700

