158

Mg 25.48300 1.30400 29.78400
C  27.57900 1.05200 32.50700
C  22.76000 1.81500 31.90700
C  23.45100 1.27100 27.10100
C  28.16400 0.36700 27.69100
N  25.22300 1.26900 31.93300
C  26.24000 1.29200 32.85100
C  25.73300 1.46900 34.31900
C  24.23800 1.79700 34.13100
C  24.04100 1.58500 32.63100
C  23.23300 1.06100 34.93400
C  26.50900 2.64800 34.93100
C  26.83200 2.44800 36.41600
H  26.62800 3.45400 37.50500
N  23.40300 1.61800 29.56400
C  22.51400 1.77600 30.51900
C  21.18000 1.89200 29.92200
C  21.34700 1.77700 28.58300
C  22.75700 1.55500 28.35500
C  19.94500 2.13700 30.72100
C  20.26800 1.86700 27.51100
O  20.57200 1.85300 26.32300
C  18.82700 2.01700 27.87400
N  25.72300 0.89400 27.73200
C  24.75900 1.02800 26.75800
C  25.29500 0.88400 25.31700
C  26.79900 0.68800 25.57500
C  26.92400 0.57400 27.13500
C  24.60100 -0.23400 24.57300
C  27.67300 1.82900 24.99100
C  28.60200 1.29900 23.87500
N  27.46600 0.56900 30.02700
C  28.39800 0.34100 29.08600
C  29.62900 0.17000 29.84900
C  29.42100 0.43100 31.17500
C  28.05600 0.73100 31.22300
C  30.95800 -0.17600 29.34700
C  29.98900 0.44700 32.47500
O  31.11200 0.17600 32.89000
C  28.79200 0.78300 33.46400
C  28.61900 -0.31300 34.43100
O  28.12700 -1.41200 34.19400
O  29.12500 0.07800 35.66700
C  29.06500 -0.96100 36.66900
H  21.99000 2.24500 32.55100
H  22.74700 1.37000 26.27200
H  29.06100 0.35500 27.06900
H  25.97100 0.51400 34.78800
H  23.89800 2.82800 34.22400
H  22.98800 1.79000 35.70600
H  23.70700 0.13000 35.24600
H  22.33800 0.78200 34.37700
H  25.83500 3.49700 35.03500
H  27.38400 2.83300 34.30700
H  27.87600 2.14300 36.48800
H  26.36600 1.52200 36.75100
H  20.11000 2.03800 31.79400
H  19.25500 1.33600 30.45500
H  19.38500 3.06800 30.63800
H  18.24300 2.39100 27.03200
H  18.62000 2.79200 28.61300
H  18.38800 1.05300 28.12900
H  25.10900 1.84200 24.83200
H  27.11900 -0.26400 25.15200
H  23.67900 0.10400 24.09900
H  24.32900 -1.02400 25.27400
H  25.34900 -0.77300 23.99100
H  28.25000 2.34900 25.75600
H  27.02500 2.59200 24.56100
H  29.13500 0.38800 24.14800
H  29.28600 2.11400 23.63700
H  28.09900 1.05200 22.94000
H  31.21100 -1.08600 29.89100
H  31.70100 0.58000 29.60100
H  31.02700 -0.42800 28.28900
H  29.07600 1.72200 33.93800
H  28.25100 -1.68400 36.61700
H  28.80700 -0.46500 37.60500
H  30.05600 -1.40500 36.76300
Mg 46.83700 25.35000 28.86000
C  47.58700 27.80600 31.25400
C  45.81000 23.26600 31.41500
C  46.38500 22.80900 26.71200
C  48.37600 27.36800 26.46500
N  46.47600 25.62600 31.07000
C  46.95900 26.63300 31.82400
C  46.70600 26.36600 33.29400
C  46.20000 24.86800 33.31000
C  46.24400 24.52400 31.84000
C  47.02800 24.00900 34.38100
C  45.53600 27.35400 33.82300
C  46.00100 28.10200 35.10900
H  46.49500 27.32800 36.36000
N  45.94400 23.38700 29.03000
C  45.60800 22.69800 30.14100
C  45.19300 21.37900 29.80200
C  45.27800 21.26700 28.39600
C  45.85100 22.52100 27.97800
C  44.44000 20.45500 30.74900
C  44.77500 20.17600 27.47100
O  44.66500 20.35400 26.27300
C  44.21000 18.84900 28.00700
N  47.39600 25.11700 26.95400
C  47.06400 23.96600 26.26400
C  47.52300 24.10100 24.84100
C  47.92000 25.64800 24.62300
C  47.87100 26.09400 26.11700
C  48.62400 23.17500 24.55100
C  46.88000 26.47900 23.83600
C  47.50500 27.57100 22.99600
N  47.78100 27.19800 28.72200
C  48.34600 27.89000 27.73000
C  48.86600 29.12200 28.16100
C  48.61400 29.09000 29.56400
C  47.93100 27.96900 29.88200
C  49.43900 30.12400 27.31300
C  48.69200 29.94300 30.77300
O  49.13900 31.06100 30.88500
C  48.22900 29.02100 31.96600
C  49.40600 28.68600 32.84600
O  50.53500 28.50800 32.39400
O  49.08200 28.68300 34.19000
C  50.27200 28.75300 35.07700
H  45.56800 22.62600 32.26600
H  46.23300 22.06900 25.92300
H  48.83600 27.99100 25.69500
H  47.59500 26.48600 33.91300
H  45.15700 24.67600 33.56300
H  46.44700 23.13300 34.67200
H  47.41900 24.58300 35.22100
H  47.86900 23.66300 33.78200
H  44.53600 26.93400 33.92600
H  45.40100 28.12300 33.06200
H  45.06800 28.49400 35.51300
H  46.66900 28.95300 34.96900
H  44.95400 19.49400 30.72300
H  43.44300 20.26300 30.35200
H  44.46800 20.77100 31.79100
H  44.75100 18.40700 28.84400
H  44.24300 18.13700 27.18200
H  43.19800 18.86200 28.41200
H  46.71200 23.90900 24.13800
H  48.98800 25.77400 24.44600
H  48.66700 23.24200 23.46400
H  48.41600 22.18400 24.95600
H  49.54700 23.52200 25.01600
H  46.18400 26.91600 24.55200
H  46.42900 25.80800 23.10500
H  48.58300 27.52600 22.84300
H  47.27400 28.56600 23.37600
H  47.08400 27.53700 21.99100
H  49.50900 30.99500 27.96500
H  48.81300 30.20100 26.42400
H  50.48100 29.89100 27.09000
H  47.42800 29.46400 32.55800
H  50.91000 27.91400 34.79900
H  49.84800 28.52400 36.05500
H  50.73900 29.72700 35.22200

