158

Mg 30.50300 57.67900 40.96100
C  27.62300 55.96400 39.79600
C  32.56900 55.11200 39.58600
C  33.13300 59.75500 41.07500
C  28.38300 60.32800 41.97500
N  30.11400 55.95400 39.72200
C  28.88100 55.34300 39.43300
C  29.09700 54.04400 38.68200
C  30.47500 53.57900 39.27400
C  31.15200 55.00000 39.46600
C  30.36800 52.97900 40.63600
C  28.90600 53.93200 37.19300
C  29.02400 55.22100 36.28200
H  27.85000 55.50600 35.40000
N  32.65000 57.45200 40.49600
C  33.24000 56.31200 39.94000
C  34.66700 56.53400 39.83200
C  34.84200 57.92100 40.20200
C  33.50700 58.47200 40.67500
C  35.69100 55.45800 39.45200
C  36.20200 58.57800 40.18800
O  37.16700 57.88500 39.93000
C  36.50200 60.02800 40.62300
N  30.77000 59.70200 41.60800
C  31.95800 60.32800 41.56300
C  31.87000 61.84100 41.79700
C  30.39500 62.00700 42.29100
C  29.77500 60.60700 42.01500
C  32.89700 62.49300 42.68400
C  29.61200 63.03600 41.35500
C  28.66800 63.91700 42.14800
N  28.43000 58.04800 40.94600
C  27.70600 59.16000 41.39100
C  26.30700 58.86700 41.13500
C  26.20700 57.63300 40.52700
C  27.51600 57.19400 40.45200
C  25.14000 59.75300 41.42700
C  25.32100 56.72100 39.99300
O  24.05700 56.74300 39.88000
C  26.25000 55.53500 39.36700
C  25.82700 54.24600 40.06700
O  25.98000 54.02500 41.26900
O  24.95200 53.51900 39.23500
C  24.36500 52.28000 39.83900
H  33.22500 54.26100 39.39100
H  33.96200 60.46300 41.14700
H  27.70400 61.11400 42.31200
H  28.39300 53.30900 39.07200
H  31.13700 53.06600 38.57600
H  29.34300 52.83700 40.97800
H  30.85900 53.54000 41.43100
H  30.88100 52.01800 40.57700
H  27.84900 53.70300 37.05500
H  29.68900 53.26700 36.83000
H  29.82600 54.95800 35.59200
H  29.22400 56.09300 36.90500
H  36.11100 55.57900 38.45400
H  35.22200 54.49400 39.64900
H  36.49100 55.52000 40.19000
H  35.73000 60.67200 40.20100
H  37.49500 60.38900 40.35800
H  36.32900 60.10300 41.69700
H  31.98600 62.30500 40.81800
H  30.45800 62.13500 43.37100
H  32.96500 61.88700 43.58800
H  32.50500 63.46600 42.98000
H  33.78000 62.64700 42.06300
H  29.05400 62.48000 40.60100
H  30.27700 63.72100 40.83100
H  29.01600 64.94900 42.10100
H  28.59600 63.55200 43.17300
H  27.66000 63.83100 41.74000
H  24.97200 60.55300 40.70600
H  25.45100 60.32600 42.30000
H  24.15900 59.27800 41.40100
H  26.14200 55.48100 38.28400
H  23.54000 51.92300 39.22200
H  23.85700 52.51100 40.77500
H  25.15300 51.52800 39.80600
Mg -10.82100 16.99900 40.17200
C  -7.33300 16.65600 40.37100
C  -10.50900 20.25100 39.76200
C  -14.10800 16.91300 39.13700
C  -10.87600 13.29300 40.00900
N  -9.03300 18.28600 40.19000
C  -7.74900 18.02400 40.32000
C  -6.93600 19.33600 40.15800
C  -8.04800 20.48700 40.32900
C  -9.29700 19.66000 40.18200
C  -7.97500 21.30700 41.64100
C  -6.38400 19.44500 38.67700
C  -4.90300 19.13400 38.45900
H  -4.47900 18.21500 37.36200
N  -12.11200 18.38200 39.62300
C  -11.72600 19.71600 39.43100
C  -12.94900 20.48100 39.17100
C  -14.05900 19.57200 39.04000
C  -13.44200 18.21500 39.30900
C  -12.96700 21.94900 39.11400
C  -15.48300 19.93200 38.67300
O  -15.74600 21.07800 38.25200
C  -16.60100 18.90400 38.61400
N  -12.18100 15.39500 39.46800
C  -13.52800 15.68200 39.23700
C  -14.42100 14.34900 39.20300
C  -13.31400 13.30000 39.36900
C  -12.03900 13.99000 39.65100
C  -15.48400 14.32400 40.35500
C  -13.14400 12.44100 38.00500
C  -12.93500 10.94800 38.31400
N  -9.44100 15.29700 40.31400
C  -9.57400 13.87900 40.24500
C  -8.30400 13.26100 40.50400
C  -7.43500 14.33500 40.56400
C  -8.13900 15.53300 40.42700
C  -7.90800 11.86000 40.67600
C  -6.02900 14.65400 40.81100
O  -5.10400 13.95100 41.14300
C  -5.90900 16.12300 40.62100
C  -5.22100 16.78400 41.77800
O  -4.02800 17.06700 41.75100
O  -6.04500 17.17200 42.75000
C  -5.39600 18.02000 43.77700
H  -10.44200 21.34100 39.73000
H  -15.15700 16.78600 38.86300
H  -10.76600 12.21100 39.90900
H  -6.13000 19.35500 40.89200
H  -8.07200 21.25200 39.55400
H  -7.65900 22.31100 41.35900
H  -7.28800 20.75200 42.28000
H  -8.95600 21.43600 42.10000
H  -6.53600 20.47000 38.33800
H  -6.92100 18.77600 38.00400
H  -4.51000 18.62700 39.34000
H  -4.33800 20.03100 38.20300
H  -13.78600 22.46000 39.61900
H  -12.86800 22.36600 38.11200
H  -12.15900 22.40000 39.69100
H  -17.58100 19.38000 38.63600
H  -16.55200 18.19400 39.44000
H  -16.50700 18.27600 37.72800
H  -14.86300 14.34200 38.20700
H  -13.36600 12.68200 40.26500
H  -15.08800 13.85900 41.25800
H  -16.44400 13.82900 40.20600
H  -15.71300 15.35000 40.64400
H  -12.48100 12.85200 37.24300
H  -14.16100 12.39300 37.61800
H  -11.91400 10.73300 38.00000
H  -13.57600 10.35500 37.66200
H  -13.01700 10.73700 39.38000
H  -6.83700 11.76200 40.85500
H  -8.16900 11.28900 39.78500
H  -8.42700 11.38600 41.50800
H  -5.11700 16.46800 39.95700
H  -4.98200 18.87000 43.23400
H  -4.71200 17.54500 44.48000
H  -6.21500 18.43300 44.36600

