158

Mg 17.08800 -1.49300 28.95700
C  15.78500 0.73900 31.46600
C  19.32200 -2.68400 31.33900
C  18.47200 -3.19100 26.58200
C  15.07700 0.34200 26.55400
N  17.55300 -1.02400 31.11100
C  16.81900 -0.22900 31.89800
C  17.22300 -0.40000 33.39300
C  18.66100 -1.06500 33.22300
C  18.55500 -1.66100 31.80200
C  19.85400 -0.17400 33.42100
C  16.24100 -1.38800 34.13000
C  16.23600 -1.26900 35.76100
H  17.54100 -0.79200 36.41300
N  18.61500 -2.86900 28.98000
C  19.39500 -3.23700 30.03400
C  20.32400 -4.26700 29.57600
C  20.06300 -4.43800 28.14500
C  18.98000 -3.51900 27.84600
C  21.30900 -4.96100 30.53200
C  20.61900 -5.41400 27.15300
O  20.29600 -5.45100 25.99300
C  21.59300 -6.54400 27.63100
N  16.90400 -1.43000 26.93100
C  17.58600 -2.23500 26.12700
C  17.16500 -2.22800 24.66200
C  16.09000 -1.11800 24.68700
C  16.00100 -0.67500 26.15900
C  18.34900 -2.01400 23.66100
C  14.65300 -1.48100 24.11900
C  13.93100 -0.40100 23.23500
N  15.74000 0.27600 28.96300
C  15.06900 0.84100 27.92000
C  14.33900 2.02300 28.43700
C  14.42500 1.90000 29.86200
C  15.38100 0.86200 30.07200
C  13.51700 3.00700 27.58800
C  14.08500 2.44100 31.08500
O  13.16400 3.18400 31.36900
C  14.91900 1.76800 32.26300
C  15.65100 2.86800 32.99100
O  16.26600 3.77700 32.49700
O  15.32800 2.65800 34.30700
C  16.10800 3.51000 35.18800
H  19.94700 -3.13600 32.11200
H  18.78100 -3.76700 25.70700
H  14.54000 0.87100 25.76300
H  17.22300 0.58000 33.86900
H  18.84300 -1.93900 33.84800
H  20.60700 -0.18200 32.63200
H  20.28300 -0.58200 34.33700
H  19.48900 0.84800 33.52100
H  16.66100 -2.35500 33.85100
H  15.26900 -1.21000 33.67100
H  16.02600 -2.28800 36.08600
H  15.42700 -0.56400 35.94900
H  22.28000 -4.46600 30.51300
H  21.52900 -5.95100 30.13500
H  20.91900 -5.16500 31.52900
H  22.41500 -6.01600 28.11500
H  21.94200 -7.12000 26.77500
H  21.04200 -7.26700 28.23300
H  16.80600 -3.23800 24.46100
H  16.48800 -0.33200 24.04500
H  18.41800 -2.74400 22.85400
H  19.35600 -2.04900 24.07700
H  18.26700 -1.11500 23.05100
H  14.07200 -1.74500 25.00200
H  14.79600 -2.38100 23.52200
H  13.00900 -0.21800 23.78700
H  13.77000 -0.61800 22.17900
H  14.48800 0.53100 23.14500
H  12.54100 2.54800 27.42400
H  13.94700 3.12600 26.59300
H  13.34900 3.89200 28.20100
H  14.15900 1.31800 32.90200
H  15.55200 4.40800 35.45700
H  17.06500 3.78000 34.74100
H  16.27600 2.96900 36.11900
Mg 25.75000 1.49400 29.59600
C  27.70600 1.31700 32.69900
C  23.01200 1.75500 31.72100
C  23.93000 1.23700 26.92200
C  28.65100 0.34100 27.91700
N  25.37600 1.52200 32.06100
C  26.37000 1.59200 33.02000
C  25.68100 1.69700 34.43200
C  24.14900 1.78500 34.06200
C  24.14900 1.77200 32.49300
C  23.25400 0.71300 34.64800
C  26.15900 2.93700 35.21300
C  26.85400 2.67100 36.59100
H  26.36300 3.51300 37.76500
N  23.68100 1.49800 29.33900
C  22.69100 1.62200 30.30300
C  21.41500 1.71700 29.65900
C  21.69800 1.43300 28.27300
C  23.14100 1.39700 28.11900
C  20.12600 1.93600 30.40100
C  20.73000 1.03900 27.18200
O  21.11800 0.69300 26.05200
C  19.32300 0.98400 27.57300
N  26.21200 0.96700 27.71000
C  25.31000 1.11500 26.72100
C  25.91600 0.79700 25.32800
C  27.40900 0.59600 25.69800
C  27.40800 0.61900 27.20600
C  25.25200 -0.45800 24.65300
C  28.22100 1.76200 25.14000
C  28.11900 3.11400 25.92300
N  27.86000 1.11100 30.10700
C  28.85700 0.56100 29.27900
C  30.10100 0.44700 30.09300
C  29.70000 0.79500 31.43700
C  28.24600 1.05600 31.36400
C  31.44500 -0.06700 29.52900
C  30.15800 0.95500 32.78300
O  31.28100 0.81300 33.21700
C  28.86700 1.24600 33.69400
C  28.78000 0.19900 34.72100
O  28.15200 -0.87400 34.66500
O  29.43700 0.59500 35.85300
C  29.44000 -0.34000 36.99000
H  22.10000 1.74900 32.32200
H  23.38200 1.23200 25.97700
H  29.33800 -0.02000 27.14800
H  25.97100 0.77700 34.94000
H  23.66000 2.69800 34.40100
H  22.70000 0.20100 33.86200
H  22.50600 1.29300 35.18700
H  23.62500 -0.07200 35.30600
H  25.23200 3.46200 35.44400
H  26.89500 3.47300 34.61300
H  27.91900 2.85800 36.72700
H  26.65000 1.61400 36.75900
H  19.67500 2.85200 30.01900
H  20.30700 2.13700 31.45700
H  19.37800 1.14500 30.45000
H  19.21700 0.30200 28.41700
H  18.71400 0.54300 26.78400
H  18.96600 1.95100 27.92700
H  25.73600 1.60200 24.61600
H  27.79700 -0.38900 25.43600
H  24.50300 -0.98700 25.24200
H  25.98800 -1.20400 24.35200
H  24.74100 -0.11200 23.75400
H  27.94600 2.03700 24.12100
H  29.26700 1.45600 25.16100
H  29.14700 3.37100 26.17900
H  27.67100 3.03100 26.91300
H  27.55100 3.81700 25.31400
H  31.88700 0.61200 28.80000
H  31.25100 -1.06200 29.12900
H  32.06100 -0.24100 30.41100
H  29.04500 2.24000 34.10500
H  28.57600 -0.21900 37.64400
H  30.37400 -0.10000 37.49700
H  29.50500 -1.39100 36.70600

