158

Mg 44.31100 4.73700 46.89600
C  42.28500 7.60800 46.37700
C  41.42500 2.76400 46.54700
C  46.39500 2.10200 46.53100
C  47.10200 6.95400 46.95800
N  42.10900 5.15000 46.43600
C  41.52300 6.39400 46.30900
C  39.95800 6.23000 46.17300
C  39.78700 4.69500 46.68700
C  41.22500 4.16700 46.48400
C  39.19300 4.52100 48.12600
C  39.44500 6.57200 44.77200
C  38.49800 7.75500 44.52200
H  38.94100 8.77000 43.47300
N  43.96600 2.73300 46.43500
C  42.71600 2.13400 46.42900
C  42.86200 0.69300 46.31900
C  44.25500 0.47100 46.21100
C  44.98800 1.77900 46.28000
C  41.66500 -0.24700 46.28200
C  44.89000 -0.95000 45.96700
O  44.30800 -2.03500 46.17900
C  46.31900 -1.02300 45.47500
N  46.40300 4.55500 46.72900
C  47.00700 3.32200 46.76600
C  48.47300 3.40400 47.02700
C  48.68800 4.97500 47.05400
C  47.23600 5.61700 46.90400
C  48.75700 2.73300 48.40800
C  49.70300 5.46300 45.90100
C  50.85700 6.36400 46.27200
N  44.67600 6.85900 46.84500
C  45.90300 7.59400 46.81000
C  45.62800 8.98000 46.77300
C  44.20800 9.06300 46.65400
C  43.68000 7.70300 46.57900
C  46.59000 10.07700 46.88900
C  43.11100 9.94100 46.51600
O  43.17000 11.16200 46.37800
C  41.85300 9.01900 46.33200
C  40.88600 9.39100 47.46100
O  41.03100 9.02900 48.63100
O  40.12400 10.50900 47.17000
C  39.40700 11.17100 48.24500
H  40.47400 2.22800 46.57600
H  46.96800 1.17800 46.64200
H  47.99100 7.57500 47.08000
H  39.61700 7.02400 46.83800
H  39.24100 4.00900 46.04000
H  38.32500 3.86400 48.06500
H  38.85200 5.51400 48.41900
H  39.91600 4.25800 48.89800
H  38.79600 5.75400 44.45800
H  40.31500 6.53300 44.11600
H  38.35600 8.40900 45.38300
H  37.49800 7.45000 44.21300
H  41.64300 -0.90900 47.14800
H  41.60400 -0.83500 45.36700
H  40.69100 0.23900 46.22300
H  47.10200 -0.91800 46.22500
H  46.44700 -0.08500 44.93400
H  46.43300 -1.94300 44.90200
H  48.93600 2.80000 46.24700
H  49.07600 5.15900 48.05600
H  49.76000 2.93700 48.78200
H  48.59200 1.66300 48.28400
H  48.18000 3.18900 49.21200
H  49.14500 6.05400 45.17400
H  50.03600 4.51400 45.48200
H  51.07600 7.14400 45.54300
H  51.77000 5.76900 46.26800
H  50.68400 6.80400 47.25400
H  47.15700 10.30100 45.98500
H  47.18700 9.82300 47.76400
H  45.93400 10.92000 47.11000
H  41.38400 9.21300 45.36700
H  40.00900 12.04800 48.48100
H  39.18600 10.63500 49.16800
H  38.48300 11.59900 47.85500
Mg 10.65500 48.27500 26.01800
C  8.37200 48.04700 28.86100
C  12.92900 49.53000 28.19900
C  12.42000 48.71000 23.39300
C  7.75300 48.04500 24.02300
N  10.58800 48.63300 28.35200
C  9.57200 48.52700 29.24900
C  10.13300 48.95100 30.65200
C  11.41100 49.79700 30.29700
C  11.67400 49.40700 28.84400
C  11.41400 51.35200 30.62700
C  10.34200 47.71400 31.53900
C  9.55000 47.68800 32.85000
H  9.81000 46.47500 33.63700
N  12.47300 48.98400 25.90300
C  13.38400 49.36200 26.88900
C  14.63700 49.46000 26.21700
C  14.53300 49.23100 24.85300
C  13.06400 48.98200 24.64200
C  15.91600 49.79200 27.00400
C  15.65000 49.03800 23.74500
O  15.37200 48.73600 22.58200
C  17.04500 48.96700 24.13400
N  10.18900 48.37400 23.91100
C  11.13700 48.47700 23.00200
C  10.59300 48.44700 21.49700
C  8.97200 48.31100 21.78500
C  8.93400 48.20600 23.34100
C  10.88300 49.69200 20.65800
C  8.44900 46.91600 21.04300
C  7.58600 47.17700 19.77100
N  8.55200 47.87200 26.29200
C  7.49900 47.83000 25.40400
C  6.29700 47.50600 26.03700
C  6.59000 47.55600 27.42600
C  7.95200 47.80600 27.54100
C  4.97900 47.24100 25.36600
C  5.96400 47.46000 28.73900
O  4.84600 47.16800 29.03500
C  7.10600 47.71000 29.71500
C  7.32800 46.42900 30.42700
O  8.08600 45.52100 30.11300
O  6.51600 46.28700 31.51900
C  6.61800 45.00200 32.27500
H  13.62800 49.92700 28.93800
H  12.96500 48.60400 22.45300
H  6.94700 47.98100 23.29000
H  9.45400 49.63800 31.15700
H  12.21300 49.44400 30.94600
H  10.67700 51.72300 31.33900
H  11.28400 51.77700 29.63200
H  12.35500 51.71100 31.04400
H  11.39900 47.73200 31.80700
H  10.12600 46.77600 31.02700
H  8.47700 47.80000 32.69200
H  9.99200 48.45300 33.48800
H  15.65700 49.64000 28.05200
H  16.27100 50.80700 26.82500
H  16.55100 49.02900 26.55400
H  17.68400 48.76500 23.27400
H  17.15300 48.07700 24.75500
H  17.34500 49.89100 24.62900
H  11.01900 47.49700 21.17600
H  8.58300 49.26200 21.42100
H  11.75100 50.22400 21.04700
H  10.06500 50.40800 20.73300
H  11.14300 49.35100 19.65600
H  7.83500 46.25600 21.65600
H  9.37100 46.41000 20.75700
H  7.22100 48.18900 19.95000
H  6.81800 46.43300 19.56100
H  8.19300 47.13800 18.86600
H  4.56500 48.19300 25.03400
H  4.23600 46.75200 25.99600
H  4.99500 46.59400 24.48900
H  6.85400 48.52000 30.39900
H  6.40600 45.19200 33.32700
H  7.51100 44.39300 32.13700
H  5.72700 44.40300 32.08600

