158

Mg 0.33200 7.59500 25.59000
C  0.88600 9.43800 28.52300
C  0.18700 4.72100 27.47600
C  0.35200 5.91600 22.69100
C  0.68300 10.58000 23.73500
N  0.49300 7.18100 27.79000
C  0.50500 8.11700 28.78500
C  0.46000 7.42100 30.16600
C  0.45100 5.87300 29.80300
C  0.35600 5.92000 28.23800
C  1.59000 5.02800 30.42700
C  -0.67800 7.84900 31.06300
C  -0.45700 7.92300 32.58600
H  0.71700 7.19400 33.28700
N  0.20300 5.59800 25.21700
C  0.08600 4.51900 26.08800
C  0.13300 3.25600 25.29100
C  0.20500 3.67100 23.90900
C  0.23800 5.10600 23.86000
C  0.27600 1.92300 25.79900
C  0.18700 2.84200 22.60900
O  -0.04000 3.25600 21.49000
C  0.29300 1.32500 22.73600
N  0.31600 8.17400 23.44200
C  0.43500 7.29300 22.46700
C  0.34700 8.03300 21.09900
C  0.43200 9.54900 21.40800
C  0.44800 9.45300 22.94000
C  1.36100 7.47400 20.07200
C  -0.66700 10.46600 20.82400
C  -1.90000 10.83900 21.63000
N  0.76600 9.51500 25.96800
C  0.92400 10.62400 25.08500
C  1.21700 11.80300 25.80800
C  1.32100 11.40700 27.19600
C  0.95000 9.98300 27.22900
C  1.47200 13.18500 25.29300
C  1.64500 11.85800 28.52000
O  1.97000 12.99300 28.91000
C  1.27400 10.58100 29.45700
C  2.42900 10.39600 30.36200
O  3.32400 9.58100 30.21300
O  2.31500 11.25600 31.45900
C  3.18300 10.93300 32.54400
H  0.09200 3.74700 27.96000
H  0.28900 5.45800 21.70200
H  0.61900 11.55000 23.23800
H  1.38900 7.48400 30.73200
H  -0.47100 5.42400 30.17300
H  1.13200 4.53700 31.28600
H  2.47500 5.54900 30.79200
H  1.93000 4.24000 29.75500
H  -1.51700 7.16500 30.94100
H  -1.00900 8.77200 30.58600
H  -1.32400 7.59800 33.15900
H  -0.34600 8.93600 32.97400
H  1.24000 1.50400 25.50800
H  -0.52400 1.25400 25.48300
H  0.18200 1.90900 26.88400
H  1.23200 1.06100 23.22300
H  0.43000 0.85700 21.76200
H  -0.57600 0.87600 23.21700
H  -0.63400 7.83300 20.66900
H  1.38400 9.89700 21.00600
H  2.06900 6.81700 20.57900
H  1.79600 8.36200 19.61200
H  0.90800 6.82900 19.32000
H  -0.87300 10.05200 19.83800
H  -0.18600 11.43600 20.69500
H  -2.69900 10.54900 20.94700
H  -2.06700 11.87700 21.91600
H  -2.04100 10.24200 22.53100
H  2.26200 13.08900 24.54800
H  1.92400 13.67100 26.15800
H  0.60700 13.76000 24.96500
H  0.45100 10.89200 30.09900
H  2.98200 11.44000 33.48700
H  4.17200 11.36100 32.37500
H  3.21900 9.87900 32.82000
Mg 48.79200 45.20700 43.72700
C  45.26000 45.35700 42.61300
C  48.81000 41.90400 42.53800
C  52.19200 45.11200 43.51400
C  48.79900 48.58000 43.81800
N  47.17300 43.88900 42.56900
C  45.87100 44.08600 42.34600
C  45.30800 42.92200 41.54200
C  46.40300 41.77700 41.68600
C  47.54100 42.51300 42.35900
C  46.00000 40.50400 42.49600
C  44.90300 43.34600 40.07200
C  45.77200 44.30700 39.26000
H  45.31200 44.43600 37.81800
N  50.25600 43.71700 43.44300
C  50.01100 42.44000 43.06700
C  51.19900 41.67300 43.14600
C  52.26500 42.54800 43.28600
C  51.62500 43.85400 43.39600
C  51.34400 40.19000 42.66800
C  53.73900 42.21500 43.47000
O  54.11600 41.03400 43.48300
C  54.75200 43.27500 43.79700
N  50.33800 46.65000 43.75600
C  51.69600 46.41600 43.72300
C  52.47300 47.74400 43.76600
C  51.41800 48.76200 44.00000
C  50.08600 47.96400 43.88500
C  53.55900 47.78000 44.89800
C  51.48400 49.88800 42.96900
C  50.83800 51.23300 43.33500
N  47.34400 46.68300 43.53600
C  47.52100 48.07300 43.53800
C  46.22700 48.74500 43.34500
C  45.34100 47.69300 43.00700
C  46.06900 46.44900 43.13300
C  46.00400 50.29400 43.32700
C  43.95100 47.45300 42.67400
O  42.97200 48.13900 42.59800
C  43.93200 45.96600 42.28100
C  42.69400 45.34600 42.94300
O  41.81500 44.63000 42.45600
O  42.64400 45.64000 44.29300
C  41.34600 45.54400 44.91000
H  48.85600 40.83600 42.31300
H  53.26000 45.13800 43.29100
H  48.90200 49.66700 43.79900
H  44.32800 42.71800 41.97400
H  46.69800 41.43500 40.69400
H  45.87800 39.53000 42.02200
H  45.00900 40.75100 42.87600
H  46.58400 40.33400 43.40000
H  43.97000 43.85100 40.32200
H  44.66200 42.52000 39.40300
H  46.81100 43.98400 39.18200
H  45.61600 45.31200 39.65000
H  51.60200 39.49800 43.47000
H  52.07700 40.25800 41.86500
H  50.48800 39.69400 42.21000
H  55.60800 42.68500 44.12500
H  54.38000 43.81600 44.66600
H  55.07600 43.95600 43.01100
H  53.00800 47.85500 42.82300
H  51.46200 49.20000 44.99700
H  53.72700 46.75800 45.23700
H  53.49900 48.51100 45.70500
H  54.49800 48.05000 44.41600
H  51.02000 49.47400 42.07400
H  52.46700 50.19100 42.60800
H  51.67700 51.92900 43.34100
H  50.49600 51.24300 44.37000
H  50.07400 51.54800 42.62400
H  45.94900 50.55900 44.38300
H  45.07900 50.51300 42.79300
H  46.78800 50.95600 42.96200
H  43.82900 45.91400 41.19700
H  41.27000 44.59100 45.43300
H  40.47500 45.70100 44.27400
H  41.15500 46.30400 45.66700

