158

Mg 6.15000 55.24900 40.25900
C  4.91700 51.88700 40.15800
C  9.13000 54.13500 39.31000
C  7.09500 58.47500 39.86100
C  2.98400 56.21500 41.39900
N  6.90300 53.16800 39.52900
C  6.21700 51.97900 39.72000
C  7.29200 50.88100 39.50800
C  8.67500 51.61700 39.69600
C  8.24400 53.06300 39.51800
C  9.54800 51.28300 40.87900
C  7.24500 50.16700 38.11400
C  6.65200 50.80400 36.83600
H  7.64000 51.37300 35.73100
N  7.92700 56.15800 39.60500
C  9.05600 55.53800 39.22000
C  10.11400 56.43300 38.93900
C  9.53000 57.69300 39.03900
C  8.13700 57.50500 39.51000
C  11.55500 56.06800 38.75600
C  10.18500 59.06400 38.73100
O  11.32700 59.07600 38.30500
C  9.36700 60.30900 38.87700
N  5.13400 57.07500 40.46900
C  5.77800 58.27000 40.38000
C  4.90000 59.48400 40.72700
C  3.63300 58.77500 41.33900
C  3.87800 57.24300 41.02300
C  5.61300 60.44500 41.69100
C  2.28700 59.37900 40.76200
C  1.06800 59.67500 41.71200
N  4.29000 54.31700 40.61000
C  3.16600 54.85700 41.15700
C  2.14600 53.81900 41.35400
C  2.84000 52.60900 41.01600
C  4.13100 53.00300 40.60300
C  0.79800 53.98100 41.92300
C  2.63100 51.16500 40.90900
O  1.75200 50.40100 41.23700
C  4.16100 50.62100 40.57700
C  4.14900 49.58800 39.50000
O  4.03500 49.91600 38.28800
O  4.34200 48.35300 40.08700
C  4.33000 47.23000 39.12100
H  10.14800 53.82300 39.06600
H  7.29000 59.54800 39.80300
H  1.99800 56.58200 41.69300
H  7.18600 50.10600 40.26600
H  9.42100 51.41300 38.92800
H  9.14700 50.48400 41.50300
H  9.56600 52.10300 41.59800
H  10.58900 51.06400 40.64200
H  6.68400 49.24500 38.26800
H  8.28400 49.91500 37.89900
H  6.00300 51.62700 37.13600
H  5.90300 50.13900 36.40600
H  12.20200 56.51900 39.50900
H  11.82600 56.42300 37.76200
H  11.80000 55.00600 38.73700
H  8.61100 60.30500 38.09200
H  10.03800 61.12500 38.60500
H  9.05700 60.43700 39.91400
H  4.59700 60.15600 39.92400
H  3.67100 58.89200 42.42200
H  5.63200 61.42900 41.22300
H  6.60700 60.07200 41.93900
H  4.99600 60.72600 42.54400
H  1.87400 58.55800 40.17500
H  2.29400 60.16500 40.00800
H  0.26300 58.96600 41.51400
H  0.67100 60.67500 41.53900
H  1.24500 59.60700 42.78500
H  0.46100 55.00600 42.07300
H  0.70500 53.44900 42.87000
H  0.01900 53.44500 41.38000
H  4.64100 50.23100 41.47500
H  3.33200 46.79200 39.15300
H  5.09200 46.61300 39.59700
H  4.56100 47.56300 38.10900
Mg -10.27900 40.22700 39.35600
C  -9.53100 36.90500 38.46500
C  -7.20300 41.12000 37.95500
C  -11.31000 43.35300 39.17500
C  -13.62500 39.18000 39.88200
N  -8.62400 39.08100 38.41400
C  -8.50700 37.76000 38.04700
C  -7.15500 37.32800 37.50700
C  -6.40400 38.67000 37.50500
C  -7.44200 39.72800 38.07000
C  -5.09200 38.66000 38.25600
C  -7.21400 36.58800 36.09200
C  -7.87200 37.45600 34.98200
H  -8.99400 36.85400 34.15400
N  -9.32800 42.00900 38.87400
C  -8.06400 42.15900 38.36800
C  -7.81100 43.62000 38.11200
C  -8.98900 44.26900 38.53300
C  -9.95100 43.26400 38.85100
C  -6.50300 44.16900 37.51500
C  -9.09900 45.78400 38.52600
O  -8.18400 46.53500 38.23600
C  -10.30500 46.48400 39.13200
N  -12.19500 41.11800 39.39100
C  -12.35400 42.44400 39.33900
C  -13.86400 42.83600 39.43400
C  -14.58600 41.54700 39.62800
C  -13.46500 40.52200 39.66400
C  -14.23200 43.95100 40.44000
C  -15.71500 41.11100 38.61800
C  -17.15800 40.94100 39.26000
N  -11.34000 38.39200 39.47300
C  -12.67300 38.14800 39.70400
C  -12.91900 36.73000 39.66700
C  -11.70100 36.13300 39.20800
C  -10.80200 37.27100 39.00900
C  -14.22600 36.03100 39.99100
C  -11.01300 34.95700 38.77100
O  -11.38000 33.78700 38.80300
C  -9.64300 35.44300 38.25000
C  -8.64300 34.64900 38.98900
O  -8.56000 34.69900 40.22300
O  -7.83200 33.84800 38.15400
C  -6.66700 33.27300 38.80800
H  -6.19500 41.36000 37.61100
H  -11.75900 44.34100 39.05000
H  -14.67400 38.95200 40.08000
H  -6.87100 36.58300 38.25000
H  -6.16600 39.06800 36.51800
H  -4.84800 37.73000 38.76800
H  -5.13600 39.38500 39.06900
H  -4.27400 39.02400 37.63400
H  -7.69300 35.61000 36.13100
H  -6.18200 36.42400 35.78100
H  -7.12900 37.85700 34.29300
H  -8.42300 38.29800 35.40200
H  -6.07900 44.95300 38.14200
H  -6.84700 44.59800 36.57400
H  -5.77800 43.38100 37.31300
H  -10.67100 45.84300 39.93400
H  -10.94600 46.57400 38.25500
H  -10.12300 47.46000 39.58200
H  -14.06700 43.17400 38.41800
H  -15.00500 41.42400 40.62700
H  -14.89400 43.73200 41.27800
H  -14.55300 44.77800 39.80600
H  -13.29800 44.13900 40.96900
H  -15.45400 40.20400 38.07300
H  -15.79200 41.86500 37.83400
H  -17.88300 41.29900 38.52900
H  -17.18800 41.38600 40.25500
H  -17.33500 39.86900 39.34500
H  -14.81400 35.88700 39.08500
H  -14.74700 36.56400 40.78600
H  -14.19400 35.02200 40.40100
H  -9.66300 35.12900 37.20700
H  -6.90200 33.02700 39.84300
H  -5.76900 33.89100 38.80300
H  -6.31000 32.35700 38.33700

