158

Mg -2.44200 17.20100 25.89100
C  -2.66600 14.86200 28.53900
C  -3.45700 19.59400 28.17200
C  -2.70300 19.46800 23.43000
C  -1.75800 14.78600 23.74900
N  -2.77300 17.17800 28.28600
C  -2.89200 16.10500 29.11000
C  -3.35300 16.51700 30.49100
C  -3.65700 18.08300 30.26300
C  -3.28200 18.30500 28.80300
C  -5.10300 18.44800 30.68100
C  -2.48200 16.07100 31.65700
C  -2.44400 16.99300 32.81700
H  -2.09600 16.30100 34.09900
N  -2.66500 19.28000 25.87900
C  -3.10300 20.09800 26.93400
C  -3.17000 21.54400 26.48500
C  -2.85200 21.48600 25.09700
C  -2.75000 20.09400 24.76600
C  -3.54700 22.73500 27.36400
C  -2.67200 22.62200 24.05700
O  -2.42000 22.44000 22.86100
C  -2.65900 23.97600 24.56100
N  -2.33300 17.16000 23.90500
C  -2.57100 18.16500 23.03200
C  -2.52900 17.73800 21.59400
C  -1.94100 16.26700 21.76800
C  -1.99600 16.01700 23.24500
C  -3.87900 17.72800 20.77000
C  -0.54800 16.09100 21.02500
C  0.75200 16.15400 21.91700
N  -2.36500 15.20800 25.99800
C  -1.88900 14.38200 25.06400
C  -1.84900 13.02900 25.56300
C  -2.10800 13.19500 26.92900
C  -2.37400 14.55300 27.19300
C  -1.59800 11.74100 24.75500
C  -2.16000 12.45800 28.16400
O  -1.98000 11.30600 28.41800
C  -2.47500 13.55200 29.27700
C  -1.27700 13.57300 30.13300
O  -0.17600 13.99800 29.89800
O  -1.63900 13.06200 31.33800
C  -0.58300 12.88900 32.35400
H  -3.81400 20.31800 28.90700
H  -2.90100 20.15200 22.60200
H  -1.47900 14.07500 22.96800
H  -4.33400 16.04700 30.57100
H  -2.87700 18.69100 30.72200
H  -5.55200 17.85800 31.48000
H  -5.76400 18.40600 29.81500
H  -5.05100 19.49000 30.99900
H  -1.45000 15.93100 31.33700
H  -2.92100 15.10700 31.91700
H  -3.34900 17.60100 32.84500
H  -1.62000 17.68200 32.63100
H  -2.63400 23.32900 27.36900
H  -3.80900 22.43900 28.38000
H  -4.33900 23.31800 26.89400
H  -3.64900 24.26800 24.90800
H  -2.40400 24.69100 23.77900
H  -1.97500 23.98400 25.41000
H  -1.81600 18.37200 21.06700
H  -2.62200 15.58500 21.26000
H  -4.53900 18.32800 21.39600
H  -4.42400 16.80500 20.57300
H  -3.84300 18.42000 19.92800
H  -0.48400 16.99300 20.41500
H  -0.51700 15.22200 20.36800
H  1.48600 16.80100 21.43600
H  1.13500 15.18300 22.23200
H  0.63300 16.76400 22.81200
H  -1.00600 11.14900 25.45300
H  -1.09800 11.78000 23.78700
H  -2.57000 11.32900 24.48500
H  -3.34900 13.21200 29.83100
H  -0.78600 12.28500 33.23800
H  -0.33000 13.84100 32.82000
H  0.29900 12.48000 31.86200
Mg 47.45600 45.13800 43.29600
C  43.98400 44.90100 43.18400
C  47.73900 41.74500 42.89200
C  50.66000 45.57200 41.98400
C  47.00600 48.78100 43.11600
N  46.08500 43.59100 43.17900
C  44.67000 43.66900 43.18900
C  44.06900 42.23200 43.19000
C  45.28900 41.38300 43.54300
C  46.50600 42.30000 43.18400
C  45.41600 40.80100 45.03800
C  43.24400 41.84000 41.94200
C  43.59700 42.49900 40.59600
H  43.43200 41.73300 39.25000
N  49.04100 43.82400 42.67300
C  48.97400 42.40100 42.59500
C  50.29800 41.88900 42.22300
C  51.13700 42.97100 42.02200
C  50.27900 44.21700 42.25400
C  50.71500 40.41000 42.27100
C  52.63600 42.85500 41.65000
O  53.10300 41.78500 41.34500
C  53.49200 44.07500 41.63600
N  48.62400 46.95100 42.78700
C  50.00100 46.78300 42.36700
C  50.67600 48.21700 42.19900
C  49.41700 49.16900 42.42500
C  48.29400 48.25200 42.87400
C  51.97100 48.51900 43.14500
C  49.18300 50.18700 41.34900
C  48.55800 51.49500 41.73800
N  45.87000 46.61400 43.26400
C  45.83800 47.98900 43.27200
C  44.45400 48.46900 43.37600
C  43.62900 47.30700 43.24800
C  44.57300 46.20500 43.27900
C  43.96200 49.82300 43.38900
C  42.27700 46.75400 43.24300
O  41.16400 47.31900 43.27300
C  42.49400 45.16800 43.21300
C  41.73500 44.56200 44.41300
O  40.91100 43.67900 44.41800
O  42.18000 45.15600 45.60600
C  41.30000 44.78000 46.82100
H  47.78200 40.65500 42.95800
H  51.64700 45.75400 41.55300
H  47.02700 49.86100 43.27200
H  43.25300 42.22700 43.91100
H  45.42000 40.52500 42.88400
H  45.73000 39.76200 44.94300
H  44.42700 40.96100 45.46700
H  46.21600 41.33700 45.54900
H  42.22800 42.19900 42.10900
H  43.11700 40.77000 41.77500
H  44.67400 42.55100 40.76100
H  43.23700 43.52700 40.55400
H  50.62800 40.00800 41.26200
H  49.95900 39.85000 42.82200
H  51.67300 40.30300 42.77900
H  53.29200 44.68700 42.51500
H  53.43000 44.70300 40.74700
H  54.48800 43.66200 41.79700
H  51.03300 48.12000 41.17400
H  49.60200 49.77100 43.31400
H  51.73300 49.26900 43.89900
H  52.79600 48.85000 42.51400
H  52.28700 47.61000 43.65700
H  48.51400 49.69100 40.64600
H  50.12500 50.38800 40.83900
H  48.58600 51.61800 42.82100
H  47.59300 51.71400 41.28200
H  49.13000 52.36700 41.42200
H  44.29400 50.38300 44.26300
H  42.87400 49.84500 43.44900
H  44.21800 50.19300 42.39600
H  42.01100 44.83700 42.29300
H  41.71100 45.13100 47.76800
H  41.24900 43.69200 46.86200
H  40.27500 45.13700 46.71500

