158

Mg 26.50400 1.04600 29.70300
C  28.44600 0.84700 32.44800
C  23.73900 1.77000 31.79600
C  24.42800 0.93500 27.09600
C  29.06800 -0.02600 27.73300
N  26.18700 1.41800 31.89000
C  27.14200 1.24700 32.83600
C  26.62600 1.56700 34.25100
C  25.11200 1.64500 34.01500
C  24.95100 1.55600 32.46000
C  24.26800 0.61800 34.83300
C  27.30300 2.90800 34.73400
C  28.08800 2.98900 36.08800
H  27.44100 3.85300 37.12800
N  24.43600 1.33400 29.45300
C  23.54300 1.80400 30.40800
C  22.21700 1.88100 29.74500
C  22.41900 1.65700 28.38900
C  23.84400 1.28800 28.25900
C  20.96200 2.12600 30.50200
C  21.41200 1.75700 27.29100
O  21.63100 1.73600 26.06700
C  19.89700 1.89600 27.61600
N  26.69800 0.50600 27.70900
C  25.74000 0.56100 26.81200
C  26.18600 0.16700 25.38700
C  27.69300 0.02500 25.57200
C  27.82100 0.15700 27.10400
C  25.40100 -1.04900 24.85800
C  28.44200 1.07200 24.92400
C  28.71300 2.45700 25.63500
N  28.43100 0.68900 29.96600
C  29.43900 0.23500 29.06500
C  30.68900 0.06700 29.73700
C  30.35200 0.18300 31.14100
C  28.97800 0.63100 31.16800
C  32.00200 -0.36600 29.06800
C  30.79300 0.06300 32.50300
O  31.90800 -0.15200 32.87300
C  29.56700 0.51200 33.39400
C  29.33900 -0.56800 34.39600
O  28.56400 -1.46700 34.31000
O  30.19400 -0.39200 35.44900
C  30.03800 -1.19400 36.73400
H  22.97000 2.12000 32.48700
H  23.95600 1.00400 26.11400
H  29.95200 -0.29600 27.15200
H  26.91200 0.66200 34.78600
H  24.75200 2.62600 34.32400
H  23.49100 1.20300 35.32500
H  24.79900 0.01100 35.56700
H  23.70300 -0.00500 34.14000
H  26.61800 3.74900 34.62000
H  28.05100 3.21900 34.00400
H  29.09800 3.32200 35.85100
H  27.97600 1.97300 36.46800
H  20.40900 3.01200 30.19100
H  21.18300 2.19000 31.56700
H  20.42000 1.19800 30.32300
H  19.32200 1.81100 26.69400
H  19.85300 2.86900 28.10500
H  19.63700 1.23500 28.44300
H  25.85900 1.05900 24.85300
H  28.07600 -0.94300 25.24900
H  26.08600 -1.74900 24.38000
H  24.65400 -0.80200 24.10300
H  25.08400 -1.58300 25.75400
H  28.16000 1.21100 23.88000
H  29.46300 0.71900 24.77900
H  28.17700 2.61200 26.57100
H  28.43600 3.26000 24.95200
H  29.78200 2.57400 25.81400
H  32.04200 0.03400 28.05500
H  32.03500 -1.45500 29.02800
H  32.85000 0.05400 29.60900
H  29.84300 1.40200 33.95900
H  30.42600 -2.20500 36.61500
H  29.00400 -1.11200 37.06900
H  30.68400 -0.82800 37.53200
Mg 50.93400 45.64900 43.52200
C  48.08100 47.04100 42.15800
C  50.18500 42.65400 42.06000
C  54.10800 44.63300 44.11600
C  51.74100 48.70600 44.90100
N  49.29500 45.01300 42.25600
C  48.20000 45.65300 41.90900
C  47.16400 44.78000 41.20100
C  47.82500 43.35100 41.39500
C  49.24600 43.68400 41.94500
C  47.22900 42.40700 42.50200
C  46.96500 45.31400 39.74700
C  45.50300 45.53200 39.37300
H  44.93800 44.59700 38.31400
N  51.96400 43.84200 43.19300
C  51.47300 42.69000 42.57200
C  52.59100 41.71400 42.45100
C  53.78100 42.31600 42.94900
C  53.29700 43.63100 43.48200
C  52.47200 40.38700 41.77800
C  55.22900 41.76500 42.95400
O  55.47700 40.54700 42.60800
C  56.49600 42.50800 43.42200
N  52.65700 46.52600 44.40200
C  53.83400 45.90500 44.49300
C  54.91900 46.74600 45.20700
C  54.06800 47.94400 45.69800
C  52.75600 47.73300 44.92700
C  55.86200 46.18500 46.32500
C  54.84100 49.24300 45.32500
C  54.74300 50.29000 46.43900
N  50.06000 47.55300 43.66600
C  50.47400 48.71700 44.23500
C  49.54100 49.80700 43.95800
C  48.55000 49.13400 43.15700
C  48.97100 47.80700 42.91600
C  49.59300 51.17100 44.47400
C  47.35200 49.39000 42.36500
O  46.80400 50.40500 42.05700
C  46.95500 47.99000 41.71100
C  45.52500 47.65100 42.16600
O  45.30600 46.96400 43.13100
O  44.52900 48.06500 41.24100
C  43.19100 47.78500 41.80500
H  50.00700 41.69500 41.56900
H  55.15700 44.38500 44.28600
H  52.00900 49.62700 45.42300
H  46.27300 45.03400 41.77500
H  47.90400 42.73800 40.49600
H  47.79600 42.42600 43.43300
H  47.31600 41.35900 42.21500
H  46.19300 42.67200 42.71100
H  47.47500 44.56900 39.13700
H  47.46000 46.23900 39.45000
H  45.37300 46.54400 38.98900
H  44.85300 45.47300 40.24600
H  53.44300 40.03500 41.42900
H  51.83700 40.52200 40.90300
H  51.99200 39.66100 42.43400
H  56.54700 42.67500 44.49800
H  56.53200 43.49600 42.96400
H  57.38600 41.92100 43.19400
H  55.48700 47.10900 44.35100
H  53.83100 47.76700 46.74700
H  55.63400 45.11900 46.34500
H  55.59800 46.70000 47.24900
H  56.86100 46.43600 45.97100
H  54.42100 49.60200 44.38500
H  55.91100 49.07000 45.21000
H  54.14400 51.11300 46.04900
H  55.72100 50.73300 46.62800
H  54.30800 50.02800 47.40300
H  49.02000 51.68300 43.70200
H  50.56900 51.64700 44.57100
H  49.09900 51.16800 45.44600
H  46.86800 48.20200 40.64600
H  42.48200 48.44900 41.30900
H  43.10400 47.83300 42.89000
H  43.05400 46.77100 41.42900

