158

Mg 42.86400 42.61400 26.39800
C  41.96700 44.91800 28.80600
C  44.10300 40.53800 28.91400
C  44.42900 40.63300 24.00100
C  42.21300 45.02800 23.97800
N  43.12400 42.73000 28.64200
C  42.47200 43.71900 29.36100
C  42.57100 43.39800 30.89800
C  43.39000 42.03300 30.88500
C  43.48700 41.63700 29.39300
C  44.75100 42.03400 31.58200
C  41.12400 43.29200 31.46000
C  40.78400 44.22400 32.58200
H  40.13600 43.78200 33.90700
N  44.02800 40.85100 26.44000
C  44.33600 40.08300 27.57300
C  44.80700 38.77300 27.11100
C  44.93900 38.86700 25.69600
C  44.51300 40.20600 25.31200
C  45.14700 37.73900 28.22100
C  45.41700 37.78900 24.72100
O  45.59600 37.92700 23.51200
C  45.56000 36.31700 25.27600
N  43.41200 42.80800 24.35000
C  43.79500 41.79700 23.53700
C  43.61400 42.09400 22.09700
C  42.80300 43.40500 22.17200
C  42.78000 43.75300 23.61900
C  44.84900 42.18900 21.17400
C  41.38400 43.30000 21.50800
C  40.32900 42.55900 22.34100
N  42.13200 44.56100 26.30900
C  42.00900 45.40100 25.31400
C  41.54500 46.65400 25.79800
C  41.48300 46.50700 27.20300
C  41.86700 45.20000 27.46400
C  41.36200 47.96700 24.97300
C  41.23500 47.24500 28.38000
O  40.79900 48.37100 28.56500
C  41.50900 46.21200 29.54100
C  42.51100 46.83300 30.46200
O  43.73300 46.81600 30.33300
O  41.92300 47.33200 31.56700
C  42.81600 47.63400 32.68100
H  44.23600 39.81000 29.71700
H  44.61500 39.88500 23.22700
H  41.96600 45.61600 23.09100
H  43.18300 44.17800 31.35000
H  42.84500 41.18100 31.29100
H  45.55000 41.73400 30.90400
H  44.78700 41.43200 32.48900
H  44.99300 43.04800 31.89900
H  40.87000 42.25300 31.66700
H  40.41800 43.58600 30.68400
H  40.07500 44.93300 32.15500
H  41.63300 44.86000 32.83200
H  45.01100 36.68900 27.96100
H  44.67800 37.84800 29.19900
H  46.21100 37.79500 28.44900
H  46.27700 36.39100 26.09300
H  46.01700 35.65200 24.54200
H  44.53400 36.03400 25.51400
H  42.99400 41.33200 21.62500
H  43.32600 44.16000 21.58600
H  45.45400 41.32400 21.44800
H  45.39500 43.13200 21.18000
H  44.54000 42.13700 20.13000
H  41.53600 42.83500 20.53400
H  40.97900 44.29100 21.30300
H  40.78500 42.12800 23.23200
H  39.75200 41.87000 21.72500
H  39.57800 43.31800 22.56100
H  41.46300 48.94800 25.43700
H  40.35900 47.89300 24.55300
H  42.05000 48.07300 24.13500
H  40.56500 46.19600 30.08700
H  42.13300 47.67200 33.52900
H  43.32900 48.58400 32.52900
H  43.49100 46.79100 32.83100
Mg 27.40800 50.66700 26.64900
C  25.17900 51.69400 29.34300
C  29.74200 49.78800 28.80300
C  29.19500 49.85700 24.06000
C  24.80100 51.76000 24.51600
N  27.47800 50.94400 28.76800
C  26.41500 51.09300 29.70600
C  26.91700 50.81100 31.12000
C  28.40700 50.29200 30.95500
C  28.60900 50.30700 29.38400
C  29.45000 51.05300 31.69900
C  25.88600 50.01800 31.97800
C  26.40400 49.03400 33.05300
H  26.80500 49.62200 34.35800
N  29.19500 50.00000 26.51400
C  30.11500 49.78300 27.44800
C  31.39600 49.47700 26.89100
C  31.26700 49.51400 25.48900
C  29.83200 49.81900 25.30300
C  32.58900 49.00700 27.76900
C  32.29300 49.17000 24.48100
O  31.96200 49.21400 23.28600
C  33.64300 48.70800 24.88100
N  26.96700 50.78800 24.56900
C  27.92200 50.27000 23.68600
C  27.41100 50.28100 22.26600
C  25.92300 50.67400 22.45900
C  25.83300 51.05300 23.90300
C  28.27100 51.20400 21.37900
C  24.85600 49.55100 22.02900
C  25.10800 48.19600 22.65500
N  25.45700 51.62400 26.86000
C  24.60600 52.06000 25.84500
C  23.47500 52.70100 26.46100
C  23.63400 52.55600 27.83200
C  24.89700 51.92400 28.05500
C  22.41200 53.38600 25.62000
C  23.04700 52.89600 29.02600
O  21.99100 53.45400 29.19700
C  23.97600 52.31100 30.10600
C  24.41700 53.46300 31.03900
O  25.04200 54.44400 30.71000
O  24.06100 53.26500 32.33600
C  24.33500 54.26900 33.32200
H  30.38100 49.33800 29.56600
H  29.74700 49.56400 23.16400
H  23.99300 51.99900 23.82100
H  26.88800 51.76900 31.63900
H  28.51700 49.28000 31.34500
H  30.17700 50.40100 32.18500
H  29.05500 51.76600 32.42300
H  30.01900 51.61900 30.96200
H  25.39800 49.43000 31.20100
H  25.21100 50.66900 32.53300
H  27.23600 48.47300 32.62800
H  25.66100 48.25700 33.23100
H  33.05500 48.07100 27.46300
H  32.23200 48.95700 28.79700
H  33.33100 49.80500 27.77300
H  34.06400 49.32200 25.67800
H  34.25000 48.79700 23.98100
H  33.44900 47.73800 25.34000
H  27.62700 49.33400 21.77000
H  25.63000 51.55600 21.88900
H  27.59200 51.96000 20.98600
H  28.73300 50.56700 20.62500
H  29.06700 51.62800 21.99300
H  24.79300 49.39500 20.95200
H  23.87300 49.83500 22.40200
H  24.54200 48.06900 23.57800
H  26.12200 48.01800 23.01200
H  25.05400 47.41400 21.89700
H  22.00700 52.67300 24.90200
H  22.71700 54.29300 25.09700
H  21.58500 53.61700 26.29100
H  23.39800 51.61900 30.71900
H  24.83800 55.18600 33.01800
H  24.87600 53.79000 34.13800
H  23.41300 54.57700 33.81500

