158

Mg 16.59000 -2.53900 28.18500
C  16.04800 -0.39700 30.78600
C  18.52400 -4.54000 30.26800
C  17.55000 -4.45700 25.44000
C  15.13500 -0.23000 25.98900
N  17.31300 -2.36100 30.30400
C  16.74000 -1.54500 31.22800
C  17.21700 -1.98200 32.67400
C  17.91900 -3.36000 32.45300
C  17.92400 -3.44700 30.92900
C  19.41000 -3.41400 32.91700
C  15.99300 -2.14800 33.65600
C  15.91200 -1.29300 34.93200
H  17.31900 -0.84500 35.51000
N  17.81200 -4.38200 27.94400
C  18.45200 -4.95900 28.94300
C  19.30400 -5.99500 28.38600
C  18.88500 -6.21800 27.01500
C  18.04700 -5.00600 26.74500
C  20.21900 -6.87100 29.12800
C  19.19400 -7.35400 26.02500
O  18.78300 -7.38900 24.89400
C  20.06300 -8.43200 26.37100
N  16.53700 -2.33300 25.95200
C  16.91800 -3.28300 25.06500
C  16.93000 -2.72200 23.64900
C  15.72200 -1.63800 23.84000
C  15.80500 -1.32600 25.33600
C  18.26200 -2.26500 23.05800
C  14.31800 -2.19700 23.52900
C  13.89600 -2.41800 22.03900
N  15.68700 -0.75500 28.28900
C  15.11800 0.07100 27.36300
C  14.56300 1.26300 27.95700
C  14.90000 1.16800 29.34500
C  15.53100 -0.06800 29.48200
C  13.66300 2.18500 27.25800
C  14.78500 1.76100 30.64000
O  14.35000 2.85600 30.97900
C  15.44200 0.69500 31.66600
C  16.34200 1.66100 32.44200
O  17.48800 1.93500 32.13500
O  15.68700 2.11700 33.55300
C  16.42000 3.12400 34.34700
H  19.00800 -5.25600 30.93500
H  17.75600 -5.07000 24.55900
H  14.60000 0.42600 25.30000
H  17.96800 -1.25100 32.97300
H  17.36800 -4.21600 32.84400
H  19.64600 -2.72400 33.72700
H  20.15000 -3.26600 32.13100
H  19.64700 -4.37300 33.37800
H  16.03200 -3.17100 34.03000
H  15.07500 -1.97600 33.09500
H  15.42700 -1.81900 35.75500
H  15.26900 -0.45400 34.66700
H  19.87200 -7.89200 28.96900
H  20.13200 -6.69800 30.20100
H  21.20300 -6.75800 28.67400
H  20.99400 -7.99300 26.73100
H  20.25500 -9.03800 25.48600
H  19.40000 -8.95500 27.06000
H  16.56200 -3.55800 23.05300
H  15.92400 -0.74000 23.25700
H  18.19800 -1.30000 22.55500
H  18.51800 -2.94800 22.24800
H  19.06000 -2.29600 23.79900
H  13.48200 -1.72100 24.04100
H  14.36600 -3.17800 24.00300
H  13.51400 -1.54800 21.50300
H  13.07200 -3.13000 22.00000
H  14.72000 -2.83300 21.45900
H  13.30900 1.86100 26.27900
H  14.33000 3.04300 27.16900
H  12.86800 2.41700 27.96700
H  14.53700 0.48500 32.23500
H  17.47800 2.88800 34.46600
H  15.82400 3.07600 35.25800
H  16.38300 4.13300 33.93500
Mg 53.24800 23.54700 44.50700
C  50.67100 25.86000 43.66400
C  51.12900 20.95000 43.54100
C  55.99200 21.54700 44.39900
C  55.38300 26.30300 44.99900
N  51.19300 23.51100 43.44700
C  50.32500 24.50300 43.37600
C  48.98900 23.98500 42.84800
C  49.00100 22.47800 43.21800
C  50.57800 22.23200 43.43400
C  48.27100 21.99500 44.51500
C  48.58700 24.28400 41.33500
C  49.70300 24.00500 40.33500
H  49.43900 24.22000 38.82300
N  53.47800 21.44100 44.25700
C  52.49100 20.61600 43.85700
C  53.08500 19.25500 43.79600
C  54.48400 19.39100 44.06100
C  54.75500 20.81200 44.23500
C  52.13800 18.12200 43.54200
C  55.42200 18.18000 43.95500
O  55.05200 17.11200 43.37900
C  56.89800 18.37100 44.37600
N  55.43600 23.91800 44.55900
C  56.24100 22.87800 44.63900
C  57.72500 23.35300 44.93600
C  57.48600 24.86000 45.35700
C  56.06400 25.10000 44.87100
C  58.48400 22.50500 46.06200
C  58.49500 25.83400 44.65400
C  59.98500 25.49000 44.72500
N  53.13300 25.61100 44.33600
C  54.08700 26.63800 44.60200
C  53.46700 27.91600 44.50000
C  52.14200 27.68700 44.19100
C  51.95900 26.27700 44.04300
C  54.09900 29.19200 44.94100
C  50.91100 28.31600 43.88100
O  50.71000 29.51500 43.75700
C  49.81700 27.17800 43.52500
C  49.38300 27.41000 42.11000
O  50.12800 27.58300 41.16700
O  48.03400 27.49900 42.00400
C  47.45000 27.91000 40.70900
H  50.47800 20.12700 43.23600
H  56.87800 20.91000 44.37600
H  56.04200 27.14500 45.22000
H  48.28500 24.46500 43.52800
H  48.63400 21.83700 42.41700
H  48.91700 21.33800 45.09800
H  47.40300 21.42800 44.17900
H  48.11000 22.93200 45.04700
H  48.13100 25.26900 41.23200
H  47.73900 23.70800 40.96400
H  49.87700 22.92900 40.33800
H  50.66600 24.46300 40.55900
H  52.68100 17.21100 43.29200
H  51.39200 18.38000 42.79000
H  51.61500 17.93700 44.48100
H  57.41300 19.07900 43.72700
H  57.25800 17.34300 44.42600
H  56.88500 18.73500 45.40300
H  58.26000 23.23900 43.99300
H  57.61800 24.90600 46.43800
H  57.76700 21.71100 46.27000
H  58.80900 23.07500 46.93200
H  59.24000 21.94300 45.51200
H  58.27900 26.83500 45.02500
H  58.19100 25.70300 43.61500
H  60.19300 24.58800 45.30000
H  60.41400 26.38100 45.18500
H  60.48100 25.38600 43.76000
H  53.41300 30.03800 44.95800
H  54.95000 29.50600 44.33700
H  54.44400 29.09300 45.97000
H  49.00500 27.17300 44.25200
H  46.82100 28.77300 40.92900
H  46.90400 27.16500 40.13100
H  48.17500 28.20200 39.94900

