158

Mg 26.82000 51.38000 25.20500
C  24.86900 52.59900 27.85300
C  28.94400 49.97500 27.64500
C  28.75600 50.44700 22.86800
C  24.59200 52.89400 23.06000
N  26.82600 51.22900 27.36300
C  25.91300 51.83500 28.22900
C  26.24700 51.58800 29.65500
C  27.68200 50.95800 29.62400
C  27.84400 50.63500 28.14100
C  28.88300 51.90100 29.99800
C  25.21200 50.60200 30.27100
C  24.66700 51.07500 31.54000
H  25.57200 51.67600 32.64500
N  28.73200 50.31300 25.21000
C  29.46100 49.89500 26.32600
C  30.68400 49.27700 25.84800
C  30.62800 49.45000 24.41300
C  29.30700 50.03800 24.09900
C  31.71100 48.67100 26.76700
C  31.73900 49.07800 23.32400
O  31.64300 49.17200 22.10500
C  33.04500 48.60400 23.86300
N  26.71900 51.73500 23.19000
C  27.67600 51.23400 22.45500
C  27.33900 51.35500 20.93500
C  25.96700 52.11100 21.00600
C  25.70100 52.30800 22.49700
C  28.40300 52.02100 20.07100
C  24.74300 51.31000 20.38400
C  23.91600 52.09200 19.36600
N  25.11600 52.58300 25.37500
C  24.28400 53.08100 24.41800
C  23.16600 53.80700 25.01900
C  23.38400 53.61000 26.39600
C  24.54200 52.87600 26.53300
C  22.14700 54.73200 24.44000
C  22.89200 54.03900 27.70000
O  21.93800 54.76000 27.98900
C  23.81200 53.31300 28.76300
C  24.38800 54.39600 29.63700
O  25.32300 55.07700 29.39700
O  23.59900 54.59100 30.82200
C  23.86400 55.78900 31.68400
H  29.57800 49.52700 28.41300
H  29.05000 49.92700 21.95400
H  23.92500 53.31800 22.30500
H  26.35100 52.53200 30.18900
H  27.78500 50.08800 30.27300
H  28.52000 52.77500 30.54000
H  29.38300 52.23800 29.09000
H  29.58200 51.32700 30.60700
H  25.59300 49.58400 30.34500
H  24.32900 50.41900 29.65900
H  24.16600 50.29400 32.11200
H  23.76000 51.66000 31.38600
H  31.73700 47.59100 26.62100
H  31.45000 48.92400 27.79500
H  32.66000 49.16300 26.55400
H  33.41100 49.50400 24.35700
H  33.75500 48.30800 23.09000
H  33.02800 47.76500 24.55800
H  27.30800 50.34600 20.52500
H  26.17300 53.10400 20.60500
H  27.99400 52.84000 19.47800
H  28.87800 51.31800 19.38800
H  29.15100 52.31300 20.80800
H  24.01900 50.99700 21.13600
H  25.05700 50.43600 19.81300
H  23.98600 51.64500 18.37500
H  24.24800 53.13000 19.35300
H  22.90100 52.24000 19.73600
H  22.24000 54.52600 23.37400
H  22.41500 55.76200 24.67700
H  21.12700 54.50600 24.74900
H  23.23400 52.57800 29.32300
H  24.86600 55.56800 32.05000
H  23.17000 55.86800 32.52100
H  23.92000 56.72600 31.13000
Mg 9.98500 47.83700 26.01500
C  7.84200 47.94100 28.87500
C  12.39200 49.42200 27.94700
C  11.80200 48.23500 23.19600
C  7.23900 46.77900 24.06700
N  10.06300 48.73800 28.19500
C  9.13700 48.41200 29.18400
C  9.62700 49.08000 30.49800
C  11.12600 49.56500 30.21400
C  11.25400 49.29100 28.72300
C  11.26500 51.04800 30.47300
C  9.44200 48.16700 31.83200
C  10.47000 48.19600 33.00200
H  10.05000 48.55500 34.40700
N  11.86000 48.54300 25.69300
C  12.72300 49.14500 26.57100
C  13.91500 49.39500 25.85600
C  13.83200 49.11800 24.52300
C  12.41800 48.63000 24.41300
C  15.11600 49.99000 26.58700
C  14.82500 49.35500 23.51700
O  14.55600 49.18100 22.34100
C  16.21100 49.80600 23.75500
N  9.52000 47.63200 23.91100
C  10.51300 47.67200 22.92200
C  10.03100 47.02900 21.59300
C  8.66700 46.38000 22.02100
C  8.47300 46.99300 23.36500
C  9.94500 47.99800 20.37800
C  8.64200 44.77100 22.12200
C  9.61100 44.16000 23.21100
N  7.92800 47.52900 26.34000
C  6.97400 47.05900 25.44800
C  5.71900 46.82600 26.21400
C  6.02300 47.10000 27.58700
C  7.37900 47.52400 27.61500
C  4.45800 46.22400 25.61700
C  5.57400 47.11500 28.96600
O  4.52700 46.79100 29.45900
C  6.80000 47.49700 29.85100
C  7.07100 46.25600 30.60900
O  7.63100 45.27600 30.16700
O  6.66500 46.40700 31.91400
C  7.05200 45.33100 32.84000
H  13.15700 49.86600 28.58800
H  12.37700 48.37200 22.27800
H  6.40600 46.39600 23.47500
H  8.90300 49.89400 30.54700
H  11.89700 49.00700 30.74500
H  12.14700 51.31100 31.05700
H  10.36100 51.33200 31.01200
H  11.30600 51.61900 29.54500
H  9.48300 47.09900 31.61900
H  8.39100 48.40200 32.00200
H  11.30000 48.87600 32.80900
H  10.88200 47.18700 33.01100
H  15.01900 50.09500 27.66700
H  15.35400 50.93400 26.09600
H  15.95000 49.30400 26.43900
H  16.70400 49.93900 22.79200
H  16.80500 49.10800 24.34400
H  16.32100 50.80000 24.18800
H  10.64300 46.21100 21.21300
H  7.81700 46.80000 21.48300
H  10.43500 48.93400 20.64300
H  8.96000 48.11500 19.92600
H  10.62700 47.56800 19.64400
H  8.86900 44.36400 21.13700
H  7.64000 44.39200 22.32400
H  10.20000 44.97100 23.63900
H  10.17100 43.32100 22.79800
H  8.95600 43.85500 24.02700
H  4.46800 45.57700 24.74000
H  3.69000 46.98500 25.47800
H  4.26600 45.63900 26.51700
H  6.53700 48.31800 30.51900
H  7.92900 45.74500 33.33900
H  7.19500 44.39200 32.30500
H  6.24700 45.30400 33.57500

