158

Mg 1.12600 7.78400 26.10500
C  1.78500 9.76700 28.79500
C  1.41800 4.99400 28.18500
C  0.49500 5.91300 23.36700
C  1.56800 10.68100 23.92500
N  1.52400 7.46500 28.25200
C  1.76800 8.45100 29.18200
C  1.90600 7.87400 30.60200
C  1.97000 6.31900 30.32900
C  1.59200 6.23400 28.82500
C  3.24200 5.52500 30.69500
C  0.76300 8.27300 31.50400
C  1.06000 8.25400 32.99900
H  2.20200 7.41200 33.59100
N  0.90600 5.71600 25.80200
C  1.23200 4.76500 26.77500
C  0.87500 3.47700 26.16800
C  0.53400 3.71700 24.78900
C  0.68100 5.16000 24.58800
C  1.08400 2.13900 26.87700
C  -0.03900 2.85800 23.76800
O  -0.42800 3.19200 22.63900
C  -0.08900 1.37800 24.12500
N  0.99700 8.26600 23.96500
C  0.61800 7.25600 23.07400
C  0.27300 7.87200 21.65400
C  0.89700 9.35700 21.82000
C  1.19200 9.43700 23.29100
C  0.94900 7.14300 20.49600
C  0.00100 10.46200 21.18300
C  -1.19200 10.80900 22.02900
N  1.62600 9.79500 26.24700
C  1.73200 10.77600 25.26100
C  2.17500 11.98400 25.92900
C  2.15700 11.74600 27.34000
C  1.75100 10.35100 27.46000
C  2.64100 13.22900 25.21600
C  2.34500 12.22100 28.72000
O  2.70700 13.30800 29.06800
C  2.05800 10.98900 29.70800
C  3.18600 10.86900 30.64300
O  4.37400 10.68600 30.26900
O  2.75300 10.91200 31.96600
C  3.78600 10.82200 32.98600
H  1.54300 4.11400 28.82000
H  0.14700 5.39700 22.47000
H  1.67400 11.62000 23.37800
H  2.83700 8.25400 31.02400
H  1.16900 5.78700 30.84300
H  3.05600 4.62900 31.28700
H  3.92900 6.00900 31.38900
H  3.72900 5.18400 29.78100
H  -0.08300 7.64000 31.23500
H  0.31100 9.24900 31.32400
H  0.12500 7.95000 33.46900
H  1.26100 9.25100 33.39000
H  1.71100 2.23200 27.76500
H  1.54800 1.36200 26.27000
H  0.19300 1.75000 27.37100
H  -0.55800 1.17300 25.08700
H  0.95200 1.06600 24.05300
H  -0.77900 0.81100 23.49900
H  -0.80900 7.93500 21.53900
H  1.87600 9.23300 21.35700
H  0.81300 7.76300 19.60900
H  0.53600 6.14000 20.39000
H  1.99900 6.91800 20.68300
H  -0.26800 10.13500 20.17800
H  0.67200 11.31200 21.06100
H  -2.15000 10.85300 21.51100
H  -1.00600 11.82800 22.36700
H  -1.28600 10.31600 22.99700
H  3.61100 12.97400 24.78900
H  2.58900 14.06100 25.91800
H  2.10300 13.43400 24.29100
H  1.13100 11.01500 30.28000
H  4.00300 11.85100 33.27300
H  4.66500 10.23700 32.71500
H  3.29500 10.42000 33.87200
Mg 16.76600 -2.08400 27.06800
C  15.86800 0.21400 29.78700
C  18.91200 -3.58300 29.31200
C  18.17900 -3.76800 24.49700
C  15.33000 0.30100 24.84000
N  17.41500 -1.62900 29.23300
C  16.79100 -0.79500 30.17100
C  17.14900 -1.18300 31.57300
C  18.34200 -2.14100 31.36400
C  18.22900 -2.49100 29.91500
C  19.69800 -1.57000 31.78700
C  15.87400 -1.69300 32.42700
C  15.89300 -1.27100 33.89700
H  17.10700 -0.58300 34.52200
N  18.10500 -3.68200 26.92500
C  18.95000 -4.07700 27.97400
C  19.60900 -5.27900 27.51400
C  19.50900 -5.25800 26.06800
C  18.57200 -4.19700 25.80800
C  20.48500 -6.14500 28.44500
C  20.11800 -6.15900 25.00000
O  19.79000 -6.05700 23.83100
C  21.08500 -7.39400 25.24100
N  16.69200 -1.85100 24.98100
C  17.44200 -2.64500 24.11200
C  17.30000 -2.05300 22.63500
C  16.24700 -0.89000 22.78500
C  16.02400 -0.85500 24.25400
C  18.62200 -1.59200 22.06500
C  14.90700 -1.05900 21.95300
C  14.69400 0.14700 21.10000
N  15.68500 -0.21700 27.20200
C  15.12700 0.60700 26.27000
C  14.36300 1.61500 26.89900
C  14.71200 1.50400 28.19800
C  15.48000 0.41000 28.39300
C  13.50600 2.61700 26.28700
C  14.44500 2.13500 29.52500
O  13.82600 3.16600 29.86700
C  15.20700 1.31000 30.58500
C  16.15200 2.16900 31.44000
O  17.30900 2.35900 31.11400
O  15.43400 2.76500 32.43500
C  16.23400 3.61600 33.41400
H  19.56700 -4.12200 30.00000
H  18.66000 -4.17200 23.60400
H  14.80000 0.93500 24.12600
H  17.56500 -0.29000 32.04000
H  18.14100 -3.04900 31.93200
H  19.82100 -0.54800 32.14400
H  20.32800 -1.59700 30.89700
H  20.13700 -2.24100 32.52500
H  15.88700 -2.78100 32.47800
H  14.97900 -1.46300 31.84900
H  15.77900 -2.14100 34.54500
H  15.07200 -0.60500 34.16400
H  21.42800 -6.45200 27.99300
H  19.90300 -7.05100 28.61900
H  20.63000 -5.70400 29.43100
H  22.01800 -6.85500 25.40600
H  21.16100 -7.95200 24.30700
H  20.78500 -7.95200 26.12800
H  17.06200 -2.91400 22.01000
H  16.80100 0.00400 22.49900
H  18.87500 -0.78000 22.74800
H  18.63900 -1.25700 21.02800
H  19.35700 -2.38800 22.18600
H  14.08200 -1.14100 22.66000
H  14.85000 -2.02000 21.44200
H  15.57100 0.77400 20.93900
H  13.91000 0.75800 21.54800
H  14.43400 -0.16500 20.08800
H  12.47600 2.38500 26.56000
H  13.62100 2.75800 25.21200
H  13.78800 3.51400 26.83800
H  14.44700 0.91800 31.26100
H  16.86100 2.82900 33.83300
H  15.54500 4.14500 34.07300
H  16.89500 4.27900 32.85700

