158

Mg 36.14200 48.72000 25.87800
C  36.36200 47.05200 28.89600
C  35.24600 51.52000 27.65700
C  36.09900 50.35900 23.02200
C  36.86000 45.68100 24.17700
N  35.64300 49.13300 28.05400
C  35.93100 48.36400 29.14200
C  35.68000 49.04800 30.48600
C  34.94300 50.36300 29.97400
C  35.24400 50.33600 28.46300
C  33.45400 50.60200 30.37100
C  37.02300 49.26100 31.33200
C  36.84900 48.94200 32.76600
H  35.49600 49.11000 33.41500
N  35.74000 50.68000 25.40000
C  35.46600 51.69200 26.29800
C  35.45500 52.94200 25.58900
C  35.77300 52.64400 24.20100
C  35.80900 51.17600 24.12400
C  35.08400 54.27000 26.22000
C  35.98700 53.61300 23.00100
O  36.43300 53.22100 21.90600
C  35.79600 55.06500 23.05100
N  36.16300 48.01800 23.81800
C  36.28600 48.99700 22.82300
C  36.41500 48.23500 21.51400
C  37.01600 46.83400 21.97300
C  36.65700 46.78000 23.39500
C  35.16800 48.20600 20.64500
C  38.56800 46.61700 21.71500
C  38.94900 45.49800 20.89800
N  36.51700 46.74500 26.33000
C  36.89600 45.69000 25.55700
C  37.18600 44.57900 26.37600
C  36.91200 45.00800 27.71900
C  36.56600 46.38900 27.60100
C  37.65200 43.25700 25.85000
C  36.94300 44.69400 29.13500
O  37.17100 43.62100 29.68300
C  36.55100 46.03500 29.92600
C  35.34400 45.77800 30.75800
O  34.15100 45.71700 30.27900
O  35.58700 45.68100 32.05100
C  34.47300 45.14900 32.87200
H  34.89200 52.34600 28.27700
H  36.11800 50.87700 22.06100
H  37.00400 44.70000 23.72100
H  34.90800 48.49600 31.02200
H  35.35900 51.24900 30.45300
H  33.41400 51.52600 30.94900
H  33.15700 49.84800 31.09900
H  32.91100 50.65800 29.42700
H  37.34800 50.30200 31.32300
H  37.69400 48.49400 30.94600
H  37.46400 49.56200 33.41900
H  37.17200 47.90700 32.88200
H  34.89300 54.24500 27.29200
H  34.20700 54.70700 25.74200
H  35.90400 54.97500 26.08100
H  36.34400 55.49100 22.21000
H  36.37600 55.39600 23.91200
H  34.77900 55.45200 22.98400
H  37.15100 48.86200 21.01000
H  36.55800 46.02300 21.40600
H  35.17800 47.40800 19.90200
H  35.16400 49.09500 20.01400
H  34.34500 48.15200 21.35700
H  39.01900 46.40300 22.68400
H  38.98900 47.55900 21.36200
H  39.36700 46.01100 20.03200
H  38.07500 44.91500 20.60500
H  39.67800 44.88500 21.42800
H  38.67100 43.51300 25.55900
H  37.08800 43.01300 24.95000
H  37.53100 42.50700 26.63200
H  37.38000 46.28900 30.58700
H  34.17200 44.24300 32.34700
H  33.79300 46.00100 32.85800
H  34.77700 44.84100 33.87300
Mg -11.22300 39.93000 39.02300
C  -10.40100 36.40200 38.81800
C  -7.85200 40.48600 38.79500
C  -12.05800 42.99700 38.35600
C  -14.59300 38.87600 39.14700
N  -9.37900 38.52500 38.96000
C  -9.26100 37.18300 38.86500
C  -7.84600 36.71700 38.76400
C  -7.03700 38.06200 39.02000
C  -8.12800 39.12700 38.88400
C  -6.14900 37.98600 40.29600
C  -7.59400 36.06400 37.31100
C  -7.86900 36.88100 36.00200
H  -8.92000 36.49300 34.95200
N  -10.04900 41.62600 38.60400
C  -8.66800 41.66500 38.61300
C  -8.29000 43.05600 38.37100
C  -9.51300 43.79200 38.24700
C  -10.63200 42.82800 38.35200
C  -6.85100 43.57800 38.31700
C  -9.64400 45.30900 38.03800
O  -8.63300 46.06800 38.09300
C  -10.97400 45.98100 37.84000
N  -13.10100 40.81800 38.79400
C  -13.17400 42.15000 38.49400
C  -14.63900 42.65600 38.58800
C  -15.43900 41.37600 38.92100
C  -14.34700 40.27000 38.98000
C  -14.96800 43.90800 39.55700
C  -16.55100 41.00700 37.86500
C  -17.92200 40.65500 38.46400
N  -12.29400 38.13600 39.13300
C  -13.64400 37.79600 39.06400
C  -13.90500 36.48500 38.99600
C  -12.67000 35.84900 38.88500
C  -11.71200 36.90200 38.96100
C  -15.23400 35.81800 39.20000
C  -12.00200 34.53800 38.73500
O  -12.39200 33.37300 38.59900
C  -10.52900 34.94900 38.72700
C  -9.89300 34.18200 39.80100
O  -10.12800 34.25400 40.97600
O  -9.04700 33.29800 39.17400
C  -8.27500 32.55600 40.18600
H  -6.80600 40.79400 38.73300
H  -12.42500 43.99200 38.09600
H  -15.63000 38.53600 39.10000
H  -7.59000 35.95200 39.49700
H  -6.40800 38.23100 38.14700
H  -5.09900 38.00800 40.00600
H  -6.20300 37.03200 40.82100
H  -6.51600 38.75800 40.97200
H  -8.21000 35.16600 37.26800
H  -6.57000 35.70600 37.20400
H  -6.96000 36.85400 35.40200
H  -8.17500 37.91800 36.14100
H  -6.16800 42.78200 38.01900
H  -6.49900 43.93000 39.28600
H  -6.70800 44.46700 37.70300
H  -11.46200 45.81100 38.79900
H  -11.52200 45.75200 36.92500
H  -10.79000 47.05500 37.86700
H  -14.79600 42.89900 37.53700
H  -15.89900 41.36600 39.91000
H  -15.66100 43.59900 40.33900
H  -15.47400 44.68800 38.98800
H  -14.06700 44.33500 39.99800
H  -16.17700 40.08500 37.41900
H  -16.50400 41.73800 37.05800
H  -17.92000 40.93600 39.51700
H  -18.10300 39.58000 38.46400
H  -18.74300 41.11500 37.91300
H  -15.61000 35.77500 38.17800
H  -15.80600 36.45900 39.87000
H  -15.00700 34.82900 39.59800
H  -10.13200 34.47900 37.82700
H  -8.77300 31.59900 40.33800
H  -8.12600 32.98600 41.17600
H  -7.34600 32.15900 39.77700

