158

Mg 15.70500 51.67300 25.58000
C  17.72200 50.83800 28.27000
C  13.15300 52.41500 28.05800
C  13.60400 52.37600 23.14100
C  18.05200 50.42100 23.32600
N  15.44600 51.64000 27.92200
C  16.45600 51.33100 28.74800
C  16.06400 51.60900 30.20700
C  14.53100 51.71400 30.10500
C  14.34300 51.92700 28.63400
C  13.82100 50.36900 30.59100
C  16.86600 52.82500 30.72900
C  16.23900 53.42200 31.98900
H  15.42800 52.48800 32.92500
N  13.71200 52.27600 25.55000
C  12.86100 52.53800 26.66900
C  11.62300 53.07300 26.10800
C  11.68300 53.10900 24.76700
C  13.01000 52.55900 24.36300
C  10.37000 53.19800 26.98200
C  10.63900 53.60700 23.78500
O  10.81500 53.81200 22.59600
C  9.31600 54.00000 24.32200
N  15.78900 51.32900 23.57900
C  14.79900 51.86200 22.70000
C  15.20900 51.60600 21.21200
C  16.76300 51.40600 21.32300
C  16.80000 50.92500 22.81300
C  14.34000 50.51900 20.50900
C  17.63600 52.72500 21.04600
C  18.78500 52.46800 19.92500
N  17.55000 50.76900 25.69400
C  18.43000 50.33900 24.70300
C  19.67500 49.81500 25.40200
C  19.43900 50.09900 26.76000
C  18.13100 50.58100 26.93100
C  20.92600 49.24800 24.81200
C  20.04300 50.02000 28.09100
O  21.07900 49.54100 28.46600
C  18.96000 50.39300 29.12900
C  18.70900 49.22700 30.06300
O  18.49000 48.03600 29.81900
O  19.00800 49.68100 31.39100
C  18.55900 48.75600 32.43600
H  12.32400 52.55200 28.75600
H  12.98500 52.56900 22.26300
H  18.84300 49.98600 22.71100
H  16.31100 50.75600 30.83800
H  14.11200 52.62300 30.53800
H  13.20700 50.48100 31.48500
H  14.52000 49.53200 30.59800
H  13.23700 50.17800 29.69100
H  16.90000 53.58800 29.95100
H  17.87900 52.56900 31.03900
H  15.67700 54.32800 31.76200
H  17.08300 53.77700 32.58000
H  9.59900 52.43600 26.86300
H  9.98000 54.21500 26.94400
H  10.60900 53.20500 28.04500
H  8.70200 53.19800 24.73300
H  8.72200 54.30300 23.46100
H  9.26900 54.85100 25.00100
H  14.95400 52.51000 20.66000
H  17.02600 50.68300 20.55100
H  15.15300 49.98900 20.01200
H  13.74200 50.96300 19.71300
H  13.70300 49.94800 21.18400
H  18.09500 52.80400 22.03100
H  17.03700 53.60000 20.79100
H  18.60100 51.63400 19.24800
H  19.73100 52.30900 20.44300
H  18.86700 53.33800 19.27300
H  21.50800 48.74600 25.58400
H  21.44900 50.06600 24.31700
H  20.70800 48.51100 24.03800
H  19.48000 51.11700 29.75800
H  19.23400 47.90400 32.51600
H  17.54200 48.40600 32.26100
H  18.54000 49.31900 33.36900
Mg 0.47400 42.39300 26.09000
C  3.01100 42.47800 28.58500
C  -1.76000 41.45300 28.51500
C  -1.82600 42.05900 23.73400
C  2.89200 42.75300 23.62300
N  0.58600 42.16700 28.31700
C  1.72000 42.35200 29.12100
C  1.32900 42.00100 30.57500
C  -0.09700 41.33200 30.46400
C  -0.51200 41.72900 28.99500
C  -0.05200 39.80500 30.75700
C  1.50100 43.27100 31.52900
C  2.11400 42.99100 32.98600
H  1.63100 41.68700 33.63800
N  -1.57600 41.94400 26.10200
C  -2.31600 41.52700 27.24100
C  -3.59700 41.14600 26.83800
C  -3.69000 41.51700 25.42100
C  -2.33700 41.93100 25.03300
C  -4.68200 40.64400 27.82000
C  -4.91200 41.62300 24.50100
O  -4.84600 42.09100 23.44300
C  -6.23400 41.24100 25.03800
N  0.54000 42.41700 24.02900
C  -0.59200 42.26200 23.22900
C  -0.28400 42.46900 21.71200
C  1.20500 42.96700 21.80300
C  1.57000 42.68800 23.24100
C  -0.58400 41.11400 20.91200
C  1.49400 44.33700 21.22900
C  1.68400 45.51100 22.23300
N  2.49800 42.59400 26.08100
C  3.39900 42.57500 24.98700
C  4.75200 42.62100 25.41200
C  4.64400 42.51100 26.82100
C  3.29000 42.48100 27.16800
C  5.90800 42.69000 24.52700
C  5.42500 42.42400 28.05100
O  6.66300 42.32600 28.19300
C  4.36900 42.47100 29.20800
C  4.69300 41.41500 30.19900
O  4.65900 40.22700 29.93300
O  5.07300 41.94300 31.39800
C  5.32600 40.96400 32.49000
H  -2.33700 41.16600 29.39700
H  -2.53000 42.08600 22.90000
H  3.69100 43.06800 22.94700
H  2.01400 41.32700 31.08900
H  -0.75600 41.87400 31.14200
H  -0.82300 39.56700 31.48900
H  0.85500 39.61500 31.33000
H  -0.23300 39.22000 29.85500
H  0.44600 43.54300 31.55300
H  1.94200 44.13200 31.02700
H  1.83800 43.81800 33.64100
H  3.19000 42.83000 32.92800
H  -5.09500 39.75600 27.34000
H  -5.42200 41.41900 28.01700
H  -4.15900 40.35100 28.73000
H  -6.19300 40.16400 25.20100
H  -7.05300 41.59200 24.41000
H  -6.34200 41.62500 26.05300
H  -0.89500 43.25600 21.27100
H  1.82300 42.26100 21.24900
H  0.29300 40.46900 20.86600
H  -0.81500 41.48800 19.91400
H  -1.40900 40.57700 21.38100
H  0.67300 44.70700 20.61600
H  2.42400 44.27300 20.66300
H  1.17600 46.42800 21.93600
H  2.74400 45.65200 22.44700
H  1.16200 45.16400 23.12400
H  5.77900 43.59000 23.92700
H  5.95100 41.83100 23.85800
H  6.87900 42.69700 25.02300
H  4.52300 43.44600 29.67200
H  4.97600 41.33900 33.45200
H  6.40500 40.85800 32.59800
H  4.86000 39.99500 32.31200

