158

Mg 29.26400 57.91100 40.66400
C  26.53100 56.09100 39.71800
C  31.36200 55.30000 39.47700
C  32.15900 60.02800 40.83500
C  27.38800 60.62100 41.26600
N  28.96100 55.91800 39.73900
C  27.74400 55.33900 39.52900
C  27.79500 53.92100 39.08800
C  29.39000 53.58700 39.24300
C  29.94600 55.05400 39.51500
C  29.93000 52.57000 40.22100
C  27.32200 53.67200 37.58600
C  27.92100 54.40100 36.40300
H  27.08300 55.46000 35.69500
N  31.41500 57.69100 40.28500
C  32.06700 56.56800 39.75600
C  33.47200 56.82000 39.54900
C  33.77400 58.12700 40.06400
C  32.38400 58.68500 40.45600
C  34.41500 55.76500 38.99100
C  35.23400 58.70100 40.25100
O  36.21900 58.05100 39.98100
C  35.50300 60.06500 40.81400
N  29.70900 60.04400 41.01100
C  30.94400 60.66600 41.06100
C  30.85900 62.17200 41.46800
C  29.32900 62.29800 41.75700
C  28.75400 60.90300 41.37900
C  31.80100 62.73700 42.53400
C  28.64300 63.51900 41.04500
C  27.89600 64.42200 42.03600
N  27.38900 58.32500 40.52800
C  26.70700 59.48500 40.80600
C  25.27200 59.33200 40.65600
C  25.16700 57.95300 40.30100
C  26.47000 57.38600 40.20900
C  24.27600 60.33000 40.81100
C  24.19500 56.98500 39.83000
O  23.00400 57.03800 39.66700
C  25.03700 55.64100 39.52500
C  24.47300 54.54600 40.34100
O  24.39500 54.55200 41.55100
O  23.99600 53.53200 39.44500
C  23.18400 52.54400 40.15400
H  31.86100 54.39300 39.12900
H  32.98600 60.73100 40.71400
H  26.75700 61.48700 41.47300
H  27.21000 53.41500 39.85500
H  29.63100 53.21100 38.24900
H  29.08000 52.32600 40.85600
H  30.74100 52.91700 40.86100
H  30.21800 51.65800 39.69800
H  26.24200 53.68400 37.43800
H  27.49600 52.60300 37.46100
H  28.29900 53.65400 35.70600
H  28.76900 54.99800 36.74000
H  33.88200 55.01100 38.41100
H  34.95200 55.25500 39.79100
H  35.12000 56.17800 38.26800
H  35.32400 60.93100 40.17700
H  36.57100 60.04500 41.03200
H  34.83700 60.01400 41.67500
H  31.10400 62.75000 40.57700
H  29.27800 62.44500 42.83500
H  32.31500 61.83200 42.85500
H  31.21000 63.06300 43.39000
H  32.44200 63.55000 42.19400
H  28.08700 63.31000 40.13100
H  29.53000 64.09800 40.78700
H  28.59500 65.25200 42.13500
H  27.66100 63.89400 42.96000
H  26.96500 64.86600 41.68100
H  23.47700 60.11800 40.10000
H  24.63500 61.32900 40.56400
H  23.88900 60.26600 41.82800
H  25.02300 55.38900 38.46500
H  23.64600 51.57700 39.95700
H  22.21800 52.57000 39.65100
H  22.95800 52.64800 41.21600
Mg 16.93900 52.21500 26.33500
C  18.53500 50.72300 28.99500
C  14.41100 53.04900 28.34600
C  15.19900 53.24200 23.56600
C  19.40700 51.03800 24.20700
N  16.49400 51.81000 28.37200
C  17.38200 51.40100 29.33100
C  16.85900 51.70400 30.77000
C  15.40100 52.03600 30.43300
C  15.41200 52.32400 28.96000
C  14.49000 50.78700 30.83800
C  17.69200 52.83600 31.36200
C  17.68600 53.01000 32.95000
H  16.72400 52.08400 33.76400
N  15.11200 53.08400 25.99000
C  14.20400 53.41000 26.96400
C  13.04200 54.09700 26.46700
C  13.32400 54.18200 25.04600
C  14.61800 53.37000 24.84100
C  11.84700 54.60600 27.30500
C  12.58300 54.90300 23.94000
O  12.76500 54.77800 22.75000
C  11.36100 55.61000 24.25700
N  17.17500 51.89900 24.08500
C  16.41500 52.58100 23.22900
C  17.07900 52.73700 21.82400
C  18.51600 52.26900 22.16100
C  18.38100 51.73300 23.56700
C  16.35000 51.73000 20.75100
C  19.52200 53.43300 22.00500
C  20.66700 53.09500 21.06100
N  18.64000 51.04700 26.46100
C  19.59300 50.67200 25.56500
C  20.67800 49.96900 26.26800
C  20.29200 49.94200 27.59500
C  18.96200 50.50200 27.66800
C  21.83600 49.26900 25.54800
C  20.72700 49.49800 28.92200
O  21.66500 48.84900 29.27800
C  19.56400 50.01500 29.92000
C  19.09400 48.87900 30.83100
O  18.35200 48.01600 30.40700
O  19.50500 49.11000 32.14600
C  18.92400 48.25300 33.20400
H  13.56600 53.32300 28.98100
H  14.62700 53.58100 22.70000
H  20.24400 50.71200 23.58600
H  16.80500 50.83500 31.42600
H  15.04900 52.85400 31.06100
H  13.77500 50.68600 30.02200
H  13.78300 50.87300 31.66300
H  15.08200 49.88000 30.71000
H  17.39300 53.73600 30.82600
H  18.69100 52.56900 31.01500
H  17.30000 54.01900 33.09400
H  18.72900 52.80200 33.19200
H  12.09100 55.61000 27.65200
H  11.75300 53.94800 28.16900
H  10.89500 54.58900 26.77400
H  11.62100 56.50000 24.83100
H  10.73400 54.85200 24.72600
H  10.82400 55.93800 23.36700
H  17.05400 53.78000 21.51000
H  18.81500 51.47600 21.47600
H  15.32500 51.54800 21.07200
H  16.82400 50.74900 20.70300
H  16.41300 52.14000 19.74300
H  19.86900 53.71800 22.99700
H  19.00400 54.30600 21.60800
H  21.19500 54.02400 20.84600
H  20.19400 52.55200 20.24300
H  21.44300 52.47800 21.51300
H  22.55800 48.91200 26.28200
H  22.30900 49.98800 24.87800
H  21.32000 48.42500 25.08900
H  20.10000 50.76400 30.50300
H  17.86500 48.11600 32.98500
H  18.93900 48.73400 34.18100
H  19.49200 47.33500 33.05200

