158

Mg 5.52000 54.31400 41.53800
C  4.92200 50.90900 41.07900
C  8.55600 54.05400 39.95300
C  5.61600 57.75500 41.59200
C  2.06800 54.62100 42.62500
N  6.55200 52.65100 40.54900
C  6.18500 51.32000 40.58100
C  7.30900 50.44300 40.09700
C  8.57500 51.45000 40.13600
C  7.84400 52.79500 40.17800
C  9.64300 51.21900 41.24300
C  7.03700 49.83000 38.72000
C  6.30200 50.62800 37.65500
H  5.50100 49.70800 36.67400
N  6.90800 55.67300 40.91100
C  8.10300 55.35400 40.30200
C  8.68400 56.53800 39.93400
C  7.94100 57.65200 40.47400
C  6.75700 57.04500 41.12100
C  9.96100 56.49400 39.01700
C  8.28500 59.15500 40.19200
O  9.33800 59.39100 39.62700
C  7.34900 60.33700 40.45900
N  4.06400 56.01300 42.12800
C  4.32800 57.33000 41.89700
C  3.16200 58.23400 42.19800
C  2.00700 57.18100 42.53900
C  2.73500 55.85100 42.43500
C  3.41400 59.25900 43.27200
C  0.59100 57.41700 41.83000
C  -0.67600 57.41500 42.79800
N  3.82200 53.03800 41.86200
C  2.59900 53.29200 42.32300
C  1.94300 52.01500 42.50600
C  2.81100 51.04400 42.07600
C  3.95500 51.74700 41.65200
C  0.64900 51.68300 43.08700
C  3.08700 49.67000 42.06700
O  2.47700 48.75000 42.55100
C  4.38400 49.48300 41.29500
C  3.97000 48.74700 40.11100
O  3.49800 49.28000 39.12100
O  4.12000 47.37400 40.30200
C  3.49200 46.46500 39.33100
H  9.58000 54.01200 39.57600
H  5.63300 58.84500 41.53000
H  0.97800 54.63000 42.69500
H  7.49600 49.56800 40.71900
H  9.19100 51.41600 39.23800
H  9.55400 50.28800 41.80300
H  9.76400 52.10000 41.87400
H  10.62600 51.11000 40.78700
H  6.49100 48.89100 38.81800
H  8.04900 49.54800 38.42900
H  7.11200 51.13700 37.13200
H  5.55800 51.31100 38.06500
H  10.41200 57.47900 38.89200
H  9.74800 56.07500 38.03400
H  10.76600 55.94600 39.50600
H  7.86000 61.29900 40.44100
H  7.12400 60.32000 41.52600
H  6.54300 60.33900 39.72600
H  2.92600 58.72600 41.25400
H  1.85600 57.28400 43.61400
H  3.65500 60.20800 42.79400
H  4.40600 59.18000 43.71800
H  2.55600 59.27800 43.94300
H  0.49000 56.63800 41.07500
H  0.60700 58.36800 41.29600
H  -1.50800 56.85900 42.36700
H  -1.10700 58.40800 42.91800
H  -0.30600 56.85500 43.65800
H  0.05500 51.41200 42.21400
H  0.20700 52.54600 43.58300
H  0.86800 50.91100 43.82500
H  5.11500 48.98900 41.93500
H  2.46000 46.36000 39.66800
H  4.01400 45.50800 39.33600
H  3.34600 46.74300 38.28700
Mg -0.10200 42.75500 26.68700
C  1.63900 42.90100 29.98200
C  -2.76600 41.80900 28.32000
C  -1.16100 42.17400 23.79200
C  3.23600 43.56900 25.29800
N  -0.48100 42.50900 28.91700
C  0.28200 42.73400 30.04100
C  -0.58300 42.66500 31.31900
C  -1.92900 42.00400 30.79400
C  -1.73700 42.09900 29.27100
C  -2.27000 40.60100 31.27400
C  -0.65000 44.09300 31.98300
C  -0.18500 44.05600 33.41400
H  -1.33300 43.82900 34.52300
N  -1.83400 42.20500 26.09900
C  -2.91600 41.86300 26.94800
C  -4.00700 41.45000 26.11100
C  -3.49800 41.45200 24.78800
C  -2.15200 41.99100 24.80700
C  -5.42900 41.16400 26.70600
C  -4.16600 40.83200 23.50300
O  -3.62100 40.95200 22.40000
C  -5.37600 39.94800 23.58400
N  0.92300 42.88300 24.87700
C  0.15500 42.65200 23.77300
C  0.97800 42.72600 22.46600
C  2.28700 43.34500 22.99700
C  2.11700 43.32500 24.52500
C  1.02800 41.34700 21.77700
C  2.62900 44.80500 22.47900
C  2.48300 45.10800 20.95200
N  2.05300 43.17800 27.45100
C  3.20700 43.29400 26.68900
C  4.32300 43.24100 27.62200
C  3.74100 43.03500 28.88900
C  2.37500 43.01300 28.74500
C  5.70800 43.38000 27.19300
C  4.14200 42.76700 30.25700
O  5.26300 42.66600 30.75300
C  2.70800 42.81700 31.07100
C  2.59500 41.63300 31.93200
O  2.71300 40.47800 31.53800
O  2.54100 41.90900 33.24500
C  2.49700 40.76900 34.17500
H  -3.65900 41.43600 28.82600
H  -1.37800 41.96900 22.74200
H  4.19800 43.69100 24.79600
H  -0.09300 42.01600 32.04500
H  -2.83400 42.58600 30.96700
H  -1.67600 40.37300 32.15900
H  -1.99600 39.94700 30.44600
H  -3.33600 40.63800 31.49900
H  -1.69300 44.38300 32.11000
H  -0.13000 44.76600 31.30100
H  0.10000 45.08200 33.64600
H  0.65900 43.38900 33.59100
H  -5.64900 41.84700 27.52600
H  -5.26900 40.19500 27.17900
H  -6.27500 41.15600 26.01900
H  -5.44400 39.23900 22.75900
H  -6.27200 40.56800 23.60300
H  -5.40300 39.27300 24.43900
H  0.44400 43.45600 21.85700
H  3.13200 42.84900 22.51800
H  0.58500 41.42600 20.78400
H  0.45300 40.58500 22.30300
H  2.05600 40.99500 21.69100
H  3.63300 45.10000 22.78400
H  1.90900 45.43700 22.99900
H  3.48700 45.20100 20.53800
H  1.84100 45.97800 20.81300
H  2.15800 44.29300 20.30600
H  6.30200 42.86700 27.94900
H  5.86500 44.45800 27.18900
H  5.80300 42.93000 26.20400
H  2.67800 43.74100 31.64700
H  3.19800 40.03700 33.77200
H  1.52700 40.27900 34.24900
H  2.75100 41.01200 35.20600

