158

Mg 0.97500 7.79300 25.22600
C  1.51500 9.68400 28.24400
C  1.40400 4.98700 27.25500
C  0.89400 5.93400 22.41100
C  1.16200 10.73600 23.43400
N  1.51600 7.41400 27.50000
C  1.57400 8.29400 28.51000
C  1.74100 7.65400 29.92000
C  1.73800 6.11000 29.57300
C  1.59700 6.12900 28.02100
C  3.07700 5.41900 29.95000
C  0.53100 7.97100 30.94300
C  1.00200 8.27300 32.46500
H  2.15500 7.50100 32.97000
N  1.05300 5.72400 24.87700
C  1.13700 4.79500 25.88800
C  0.86500 3.50700 25.27900
C  0.63300 3.72700 23.87400
C  0.84300 5.12900 23.61600
C  0.60100 2.22600 26.10400
C  0.23300 2.82200 22.77000
O  -0.03500 3.21400 21.62300
C  0.03400 1.32300 22.92500
N  1.22200 8.24300 23.18900
C  1.07700 7.31000 22.18400
C  0.82100 8.02700 20.83100
C  1.09700 9.51000 21.13900
C  1.12300 9.55100 22.66300
C  1.44500 7.40800 19.54100
C  0.10000 10.44300 20.45800
C  -1.27800 10.66400 21.24200
N  1.33600 9.81800 25.63300
C  1.28300 10.90300 24.80300
C  1.44300 12.14200 25.54600
C  1.50600 11.67300 26.90800
C  1.34700 10.26900 26.91600
C  1.76200 13.49700 24.94300
C  1.82800 12.12400 28.25000
O  2.08100 13.20900 28.66200
C  1.67700 10.81000 29.15000
C  2.78200 10.81600 30.09100
O  3.88500 10.23400 29.92100
O  2.43300 11.44200 31.25800
C  3.49900 11.48600 32.25100
H  1.50000 4.09900 27.88300
H  0.75400 5.47500 21.43000
H  1.03200 11.67500 22.89100
H  2.74200 7.95900 30.22500
H  0.83400 5.67200 29.99600
H  3.14300 5.75900 30.98300
H  3.98900 5.67900 29.41200
H  3.09700 4.33000 29.90600
H  -0.28600 7.26200 30.80900
H  0.16800 8.90500 30.51500
H  0.13800 7.93000 33.03400
H  1.10500 9.35300 32.57500
H  -0.46600 2.00200 26.11000
H  0.71900 2.48500 27.15700
H  1.14400 1.35200 25.74600
H  0.80700 0.91200 23.57500
H  0.02800 0.82100 21.95700
H  -0.87400 1.16000 23.50600
H  -0.24400 7.95700 20.61100
H  2.07100 9.81600 20.75800
H  2.15400 6.62500 19.80800
H  1.94200 8.15800 18.92500
H  0.70100 6.90200 18.92500
H  -0.18500 10.25200 19.42400
H  0.52900 11.44300 20.52400
H  -2.06900 11.12600 20.65100
H  -1.23200 11.41400 22.03200
H  -1.60600 9.75000 21.73700
H  2.71700 13.33600 24.44300
H  2.04400 14.07300 25.82500
H  0.85700 13.79900 24.41700
H  0.83600 10.93900 29.83200
H  3.95400 10.51900 32.46600
H  3.08500 11.82000 33.20300
H  4.31900 12.10900 31.89300
Mg 47.27800 16.03600 28.02600
C  45.34600 15.76500 31.00000
C  49.82300 17.52600 30.11100
C  49.03100 16.94200 25.28200
C  44.77400 14.84000 26.24700
N  47.53600 16.57400 30.27500
C  46.56400 16.35900 31.31300
C  47.12600 16.76600 32.72200
C  48.50700 17.39000 32.32300
C  48.61000 17.18100 30.78500
C  48.65400 18.96700 32.63500
C  47.37000 15.58700 33.63100
C  46.99200 15.78100 35.12500
H  46.80600 17.15400 35.72800
N  49.18200 16.97500 27.70100
C  50.08100 17.45700 28.70400
C  51.29200 17.77500 28.06200
C  51.04700 17.77400 26.65100
C  49.69400 17.28200 26.46300
C  52.63100 17.87900 28.88100
C  51.95100 18.30800 25.50500
O  51.71000 18.25200 24.32000
C  53.28200 18.96800 25.92300
N  46.98700 15.83500 26.10300
C  47.82100 16.25000 25.09800
C  47.16800 16.19200 23.75200
C  45.96100 15.33500 24.03000
C  45.82700 15.38900 25.56600
C  46.93700 17.56000 23.02100
C  46.20500 13.86000 23.59600
C  45.89500 13.50200 22.12600
N  45.52500 15.25300 28.47700
C  44.53200 14.82200 27.60400
C  43.47600 14.29100 28.35500
C  43.69500 14.68800 29.67300
C  44.97800 15.27800 29.69500
C  42.24100 13.60100 27.92200
C  43.11700 14.77000 31.00400
O  42.08000 14.36000 31.52800
C  44.16100 15.52200 31.92100
C  43.49500 16.64800 32.59500
O  43.49900 17.82700 32.21000
O  42.95000 16.19700 33.77100
C  42.18000 17.19800 34.51600
H  50.71600 17.83400 30.65900
H  49.49400 17.20300 24.32800
H  44.08000 14.38600 25.53600
H  46.36200 17.43600 33.11400
H  49.36700 16.90900 32.78800
H  49.58400 19.06600 33.19500
H  47.80600 19.42200 33.14900
H  48.73400 19.52000 31.69900
H  48.38700 15.19700 33.59300
H  46.89500 14.68300 33.25100
H  47.71500 15.27800 35.76700
H  46.00700 15.33300 35.25800
H  53.49700 17.73400 28.23500
H  52.65300 17.11700 29.66000
H  52.57100 18.86400 29.34300
H  53.28300 19.71200 26.72000
H  53.72200 19.29800 24.98200
H  53.84900 18.05200 26.09000
H  47.81000 15.63200 23.07200
H  45.03300 15.67400 23.56700
H  45.85300 17.67000 23.00900
H  47.43800 17.52900 22.05400
H  47.36000 18.37000 23.61600
H  45.60400 13.20200 24.22400
H  47.25100 13.60700 23.76900
H  46.75200 12.94200 21.75100
H  45.87300 14.36300 21.45700
H  45.06100 12.80600 22.03900
H  41.95500 13.00300 28.78800
H  42.32100 12.99900 27.01600
H  41.39300 14.22700 27.64600
H  44.49400 14.84400 32.70700
H  41.64700 16.60400 35.25900
H  41.45300 17.70600 33.88200
H  42.76900 17.99400 34.97200

