158

Mg 24.30300 -5.63800 46.35300
C  26.58700 -3.58700 44.71200
C  21.90500 -4.62900 44.18100
C  22.71800 -8.52400 47.06300
C  27.32100 -7.21700 47.79100
N  24.25700 -4.32300 44.71300
C  25.27700 -3.58900 44.21700
C  24.73800 -2.45200 43.25200
C  23.20900 -2.64900 43.40700
C  23.08400 -3.93200 44.13500
C  22.41000 -1.49300 44.09800
C  25.35700 -2.81400 41.82400
C  25.86100 -1.58100 41.00300
H  25.48200 -1.57400 39.51000
N  22.53600 -6.43600 45.87200
C  21.66400 -5.82300 44.99500
C  20.49800 -6.67100 44.80000
C  20.68400 -7.80500 45.69200
C  21.99700 -7.65000 46.26600
C  19.35100 -6.38800 43.80500
C  19.60400 -8.88800 45.94700
O  18.68000 -8.93200 45.20100
C  19.77000 -9.85600 46.96100
N  24.93600 -7.54700 47.45000
C  24.01500 -8.53200 47.58700
C  24.44600 -9.60300 48.55000
C  25.97100 -9.16000 48.78600
C  26.14200 -7.93300 47.93900
C  23.56200 -9.77300 49.83400
C  27.02800 -10.32400 48.44300
C  28.02300 -10.69400 49.53800
N  26.45200 -5.23500 46.57700
C  27.53900 -5.94500 47.15300
C  28.73000 -5.17900 46.93400
C  28.42000 -4.28100 45.95400
C  27.04000 -4.35200 45.75300
C  30.05500 -5.47800 47.55600
C  28.96900 -3.27500 45.06300
O  30.04300 -2.73300 44.96700
C  27.78300 -2.72100 44.32700
C  27.52300 -1.35400 44.64600
O  27.18800 -0.91500 45.77700
O  27.81600 -0.54200 43.53000
C  27.75500 0.87000 43.79500
H  21.14600 -4.38400 43.43500
H  22.28500 -9.51700 47.19800
H  28.26200 -7.57800 48.21100
H  25.13700 -1.52100 43.65500
H  22.63500 -2.77300 42.48800
H  23.01400 -0.60000 44.26200
H  22.16300 -1.85600 45.09600
H  21.55400 -1.25200 43.46800
H  24.49500 -3.25700 41.32400
H  26.13400 -3.57200 41.92400
H  26.94100 -1.46000 41.08700
H  25.41700 -0.69600 41.45800
H  19.13600 -7.24600 43.16900
H  19.57200 -5.46700 43.26600
H  18.46500 -6.24400 44.42400
H  20.17200 -9.19900 47.73200
H  20.51400 -10.55000 46.57100
H  18.79800 -10.29800 47.18200
H  24.47000 -10.49900 47.93000
H  26.01300 -8.80000 49.81400
H  22.64800 -9.18600 49.74400
H  24.18900 -9.56100 50.70000
H  23.44000 -10.85600 49.81300
H  27.63600 -10.00200 47.59800
H  26.51800 -11.22200 48.09200
H  28.13100 -11.77700 49.60000
H  27.62100 -10.41800 50.51300
H  28.87100 -10.09900 49.19900
H  30.80700 -4.70200 47.41200
H  30.26900 -6.35300 46.94100
H  30.00600 -5.79300 48.59800
H  27.97700 -2.80500 43.25700
H  28.32700 1.34200 42.99700
H  28.05400 1.21200 44.78600
H  26.71500 1.16100 43.64700
Mg -4.85300 25.54600 26.57800
C  -3.75300 26.96200 29.57400
C  -6.64700 23.20600 28.45300
C  -5.26600 23.74100 23.84700
C  -2.72600 27.72900 24.78800
N  -4.99500 24.98600 28.73200
C  -4.55900 25.82800 29.84200
C  -5.13200 25.32000 31.13800
C  -5.72800 23.92900 30.76600
C  -5.83200 24.03000 29.22600
C  -4.89400 22.80800 31.30100
C  -6.16400 26.34200 31.80800
C  -6.50000 26.15500 33.31300
H  -5.96900 25.04400 34.29100
N  -5.97000 23.87800 26.17000
C  -6.66200 23.11300 27.07100
C  -7.53100 22.23200 26.32600
C  -7.11800 22.24700 24.96200
C  -6.06800 23.28500 24.94100
C  -8.69400 21.51500 26.89500
C  -7.70400 21.56900 23.75200
O  -7.11800 21.58200 22.67900
C  -9.01700 20.85600 23.80800
N  -4.24000 25.76900 24.55900
C  -4.49000 24.83500 23.60800
C  -3.84400 25.17800 22.25000
C  -3.22600 26.56100 22.59200
C  -3.47900 26.74700 24.07100
C  -2.86500 24.04800 21.86300
C  -3.68400 27.71700 21.69100
C  -3.04000 28.07400 20.35400
N  -3.49000 27.07400 27.01200
C  -2.62500 27.81400 26.17800
C  -1.91700 28.69300 27.04000
C  -2.32800 28.42600 28.36400
C  -3.30400 27.38500 28.28800
C  -0.81200 29.65100 26.57300
C  -2.19900 28.77800 29.78300
O  -1.55900 29.66300 30.30700
C  -3.11900 27.91900 30.60900
C  -2.37000 27.17400 31.64400
O  -1.63100 26.22700 31.44100
O  -2.74700 27.52500 32.86700
C  -2.27100 26.77600 33.98000
H  -7.18000 22.48000 29.07000
H  -5.46400 23.25400 22.89000
H  -2.03700 28.33800 24.20000
H  -4.33800 25.19000 31.87300
H  -6.71800 23.89900 31.22000
H  -4.05200 23.20800 31.86500
H  -4.46000 22.18800 30.51700
H  -5.48200 22.20300 31.99200
H  -7.08900 26.48600 31.25100
H  -5.65700 27.30100 31.70300
H  -7.58600 26.09800 33.38800
H  -6.23100 27.10800 33.76700
H  -9.46000 21.71600 26.14600
H  -8.98600 21.98600 27.83300
H  -8.58000 20.44100 27.04300
H  -9.78700 21.59200 24.04000
H  -8.91300 20.00200 24.47600
H  -9.35900 20.43900 22.86100
H  -4.54500 25.34300 21.43100
H  -2.14400 26.43900 22.54200
H  -3.00700 23.95100 20.78700
H  -3.12100 23.09700 22.32900
H  -1.80800 24.29500 21.96500
H  -3.52300 28.65000 22.23200
H  -4.75700 27.66200 21.50900
H  -2.26100 27.35200 20.10900
H  -2.85500 29.14300 20.24900
H  -3.72200 27.89100 19.52400
H  -0.65500 29.51400 25.50300
H  0.01800 29.39800 27.23300
H  -1.23800 30.62100 26.82800
H  -3.88600 28.57700 31.01600
H  -1.89100 27.41300 34.77900
H  -1.48200 26.10800 33.63300
H  -3.10500 26.21800 34.40500

