158

Mg 16.54100 -2.32000 27.77300
C  15.65700 -0.38400 30.43000
C  18.96200 -3.82600 29.93500
C  17.97100 -3.77400 25.12000
C  14.77100 -0.17600 25.58900
N  17.24500 -2.06700 29.89700
C  16.61900 -1.31600 30.80900
C  17.12700 -1.51500 32.24100
C  18.26600 -2.64400 32.05200
C  18.17800 -2.85500 30.50700
C  19.68400 -2.27100 32.64800
C  15.90600 -1.88700 33.21700
C  15.99800 -1.39200 34.68400
H  17.31600 -0.63200 35.16400
N  18.12900 -3.77700 27.56200
C  18.90800 -4.29500 28.57800
C  19.67300 -5.38200 27.99900
C  19.41800 -5.38700 26.54400
C  18.53900 -4.27800 26.31000
C  20.36900 -6.38900 28.92400
C  20.01300 -6.36200 25.53800
O  19.67900 -6.28600 24.42500
C  21.00800 -7.41100 25.98800
N  16.45600 -2.00400 25.71300
C  17.09500 -2.77500 24.82800
C  16.70200 -2.45800 23.31800
C  15.58600 -1.43400 23.54600
C  15.53400 -1.18700 25.05500
C  17.84800 -1.93200 22.50800
C  14.20100 -1.90000 22.92600
C  13.34600 -2.71200 23.93300
N  15.33700 -0.76600 27.92000
C  14.59100 0.00400 26.97500
C  13.84400 1.05000 27.61500
C  14.23000 0.93700 28.99700
C  15.13400 -0.17700 29.09500
C  13.03800 2.12500 26.85700
C  14.03400 1.53700 30.27900
O  13.19700 2.30200 30.68800
C  14.98900 0.72100 31.21200
C  15.92900 1.79500 31.68700
O  16.71000 2.37300 31.02800
O  15.76900 2.04000 33.02500
C  16.68700 3.00600 33.60600
H  19.63800 -4.33900 30.62100
H  18.29100 -4.33300 24.23800
H  14.20800 0.54900 24.99800
H  17.44100 -0.50000 32.48500
H  17.87600 -3.57700 32.46000
H  20.49800 -2.11700 31.94000
H  19.92900 -3.14000 33.25900
H  19.76500 -1.32600 33.18600
H  15.72100 -2.94900 33.05300
H  14.98600 -1.42700 32.85500
H  15.94100 -2.26300 35.33700
H  15.19400 -0.68200 34.87500
H  19.94700 -7.37900 28.75100
H  20.46900 -6.20200 29.99300
H  21.39700 -6.37900 28.56200
H  20.58700 -8.08600 26.73200
H  21.89400 -6.81500 26.20900
H  21.23700 -8.00800 25.10500
H  16.29700 -3.29000 22.74200
H  15.78600 -0.43500 23.15800
H  18.59100 -1.48400 23.16700
H  17.37900 -1.17900 21.87400
H  18.14100 -2.74700 21.84600
H  14.45000 -2.55000 22.08700
H  13.64900 -1.02600 22.57900
H  12.85400 -1.91700 24.49300
H  13.90000 -3.30300 24.66200
H  12.57700 -3.30100 23.43400
H  12.35200 2.66300 27.51100
H  12.45900 1.66700 26.05400
H  13.65600 2.90200 26.40800
H  14.31300 0.26800 31.93700
H  16.45000 3.97600 33.17000
H  17.65700 2.57400 33.36200
H  16.45000 3.19000 34.65500
Mg 25.30900 1.06900 30.40300
C  27.23500 1.06700 33.25800
C  22.46000 1.49500 32.34000
C  23.36000 1.10600 27.59300
C  28.00200 0.56800 28.47600
N  24.86600 1.27500 32.57200
C  25.88500 1.38800 33.48200
C  25.27600 1.77800 34.90700
C  23.73400 1.78800 34.59800
C  23.65400 1.48200 33.14400
C  22.83200 0.99500 35.62000
C  25.93000 3.08800 35.57600
C  26.56600 2.90000 36.94400
H  26.35900 4.00800 37.98500
N  23.25400 1.18300 30.08700
C  22.27000 1.38300 30.99600
C  21.02000 1.49500 30.32000
C  21.26100 1.47100 28.99000
C  22.68900 1.32100 28.83500
C  19.70800 1.62500 31.07700
C  20.26100 1.50400 27.83800
O  20.52500 1.34200 26.65100
C  18.81800 2.00700 28.12200
N  25.61500 0.90600 28.32600
C  24.71000 0.89800 27.35700
C  25.34200 0.77300 25.95700
C  26.86500 0.84400 26.30000
C  26.85400 0.73600 27.79000
C  24.86900 -0.59800 25.25500
C  27.63700 2.08400 25.72700
C  26.99600 3.40100 26.05300
N  27.26500 0.87300 30.72500
C  28.27600 0.59200 29.85200
C  29.53700 0.47400 30.60800
C  29.13700 0.68000 31.94000
C  27.75500 0.91300 31.96000
C  30.87000 0.19300 30.11200
C  29.68700 0.79500 33.27800
O  30.84300 0.72900 33.70700
C  28.45100 1.03600 34.23400
C  28.42400 -0.10700 35.17200
O  27.91300 -1.19000 34.93100
O  28.95000 0.25900 36.42500
C  28.77400 -0.65700 37.50000
H  21.55100 1.73500 32.89500
H  22.83200 1.22700 26.64500
H  28.87800 0.46000 27.83400
H  25.40400 1.06900 35.72400
H  23.43500 2.83400 34.53300
H  21.82000 1.38800 35.72400
H  23.32600 0.95400 36.59100
H  22.57600 0.00600 35.24000
H  25.10400 3.79700 35.50700
H  26.70200 3.37600 34.86200
H  27.63400 2.97000 36.73900
H  26.34700 1.91300 37.35100
H  19.02600 0.81700 30.81000
H  19.38700 2.64000 30.84500
H  19.82900 1.48800 32.15200
H  18.36400 1.91300 27.13500
H  18.80700 2.99400 28.58300
H  18.22100 1.32000 28.72100
H  25.09300 1.66400 25.38100
H  27.35700 -0.00800 25.83100
H  23.96100 -1.00900 25.69700
H  25.62900 -1.37900 25.28100
H  24.68400 -0.52200 24.18400
H  27.76100 2.02800 24.64500
H  28.58400 2.16500 26.26000
H  26.79500 3.91500 25.11300
H  27.63500 4.09700 26.59600
H  26.05600 3.42300 26.60600
H  30.86200 -0.88200 29.93200
H  31.55700 0.66800 30.81300
H  31.04300 0.70600 29.16700
H  28.61300 1.96200 34.78700
H  27.95700 -0.38000 38.16500
H  29.66200 -0.67600 38.13200
H  28.61400 -1.67600 37.14600

