158

Mg 44.41100 5.03800 47.25700
C  42.10900 7.93000 46.90000
C  41.52500 3.01800 46.76000
C  46.37600 2.47500 46.98400
C  46.95700 7.19100 46.55400
N  42.06600 5.45500 47.00100
C  41.45100 6.65200 46.86100
C  39.95400 6.40700 46.61900
C  39.76200 4.85900 46.92300
C  41.24500 4.42100 46.88200
C  38.86900 4.47200 48.17000
C  39.53200 6.78500 45.20300
C  38.42300 7.80300 45.09400
H  37.60700 7.78700 43.81400
N  43.99500 3.02100 47.18800
C  42.81800 2.35300 46.90600
C  43.12400 0.97700 46.71700
C  44.52800 0.71400 46.77300
C  45.00300 2.07600 47.09300
C  42.04200 -0.13100 46.59100
C  45.27200 -0.63500 46.58600
O  44.73200 -1.64300 46.23700
C  46.82000 -0.82600 46.58900
N  46.42400 4.87300 46.75400
C  47.06300 3.69100 46.81300
C  48.56700 3.89800 47.00000
C  48.75500 5.37700 46.49200
C  47.29500 5.89400 46.64100
C  49.05500 3.59200 48.46800
C  49.34900 5.64000 45.01700
C  50.82500 5.99700 44.98100
N  44.57900 7.13200 47.03100
C  45.72200 7.85300 46.75600
C  45.39700 9.32500 46.74800
C  44.04800 9.38500 46.89900
C  43.54100 8.04700 46.93600
C  46.36100 10.42900 46.61500
C  42.85300 10.27600 46.99200
O  42.84100 11.52900 46.95700
C  41.62600 9.38500 46.95900
C  40.70500 9.58500 48.12300
O  40.59300 8.84900 49.11600
O  39.97700 10.66600 47.86300
C  38.88200 10.99500 48.70900
H  40.69900 2.31300 46.64900
H  47.15100 1.70800 46.93400
H  47.84600 7.80200 46.38100
H  39.37000 6.98900 47.33300
H  39.27400 4.21700 46.18900
H  39.54000 4.54200 49.02600
H  38.54400 3.43500 48.09400
H  38.04900 5.18200 48.28900
H  39.19800 5.93000 44.61400
H  40.46600 7.11500 44.74900
H  38.76700 8.79000 45.40300
H  37.77100 7.43300 45.88500
H  41.95900 -0.78400 47.45900
H  42.31700 -0.77400 45.75500
H  40.99300 0.13800 46.46300
H  47.02600 -1.82700 46.21000
H  47.32900 -0.53100 47.50700
H  47.22900 -0.22100 45.77900
H  49.06000 3.15100 46.37900
H  49.33800 5.93400 47.22500
H  48.12700 3.47900 49.03000
H  49.59800 4.46800 48.82100
H  49.69200 2.71200 48.37800
H  48.66500 6.40900 44.65800
H  49.30600 4.75700 44.37900
H  51.07500 6.54000 44.07000
H  51.31500 5.02500 44.92400
H  51.14900 6.48400 45.90200
H  47.35100 10.15400 46.97900
H  45.95700 11.31100 47.11200
H  46.48700 10.82900 45.60900
H  41.08600 9.66200 46.05300
H  38.99600 12.03700 49.00700
H  38.55000 10.46900 49.60400
H  37.91800 11.00300 48.20000
Mg 53.87300 24.24000 45.05500
C  51.28600 26.34900 43.89900
C  51.89500 21.44200 43.92000
C  56.57600 22.39100 45.21000
C  55.75100 27.13600 45.91000
N  51.81900 23.92500 44.09100
C  50.97500 24.92200 43.72500
C  49.76400 24.40700 43.08800
C  49.69900 22.96300 43.71500
C  51.22300 22.70200 43.87000
C  48.83200 22.76500 45.00500
C  49.89600 24.41600 41.57000
C  48.53400 24.60100 40.92300
H  48.25600 23.94700 39.59900
N  54.12000 22.08200 44.79700
C  53.24800 21.21000 44.26200
C  53.93400 19.91400 44.30800
C  55.24200 20.15800 44.88700
C  55.37500 21.60500 44.94700
C  53.31300 18.55700 43.82700
C  56.29500 19.12900 45.18400
O  55.97700 17.94800 45.13400
C  57.76500 19.30800 45.57900
N  55.93200 24.71400 45.17500
C  56.83600 23.77900 45.29200
C  58.26200 24.31200 45.54400
C  57.97300 25.68900 46.13400
C  56.44900 25.89500 45.78500
C  59.24700 23.32200 46.27900
C  58.99700 26.86700 45.71400
C  60.22400 27.00400 46.64000
N  53.60000 26.36500 44.96900
C  54.44100 27.37500 45.45500
C  53.70000 28.68100 45.32300
C  52.45100 28.37800 44.70300
C  52.48000 26.92200 44.53900
C  54.23900 30.06800 45.78400
C  51.11800 28.77700 44.25400
O  50.66800 29.88400 44.24200
C  50.36300 27.52700 43.58200
C  50.23700 27.73000 42.08700
O  51.18400 27.80400 41.27800
O  48.86300 27.80800 41.73900
C  48.49100 28.21700 40.37800
H  51.26400 20.65200 43.50900
H  57.49900 21.83200 45.37400
H  56.22400 28.06000 46.25000
H  48.88700 24.92000 43.48300
H  49.28300 22.27500 42.97900
H  48.45200 21.74900 44.89600
H  47.99500 23.46300 45.01600
H  49.33900 22.78400 45.97000
H  50.34100 23.48000 41.23300
H  50.55700 25.21600 41.23500
H  48.42300 25.65500 40.66400
H  47.69300 24.39100 41.58300
H  53.94300 17.99000 43.14100
H  52.33700 18.82300 43.42100
H  53.14200 17.85500 44.64300
H  58.29400 18.35400 45.57600
H  57.92000 19.84100 46.51700
H  58.25500 19.93900 44.83800
H  58.67300 24.53800 44.56000
H  58.02700 25.60500 47.21900
H  59.82100 23.86800 47.02900
H  59.97300 22.96900 45.54600
H  58.74100 22.54400 46.85000
H  58.42000 27.76100 45.95200
H  59.22400 26.91500 44.64900
H  60.32600 28.04400 46.94700
H  60.96000 26.74200 45.87900
H  60.27500 26.26700 47.44200
H  55.32300 30.01000 45.69200
H  54.05600 30.27100 46.84000
H  53.84100 30.85400 45.14300
H  49.40100 27.41800 44.08300
H  49.35100 28.35200 39.72200
H  47.95000 29.16300 40.38700
H  47.95000 27.44400 39.83100

