158

Mg 30.05200 58.18200 41.12900
C  27.32700 56.45700 39.79000
C  32.16000 56.08600 39.42900
C  32.61400 60.48200 41.30600
C  27.80000 60.79500 42.07000
N  29.79900 56.50900 39.68100
C  28.57400 55.93500 39.35600
C  28.83600 54.54300 38.70600
C  30.34600 54.42700 38.68200
C  30.82900 55.71200 39.33900
C  31.02600 53.21600 39.38900
C  28.18700 54.38400 37.31000
C  27.92500 55.67200 36.47500
H  27.82000 55.48000 34.92500
N  32.17400 58.16700 40.66800
C  32.81000 57.21400 39.94400
C  34.20200 57.58000 39.78000
C  34.39200 58.88100 40.34600
C  33.01300 59.26200 40.76100
C  35.22000 56.72000 39.08500
C  35.70800 59.71800 40.32100
O  36.72900 59.35300 39.71300
C  35.74200 61.08500 41.01300
N  30.14300 60.39000 41.59700
C  31.36600 60.95000 41.83000
C  31.17200 62.41300 42.27200
C  29.51300 62.51800 42.49700
C  29.09500 61.17700 42.04500
C  32.11800 62.95200 43.38300
C  28.91700 63.66300 41.74700
C  27.64200 64.35600 42.21100
N  28.08500 58.50700 41.16300
C  27.27500 59.56200 41.61100
C  25.88600 59.25100 41.47700
C  25.86100 58.06200 40.78500
C  27.16800 57.64800 40.58100
C  24.69200 60.10100 41.86500
C  24.99700 57.02100 40.26400
O  23.76900 56.97200 40.25400
C  25.93300 55.85200 39.59800
C  25.77500 54.51900 40.39100
O  26.43000 54.31100 41.39600
O  24.83500 53.70300 39.86600
C  24.64200 52.42900 40.55100
H  32.78900 55.47800 38.77600
H  33.24200 61.37400 41.26600
H  27.09900 61.57200 42.38200
H  28.41600 53.65600 39.18000
H  30.64600 54.39700 37.63500
H  31.51300 53.46600 40.33100
H  31.80100 52.75800 38.77400
H  30.39600 52.36900 39.65800
H  27.26000 53.81600 37.37600
H  28.83400 53.74600 36.70800
H  28.72800 56.37700 36.69000
H  26.96900 56.07600 36.81000
H  35.95800 57.31000 38.54200
H  34.78000 56.02100 38.37300
H  35.75400 56.16800 39.85900
H  35.20300 61.83900 40.43900
H  36.76100 61.47000 41.04000
H  35.41900 60.83700 42.02400
H  31.36600 63.07400 41.42800
H  29.17500 62.56600 43.53200
H  32.81000 63.67700 42.95400
H  32.44000 62.06700 43.93100
H  31.51800 63.49800 44.11200
H  28.87900 63.47700 40.67400
H  29.70800 64.41100 41.70100
H  26.97100 64.26800 41.35700
H  27.80600 65.40600 42.45600
H  27.21000 63.94200 43.12200
H  24.86100 60.49300 42.86800
H  23.77900 59.51400 41.76900
H  24.72900 60.93800 41.16700
H  25.64600 55.61700 38.57300
H  23.75200 51.91800 40.18300
H  24.50800 52.49300 41.63000
H  25.47800 51.79900 40.24700
Mg -11.45400 15.99900 41.67600
C  -8.51800 13.96100 41.12500
C  -9.97400 18.46400 40.11400
C  -14.40400 17.35100 41.75500
C  -12.99700 12.84200 42.77600
N  -9.52300 16.10700 40.69800
C  -8.46600 15.25400 40.61300
C  -7.23000 15.93900 39.90100
C  -7.73300 17.42800 39.76500
C  -9.19200 17.31500 40.18500
C  -6.93400 18.53000 40.42100
C  -6.75800 15.20700 38.62500
C  -5.24100 15.05900 38.47200
H  -4.64800 15.60900 37.15400
N  -12.14700 17.63500 40.97300
C  -11.35800 18.64800 40.46600
C  -12.10700 19.81700 40.30800
C  -13.42900 19.61900 40.80200
C  -13.39400 18.14700 41.17200
C  -11.46900 21.18800 39.86000
C  -14.55700 20.63600 40.91700
O  -14.40300 21.76600 40.46900
C  -15.91100 20.28800 41.59700
N  -13.53000 15.03200 41.77600
C  -14.50900 16.02000 42.06200
C  -15.85800 15.28900 42.21500
C  -15.40400 13.87000 42.68900
C  -13.90500 13.92900 42.43600
C  -16.83600 15.94700 43.32000
C  -15.97300 12.68700 41.86400
C  -16.62800 11.54200 42.70800
N  -10.84200 13.84400 42.12800
C  -11.59100 12.75200 42.60100
C  -10.68100 11.65200 42.78800
C  -9.47600 12.08700 42.31700
C  -9.59800 13.38200 41.80800
C  -10.99500 10.28100 43.38800
C  -8.08700 11.69500 42.15700
O  -7.47000 10.70400 42.52600
C  -7.39200 12.87500 41.26700
C  -6.33200 13.45800 42.08100
O  -6.44400 13.78900 43.25400
O  -5.12800 13.39500 41.40800
C  -3.89600 13.86600 41.91100
H  -9.48200 19.33200 39.67000
H  -15.36500 17.86000 41.85000
H  -13.44200 11.95200 43.22500
H  -6.43000 16.05500 40.63200
H  -7.64500 17.78000 38.73700
H  -6.76300 19.28600 39.65400
H  -6.07100 18.14900 40.96600
H  -7.45800 19.11900 41.17500
H  -7.06300 15.79200 37.75700
H  -7.13200 14.18400 38.58900
H  -4.92500 14.02100 38.57000
H  -4.79000 15.60300 39.30200
H  -11.10900 21.75600 40.71700
H  -12.14600 21.77200 39.23600
H  -10.60300 20.92600 39.25100
H  -16.37000 21.27100 41.69700
H  -15.66900 19.82000 42.55100
H  -16.60100 19.68400 41.00800
H  -16.34800 15.21900 41.24300
H  -15.50200 13.76800 43.77000
H  -16.57400 16.99200 43.48600
H  -16.89100 15.45400 44.29100
H  -17.83100 15.98400 42.87600
H  -15.16700 12.25000 41.27300
H  -16.74600 13.03500 41.17900
H  -16.38000 10.58700 42.24400
H  -17.70400 11.71500 42.70200
H  -16.26500 11.54700 43.73500
H  -10.08300 9.69800 43.51600
H  -11.65800 9.70700 42.74100
H  -11.51500 10.36700 44.34200
H  -7.02600 12.53500 40.29800
H  -3.27800 14.21800 41.08500
H  -3.35600 12.97100 42.22000
H  -3.93500 14.50900 42.79100

