158

Mg 41.64400 7.44600 29.03800
C  42.96700 9.19800 31.63300
C  39.24100 6.25100 31.18300
C  40.53000 5.43600 26.58100
C  44.25700 8.33600 26.92700
N  41.36200 7.41800 31.31400
C  41.93900 8.41700 32.10600
C  41.25700 8.51600 33.54400
C  39.93200 7.63100 33.26900
C  40.13900 7.04100 31.85800
C  39.61900 6.57000 34.38500
C  40.70700 9.95700 34.03100
C  40.12000 9.89800 35.44600
H  40.46900 11.12700 36.29400
N  40.04500 6.10600 28.84100
C  39.16000 5.79700 29.86600
C  38.04500 5.22200 29.24900
C  38.34800 5.14300 27.86200
C  39.68900 5.52000 27.72300
C  36.79200 4.83800 30.05900
C  37.28000 4.77300 26.80400
O  37.62200 4.49500 25.64100
C  35.71800 4.77900 27.05300
N  42.34700 6.84700 27.09500
C  41.76100 5.93700 26.31200
C  42.33500 5.93700 24.93200
C  43.49400 6.92400 24.95800
C  43.39000 7.37900 26.43300
C  42.67400 4.52200 24.40200
C  43.46600 8.15900 23.95900
C  44.22500 7.81600 22.67600
N  43.28800 8.45300 29.18900
C  44.28600 8.75100 28.30400
C  45.31000 9.61400 28.95400
C  44.77200 9.86500 30.18900
C  43.57700 9.07600 30.32400
C  46.51300 10.12600 28.26500
C  44.97600 10.64000 31.39600
O  45.85500 11.38800 31.77100
C  43.77000 10.22100 32.32400
C  44.38800 9.77000 33.62200
O  44.92700 8.74400 33.80700
O  44.15000 10.70700 34.63400
C  44.63300 10.40100 35.97100
H  38.41000 5.93700 31.81900
H  40.13300 4.79600 25.79000
H  45.12500 8.66300 26.35100
H  41.85600 8.15300 34.37800
H  39.01100 8.21300 33.29200
H  38.74000 6.84000 34.97100
H  40.46300 6.65100 35.07000
H  39.56100 5.56200 33.97400
H  40.04200 10.42900 33.30700
H  41.55900 10.63700 34.02700
H  40.50500 9.04600 36.00700
H  39.04000 9.80100 35.33800
H  36.97100 4.70000 31.12600
H  36.39600 3.89800 29.67400
H  35.95000 5.51800 29.93000
H  35.19000 4.93100 26.11200
H  35.42800 5.59900 27.70900
H  35.69500 3.74900 27.41100
H  41.49700 6.37300 24.38700
H  44.49000 6.48200 24.92200
H  42.66100 3.74100 25.16300
H  43.63900 4.44300 23.90100
H  41.95100 4.30200 23.61700
H  43.87300 9.04200 24.45200
H  42.41400 8.37200 23.76900
H  44.66000 6.82200 22.58000
H  45.18900 8.31800 22.75600
H  43.72300 8.15300 21.76900
H  46.47800 10.21300 27.17900
H  47.35000 9.45200 28.44800
H  46.90000 11.06500 28.66200
H  43.24200 11.16300 32.47200
H  45.71800 10.29400 35.98700
H  44.13700 9.50900 36.35400
H  44.39200 11.29500 36.54600
Mg 36.37300 49.74900 24.70000
C  36.22500 48.06700 27.77100
C  35.34900 52.65000 26.23000
C  35.97200 51.23400 21.58400
C  36.99600 46.67800 23.12700
N  35.76400 50.21400 26.71300
C  35.99000 49.42800 27.83400
C  35.74200 50.31700 29.15300
C  35.28000 51.72400 28.58300
C  35.47600 51.55000 27.09600
C  33.98600 52.22500 29.09800
C  37.09800 50.39300 29.95600
C  37.14900 50.51000 31.49300
H  35.93300 50.76600 32.31400
N  35.75300 51.70900 23.99000
C  35.48400 52.74300 24.81000
C  35.17600 53.91100 24.03300
C  35.39100 53.58900 22.65300
C  35.75100 52.11000 22.67700
C  34.74200 55.31700 24.60100
C  35.16900 54.32500 21.34000
O  35.28500 53.76400 20.22000
C  34.66600 55.76900 21.42800
N  36.51100 49.03000 22.66000
C  36.34600 49.87400 21.60700
C  36.77100 49.15200 20.29700
C  37.22300 47.75400 20.82500
C  36.79700 47.76900 22.25000
C  35.70500 49.09900 19.21700
C  38.79900 47.46400 20.69700
C  39.28400 46.04500 20.37900
N  36.60800 47.75800 25.24700
C  36.78300 46.61300 24.52100
C  36.90100 45.51300 25.39400
C  36.71600 45.96700 26.68300
C  36.50400 47.32800 26.57700
C  37.15700 44.11400 24.98100
C  36.60600 45.62700 28.09000
O  36.76900 44.56600 28.65900
C  36.28700 47.03200 28.83500
C  35.07200 46.90500 29.70900
O  33.96300 47.06600 29.35500
O  35.44700 46.41500 30.97300
C  34.32000 46.36400 31.94000
H  35.11700 53.56900 26.77400
H  35.75600 51.61300 20.58300
H  37.36200 45.71700 22.76000
H  34.95300 49.80800 29.70700
H  35.97300 52.50500 28.89200
H  33.80100 51.78500 30.07800
H  33.11700 52.23600 28.44000
H  34.25900 53.26200 29.29300
H  37.67900 51.22700 29.56300
H  37.66700 49.50200 29.69000
H  37.86600 51.30900 31.68000
H  37.68700 49.70400 31.99300
H  35.53800 56.04100 24.42700
H  34.43100 55.24200 25.64300
H  33.86400 55.60400 24.02200
H  35.36600 56.42500 21.94600
H  33.65000 55.78300 21.82200
H  34.58500 56.04900 20.37800
H  37.56600 49.71100 19.80200
H  36.70100 46.93600 20.32800
H  35.85900 49.87400 18.46700
H  34.70300 49.31300 19.58700
H  35.55700 48.11000 18.78500
H  39.32100 47.75400 21.60800
H  39.13800 48.26800 20.04200
H  39.99400 46.18000 19.56300
H  38.45600 45.42500 20.03400
H  39.70100 45.49300 21.22200
H  37.91100 43.98200 24.20400
H  36.20100 43.65900 24.72100
H  37.67200 43.67700 25.83600
H  37.06600 47.21800 29.57500
H  34.56700 46.04700 32.95300
H  33.51200 45.80500 31.46700
H  33.90500 47.36900 32.01900

