158

Mg 26.41300 50.13400 26.77700
C  24.49200 51.46800 29.35500
C  28.83700 49.35000 29.01100
C  28.23500 49.09500 24.23900
C  24.21600 51.56000 24.55400
N  26.69500 50.60700 29.01300
C  25.72800 50.96100 29.90300
C  26.18700 50.83000 31.38900
C  27.56300 50.13100 31.16100
C  27.72800 49.98600 29.64000
C  28.80100 50.75000 31.88800
C  25.08000 50.03200 32.23800
C  25.53900 49.01700 33.37500
H  24.62000 49.00600 34.64800
N  28.25300 49.33800 26.65100
C  29.12500 49.13700 27.67700
C  30.34800 48.53200 27.24100
C  30.25800 48.51200 25.81400
C  28.89500 48.97600 25.50700
C  31.43000 48.00400 28.17800
C  31.30200 48.25500 24.76400
O  31.08400 48.41300 23.54700
C  32.69500 47.97300 25.21800
N  26.20000 50.16400 24.65700
C  27.02300 49.57400 23.80500
C  26.48900 49.55300 22.34100
C  25.19900 50.42500 22.50200
C  25.17100 50.71400 23.99300
C  27.54400 50.09700 21.33200
C  23.89700 49.82000 22.02700
C  22.88700 50.81600 21.46200
N  24.59100 51.15200 26.87100
C  23.80600 51.60700 25.88500
C  22.66500 52.37100 26.42700
C  22.88800 52.32000 27.85100
C  24.07300 51.51300 28.00100
C  21.55200 53.11000 25.70600
C  22.34400 52.64100 29.14000
O  21.38100 53.30900 29.49900
C  23.37400 52.11400 30.16300
C  23.74100 53.34100 31.02000
O  24.52100 54.27400 30.79100
O  22.94300 53.19400 32.19800
C  23.30300 54.01700 33.35800
H  29.55000 49.02600 29.77200
H  28.69200 48.50100 23.44500
H  23.55300 51.97200 23.79000
H  26.30200 51.85900 31.73000
H  27.41600 49.08500 31.43100
H  29.20000 51.66700 31.45500
H  29.54300 49.95200 31.87100
H  28.56600 50.98700 32.92600
H  24.51900 49.35800 31.59100
H  24.41100 50.80200 32.62100
H  26.57300 49.24200 33.63800
H  25.45000 48.02300 32.93500
H  32.29200 48.64900 28.00500
H  31.71900 46.98600 27.91800
H  31.15200 48.13200 29.22400
H  33.37200 48.05800 24.36800
H  32.60400 47.03900 25.77300
H  32.97100 48.72900 25.95400
H  26.10300 48.61700 21.93700
H  25.43400 51.38200 22.03700
H  28.50900 50.24500 21.81700
H  27.32400 51.03900 20.82800
H  27.62900 49.19900 20.72100
H  23.40000 49.23400 22.80000
H  24.11100 49.10300 21.23400
H  21.91100 50.86700 21.94300
H  22.67200 50.60000 20.41500
H  23.25900 51.83500 21.56500
H  21.03000 52.60200 24.89500
H  21.96000 54.02200 25.27200
H  20.79200 53.43500 26.41700
H  22.88300 51.37200 30.79100
H  23.49700 55.06500 33.12900
H  24.21600 53.49800 33.65000
H  22.59000 53.95100 34.18000
Mg 16.59600 52.64400 26.67200
C  18.71600 50.94800 28.97200
C  14.54800 53.41800 29.36100
C  14.62000 54.13200 24.48200
C  18.67300 51.44700 24.18200
N  16.56800 52.23300 28.81100
C  17.58300 51.57600 29.52900
C  17.24800 51.64700 31.04200
C  15.79000 51.93800 31.02000
C  15.61900 52.62500 29.66200
C  14.88100 50.72900 31.25000
C  18.06600 52.75200 31.70000
C  18.16500 52.75100 33.22500
H  17.03800 52.00400 33.92400
N  14.81600 53.71700 26.87500
C  14.18300 53.90300 28.06800
C  12.94700 54.61300 27.77500
C  12.95800 54.94700 26.38400
C  14.17000 54.29300 25.84200
C  12.00700 55.13900 28.87900
C  11.98400 55.82500 25.57200
O  12.20200 55.99100 24.35900
C  10.83400 56.42000 26.20400
N  16.62700 52.64300 24.65200
C  15.75400 53.46100 23.97800
C  16.05300 53.41100 22.46000
C  17.58500 52.93800 22.42200
C  17.63000 52.32500 23.84800
C  15.09700 52.52500 21.60100
C  18.68400 53.99400 22.10400
C  19.97200 53.54600 21.54000
N  18.25200 51.28000 26.49900
C  19.02900 50.90900 25.43900
C  20.14900 50.15800 25.86600
C  20.05900 50.08500 27.30300
C  18.93100 50.88200 27.62500
C  21.17900 49.50600 25.02200
C  20.66900 49.56200 28.52500
O  21.62400 48.88300 28.82400
C  19.82300 50.21900 29.71800
C  19.36100 49.15200 30.55800
O  18.68800 48.20300 30.18300
O  19.78400 49.47300 31.82600
C  19.37300 48.60200 32.91300
H  13.91100 53.67700 30.20900
H  13.95000 54.48600 23.69500
H  19.45400 51.23400 23.44800
H  17.50700 50.69900 31.51400
H  15.48500 52.73600 31.69700
H  14.15800 50.64300 30.43900
H  14.30200 50.77100 32.17300
H  15.49900 49.83900 31.36500
H  17.46600 53.65700 31.60300
H  18.98900 52.67100 31.12700
H  18.09900 53.77400 33.59700
H  19.07900 52.23500 33.51800
H  11.82100 56.21200 28.86200
H  12.40400 54.85800 29.85400
H  10.97400 54.83000 28.71600
H  9.96900 55.79500 26.42900
H  10.51700 57.22400 25.53900
H  11.13400 56.91000 27.13000
H  16.16800 54.45400 22.16700
H  17.66700 52.05300 21.79100
H  14.55900 51.78400 22.19200
H  15.59400 51.96300 20.81000
H  14.30500 53.12400 21.15000
H  18.93800 54.44900 23.06200
H  18.32400 54.77300 21.43200
H  20.48800 54.30400 20.95100
H  19.85300 52.66600 20.90800
H  20.60200 53.27300 22.38600
H  21.74700 48.84900 25.68100
H  21.79100 50.21400 24.46400
H  20.73400 48.83700 24.28600
H  20.43000 50.97900 30.21100
H  19.38000 47.57100 32.55900
H  18.39500 48.84300 33.32900
H  20.14500 48.75100 33.66700

