158

Mg 7.53600 3.07400 27.95700
C  8.93000 1.83600 30.82300
C  5.92700 5.38000 29.76900
C  5.87500 4.04500 25.03500
C  9.30800 0.71100 26.08300
N  7.36000 3.52000 30.02700
C  8.03400 2.86900 31.07400
C  7.73400 3.56200 32.38300
C  6.75200 4.70900 32.00600
C  6.65200 4.50800 30.54400
C  5.32400 4.69400 32.70900
C  9.00100 4.06700 33.16800
C  9.17600 3.71900 34.75300
H  9.56200 4.80100 35.73900
N  6.06900 4.44700 27.50700
C  5.64200 5.39600 28.39300
C  4.74000 6.30000 27.68000
C  4.61500 5.93700 26.36500
C  5.53100 4.77900 26.24300
C  4.04100 7.36400 28.43000
C  3.81500 6.56600 25.22500
O  3.66800 6.04700 24.16000
C  3.05700 7.74300 25.53700
N  7.49600 2.32100 25.86400
C  6.73500 2.94800 24.87700
C  6.96100 2.21500 23.54600
C  8.26500 1.43700 23.85400
C  8.32600 1.42500 25.38700
C  5.83400 1.21500 23.14200
C  9.54900 2.05300 23.23400
C  10.30300 1.08000 22.33900
N  8.89700 1.54700 28.31200
C  9.57400 0.71700 27.50200
C  10.49200 -0.13600 28.25900
C  10.31700 0.38400 29.59500
C  9.32100 1.35300 29.54700
C  11.46400 -1.21400 27.80700
C  10.70000 0.15100 30.99500
O  11.43800 -0.60400 31.56800
C  9.80900 1.16200 31.83600
C  9.04200 0.33100 32.76000
O  8.11500 -0.34300 32.45300
O  9.69900 0.21100 33.98700
C  9.07000 -0.54900 35.03100
H  5.64100 6.15000 30.49000
H  5.57600 4.36100 24.03400
H  10.06900 0.22000 25.47200
H  7.09900 2.87800 32.94600
H  7.21200 5.69700 32.00100
H  4.71900 4.00600 32.11900
H  4.93000 5.70900 32.66300
H  5.27700 4.35600 33.74500
H  8.85200 5.14400 33.24200
H  9.98000 4.04800 32.68900
H  10.03300 3.04700 34.81000
H  8.37200 3.08700 35.12900
H  4.51900 8.32400 28.23700
H  4.04200 7.01700 29.46300
H  2.99300 7.45300 28.14300
H  2.35900 7.45100 26.32100
H  2.47500 8.01300 24.65600
H  3.73100 8.54900 25.82700
H  6.99400 2.94000 22.73300
H  8.16700 0.42700 23.45900
H  5.00000 1.23200 23.84400
H  6.11300 0.16100 23.14000
H  5.30700 1.43900 22.21400
H  10.24000 2.37400 24.01500
H  9.25200 2.94800 22.68800
H  10.74900 1.52300 21.44900
H  9.61000 0.30000 22.02500
H  11.18700 0.66300 22.82300
H  11.58200 -1.15900 26.72400
H  11.06700 -2.19000 28.08400
H  12.38400 -1.00700 28.35300
H  10.45300 1.83500 32.40300
H  9.95100 -1.01400 35.47400
H  8.32800 -1.30600 34.77500
H  8.58100 0.06800 35.78400
Mg 53.55900 24.55100 43.79500
C  50.72900 26.48500 43.30600
C  51.88800 21.96200 42.24100
C  56.30800 22.79700 43.88400
C  55.11000 27.28000 45.29700
N  51.59900 24.29000 42.80700
C  50.67500 25.25400 42.64100
C  49.43800 24.81900 41.76700
C  49.66300 23.24400 41.74700
C  51.12000 23.12000 42.22400
C  48.72900 22.28300 42.48800
C  49.40300 25.37800 40.31900
C  50.68400 26.04500 39.71700
H  51.57600 25.30200 38.79200
N  54.01000 22.53000 43.26800
C  53.14900 21.62200 42.73100
C  53.77000 20.32500 42.70400
C  55.16100 20.53200 43.11300
C  55.22700 21.95500 43.42500
C  52.91900 19.12100 42.35700
C  56.21200 19.40700 43.22700
O  55.89700 18.22900 42.87800
C  57.63100 19.63300 43.67200
N  55.53500 25.08900 44.37300
C  56.51000 24.12900 44.31800
C  57.87000 24.76800 44.79600
C  57.33900 26.08700 45.52800
C  55.91400 26.19000 45.05500
C  58.82500 23.80300 45.61000
C  58.12500 27.35100 45.14900
C  59.64600 27.21800 45.03100
N  53.07000 26.49200 44.22600
C  53.76800 27.44400 44.88700
C  52.91800 28.58400 45.17000
C  51.70400 28.23600 44.54500
C  51.83000 26.97300 44.05600
C  53.34900 29.94800 45.72000
C  50.35700 28.68800 44.31900
O  49.81700 29.69700 44.72400
C  49.73200 27.54900 43.45800
C  49.34800 28.24400 42.20200
O  50.08100 28.65500 41.30000
O  48.01500 28.45000 42.27200
C  47.36500 29.13400 41.16600
H  51.27000 21.13600 41.88600
H  57.20400 22.20400 44.08000
H  55.58000 28.14200 45.77600
H  48.46600 25.07600 42.18900
H  49.55900 22.90800 40.71500
H  49.21500 21.31900 42.63900
H  47.87600 22.13500 41.82500
H  48.57100 22.79500 43.43700
H  48.64300 26.14400 40.47900
H  48.92800 24.70900 39.60200
H  51.34000 26.18700 40.57600
H  50.42000 27.01300 39.29000
H  53.01100 18.73700 41.34100
H  51.87500 19.30800 42.60700
H  53.17400 18.35800 43.09300
H  58.13900 18.66800 43.69400
H  57.67500 20.18500 44.61100
H  58.09200 20.24700 42.89800
H  58.48800 24.96900 43.92100
H  57.26400 25.99900 46.61200
H  58.30500 22.88700 45.89300
H  59.06100 24.30000 46.55100
H  59.70700 23.46000 45.06900
H  57.91700 27.99500 46.00300
H  57.62100 27.85000 44.32100
H  59.97700 27.21500 43.99200
H  59.87200 26.28800 45.55300
H  60.23800 27.99700 45.51300
H  53.02900 30.07400 46.75400
H  52.98500 30.67500 44.99300
H  54.40700 30.17300 45.58000
H  48.84800 27.12700 43.93700
H  47.92100 28.95600 40.24500
H  47.48900 30.18200 41.43700
H  46.35700 28.74200 41.02900

