158

Mg 48.15100 16.03300 28.09100
C  46.50100 15.54800 31.11300
C  50.23200 18.27800 29.72400
C  49.86000 16.26400 25.27700
C  45.71200 14.02200 26.57000
N  48.29000 16.94800 30.20800
C  47.58900 16.46900 31.24100
C  48.22800 17.01400 32.55800
C  49.22700 18.11600 32.12500
C  49.21200 17.81900 30.58700
C  49.04600 19.62200 32.52900
C  48.84600 15.97500 33.56900
C  48.33400 16.08200 34.98800
H  47.91000 17.41400 35.62200
N  49.84200 17.01400 27.59000
C  50.51700 17.97800 28.35400
C  51.62600 18.52600 27.51000
C  51.62600 17.83500 26.30800
C  50.38900 16.99700 26.31100
C  52.53000 19.58800 27.97900
C  52.52100 17.85300 25.12300
O  52.38200 17.12600 24.17000
C  53.67200 18.81500 25.11300
N  47.85400 15.24400 26.18600
C  48.75300 15.45600 25.17700
C  48.29000 14.93300 23.81700
C  46.88800 14.29600 24.22100
C  46.82400 14.48800 25.74700
C  48.21700 15.96600 22.71100
C  46.77000 12.84000 23.85900
C  45.58900 12.46800 23.00600
N  46.34200 15.09100 28.64100
C  45.45200 14.30800 27.93400
C  44.47200 13.75200 28.83600
C  44.82400 14.17300 30.07800
C  45.95700 15.04000 29.87000
C  43.39900 12.73600 28.43600
C  44.53200 14.06500 31.49800
O  43.65600 13.42600 32.05400
C  45.54800 15.06200 32.19200
C  44.73300 16.19700 32.83100
O  44.07000 17.01700 32.23100
O  44.61100 15.95000 34.16400
C  43.46500 16.64100 34.78700
H  50.81500 19.03700 30.25100
H  50.24900 16.52800 24.29200
H  45.12500 13.26800 26.04100
H  47.37500 17.54300 32.98400
H  50.23600 17.91600 32.48700
H  49.10300 20.34600 31.71600
H  49.69600 19.81600 33.38200
H  48.09700 19.80900 33.03000
H  49.92800 16.06700 33.65700
H  48.64400 14.94800 33.26400
H  49.15200 15.64600 35.56300
H  47.54400 15.33300 35.05100
H  53.57600 19.32100 28.13100
H  52.24400 19.87400 28.99100
H  52.56000 20.51600 27.40900
H  53.85300 18.93300 24.04500
H  54.49600 18.49100 25.74900
H  53.44800 19.84100 25.40500
H  48.96500 14.18300 23.40300
H  46.03200 14.79400 23.76500
H  48.43500 16.99900 22.98100
H  47.26300 15.87300 22.19200
H  49.01300 15.62100 22.05100
H  46.73200 12.18200 24.72800
H  47.63200 12.47800 23.29800
H  44.65600 12.86000 23.41300
H  45.51700 11.38500 22.91400
H  45.61500 12.93200 22.02000
H  43.16400 11.93500 29.13700
H  43.76600 12.21000 27.55400
H  42.47400 13.29200 28.28900
H  46.04800 14.58000 33.03200
H  43.33100 17.68300 34.49700
H  43.47600 16.57300 35.87500
H  42.67000 15.99300 34.41600
Mg 40.75900 40.14600 27.45100
C  40.16900 42.66300 29.84500
C  41.93900 38.10500 30.01700
C  41.39000 37.85000 25.08800
C  40.04200 42.55400 24.92400
N  41.01200 40.39200 29.71300
C  40.61300 41.47100 30.45600
C  40.65100 41.14800 31.98100
C  41.35000 39.70700 31.94800
C  41.44500 39.36000 30.44400
C  42.68600 39.72100 32.70900
C  39.23800 41.23300 32.74000
C  39.23100 42.07700 33.97700
H  38.67100 41.40200 35.26200
N  41.51400 38.21300 27.61800
C  41.96800 37.56000 28.71400
C  42.40400 36.21500 28.31400
C  42.27700 36.08700 26.95000
C  41.69900 37.39300 26.46700
C  42.96800 35.25000 29.30200
C  42.78800 35.05000 26.01200
O  42.76200 35.18700 24.81300
C  43.46600 33.78000 26.52300
N  40.93000 40.32600 25.31400
C  41.06100 39.17000 24.54500
C  40.73400 39.39700 23.02200
C  39.98500 40.80400 23.07700
C  40.27100 41.26000 24.53500
C  41.90000 39.36400 22.12800
C  38.51100 40.64500 22.70400
C  37.69700 39.81100 23.65400
N  40.22500 42.19400 27.36000
C  40.00200 43.06400 26.27100
C  39.52500 44.29300 26.75300
C  39.66400 44.24900 28.14400
C  40.10000 42.93600 28.47400
C  39.04400 45.45700 25.93200
C  39.54200 44.98900 29.30300
O  39.24000 46.21600 29.32600
C  39.78200 43.92700 30.54900
C  40.86100 44.44900 31.38000
O  41.94300 44.69000 30.89700
O  40.43500 44.76800 32.69100
C  41.28800 45.61700 33.49400
H  42.22400 37.59500 30.93900
H  41.36300 37.09000 24.30400
H  39.65500 43.18800 24.12300
H  41.34600 41.88600 32.38200
H  40.76300 38.85600 32.29400
H  42.87700 38.67500 32.95000
H  42.43600 40.23600 33.63700
H  43.49700 40.27100 32.23200
H  39.06400 40.18700 32.99400
H  38.42800 41.52400 32.07100
H  38.49300 42.86300 33.81700
H  40.18800 42.55500 34.18500
H  44.02800 35.03000 29.17600
H  42.42700 34.31300 29.16900
H  42.82300 35.52000 30.34800
H  44.46500 34.08900 26.83100
H  43.65800 33.08700 25.70400
H  42.86900 33.31000 27.30400
H  39.97500 38.67600 22.71800
H  40.55700 41.44900 22.40900
H  42.66400 38.70100 22.53500
H  42.21500 40.32600 21.72500
H  41.55000 38.84700 21.23400
H  38.52700 40.23900 21.69200
H  38.17700 41.68200 22.72500
H  38.20300 39.37300 24.51500
H  37.29000 39.04900 22.99000
H  36.77600 40.25800 24.02700
H  38.84500 45.11700 24.91600
H  39.92000 46.08600 25.77200
H  38.24400 45.94900 26.48600
H  38.87200 43.79200 31.13300
H  41.50600 45.03800 34.39100
H  40.71700 46.48400 33.82700
H  42.16800 45.82700 32.88600

