158

Mg 17.74800 -1.36200 27.81400
C  16.20900 0.55600 30.35700
C  19.43200 -3.18900 29.97000
C  18.95700 -2.97000 25.14500
C  15.99800 0.79500 25.52700
N  17.89800 -1.08400 29.89700
C  17.09600 -0.47800 30.77400
C  17.34800 -0.87200 32.18900
C  18.43800 -1.98700 32.00300
C  18.66000 -2.12300 30.47500
C  19.76900 -1.70900 32.82200
C  16.12900 -1.39900 32.97200
C  15.96200 -0.75200 34.37900
H  17.25200 -0.46400 35.17600
N  19.10900 -2.88100 27.60000
C  19.65000 -3.56800 28.67500
C  20.51300 -4.57500 28.11300
C  20.40800 -4.54700 26.71000
C  19.40100 -3.47500 26.43800
C  21.27700 -5.51400 29.00100
C  21.12500 -5.34900 25.56300
O  20.88900 -5.24800 24.34300
C  22.23000 -6.23700 25.99800
N  17.66300 -0.99100 25.62400
C  18.19100 -1.88100 24.79600
C  18.16100 -1.39300 23.36400
C  16.97800 -0.30000 23.43600
C  16.80700 -0.21400 24.93600
C  19.37400 -0.77100 22.74100
C  15.67500 -0.65800 22.67700
C  15.19600 0.31000 21.62800
N  16.38000 0.33900 27.88500
C  15.80400 1.08200 26.86200
C  14.96400 2.14300 27.41900
C  15.09400 2.00900 28.84000
C  15.89200 0.85400 29.01600
C  14.07100 3.10200 26.64100
C  14.69500 2.62700 30.12600
O  14.04200 3.66800 30.37000
C  15.33600 1.60900 31.14200
C  16.19000 2.35400 32.09800
O  17.40100 2.25100 32.14900
O  15.39900 3.07400 32.97500
C  16.16300 3.66500 34.09800
H  19.99800 -3.68500 30.76100
H  19.19500 -3.73700 24.40500
H  15.57000 1.49300 24.80400
H  17.72700 0.01900 32.69000
H  17.98800 -2.91900 32.34700
H  19.50600 -0.97800 33.58700
H  20.57900 -1.43000 32.14900
H  20.13200 -2.61100 33.31400
H  16.19200 -2.45800 33.22200
H  15.22700 -1.30900 32.36600
H  15.39500 -1.47100 34.96900
H  15.28400 0.07700 34.17500
H  20.95900 -6.54600 28.85000
H  21.14300 -5.36700 30.07300
H  22.34800 -5.42900 28.81800
H  21.72400 -6.99300 26.59800
H  23.11100 -5.69600 26.34400
H  22.71600 -6.72200 25.15100
H  17.86500 -2.22800 22.72900
H  17.41600 0.65700 23.15300
H  19.85700 -1.42100 22.01200
H  20.04600 -0.66500 23.59300
H  19.35000 0.19300 22.23300
H  14.88400 -0.78800 23.41500
H  15.84200 -1.59400 22.14500
H  14.15600 0.63600 21.62800
H  15.39600 -0.16200 20.66500
H  15.76100 1.23500 21.74000
H  13.61000 2.56400 25.81300
H  14.77300 3.87100 26.31900
H  13.24700 3.46100 27.25900
H  14.58700 1.03100 31.68300
H  17.01100 3.04100 34.37900
H  15.56200 3.74600 35.00400
H  16.64000 4.59300 33.78300
Mg 47.74700 35.04200 27.12800
C  46.15100 33.26800 29.81600
C  48.08600 37.68500 29.19900
C  48.80200 36.76800 24.52600
C  47.42200 32.11900 25.18600
N  47.37900 35.28800 29.31000
C  46.78300 34.44700 30.21900
C  46.97100 35.00500 31.64700
C  47.28500 36.51300 31.30200
C  47.63800 36.49700 29.81700
C  46.15900 37.47500 31.71400
C  48.18100 34.24300 32.30600
C  48.66300 34.75000 33.71700
H  47.83700 35.70500 34.50700
N  48.35500 36.93300 26.90000
C  48.43500 37.87000 27.85000
C  48.86400 39.10600 27.29500
C  49.12100 38.89500 25.86200
C  48.83700 37.42600 25.71600
C  49.10500 40.30200 28.07300
C  49.70000 39.86800 24.80000
O  50.06600 39.47400 23.68800
C  49.98600 41.31200 25.13900
N  48.17800 34.48700 25.16500
C  48.45700 35.45000 24.24800
C  48.51100 34.82800 22.81700
C  48.48100 33.33000 23.17100
C  47.96700 33.32700 24.62100
C  47.47400 35.28500 21.80200
C  49.72100 32.46100 22.86800
C  49.83400 32.08400 21.38900
N  46.87700 33.17000 27.36300
C  46.82100 32.06500 26.46300
C  46.14300 30.94000 27.12300
C  45.81100 31.47000 28.34600
C  46.28800 32.78400 28.51300
C  45.86700 29.56600 26.63400
C  44.99300 31.12000 29.51900
O  44.31900 30.08800 29.68800
C  45.16200 32.31900 30.52400
C  45.42000 31.81100 31.92900
O  46.37000 31.23500 32.36100
O  44.36600 32.36000 32.67400
C  44.43000 32.18900 34.09900
H  48.26500 38.51300 29.88800
H  48.99900 37.44200 23.68900
H  47.45200 31.28200 24.48400
H  46.05300 34.81200 32.20200
H  48.19500 36.78300 31.83700
H  45.56200 36.82200 32.35200
H  45.53600 37.91000 30.93300
H  46.65200 38.18500 32.37700
H  49.07400 34.27100 31.68100
H  47.91600 33.19400 32.43600
H  49.62700 35.25800 33.72400
H  48.75500 33.87000 34.35300
H  49.70400 41.06900 27.58400
H  49.52000 39.95400 29.02000
H  48.12000 40.70500 28.30900
H  50.33600 41.92100 24.30600
H  50.77100 41.40700 25.89000
H  49.06800 41.65300 25.61800
H  49.51000 35.04100 22.43800
H  47.70800 32.92700 22.51600
H  47.67200 36.35600 21.74200
H  46.45900 35.07200 22.13600
H  47.78100 34.75300 20.90200
H  49.70500 31.59000 23.52400
H  50.64500 33.00700 23.05900
H  49.05200 32.63700 20.86900
H  49.63700 31.01700 21.29300
H  50.84000 32.30800 21.03300
H  45.86900 28.81600 27.42600
H  46.70700 29.27800 26.00200
H  44.98100 29.55200 25.99900
H  44.27500 32.93600 30.66800
H  43.85200 33.02700 34.48900
H  45.46100 32.28800 34.44000
H  44.05900 31.21500 34.41700

