158

Mg 36.12600 49.12900 24.98800
C  36.43100 47.57600 28.02900
C  35.20800 52.08200 26.64300
C  35.65100 50.65300 22.09900
C  37.25200 46.19500 23.42200
N  35.96100 49.77200 27.09500
C  36.12100 48.94800 28.16400
C  36.21700 49.82200 29.45800
C  35.71500 51.22600 29.00600
C  35.63600 51.01600 27.46600
C  34.35100 51.63400 29.67500
C  37.56000 49.77300 30.16900
C  37.39400 49.31500 31.63500
H  36.03200 49.43000 32.51100
N  35.51700 51.08300 24.48700
C  35.11900 52.13000 25.27800
C  34.75000 53.30000 24.42600
C  34.80400 52.87400 23.11000
C  35.34000 51.47500 23.16600
C  34.51600 54.64100 25.01600
C  34.51700 53.69200 21.85200
O  34.62100 53.25200 20.72200
C  33.94200 55.00600 22.00400
N  36.33400 48.52300 23.08500
C  36.14600 49.35500 22.00900
C  36.61600 48.80300 20.68500
C  37.23900 47.46000 21.08700
C  36.96500 47.34300 22.65600
C  35.52100 48.59800 19.57100
C  38.72000 47.20500 20.86800
C  38.99900 45.98200 19.95700
N  36.60800 47.25500 25.51600
C  37.02500 46.12700 24.83000
C  37.20900 45.00200 25.67600
C  37.05600 45.59400 26.98400
C  36.64400 46.93100 26.83700
C  37.56500 43.65700 25.20800
C  37.13700 45.26000 28.39900
O  37.47000 44.17900 28.90500
C  36.83200 46.56800 29.17600
C  35.67600 46.31400 30.08400
O  34.52700 46.10100 29.66600
O  35.99800 46.00600 31.37900
C  35.08600 45.25400 32.22900
H  34.81900 52.96300 27.15800
H  35.60700 51.13100 21.11900
H  37.77300 45.35500 22.95800
H  35.48800 49.30300 30.08100
H  36.42800 52.03000 29.18800
H  33.40900 51.35700 29.20100
H  34.27300 52.70300 29.87000
H  34.40200 51.18000 30.66400
H  38.02500 50.75800 30.17500
H  38.27500 49.18300 29.59600
H  38.20500 49.87200 32.10300
H  37.54800 48.23600 31.67100
H  33.45700 54.89800 24.99200
H  35.11200 55.34000 24.42900
H  34.89300 54.72400 26.03500
H  33.00500 54.89500 22.55100
H  33.67200 55.43500 21.04000
H  34.70600 55.65800 22.42800
H  37.31300 49.59600 20.41500
H  36.60500 46.67600 20.67400
H  34.59600 48.22700 20.01200
H  35.84100 47.82000 18.87700
H  35.42200 49.54700 19.04300
H  39.21300 47.10700 21.83500
H  39.09200 48.12000 20.40600
H  39.76600 45.39400 20.46100
H  39.33500 46.54400 19.08600
H  38.10700 45.44200 19.64100
H  38.60500 43.51000 24.91600
H  36.93500 43.26700 24.40900
H  37.31700 43.06500 26.08900
H  37.71000 46.92000 29.71800
H  34.85600 44.34800 31.66800
H  34.20200 45.87600 32.37000
H  35.60400 45.00900 33.15600
Mg -2.35400 34.80200 26.60700
C  -3.55000 33.07900 29.26200
C  -0.91800 37.17800 28.75600
C  -1.39200 36.66000 23.95100
C  -4.31600 32.86600 24.42700
N  -2.25900 35.07300 28.73000
C  -2.73900 34.16500 29.65200
C  -2.29900 34.46600 31.10400
C  -1.47800 35.80700 30.83200
C  -1.53200 36.06700 29.31700
C  -1.85400 37.10000 31.64200
C  -1.53100 33.28300 31.76700
C  -2.05400 32.61200 33.05700
H  -1.18700 32.84000 34.33600
N  -1.30300 36.65500 26.38800
C  -0.72600 37.40200 27.38600
C  0.21200 38.28900 26.74100
C  0.19000 38.04300 25.40500
C  -0.89500 37.07500 25.17900
C  0.89800 39.44000 27.58400
C  1.05300 38.59300 24.31100
O  0.86000 38.39300 23.13200
C  2.26900 39.36800 24.59500
N  -3.05700 34.89300 24.53400
C  -2.39400 35.76400 23.68500
C  -2.86500 35.58100 22.26400
C  -3.78100 34.28000 22.39000
C  -3.78000 34.00700 23.87700
C  -3.60000 36.81700 21.63300
C  -3.00100 33.17400 21.63400
C  -1.56100 32.81800 22.09000
N  -3.60600 33.22600 26.77000
C  -4.26100 32.46300 25.75200
C  -4.81600 31.27900 26.45400
C  -4.61800 31.54500 27.83100
C  -3.85000 32.69400 27.99500
C  -5.49100 30.11700 25.80900
C  -4.89200 31.03300 29.18000
O  -5.49000 30.03600 29.61800
C  -4.20600 32.02900 30.13200
C  -5.32900 32.61300 30.93600
O  -5.95100 33.61700 30.67900
O  -5.49500 31.84900 32.08100
C  -6.64200 32.24500 32.94300
H  -0.42400 37.87200 29.44000
H  -1.02600 37.31100 23.15400
H  -4.73400 32.12100 23.74600
H  -3.14600 34.61400 31.77300
H  -0.41800 35.58100 30.94900
H  -1.07000 37.56700 32.23900
H  -2.73200 36.95300 32.27000
H  -2.23100 37.82300 30.91900
H  -0.51400 33.58200 32.02200
H  -1.40300 32.52400 30.99400
H  -2.20400 31.55000 32.86600
H  -3.07700 32.94500 33.23400
H  0.37500 39.61500 28.52400
H  0.77400 40.37200 27.03300
H  1.93700 39.28800 27.87400
H  2.66600 39.83000 23.69100
H  3.00000 38.71300 25.06900
H  1.89300 40.07200 25.33800
H  -1.94800 35.41600 21.69900
H  -4.78400 34.47100 22.00900
H  -3.24900 36.88700 20.60300
H  -3.42300 37.71400 22.22700
H  -4.68500 36.82100 21.52900
H  -3.00900 33.32800 20.55500
H  -3.57800 32.25400 21.53800
H  -1.27800 33.20900 23.06700
H  -0.83500 33.22700 21.38700
H  -1.52100 31.72900 22.10500
H  -5.05200 29.81500 24.85800
H  -6.49700 30.41300 25.51100
H  -5.53300 29.30100 26.53000
H  -3.54300 31.44900 30.77400
H  -7.41700 32.72900 32.34900
H  -6.25400 32.75600 33.82500
H  -7.04900 31.35600 33.42400

