158

Mg 35.23500 1.44300 28.80500
C  33.09900 2.34800 31.44200
C  37.73000 1.02200 31.09500
C  37.12600 0.58900 26.26500
C  32.44200 1.63600 26.66900
N  35.29000 1.57400 31.09100
C  34.36300 2.07500 31.91000
C  34.86700 2.01200 33.38400
C  36.46700 1.79200 33.10400
C  36.49200 1.38700 31.69200
C  37.35100 3.13000 33.26300
C  34.11100 0.98900 34.31900
C  33.66200 1.63000 35.62900
H  34.65500 2.48600 36.51700
N  37.14300 0.86300 28.67700
C  38.07400 0.73200 29.69100
C  39.35400 0.43000 29.15400
C  39.17600 0.26400 27.72000
C  37.77500 0.57900 27.49900
C  40.64300 0.29100 29.99100
C  40.18100 -0.20100 26.68500
O  39.87200 -0.41900 25.48000
C  41.59100 -0.35500 27.04100
N  34.73900 0.94800 26.74800
C  35.77400 0.83000 25.91100
C  35.27300 0.81900 24.41300
C  33.74900 1.12900 24.57400
C  33.63500 1.19100 26.10200
C  36.02300 1.84300 23.44100
C  32.79600 0.05900 23.94100
C  31.94600 0.49600 22.74500
N  33.26200 2.01700 28.92900
C  32.27300 1.98400 28.02400
C  30.91700 2.28200 28.61300
C  31.25600 2.36600 29.96500
C  32.63200 2.24500 30.12600
C  29.70600 2.35200 27.84400
C  30.72800 2.64900 31.23200
O  29.61500 2.86900 31.52700
C  31.88400 2.72500 32.22400
C  31.92000 4.02400 32.97100
O  32.58500 4.96600 32.67000
O  31.04800 3.98900 34.09900
C  31.15200 5.12300 35.03100
H  38.52800 0.75000 31.78900
H  37.76700 0.41600 25.39700
H  31.51900 1.73500 26.09400
H  34.76500 3.02400 33.77600
H  36.76500 0.94000 33.71600
H  37.82800 3.44700 32.33600
H  38.16100 2.96400 33.97400
H  36.64500 3.89700 33.58300
H  34.77500 0.16300 34.57100
H  33.31000 0.64900 33.66200
H  33.30400 0.78400 36.21600
H  32.82700 2.28700 35.38800
H  41.45800 0.89500 29.59400
H  40.99600 -0.73400 30.10400
H  40.42500 0.56600 31.02300
H  41.52400 -0.99100 27.92300
H  42.00900 0.60400 27.34700
H  42.23200 -0.79200 26.27600
H  35.44100 -0.22700 24.15800
H  33.64700 2.12700 24.14800
H  35.40900 2.14400 22.59200
H  36.99500 1.52500 23.06400
H  36.24800 2.76900 23.97000
H  32.11100 -0.25500 24.72900
H  33.32400 -0.82800 23.59000
H  30.87100 0.58300 22.90500
H  32.07500 -0.14500 21.87200
H  32.35000 1.43500 22.36700
H  28.77600 2.13800 28.37100
H  29.66400 1.76000 26.93000
H  29.61200 3.32900 27.36900
H  31.59500 1.97300 32.95800
H  32.00200 4.96300 35.69400
H  30.24800 5.25300 35.62700
H  31.39700 5.97300 34.39400
Mg 53.64700 24.24900 44.18400
C  50.89400 26.53900 43.87700
C  51.53600 21.79900 43.12300
C  56.33800 22.28200 43.90400
C  55.63700 26.98600 45.03400
N  51.54500 24.24800 43.29800
C  50.58600 25.26200 43.42900
C  49.19000 24.72700 43.17600
C  49.36400 23.18900 43.42100
C  50.91800 23.04900 43.32900
C  48.68100 22.77200 44.76500
C  48.64500 25.23500 41.82700
C  48.56500 24.28200 40.59900
H  48.60700 24.84200 39.18800
N  53.91200 22.25300 43.61500
C  52.91800 21.43700 43.20500
C  53.50700 20.10200 43.01000
C  54.94000 20.22300 43.03800
C  55.13400 21.65000 43.51800
C  52.75300 18.91300 42.70900
C  55.98700 19.13600 42.81600
O  55.61900 17.97900 42.40900
C  57.38800 19.47800 42.87200
N  55.70600 24.66200 44.28300
C  56.66200 23.62600 44.21500
C  58.02200 24.12600 44.65700
C  57.74800 25.63100 45.01100
C  56.31000 25.79600 44.72500
C  58.84800 23.30400 45.66400
C  58.57000 26.67900 44.22100
C  59.53400 27.46800 45.12800
N  53.36800 26.27100 44.53700
C  54.28900 27.24100 44.89900
C  53.61200 28.46100 45.17200
C  52.26400 28.16300 44.90800
C  52.17500 26.86100 44.34000
C  54.16700 29.77600 45.72700
C  50.97100 28.73100 44.75300
O  50.59400 29.88500 45.03400
C  50.02800 27.73500 44.05500
C  49.49200 28.34600 42.75100
O  50.17700 28.58800 41.73700
O  48.17600 28.46900 42.92500
C  47.45400 28.98000 41.70600
H  50.92400 20.92700 42.88400
H  57.18300 21.61500 44.09200
H  56.28500 27.74700 45.47300
H  48.60700 25.16900 43.98300
H  48.97600 22.52000 42.65300
H  47.95700 23.50800 45.11300
H  49.53100 22.61700 45.43000
H  48.08300 21.87900 44.58600
H  49.39200 25.94000 41.46000
H  47.83400 25.94700 41.98100
H  47.70100 23.65100 40.80400
H  49.35900 23.53500 40.58200
H  53.04100 18.64300 41.69300
H  51.68600 19.12800 42.77600
H  53.09300 18.12100 43.37500
H  57.60500 20.46000 42.45200
H  57.88600 18.68800 42.31000
H  57.75200 19.38800 43.89500
H  58.55700 24.17500 43.70900
H  57.89600 25.65400 46.09100
H  59.91400 23.17200 45.47400
H  58.58500 22.25700 45.81400
H  58.81100 23.84400 46.61000
H  57.90700 27.40600 43.75100
H  59.15100 26.17700 43.44700
H  59.34400 27.14900 46.15300
H  59.33800 28.53900 45.07500
H  60.55100 27.22500 44.82100
H  53.40100 30.51700 45.50100
H  55.12800 29.87100 45.22000
H  54.26100 29.70200 46.81000
H  49.19200 27.66000 44.75100
H  47.72400 30.01200 41.47700
H  46.39800 28.71900 41.78200
H  47.70800 28.51000 40.75600

