158

Mg 8.99600 2.59600 27.31400
C  10.29800 1.01800 30.28300
C  7.16100 4.67600 29.31300
C  7.23400 3.43500 24.70200
C  10.40500 -0.16800 25.58700
N  8.70800 2.72500 29.49200
C  9.44400 2.12500 30.50800
C  9.13800 2.88300 31.83300
C  7.99100 3.89100 31.52500
C  7.88700 3.68600 30.01000
C  6.63500 3.78200 32.26600
C  10.50900 3.62200 32.32500
C  10.50500 4.54900 33.52700
H  10.93300 4.03000 34.96500
N  7.51600 4.02200 27.00600
C  6.91600 4.80300 27.93400
C  6.01500 5.71600 27.26200
C  5.95400 5.30300 25.92400
C  6.98100 4.22700 25.84200
C  5.19700 6.72300 28.02900
C  5.01700 5.79900 24.83800
O  5.17100 5.37400 23.73000
C  4.03900 6.94200 25.08600
N  9.00800 1.87600 25.36600
C  8.05100 2.39300 24.48700
C  8.33200 1.76300 23.16400
C  9.26200 0.56200 23.43100
C  9.56900 0.68000 24.88500
C  7.08800 1.23100 22.32800
C  10.54800 0.56700 22.53400
C  10.55100 -0.66300 21.58700
N  10.15900 0.74400 27.76000
C  10.67000 -0.27400 26.96200
C  11.42400 -1.12900 27.74400
C  11.40300 -0.65200 29.02900
C  10.52000 0.46300 28.97400
C  12.09500 -2.34900 27.16900
C  11.86100 -0.83200 30.39900
O  12.65900 -1.63300 30.86800
C  11.26100 0.31200 31.29800
C  10.60900 -0.47000 32.36300
O  9.56900 -1.14000 32.21200
O  11.27000 -0.20400 33.53900
C  10.77700 -0.88300 34.73100
H  6.69200 5.46500 29.90400
H  6.62200 3.62600 23.81700
H  10.73000 -0.99300 24.95000
H  8.76800 2.07400 32.46200
H  8.37700 4.89300 31.71300
H  6.90600 3.20500 33.15000
H  5.81500 3.31300 31.72300
H  6.29700 4.71800 32.71200
H  10.85600 4.20000 31.46900
H  11.20200 2.79800 32.49500
H  9.44500 4.78800 33.61500
H  11.17400 5.38200 33.31100
H  5.58400 7.01800 29.00400
H  4.27100 6.21800 28.30700
H  4.93300 7.62100 27.47000
H  3.45400 7.15500 24.19100
H  4.52300 7.87500 25.37400
H  3.38500 6.67300 25.91600
H  8.80700 2.55100 22.57900
H  8.87200 -0.42200 23.16900
H  6.33500 1.64100 23.00200
H  7.03100 0.14400 22.27800
H  6.94100 1.71200 21.36200
H  11.42800 0.49300 23.17300
H  10.61300 1.48200 21.94500
H  9.57600 -1.06900 21.32000
H  11.07700 -1.46000 22.11300
H  11.26300 -0.38300 20.81100
H  12.68200 -2.19000 26.26400
H  11.29300 -3.05200 26.94400
H  12.85300 -2.73500 27.85100
H  12.03000 0.95800 31.72200
H  10.27300 -1.84700 34.65600
H  10.25900 -0.11300 35.30200
H  11.64600 -1.08100 35.35900
Mg 42.20700 41.19100 26.33700
C  41.60000 43.73300 28.76900
C  43.15500 39.08300 28.62200
C  43.20100 39.11200 23.86500
C  42.06000 43.84600 23.83500
N  42.59300 41.54200 28.42400
C  42.04500 42.49700 29.29000
C  42.05700 42.07200 30.79600
C  42.86200 40.67000 30.63900
C  42.88300 40.40200 29.12900
C  44.26500 40.65200 31.26900
C  40.47500 41.82200 31.21200
C  39.93500 42.67400 32.36700
H  39.32100 42.01500 33.61300
N  42.95400 39.32500 26.27800
C  43.26000 38.55400 27.33600
C  43.73300 37.23400 26.92800
C  43.89000 37.31300 25.51400
C  43.38600 38.60300 25.14100
C  44.14200 36.18800 27.88900
C  44.36900 36.25300 24.53600
O  44.69000 36.38100 23.34900
C  44.66100 34.86400 24.98600
N  42.60000 41.47600 24.08000
C  42.92700 40.39300 23.29800
C  42.84000 40.77100 21.85800
C  42.45600 42.34600 21.87400
C  42.29700 42.55400 23.35000
C  44.16800 40.36200 21.04400
C  41.22500 42.66100 20.99700
C  39.87800 42.64900 21.69400
N  41.80100 43.35000 26.23100
C  41.80300 44.23500 25.14400
C  41.39300 45.50200 25.67400
C  41.25100 45.32800 27.09100
C  41.48800 43.99800 27.36300
C  41.21600 46.79800 24.82800
C  41.02300 46.03100 28.35900
O  40.66500 47.21700 28.56200
C  41.04500 44.96700 29.51200
C  42.04300 45.42400 30.49200
O  43.21900 45.74700 30.34800
O  41.48900 45.71800 31.69700
C  42.12700 46.38500 32.84800
H  43.28000 38.29800 29.37100
H  43.44000 38.38000 23.09000
H  41.93000 44.61700 23.07200
H  42.58400 42.80200 31.40900
H  42.37200 39.85200 31.16700
H  44.98000 40.29700 30.52700
H  44.27100 40.17200 32.24800
H  44.45700 41.71100 31.44000
H  40.50500 40.77700 31.52200
H  39.87300 41.89900 30.30600
H  39.18100 43.33300 31.93600
H  40.72500 43.33500 32.72500
H  43.63200 35.26700 27.60600
H  43.98000 36.42400 28.94000
H  45.20900 36.13600 27.67000
H  45.57200 34.89100 25.58500
H  45.00400 34.22800 24.17000
H  43.87700 34.25000 25.42800
H  41.98500 40.19100 21.50900
H  43.29600 42.93100 21.50000
H  44.46200 41.15300 20.35400
H  44.02700 39.41100 20.53000
H  44.96700 40.22800 21.77400
H  41.10100 41.98300 20.15300
H  41.35400 43.68100 20.63400
H  39.89300 42.24400 22.70600
H  39.24200 42.04000 21.05100
H  39.47300 43.66000 21.64400
H  42.21200 47.21700 24.68300
H  40.57100 47.43800 25.43000
H  40.76300 46.66700 23.84600
H  40.08800 44.79000 30.00400
H  43.21600 46.44100 32.82200
H  41.71800 45.85400 33.70800
H  41.69700 47.37600 32.70800

