158

Mg 23.65200 -5.08200 44.78900
C  25.89400 -2.68300 43.50600
C  21.29200 -3.72500 42.72600
C  21.77500 -7.81700 45.36600
C  26.32200 -6.53300 46.56000
N  23.68400 -3.47900 43.21400
C  24.61500 -2.53700 43.00600
C  24.17300 -1.43400 42.07900
C  22.58100 -1.66000 41.99800
C  22.50900 -3.05800 42.61900
C  21.74100 -0.71400 42.86700
C  24.99900 -1.38800 40.78900
C  24.89400 0.01200 40.10000
H  24.17800 0.03900 38.72800
N  21.78100 -5.70000 44.11600
C  20.96300 -4.94300 43.30700
C  19.73800 -5.62900 43.15700
C  19.77300 -6.87700 43.87400
C  21.15000 -6.86900 44.50400
C  18.55000 -4.98500 42.39300
C  18.71000 -7.96400 44.02000
O  17.54800 -7.67500 43.64700
C  18.94000 -9.40600 44.53900
N  24.05000 -7.00600 45.74000
C  23.05600 -7.97600 45.88900
C  23.50400 -9.06000 46.85400
C  24.94700 -8.62100 47.33600
C  25.12800 -7.33300 46.52700
C  22.63700 -9.39100 48.00700
C  26.11200 -9.69300 47.04100
C  26.13300 -10.83400 47.99600
N  25.67400 -4.70300 45.10600
C  26.64400 -5.34400 45.88800
C  27.89800 -4.69900 45.73000
C  27.68300 -3.65600 44.83700
C  26.36900 -3.71600 44.37900
C  29.14500 -4.94500 46.47400
C  28.25600 -2.52200 44.18100
O  29.42600 -2.10400 44.18000
C  27.18100 -1.84100 43.22700
C  26.94600 -0.44100 43.53500
O  26.47700 -0.09900 44.61100
O  27.28700 0.38800 42.52800
C  27.05600 1.83800 42.78300
H  20.44400 -3.26900 42.21100
H  21.06900 -8.52900 45.79900
H  27.13200 -6.96100 47.15500
H  24.27500 -0.47100 42.58000
H  22.22100 -1.49700 40.98300
H  20.67200 -0.87900 42.72700
H  21.86900 0.32200 42.55200
H  21.98400 -0.82800 43.92300
H  24.57800 -2.10200 40.08100
H  26.02300 -1.74200 40.90700
H  25.92700 0.27500 39.87100
H  24.42100 0.73700 40.76100
H  17.61600 -5.29600 42.86000
H  18.47600 -5.27200 41.34400
H  18.46800 -3.89800 42.39400
H  17.99900 -9.90700 44.31300
H  19.20400 -9.58300 45.58200
H  19.81000 -9.80700 44.02000
H  23.46600 -10.00300 46.30900
H  24.91300 -8.40000 48.40300
H  22.45800 -8.57600 48.70800
H  23.11900 -10.18300 48.58000
H  21.62600 -9.58200 47.64400
H  27.02500 -9.11400 46.89700
H  25.85100 -10.17400 46.09900
H  26.12400 -11.74400 47.39600
H  25.25800 -10.82900 48.64500
H  26.99800 -10.75400 48.65500
H  29.46300 -5.98700 46.44300
H  28.84200 -4.74300 47.50100
H  29.85900 -4.15800 46.23100
H  27.60700 -1.90100 42.22500
H  27.83600 2.24600 43.42500
H  26.01400 1.99200 43.06500
H  27.10500 2.33300 41.81300
Mg 54.56500 25.26900 44.24000
C  51.80200 27.45800 43.95900
C  52.53400 22.71400 43.28600
C  57.26600 23.29800 43.67300
C  56.57200 27.97700 44.71900
N  52.49400 25.19300 43.56400
C  51.51500 26.08600 43.57600
C  50.15900 25.45600 43.21800
C  50.39000 23.96400 43.36400
C  51.92700 23.97700 43.47200
C  49.68100 23.28700 44.61400
C  49.53000 25.83200 41.84400
C  50.43900 26.60300 40.82200
H  50.64100 25.98300 39.48400
N  54.89900 23.23200 43.66600
C  53.84500 22.30500 43.36500
C  54.43100 21.03800 43.04900
C  55.84800 21.16000 43.09300
C  56.08900 22.58200 43.46000
C  53.61200 19.81200 42.74000
C  56.84800 20.01100 42.91700
O  56.45000 18.90400 42.58300
C  58.36100 20.27500 43.04400
N  56.62200 25.65500 43.91200
C  57.52400 24.66000 43.90400
C  58.92200 25.12500 44.12100
C  58.76700 26.65100 44.25300
C  57.15300 26.76500 44.35500
C  59.59400 24.47700 45.37700
C  59.32700 27.46700 43.10500
C  59.71700 28.94900 43.53500
N  54.28500 27.33800 44.29800
C  55.17200 28.31200 44.67400
C  54.50600 29.56900 44.88400
C  53.15300 29.30700 44.64600
C  53.10900 27.93900 44.31100
C  55.03600 30.92500 45.31500
C  51.79300 29.78800 44.67300
O  51.42000 30.84900 45.09000
C  50.85100 28.69400 44.05200
C  50.29100 29.26300 42.79200
O  50.90800 29.67800 41.81600
O  48.86000 29.17800 42.91200
C  48.24000 29.80600 41.69100
H  51.81100 22.05500 42.79900
H  58.18900 22.71700 43.62800
H  57.10300 28.88900 44.99900
H  49.42800 25.81300 43.94200
H  50.03800 23.41300 42.49200
H  50.40200 23.00900 45.38300
H  49.27300 22.29100 44.43800
H  48.89600 23.93000 45.01200
H  48.64300 26.44600 42.00300
H  49.10200 24.99800 41.28800
H  51.41900 26.89900 41.19600
H  49.86700 27.51500 40.65000
H  52.57700 19.95900 42.43400
H  53.72300 19.16100 43.60700
H  54.04000 19.35500 41.84800
H  58.83900 19.36700 42.67600
H  58.61400 20.40900 44.09600
H  58.77300 21.04000 42.38500
H  59.36500 24.74100 43.20200
H  58.98700 26.99200 45.26500
H  60.06000 25.14800 46.09900
H  60.48100 23.91900 45.07700
H  58.96900 23.68300 45.78500
H  58.57200 27.48500 42.31900
H  60.27000 27.07900 42.71800
H  58.94600 29.57000 43.07900
H  60.71500 29.24500 43.21000
H  59.61200 28.96900 44.61900
H  54.99700 30.83200 46.40000
H  54.44100 31.80100 45.05500
H  56.05700 31.11800 44.98400
H  49.98500 28.62500 44.71100
H  48.15600 29.14100 40.83000
H  48.68900 30.72500 41.31400
H  47.31400 30.19900 42.10900

