158

Mg 47.47600 24.18300 27.76400
C  47.91400 26.48700 30.50100
C  46.72500 21.84800 30.12000
C  47.41600 21.93200 25.34800
C  48.59300 26.64000 25.58700
N  47.44200 24.20200 30.09400
C  47.42300 25.24800 30.95200
C  47.09300 24.86100 32.39700
C  46.74300 23.27600 32.25800
C  46.95200 23.10000 30.72700
C  47.42100 22.28500 33.30500
C  46.00600 25.73200 33.07300
C  46.33900 26.06700 34.58600
H  45.16000 26.11800 35.52200
N  47.05700 22.18100 27.66300
C  46.78200 21.40900 28.77600
C  46.45000 20.08900 28.33600
C  46.59400 20.04800 26.92400
C  47.03600 21.38500 26.55300
C  46.03900 18.88000 29.29000
C  46.41300 18.86300 25.93100
O  46.50600 18.94800 24.72500
C  46.08000 17.45700 26.43600
N  47.95600 24.27000 25.80200
C  47.79900 23.25300 24.97400
C  48.36000 23.58100 23.53200
C  48.51800 25.12900 23.62300
C  48.33800 25.37900 25.06900
C  49.67300 22.86900 23.07700
C  47.41500 25.85300 22.78600
C  46.06600 26.01200 23.46600
N  48.33300 26.07100 27.94700
C  48.60300 27.00100 26.94700
C  49.05200 28.21000 27.57200
C  48.81100 28.09600 28.97400
C  48.33700 26.75000 29.14000
C  49.61100 29.44900 26.97000
C  48.79800 28.76700 30.31900
O  49.19700 29.90900 30.66800
C  48.18500 27.76400 31.33600
C  49.03200 27.47400 32.53000
O  49.94500 26.73700 32.56700
O  48.66200 28.19100 33.60900
C  49.46400 28.25700 34.82100
H  46.29200 21.13500 30.82400
H  47.39500 21.18100 24.55500
H  48.85900 27.43400 24.88700
H  48.02600 24.85100 32.96000
H  45.67500 23.06400 32.31500
H  46.52700 21.76200 33.64700
H  48.09500 22.58000 34.10900
H  47.90800 21.55200 32.66300
H  45.04400 25.22300 33.12300
H  45.71300 26.64600 32.55800
H  46.81500 27.03400 34.75000
H  47.02000 25.28700 34.92800
H  46.60900 18.00300 28.98400
H  44.96200 18.72100 29.22800
H  46.34500 19.11600 30.30900
H  45.93200 16.72900 25.63800
H  45.15800 17.56700 27.00700
H  47.00000 17.21000 26.96600
H  47.61400 23.26700 22.80100
H  49.47500 25.48400 23.24300
H  49.58500 22.08700 22.32300
H  50.05200 22.36300 23.96500
H  50.38800 23.61800 22.73900
H  47.34200 25.15200 21.95500
H  47.87500 26.82800 22.61900
H  45.99300 25.23300 24.22500
H  45.34600 25.69000 22.71400
H  45.82100 27.00400 23.84400
H  48.93000 30.28800 27.11600
H  49.93500 29.41600 25.93000
H  50.47200 29.76400 27.56100
H  47.22500 28.11300 31.71800
H  50.39000 27.69000 34.72000
H  48.93700 27.63600 35.54500
H  49.68100 29.24200 35.23500
Mg 15.92500 51.21800 25.60700
C  17.57600 50.12500 28.52800
C  13.33400 52.43400 27.53500
C  14.37100 51.89300 22.84100
C  18.63000 49.72700 23.67600
N  15.58600 51.33700 27.83000
C  16.38400 50.83400 28.80200
C  15.80200 51.20700 30.18700
C  14.35400 51.79300 29.82700
C  14.36700 51.81600 28.27600
C  13.24000 50.80500 30.33000
C  16.69600 52.18700 30.92800
C  16.86200 52.05600 32.50800
H  15.98900 51.17900 33.43400
N  14.14500 52.13200 25.26100
C  13.21400 52.63400 26.13400
C  12.13200 53.23800 25.43400
C  12.53500 53.25000 24.03400
C  13.72000 52.35700 24.00700
C  10.93000 53.83200 26.13900
C  11.91000 53.90300 22.85900
O  12.43600 53.77400 21.74200
C  10.85400 54.73800 23.07400
N  16.46800 50.85300 23.56400
C  15.52000 51.11700 22.66400
C  15.93900 50.74900 21.26000
C  17.34400 50.14300 21.45800
C  17.53700 50.28600 22.99200
C  14.89400 49.83900 20.47200
C  18.58300 50.61200 20.64100
C  19.40800 49.50400 19.95200
N  17.67400 50.05500 25.95900
C  18.69500 49.52300 25.06500
C  19.79600 49.05700 25.89100
C  19.38500 49.24500 27.25300
C  18.11200 49.88100 27.25900
C  21.07400 48.42200 25.39500
C  19.74700 48.97100 28.59300
O  20.74100 48.41000 29.05200
C  18.63600 49.60900 29.53100
C  18.13600 48.44300 30.35300
O  17.31400 47.58000 30.05100
O  18.88100 48.42600 31.50800
C  18.52800 47.22800 32.33800
H  12.59400 52.88000 28.20200
H  13.89900 51.98100 21.86000
H  19.48200 49.25300 23.18300
H  15.79200 50.29200 30.77900
H  14.23100 52.80100 30.22300
H  13.54800 50.15100 31.14600
H  12.85000 50.21200 29.50300
H  12.35700 51.37600 30.61900
H  16.43400 53.23300 30.76800
H  17.71700 52.04800 30.57300
H  16.93500 53.06500 32.91300
H  17.90300 51.73900 32.57300
H  10.65200 53.27000 27.03000
H  10.05100 53.85300 25.49500
H  11.21900 54.83300 26.46000
H  10.00500 54.07900 23.25500
H  10.49000 55.31200 22.22200
H  11.14200 55.34300 23.93400
H  16.01400 51.68300 20.70400
H  17.35700 49.05400 21.48000
H  14.90600 48.75000 20.53100
H  14.95300 50.12200 19.42100
H  13.84800 50.01400 20.72500
H  19.28600 51.16500 21.26400
H  18.18300 51.28500 19.88200
H  20.30000 49.41100 20.57000
H  19.61800 49.90000 18.95800
H  18.92600 48.52700 19.91400
H  21.00600 47.33700 25.32300
H  21.82600 48.39900 26.18300
H  21.59200 48.75600 24.49700
H  19.16700 50.38800 30.07900
H  17.49300 47.17500 32.67600
H  19.27600 47.31500 33.12600
H  18.78400 46.30100 31.82500

