158

Mg 47.26900 25.21100 28.60900
C  48.34200 27.23600 31.07800
C  46.39100 22.83900 31.04500
C  46.42500 23.07900 26.14800
C  48.34600 27.49600 26.25000
N  47.30300 25.07400 30.74600
C  47.68800 26.08300 31.63200
C  47.38100 25.82600 33.08600
C  46.85500 24.36100 33.06900
C  46.88200 24.00500 31.56800
C  47.65700 23.28900 33.87600
C  46.36200 26.83200 33.67100
C  46.72000 27.61500 34.97800
H  45.95100 27.46300 36.26800
N  46.58300 23.24100 28.54400
C  46.31300 22.42100 29.66600
C  45.95100 21.11900 29.24800
C  45.82000 21.17000 27.77900
C  46.30900 22.53300 27.45300
C  45.64900 19.96300 30.15300
C  45.31200 20.07400 26.77900
O  45.40100 20.16500 25.54300
C  44.69000 18.79800 27.27300
N  47.39000 25.21300 26.45000
C  47.00900 24.24200 25.68900
C  47.05700 24.68400 24.22700
C  47.88500 25.96700 24.27800
C  47.84000 26.30800 25.72300
C  47.73000 23.65200 23.25900
C  47.29100 27.08200 23.33300
C  48.34000 27.69100 22.41200
N  48.09900 27.03400 28.61000
C  48.54100 27.88000 27.60000
C  49.20800 29.03100 28.17400
C  49.15700 28.90400 29.58100
C  48.51200 27.64800 29.77600
C  49.90400 30.03500 27.29200
C  49.41900 29.47100 30.87700
O  50.05700 30.48700 31.16500
C  48.99200 28.35000 31.90600
C  50.05300 27.98400 32.87600
O  50.76300 26.96500 32.79300
O  50.02800 28.94100 33.89600
C  50.92500 28.61600 34.99800
H  46.15400 22.12200 31.83300
H  46.16500 22.54200 25.23300
H  48.67100 28.23100 25.51100
H  48.34300 25.91900 33.58900
H  45.82900 24.28800 33.43000
H  47.97200 22.42200 33.29500
H  47.21500 22.88800 34.78800
H  48.63600 23.74100 34.03100
H  45.43400 26.28600 33.83900
H  46.04300 27.54900 32.91400
H  46.64700 28.67600 34.73800
H  47.74300 27.28000 35.15100
H  44.57400 19.78100 30.15700
H  46.07000 20.08700 31.15000
H  46.16900 19.13400 29.67200
H  44.18600 18.92900 28.23100
H  45.59400 18.20000 27.39000
H  44.11900 18.20100 26.56100
H  46.03800 24.82500 23.86900
H  48.93700 25.84100 24.02100
H  48.31200 22.92100 23.82100
H  48.34700 24.24600 22.58600
H  47.05400 23.29600 22.48200
H  46.73900 27.82700 23.90700
H  46.62800 26.64400 22.58800
H  48.46500 27.38900 21.37200
H  49.33700 27.36600 22.70900
H  48.26000 28.75900 22.61500
H  49.62900 29.88900 26.24800
H  50.98900 29.92600 27.28100
H  49.65900 31.05300 27.59700
H  48.14400 28.76400 32.45200
H  50.96800 27.55900 35.25700
H  50.75500 29.21600 35.89200
H  51.93200 28.89300 34.68600
Mg -10.63400 39.24900 41.07300
C  -9.16700 36.23100 39.80600
C  -8.15900 40.88300 39.39400
C  -12.61400 41.93300 41.06000
C  -13.21400 37.21300 42.19600
N  -8.98400 38.62300 39.77900
C  -8.56600 37.36800 39.31300
C  -7.47200 37.42500 38.30700
C  -6.97200 38.84700 38.43100
C  -8.07300 39.48000 39.27800
C  -5.67800 39.04500 39.25100
C  -7.92500 36.91800 36.82100
C  -7.06000 35.91500 35.94900
H  -6.66400 36.37100 34.54000
N  -10.35900 41.20500 40.55600
C  -9.27100 41.71000 39.91000
C  -9.35500 43.13600 39.78200
C  -10.68800 43.49700 40.07900
C  -11.27100 42.20600 40.64000
C  -8.27500 44.00500 39.24700
C  -11.29000 44.91300 39.94000
O  -10.55500 45.88500 39.64800
C  -12.67100 45.16900 40.47200
N  -12.66400 39.54100 41.57500
C  -13.25400 40.79500 41.53500
C  -14.67300 40.76200 42.02100
C  -14.83400 39.26500 42.48000
C  -13.49200 38.57500 41.94800
C  -15.09400 41.73000 43.14300
C  -16.01500 38.33500 42.01000
C  -16.76000 37.52700 43.00100
N  -10.99600 37.13400 41.28300
C  -12.12400 36.49200 41.78700
C  -11.86500 35.03300 41.77100
C  -10.76100 34.89900 40.94000
C  -10.31400 36.26500 40.58600
C  -12.76700 33.89700 42.30700
C  -9.90000 33.93100 40.30700
O  -9.95700 32.68100 40.35400
C  -8.82500 34.77400 39.44800
C  -7.42300 34.32400 39.88600
O  -6.54700 34.02400 39.07600
O  -7.31800 34.18200 41.28100
C  -6.10400 33.46800 41.75800
H  -7.27900 41.28200 38.88500
H  -13.15500 42.88100 41.03700
H  -14.06600 36.60300 42.50100
H  -6.66200 36.77200 38.63200
H  -6.90400 39.38400 37.48400
H  -5.51000 38.13700 39.82900
H  -5.69700 39.88200 39.94900
H  -4.78400 39.18300 38.64300
H  -7.93800 37.82300 36.21300
H  -8.94600 36.55300 36.93700
H  -7.57300 34.97800 35.73300
H  -6.15700 35.69400 36.51900
H  -8.79300 44.78100 38.68400
H  -7.68700 43.42300 38.53700
H  -7.67600 44.57500 39.95700
H  -13.53200 44.73900 39.96100
H  -12.88000 46.23900 40.45600
H  -12.63300 44.87600 41.52100
H  -15.33400 40.89600 41.16500
H  -14.66800 39.13300 43.54900
H  -15.52100 42.60300 42.64900
H  -14.18900 42.05200 43.65800
H  -15.80100 41.34100 43.87600
H  -15.67800 37.76900 41.14200
H  -16.65100 39.07600 41.52600
H  -16.36700 36.51300 42.93100
H  -17.82800 37.49500 42.78300
H  -16.66800 37.89100 44.02400
H  -12.91900 34.07800 43.37100
H  -12.16700 32.98700 42.29100
H  -13.65900 33.68400 41.71800
H  -8.88300 34.70600 38.36200
H  -6.17600 33.16000 42.80100
H  -5.16500 34.00400 41.61900
H  -6.09800 32.60300 41.09500

