158

Mg -2.12300 16.97400 26.25700
C  -2.32200 14.72600 28.95700
C  -2.14200 19.51500 28.47300
C  -2.65000 19.02300 23.59200
C  -2.56500 14.20000 24.01800
N  -2.61900 17.06300 28.52900
C  -2.55800 16.04200 29.41900
C  -2.83000 16.58100 30.83000
C  -2.73400 18.11600 30.50200
C  -2.41100 18.27400 29.05300
C  -4.02100 18.89100 30.93500
C  -2.00700 16.01300 32.02100
C  -1.80600 17.02400 33.19500
H  -1.45800 16.48800 34.59700
N  -2.32400 18.97800 26.07600
C  -2.22500 19.91900 27.11100
C  -2.15300 21.25100 26.47400
C  -2.25600 21.09100 25.07400
C  -2.45600 19.63000 24.85300
C  -1.93900 22.42100 27.26500
C  -2.07200 22.11500 24.01500
O  -2.26100 21.84100 22.80000
C  -1.44900 23.36600 24.33300
N  -2.71900 16.65400 24.11000
C  -2.82600 17.70200 23.24000
C  -3.34000 17.18300 21.85500
C  -2.88200 15.66700 21.91600
C  -2.69400 15.47200 23.42200
C  -4.82800 17.38500 21.79400
C  -1.67600 15.18400 20.99700
C  -0.35200 15.20500 21.77000
N  -2.28300 14.86300 26.40500
C  -2.52400 13.92200 25.40000
C  -2.49100 12.56600 26.03400
C  -2.36900 12.91200 27.46700
C  -2.34300 14.28500 27.64100
C  -2.54400 11.25500 25.33400
C  -2.31300 12.33800 28.79000
O  -2.37300 11.16300 29.16700
C  -2.26500 13.51000 29.80000
C  -1.00900 13.41300 30.58900
O  0.10400 13.80500 30.26900
O  -1.19300 12.66600 31.73000
C  -0.12000 12.62100 32.71200
H  -2.12000 20.34400 29.18500
H  -3.00500 19.69500 22.80800
H  -2.67100 13.36400 23.32400
H  -3.87100 16.37000 31.07200
H  -1.85600 18.48100 31.03500
H  -4.71300 18.21200 31.43300
H  -4.56500 19.42200 30.15400
H  -3.80600 19.70300 31.63000
H  -0.97200 15.82700 31.73300
H  -2.41200 15.07900 32.41000
H  -2.64600 17.69500 33.37300
H  -0.96300 17.66600 32.93900
H  -2.48300 23.28100 26.87500
H  -0.86100 22.53600 27.14900
H  -2.04000 22.33200 28.34700
H  -0.53100 23.19300 24.89500
H  -2.11900 24.05500 24.84800
H  -1.33400 23.78200 23.33200
H  -2.85800 17.74200 21.05200
H  -3.74200 15.07000 21.61500
H  -5.25800 17.34600 22.79500
H  -5.38300 16.66300 21.19500
H  -5.03100 18.34200 21.31400
H  -1.61300 15.86800 20.15100
H  -2.00700 14.16500 20.79700
H  0.44400 14.91600 21.08400
H  -0.37000 14.44600 22.55200
H  -0.15500 16.22300 22.10400
H  -3.57300 10.90200 25.40800
H  -1.94700 10.48700 25.82600
H  -2.23900 11.37900 24.29500
H  -3.08400 13.52600 30.51900
H  0.77700 13.21400 32.53800
H  0.26600 11.60200 32.72500
H  -0.44400 13.02800 33.67000
Mg 25.23400 -0.42000 29.15700
C  27.30400 -0.40700 32.17100
C  22.53700 -0.33700 31.05800
C  23.70100 -0.72800 26.28400
C  28.48900 -1.10200 27.53200
N  25.00100 -0.36100 31.34700
C  25.90100 -0.26200 32.36800
C  25.19000 -0.05300 33.74600
C  23.69200 -0.39300 33.36500
C  23.73100 -0.41700 31.82800
C  22.88300 -1.54200 34.16500
C  25.49400 1.29200 34.47100
C  26.22300 1.24000 35.84300
H  25.86000 2.22100 36.95800
N  23.37800 -0.31700 28.67700
C  22.35000 -0.38900 29.62500
C  21.09100 -0.37500 28.84100
C  21.38800 -0.34300 27.40900
C  22.86700 -0.42100 27.39100
C  19.73900 -0.28100 29.58100
C  20.37100 -0.20800 26.17500
O  20.78200 -0.20900 25.05800
C  18.87700 -0.25700 26.47700
N  26.03500 -0.87800 27.20200
C  25.10200 -0.87400 26.14400
C  25.76300 -0.84100 24.78400
C  27.27900 -0.94600 25.21200
C  27.31500 -0.94100 26.73600
C  25.29500 -1.92500 23.77900
C  27.97200 0.36300 24.70700
C  27.73700 1.74400 25.47000
N  27.43300 -0.68000 29.72400
C  28.56300 -0.89500 28.92900
C  29.77500 -0.90800 29.76900
C  29.27400 -0.74400 31.01500
C  27.95100 -0.55300 30.94300
C  31.16800 -1.03400 29.26200
C  29.70800 -0.66100 32.44800
O  30.80200 -0.95000 32.95200
C  28.35200 -0.44000 33.26500
C  28.15600 -1.66100 34.16900
O  27.89300 -2.79100 33.80200
O  28.35800 -1.22200 35.47100
C  28.40500 -2.18400 36.57400
H  21.63100 -0.36300 31.66700
H  23.03400 -0.85700 25.42900
H  29.36800 -1.36000 26.93800
H  25.55100 -0.86000 34.38400
H  23.19100 0.56100 33.52900
H  22.27300 -2.19500 33.54000
H  22.11700 -1.08400 34.79000
H  23.61700 -2.05100 34.79000
H  24.50100 1.73100 34.56700
H  26.13500 1.90000 33.83300
H  27.20700 1.57700 35.51700
H  26.26800 0.24600 36.28700
H  19.36100 0.73300 29.45300
H  19.88300 -0.48800 30.64200
H  19.10700 -1.08100 29.19600
H  18.65400 -1.24500 26.88100
H  18.46200 -0.07200 25.48600
H  18.56300 0.57000 27.11400
H  25.48600 0.13100 24.37600
H  27.78400 -1.81800 24.79800
H  25.94000 -2.74500 23.46400
H  24.98400 -1.49000 22.82900
H  24.41500 -2.45500 24.14400
H  27.62900 0.55900 23.69100
H  29.05300 0.22900 24.66800
H  27.56400 1.53900 26.52600
H  26.93900 2.31000 24.98800
H  28.68100 2.27400 25.59700
H  31.19100 -2.02900 28.81700
H  31.83700 -0.82800 30.09700
H  31.44700 -0.29500 28.51100
H  28.41200 0.52700 33.76500
H  29.27800 -1.89400 37.15900
H  28.47000 -3.18500 36.14700
H  27.51800 -2.09700 37.20100

