158

Mg 1.64000 -2.18900 43.04100
C  5.00300 -2.47200 42.40500
C  1.62100 0.82900 41.25500
C  -1.67000 -2.48600 42.74800
C  1.72500 -5.68200 44.13200
N  3.14400 -1.03000 41.86800
C  4.45200 -1.35100 41.76100
C  5.23900 -0.27600 41.01600
C  4.17200 0.84200 40.75600
C  2.89600 0.23300 41.32000
C  4.62000 2.18700 41.39100
C  5.89800 -0.75000 39.73400
C  7.02900 0.19900 39.21800
H  6.72100 1.01000 37.94800
N  0.14800 -0.97100 42.23900
C  0.39100 0.33300 41.68500
C  -0.91800 0.97300 41.45400
C  -1.84300 -0.03100 41.62800
C  -1.18500 -1.16800 42.26100
C  -1.00800 2.32300 40.79600
C  -3.30400 0.03300 41.31000
O  -3.82900 1.02500 40.75000
C  -4.10800 -1.12900 41.45200
N  0.26200 -3.98300 43.29800
C  -1.05700 -3.67300 43.28500
C  -1.95700 -4.85000 43.73500
C  -0.85800 -5.94200 44.09700
C  0.49500 -5.14900 43.88600
C  -2.93900 -4.53500 44.89100
C  -0.93100 -7.29400 43.38700
C  -0.69300 -8.50700 44.29000
N  3.10600 -3.70300 43.41400
C  3.03100 -5.03400 43.89100
C  4.35200 -5.56600 43.95500
C  5.21400 -4.56400 43.54800
C  4.35200 -3.47100 43.09700
C  4.60200 -7.07300 44.28600
C  6.55300 -4.22300 43.31200
O  7.54700 -4.80100 43.56000
C  6.48800 -2.83300 42.54100
C  7.37700 -1.81800 43.22100
O  7.07100 -1.02200 44.10700
O  8.61100 -1.85300 42.64800
C  9.63400 -0.89600 43.08200
H  1.58600 1.81900 40.79700
H  -2.74600 -2.53800 42.92700
H  1.79800 -6.72900 44.43600
H  5.97500 0.11100 41.72100
H  3.98900 1.08500 39.71000
H  3.97200 2.29800 42.26000
H  4.61700 3.00800 40.67500
H  5.61700 2.22900 41.82900
H  5.19600 -0.85700 38.90800
H  6.28800 -1.75500 39.89600
H  7.95600 -0.36600 39.12900
H  7.13700 0.97700 39.97500
H  -0.71600 2.31000 39.74600
H  -0.48300 3.07400 41.38700
H  -2.04400 2.65700 40.73900
H  -5.00500 -0.87900 40.88600
H  -4.44400 -1.29300 42.47600
H  -3.57500 -1.96000 40.99100
H  -2.53600 -5.15900 42.86500
H  -0.78400 -6.12600 45.16900
H  -2.64500 -5.04500 45.80800
H  -3.97200 -4.81600 44.68800
H  -2.89400 -3.45800 45.05200
H  -0.24500 -7.34700 42.54100
H  -1.97200 -7.41200 43.08600
H  -1.41300 -9.29700 44.07700
H  -0.70500 -8.22200 45.34200
H  0.33500 -8.78400 44.05600
H  5.43800 -7.37600 43.65600
H  3.72700 -7.68800 44.07000
H  4.99200 -7.17400 45.29900
H  6.94800 -3.07600 41.58300
H  9.69900 -0.60300 44.13000
H  9.37100 0.00200 42.52300
H  10.60300 -1.26000 42.74200
Mg 25.36100 -6.13700 47.33800
C  26.80800 -3.04400 46.27800
C  22.90300 -5.79300 45.07400
C  24.52700 -9.25000 48.21200
C  28.46100 -6.63800 49.17200
N  24.98200 -4.63100 45.86700
C  25.71000 -3.46600 45.56100
C  25.09200 -2.74700 44.43800
C  23.68900 -3.50300 44.17200
C  23.82800 -4.72000 45.14900
C  22.46000 -2.60300 44.48000
C  26.10300 -2.90200 43.25400
C  26.26200 -1.66800 42.39000
H  25.38300 -1.63100 41.15300
N  23.88800 -7.38400 46.73500
C  22.93500 -7.03900 45.84500
C  21.99400 -8.07100 45.69000
C  22.52500 -9.09700 46.51800
C  23.68400 -8.60200 47.25100
C  20.82800 -8.06300 44.68900
C  21.93800 -10.45600 46.60800
O  20.88300 -10.81400 46.05700
C  22.54100 -11.50600 47.39400
N  26.50200 -7.82100 48.37400
C  25.80500 -8.91600 48.68500
C  26.56600 -9.82200 49.69100
C  27.79800 -8.99300 50.05100
C  27.59500 -7.77000 49.12400
C  25.84600 -10.11400 51.02900
C  29.11400 -9.82100 49.71000
C  30.10000 -10.13700 50.80100
N  27.21700 -5.10500 47.71600
C  28.34500 -5.42000 48.50100
C  29.18700 -4.27200 48.56700
C  28.60400 -3.33400 47.68800
C  27.45900 -3.87500 47.20100
C  30.50400 -4.15300 49.43100
C  28.78000 -1.93700 47.19100
O  29.60600 -1.10000 47.42100
C  27.63800 -1.72000 46.26800
C  26.80600 -0.49900 46.60200
O  26.77400 0.54900 45.98800
O  26.16500 -0.76300 47.81800
C  25.31400 0.26500 48.29100
H  22.12000 -5.60900 44.33500
H  24.27000 -10.17200 48.73600
H  29.32600 -6.76100 49.82700
H  24.85200 -1.70300 44.64400
H  23.67300 -3.83300 43.13300
H  22.60600 -1.64100 44.97200
H  21.74100 -3.16400 45.07700
H  21.94200 -2.42600 43.53800
H  25.90700 -3.63800 42.47500
H  27.07300 -3.21500 43.63900
H  27.33500 -1.69100 42.19700
H  26.23100 -0.66600 42.81800
H  20.75500 -7.03900 44.32200
H  19.84900 -8.34900 45.07600
H  21.09100 -8.79400 43.92500
H  23.53900 -11.63000 46.97400
H  22.06900 -12.44400 47.09900
H  22.60300 -11.22000 48.44400
H  26.77300 -10.71000 49.09400
H  27.95100 -8.64600 51.07300
H  25.31800 -11.06500 50.94900
H  25.22800 -9.32300 51.45500
H  26.60000 -10.36200 51.77600
H  29.68800 -9.12700 49.09600
H  28.93600 -10.74600 49.16200
H  30.13400 -11.22400 50.73900
H  29.78500 -9.89400 51.81600
H  31.07000 -9.71400 50.54100
H  31.38100 -4.27500 48.79400
H  30.68100 -4.91400 50.19100
H  30.43400 -3.16300 49.88100
H  28.06200 -1.63200 45.26800
H  24.40600 0.20700 47.69100
H  25.77100 1.25000 48.38700
H  25.12000 -0.02900 49.32200

