158

Mg 42.19700 40.73700 26.50600
C  41.40100 43.36600 28.79600
C  42.93200 38.78800 29.21300
C  43.35100 38.50000 24.33600
C  41.93600 43.17100 23.96300
N  42.15400 41.17900 28.77400
C  41.84600 42.28900 29.50000
C  41.77800 42.02900 31.01200
C  42.35500 40.56500 31.08400
C  42.55400 40.12700 29.56100
C  43.43400 40.38100 32.16600
C  40.43500 42.13100 31.67700
C  40.35000 42.80900 33.05000
H  39.65000 41.94600 34.18000
N  42.95800 38.87300 26.70400
C  43.12200 38.19300 27.90900
C  43.56200 36.83900 27.59200
C  43.65800 36.75800 26.22800
C  43.36300 38.04700 25.65400
C  43.73000 35.92400 28.67000
C  43.99300 35.58200 25.39000
O  44.16200 35.59800 24.15400
C  44.25000 34.24300 26.08900
N  42.73400 40.87300 24.48200
C  43.11800 39.80500 23.82700
C  43.14700 40.13700 22.42700
C  42.83100 41.63900 22.24200
C  42.46900 41.97800 23.65000
C  44.54900 39.78500 21.68500
C  41.68800 41.84900 21.24100
C  41.96900 42.82200 20.15800
N  41.63400 42.77200 26.29000
C  41.54300 43.63600 25.21800
C  41.16400 44.96000 25.66900
C  41.09600 44.86100 27.06100
C  41.40500 43.52600 27.43400
C  40.96500 46.15200 24.77900
C  40.67900 45.59900 28.24800
O  40.30600 46.74900 28.41700
C  40.93800 44.67600 29.48600
C  41.97200 45.27200 30.41800
O  43.11400 45.57800 30.13500
O  41.32300 45.64100 31.59000
C  42.11900 46.32300 32.61800
H  43.14300 38.27600 30.15400
H  43.71400 37.79000 23.59100
H  41.74900 43.86200 23.13800
H  42.43500 42.77000 31.46700
H  41.60800 39.90900 31.53000
H  43.95600 41.29700 32.44000
H  44.21100 39.70800 31.80200
H  43.10200 39.87400 33.07200
H  39.95200 41.15700 31.75300
H  39.71300 42.55000 30.97600
H  39.83500 43.76600 32.95900
H  41.34700 43.02900 33.43100
H  44.64700 35.34600 28.55600
H  42.83200 35.30900 28.74100
H  43.90100 36.35100 29.65800
H  43.44200 34.10600 26.80700
H  45.22800 34.07600 26.54100
H  44.32100 33.47800 25.31600
H  42.42700 39.48400 21.93200
H  43.78400 42.12600 22.03600
H  45.27700 39.56800 22.46700
H  44.92900 40.48100 20.93700
H  44.45900 38.86600 21.10600
H  40.86800 42.30500 21.79600
H  41.39200 40.90900 20.77400
H  42.15300 42.26600 19.23900
H  42.86100 43.37600 20.45200
H  41.13700 43.47300 19.89300
H  40.91000 45.92800 23.71300
H  41.75300 46.89400 24.90500
H  40.06000 46.71000 25.02000
H  39.99600 44.61200 30.03000
H  43.17800 46.08000 32.52900
H  41.84800 45.91300 33.59100
H  41.79200 47.36200 32.66300
Mg 29.65500 58.02700 40.63300
C  26.91200 56.34500 39.26300
C  31.71600 55.59200 39.21900
C  32.32600 60.16600 40.71800
C  27.51400 60.85200 41.54900
N  29.31200 56.22600 39.27700
C  28.13800 55.70400 38.82300
C  28.32300 54.34600 38.13300
C  29.83600 54.15700 38.25000
C  30.36200 55.37300 38.99900
C  30.38800 52.84900 38.87500
C  27.67700 54.01900 36.68400
C  27.50400 55.23000 35.65700
H  28.02300 55.15700 34.20400
N  31.74400 57.80000 40.32700
C  32.41600 56.68800 39.79000
C  33.77400 56.90100 39.87200
C  34.00500 58.28500 40.17100
C  32.64100 58.84400 40.38600
C  34.90500 55.91200 39.53700
C  35.39700 59.05000 40.09600
O  36.43700 58.44000 39.76200
C  35.52100 60.49300 40.23300
N  29.93000 60.17900 41.27500
C  31.14500 60.77800 41.14600
C  31.06600 62.29400 41.54400
C  29.52000 62.49400 41.77500
C  28.90100 61.05100 41.60400
C  32.05600 62.82600 42.67700
C  28.79600 63.63600 40.98300
C  28.18200 64.80600 41.72200
N  27.64300 58.47300 40.59500
C  26.93800 59.58000 41.10400
C  25.51300 59.32200 40.87900
C  25.46200 58.09000 40.21100
C  26.79100 57.63400 40.01200
C  24.35500 60.20400 41.22800
C  24.63300 57.07200 39.54400
O  23.41900 57.14200 39.36500
C  25.46300 55.94200 38.88100
C  25.10900 54.63400 39.46800
O  25.53500 54.20400 40.53700
O  24.15600 53.96100 38.73900
C  23.35500 52.82900 39.34100
H  32.29400 54.69600 38.98300
H  33.13900 60.87900 40.56400
H  26.86500 61.67300 41.86200
H  27.85400 53.56100 38.72600
H  30.16100 54.26300 37.21500
H  29.52100 52.21300 39.05500
H  30.94000 52.96900 39.80800
H  31.04300 52.44900 38.10200
H  26.67800 53.59500 36.78200
H  28.32400 53.24800 36.26600
H  27.91000 56.10200 36.16900
H  26.43100 55.42300 35.66400
H  35.49600 56.36500 38.74100
H  34.49400 55.01700 39.06900
H  35.45000 55.53100 40.40000
H  36.56700 60.76400 40.37100
H  34.95200 60.77600 41.11900
H  35.08400 61.00800 39.37700
H  31.34700 62.85300 40.65100
H  29.30300 62.75100 42.81200
H  32.53500 61.88800 42.95800
H  31.60200 63.11000 43.62700
H  32.82700 63.53600 42.37800
H  28.10200 63.20700 40.26000
H  29.56900 64.14200 40.40600
H  28.48200 65.83100 41.50400
H  28.45700 64.76100 42.77600
H  27.10300 64.86100 41.57400
H  24.26000 60.59100 42.24300
H  23.40300 59.68200 41.13200
H  24.38600 61.11900 40.63700
H  25.40600 56.02600 37.79500
H  23.73700 52.56600 40.32700
H  23.50900 51.93900 38.73000
H  22.30400 53.09100 39.46400

