158

Mg 24.13000 -5.88600 45.68100
C  26.40300 -3.58900 44.27500
C  21.70600 -4.57100 43.70300
C  22.37200 -8.82500 45.95700
C  26.95300 -7.57300 47.02800
N  24.07200 -4.32500 44.26200
C  25.08500 -3.55000 43.81500
C  24.65800 -2.59400 42.66800
C  23.08200 -2.63400 42.82200
C  22.85800 -3.89200 43.70500
C  22.31800 -1.35600 43.25300
C  25.22100 -3.11400 41.34100
C  26.10300 -2.14000 40.42900
H  25.85800 -1.99100 38.93700
N  22.22300 -6.56600 45.07800
C  21.39400 -5.85400 44.22900
C  20.17900 -6.61600 43.98000
C  20.27600 -7.79800 44.81200
C  21.67400 -7.77600 45.34100
C  19.15800 -6.11100 42.98800
C  19.19600 -8.83100 45.01200
O  18.12900 -8.73300 44.48900
C  19.31400 -9.81200 46.03400
N  24.65200 -7.93000 46.37000
C  23.72200 -8.91400 46.41200
C  24.34500 -10.24200 47.00000
C  25.82400 -9.88000 47.12500
C  25.82200 -8.34200 46.93800
C  23.69100 -10.83900 48.31300
C  26.69400 -10.57700 45.98400
C  26.83500 -12.14700 46.06400
N  26.26700 -5.47700 45.94300
C  27.19900 -6.29900 46.50900
C  28.48100 -5.54900 46.41000
C  28.25300 -4.58500 45.47800
C  26.88500 -4.55400 45.20100
C  29.76200 -5.85700 47.03800
C  28.81900 -3.52200 44.66900
O  29.99800 -3.13300 44.64400
C  27.64700 -2.77700 43.91100
C  27.54300 -1.29600 44.44300
O  26.56100 -0.74600 44.87100
O  28.79600 -0.63500 44.41300
C  29.02300 0.61000 45.24100
H  20.89100 -4.03500 43.21200
H  21.80600 -9.74600 46.11500
H  27.76100 -8.17200 47.45300
H  25.04400 -1.59800 42.88600
H  22.75700 -2.76700 41.78900
H  22.98400 -0.56200 43.59000
H  21.49600 -1.58800 43.93000
H  21.90900 -0.87200 42.36600
H  24.42400 -3.59600 40.77600
H  25.84700 -3.96300 41.61800
H  27.12900 -2.49700 40.34100
H  26.14400 -1.14500 40.87200
H  18.59600 -6.97700 42.63800
H  19.62400 -5.47600 42.23400
H  18.38400 -5.46500 43.40200
H  18.37200 -10.33700 46.18600
H  19.65200 -9.41600 46.99100
H  19.98200 -10.51600 45.53800
H  24.40500 -10.96100 46.18300
H  26.27600 -10.10500 48.09100
H  23.16700 -11.78300 48.16000
H  22.93900 -10.22000 48.80200
H  24.44500 -11.02900 49.07800
H  27.67800 -10.10900 45.98300
H  26.09600 -10.23600 45.13900
H  26.57500 -12.42100 47.08700
H  27.85200 -12.40800 45.77200
H  26.24200 -12.80000 45.42200
H  30.14400 -6.85300 46.81600
H  29.68800 -5.71400 48.11600
H  30.48200 -5.09200 46.74500
H  27.92600 -2.68400 42.86100
H  29.87500 0.44300 45.90000
H  28.19100 0.88400 45.89000
H  29.37600 1.49500 44.71100
Mg 36.44200 1.90000 30.21200
C  34.00500 3.19900 32.30200
C  38.66500 2.28800 32.86300
C  38.86000 0.99400 28.10000
C  34.18600 2.21900 27.42100
N  36.25200 2.83400 32.36000
C  35.17200 3.07700 33.03700
C  35.39500 3.18900 34.60400
C  36.98200 3.18000 34.71200
C  37.31500 2.72200 33.21700
C  37.59200 4.61000 34.93600
C  34.77500 2.01000 35.39400
C  34.19700 2.26500 36.81800
H  34.73100 3.50300 37.56000
N  38.44600 1.63900 30.44100
C  39.12300 1.72200 31.61600
C  40.45000 1.19100 31.36500
C  40.60100 0.89100 30.00300
C  39.24400 1.09600 29.42800
C  41.42900 1.00700 32.39800
C  41.79000 0.41200 29.22100
O  41.65500 0.14000 28.05500
C  43.09600 0.11800 29.93600
N  36.46400 1.48600 28.01400
C  37.67100 1.33900 27.38800
C  37.53500 1.25000 25.86100
C  35.94200 1.58800 25.65000
C  35.49900 1.88500 27.09900
C  38.59100 2.01500 25.07500
C  35.14200 0.42600 25.03900
C  34.12700 0.81700 23.90200
N  34.53200 2.58800 29.92000
C  33.70300 2.57200 28.73300
C  32.34000 2.99500 29.15400
C  32.42800 3.25700 30.57100
C  33.78200 2.98800 30.93300
C  31.10500 3.08900 28.26100
C  31.72200 3.73400 31.69100
O  30.57000 4.11000 31.87400
C  32.72200 3.65100 32.85100
C  32.81900 4.91200 33.59900
O  33.41700 5.92000 33.19400
O  32.16600 4.87000 34.84700
C  32.17600 6.05400 35.75200
H  39.42600 2.36800 33.64300
H  39.57100 0.60700 27.36700
H  33.49800 2.24000 26.57300
H  34.96700 4.10400 35.01300
H  37.41500 2.40600 35.34600
H  36.83300 5.37100 34.75700
H  38.47000 4.66300 34.29200
H  38.02900 4.71500 35.92900
H  35.47100 1.18300 35.52900
H  33.87400 1.64700 34.90000
H  34.30100 1.33300 37.37400
H  33.13900 2.45600 36.63900
H  41.05300 0.97100 33.42000
H  42.08300 1.87800 32.36900
H  42.06600 0.12200 32.38500
H  43.34400 0.89100 30.66300
H  43.93100 0.17200 29.23600
H  43.02100 -0.83800 30.45300
H  37.73000 0.19200 25.68400
H  35.82100 2.53200 25.11800
H  39.15200 2.61100 25.79400
H  38.10500 2.64300 24.32900
H  39.25800 1.25700 24.66400
H  34.56600 -0.10600 25.79700
H  35.78800 -0.35700 24.64200
H  34.40200 1.77000 23.45200
H  33.12200 0.92000 24.31300
H  34.09500 0.00600 23.17500
H  31.18900 2.66300 27.26200
H  30.83200 4.14000 28.17200
H  30.30800 2.51000 28.72800
H  32.34800 2.77300 33.37900
H  31.54200 6.69500 35.14000
H  33.11300 6.60900 35.79600
H  31.79000 5.83400 36.74800

