158

Mg 40.62200 10.15000 29.30000
C  42.73200 11.72700 31.62400
C  38.54400 9.17000 31.78500
C  38.81400 8.67700 26.94100
C  43.20500 10.84600 26.87300
N  40.70600 10.20800 31.51500
C  41.61100 11.08500 32.23800
C  41.18900 11.06500 33.71800
C  39.98600 10.10600 33.74900
C  39.69800 9.86500 32.22500
C  40.13100 8.84700 34.64200
C  40.82700 12.46000 34.31400
C  41.35200 12.84800 35.72500
H  41.35200 11.73700 36.79800
N  38.90400 9.13100 29.33600
C  38.08100 8.92300 30.45700
C  36.92000 8.18000 30.08500
C  37.03100 7.98700 28.63900
C  38.32200 8.62100 28.24000
C  35.85700 7.69400 30.99300
C  36.15100 7.22000 27.74000
O  36.47900 6.92800 26.60600
C  34.77500 6.74000 28.15700
N  41.06300 9.82700 27.27100
C  40.07100 9.25700 26.50800
C  40.47700 9.19400 25.04800
C  41.72800 10.13700 24.96800
C  42.04700 10.30200 26.42100
C  40.44100 7.78800 24.37900
C  41.61200 11.46700 24.25500
C  40.69600 12.38800 24.98900
N  42.55700 11.16600 29.20600
C  43.47200 11.29200 28.19400
C  44.71000 11.97100 28.64300
C  44.39400 12.24100 30.01600
C  43.14000 11.66700 30.30600
C  45.97700 12.26100 27.86800
C  44.93800 12.77600 31.20800
O  45.98200 13.38100 31.40700
C  43.84600 12.44900 32.38800
C  44.50700 11.70500 33.48700
O  44.53100 10.48000 33.60000
O  45.05500 12.59200 34.34700
C  45.35600 11.86500 35.57700
H  37.91200 8.91400 32.63800
H  38.34300 8.08200 26.15600
H  43.81700 11.32400 26.10600
H  42.05800 10.61200 34.19500
H  39.15900 10.72200 34.10300
H  41.14500 8.47300 34.50200
H  39.41200 8.14400 34.22100
H  39.98600 9.07900 35.69700
H  39.78200 12.76800 34.28300
H  41.30700 13.20700 33.68200
H  40.68100 13.60800 36.12700
H  42.37300 13.21200 35.61700
H  36.16900 7.84700 32.02600
H  35.66100 6.62200 30.98000
H  35.01500 8.38100 30.91400
H  35.08700 5.86300 28.72300
H  34.32600 6.39000 27.22700
H  34.29000 7.56900 28.67100
H  39.68000 9.70000 24.50200
H  42.65300 9.67300 24.62400
H  40.33700 7.07800 25.19900
H  41.36600 7.53800 23.85800
H  39.58000 7.67400 23.72100
H  41.29500 11.23500 23.23900
H  42.62800 11.86400 24.25300
H  40.55600 12.10400 26.03300
H  39.74600 12.42600 24.45500
H  41.14300 13.37900 25.06300
H  46.20200 11.44000 27.18700
H  46.80700 12.28200 28.57500
H  45.95000 13.22200 27.35500
H  43.55700 13.45700 32.68500
H  45.83600 10.88600 35.59500
H  44.40800 11.69400 36.08700
H  46.08300 12.42000 36.16900
Mg 47.77800 16.80800 27.61500
C  45.60400 16.86700 30.51900
C  49.96600 18.71300 29.16000
C  49.41700 16.81700 24.82000
C  44.91400 15.28800 25.95700
N  47.66200 17.81000 29.55800
C  46.82400 17.53200 30.64600
C  47.49400 18.05000 31.96300
C  48.78000 18.84300 31.44400
C  48.83700 18.46100 29.94500
C  48.77200 20.36300 31.64400
C  47.91500 16.87000 32.85800
C  47.90100 17.18000 34.42300
H  47.60700 18.61500 35.05500
N  49.42800 17.68700 27.10600
C  50.29400 18.38400 27.87500
C  51.44900 18.86200 27.18500
C  51.32400 18.30000 25.87700
C  50.05700 17.52500 25.89000
C  52.52200 19.80900 27.74700
C  52.23400 18.49800 24.69200
O  51.96000 17.97400 23.60900
C  53.46200 19.32700 24.71500
N  47.28200 15.98200 25.65000
C  48.24000 16.06800 24.70100
C  47.62000 15.61200 23.27400
C  46.14200 15.22600 23.60000
C  46.06800 15.55300 25.15500
C  47.85500 16.60300 22.10500
C  45.74500 13.69100 23.23900
C  45.98800 13.20400 21.84600
N  45.70100 16.28800 28.06600
C  44.72700 15.60700 27.32900
C  43.52800 15.26100 28.16000
C  43.83000 15.76800 29.42500
C  45.13800 16.37800 29.32700
C  42.26200 14.47600 27.72500
C  43.31300 15.95800 30.76500
O  42.22300 15.80000 31.24100
C  44.49800 16.60100 31.54600
C  44.01500 17.76600 32.33600
O  43.77300 18.87500 31.92100
O  43.67700 17.32600 33.57300
C  43.04700 18.21800 34.57100
H  50.65800 19.30800 29.76000
H  49.90700 16.92000 23.85000
H  44.06100 14.78200 25.50000
H  46.83500 18.75000 32.47700
H  49.72700 18.55300 31.89900
H  49.70900 20.62500 32.13500
H  47.92500 20.71400 32.23300
H  48.58900 20.91100 30.72000
H  48.93600 16.55600 32.64200
H  47.30100 16.00200 32.61700
H  48.89100 16.84300 34.72700
H  47.20400 16.52400 34.94400
H  52.47100 19.82200 28.83600
H  52.21900 20.77800 27.35200
H  53.54700 19.48100 27.57300
H  53.20900 20.33600 25.04100
H  53.83100 19.47900 23.70100
H  54.18100 18.93400 25.43400
H  48.19800 14.74800 22.94500
H  45.40900 15.86300 23.10600
H  48.18400 17.55600 22.52100
H  46.92800 16.71100 21.54300
H  48.59400 16.23100 21.39500
H  44.67500 13.63800 23.44200
H  46.26600 13.07100 23.96900
H  46.56200 13.95800 21.30600
H  45.02700 13.17500 21.33400
H  46.58200 12.29100 21.81000
H  41.55200 15.19200 27.31000
H  41.83700 14.00300 28.61000
H  42.47000 13.71400 26.97400
H  44.90600 15.88400 32.25900
H  42.27300 17.81400 35.22300
H  42.60600 19.04800 34.01900
H  43.93500 18.62200 35.05700

