158

Mg 8.60600 47.52400 27.76900
C  6.85400 47.21000 30.98800
C  11.45200 47.84300 29.49000
C  9.93400 48.45500 24.89700
C  5.36700 47.95000 26.29500
N  9.05600 47.64600 29.98500
C  8.27700 47.36100 31.16000
C  9.06000 47.55800 32.46400
C  10.46700 48.04900 31.88400
C  10.32100 47.79800 30.36500
C  10.85200 49.49100 32.42000
C  9.13700 46.39500 33.52500
C  9.09100 46.82200 35.02900
H  9.66300 45.89600 36.06700
N  10.48900 47.78800 27.14200
C  11.54700 47.82000 28.04700
C  12.76500 47.99200 27.29300
C  12.37900 48.19200 25.89200
C  10.86000 48.13600 25.87600
C  14.17300 48.18200 27.97600
C  13.29800 48.47100 24.69800
O  12.89500 49.07400 23.68200
C  14.75900 48.21800 24.85500
N  7.76800 48.28300 25.85900
C  8.57300 48.44500 24.83000
C  7.81400 48.58800 23.48000
C  6.32800 48.51000 23.97500
C  6.42900 48.15900 25.44300
C  8.09900 49.89600 22.69400
C  5.44200 47.47900 23.17100
C  5.47100 47.65900 21.69600
N  6.52700 47.50500 28.44400
C  5.32600 47.73200 27.71200
C  4.12600 47.44900 28.51900
C  4.68000 47.27300 29.79400
C  6.14300 47.36300 29.73700
C  2.70500 47.40100 27.99400
C  4.38000 47.05700 31.19600
O  3.32100 46.81700 31.77500
C  5.73500 47.09500 32.04200
C  5.84800 45.88800 32.85900
O  5.75900 44.78400 32.34500
O  5.90500 46.16500 34.21600
C  5.85800 44.99100 35.06400
H  12.39000 47.93800 30.04200
H  10.42500 48.77200 23.97500
H  4.38800 47.93600 25.81100
H  8.75800 48.39700 33.09200
H  11.25700 47.33300 32.11300
H  11.66200 49.20600 33.09100
H  10.13200 50.12200 32.94200
H  11.22300 50.17900 31.66000
H  10.00300 45.75300 33.36700
H  8.42500 45.59400 33.32700
H  8.01300 46.74300 35.17000
H  9.45100 47.84300 35.16200
H  14.84600 47.32500 27.96300
H  14.13400 48.51100 29.01500
H  14.49200 49.08100 27.44900
H  15.34500 49.03300 25.28100
H  15.12800 48.01300 23.85000
H  15.04100 47.34100 25.43700
H  8.12300 47.80500 22.78700
H  5.82900 49.47100 23.84700
H  8.90300 49.71800 21.97900
H  8.40500 50.76600 23.27500
H  7.27000 50.16700 22.04000
H  4.37300 47.53600 23.37700
H  5.84700 46.48600 23.36800
H  6.15200 46.96800 21.20000
H  5.68500 48.69100 21.41800
H  4.45400 47.39900 21.40000
H  2.59400 48.36200 27.49300
H  2.11400 47.31500 28.90600
H  2.42900 46.57400 27.34100
H  5.74200 47.95600 32.71200
H  6.92000 44.74400 35.06800
H  5.35600 44.08700 34.71800
H  5.48200 45.22900 36.05900
Mg -2.04900 34.70000 26.99500
C  -3.70600 32.79300 29.45000
C  -1.00200 36.84500 29.27500
C  -1.16900 36.62000 24.38100
C  -3.22300 32.33800 24.62100
N  -2.36900 34.85400 29.06600
C  -2.93800 33.89900 29.91300
C  -2.56300 34.14300 31.34300
C  -1.63900 35.39600 31.25900
C  -1.74400 35.79300 29.78400
C  -1.94700 36.48600 32.28200
C  -1.75500 32.96600 31.98500
C  -2.17200 32.47000 33.35500
H  -1.18300 32.61200 34.57900
N  -1.13400 36.54500 26.85100
C  -0.75600 37.26400 27.95500
C  -0.08400 38.49100 27.55100
C  -0.27600 38.49100 26.10900
C  -0.91500 37.19700 25.66900
C  0.55000 39.50900 28.54700
C  0.20100 39.52400 25.10800
O  0.14200 39.34300 23.88800
C  0.86200 40.81100 25.62900
N  -2.27100 34.51700 24.76000
C  -1.68000 35.44400 23.93600
C  -1.62200 34.94800 22.49600
C  -2.14100 33.53100 22.67800
C  -2.51900 33.37600 24.11600
C  -2.55400 35.80200 21.64800
C  -1.09800 32.50400 22.18400
C  -0.02000 32.11300 23.18400
N  -3.24200 32.93900 26.99500
C  -3.67800 32.10100 25.93300
C  -4.53200 31.05300 26.39600
C  -4.52800 31.27800 27.80400
C  -3.69700 32.42100 28.05400
C  -5.30400 30.04100 25.61200
C  -5.05400 30.79300 29.11400
O  -5.79400 29.86800 29.42200
C  -4.40300 31.71500 30.25900
C  -5.45800 32.24300 31.16000
O  -6.16900 33.17300 30.87900
O  -5.53500 31.46700 32.34200
C  -6.49600 31.97200 33.33700
H  -0.54400 37.48300 30.03500
H  -0.75000 37.12600 23.50900
H  -3.45700 31.57600 23.87400
H  -3.51000 34.28500 31.86300
H  -0.60000 35.09700 31.39700
H  -2.36100 37.35800 31.77600
H  -1.05100 36.63800 32.88400
H  -2.69700 36.04500 32.93900
H  -0.71000 33.25300 32.10700
H  -1.70600 32.08600 31.34400
H  -2.35500 31.40100 33.24000
H  -3.14700 32.94300 33.47200
H  1.42100 39.96200 28.07300
H  0.90500 39.06000 29.47500
H  -0.15900 40.29500 28.80800
H  0.90600 41.50600 24.79000
H  1.83700 40.56500 26.05000
H  0.19700 41.23100 26.38300
H  -0.59700 35.03300 22.13500
H  -3.04200 33.44600 22.07100
H  -3.25500 36.33600 22.28800
H  -3.14700 35.25000 20.91900
H  -1.99400 36.59800 21.15700
H  -0.63100 32.87600 21.27200
H  -1.68800 31.70000 21.74500
H  0.10900 32.94000 23.88300
H  0.93100 31.95400 22.67600
H  -0.19200 31.11100 23.57700
H  -5.04400 30.05900 24.55400
H  -6.36400 30.23200 25.77900
H  -5.12400 29.05100 26.03100
H  -3.65500 31.06800 30.71600
H  -7.38600 32.42100 32.89500
H  -6.13600 32.69500 34.06900
H  -6.73800 31.20300 34.07000

