158

Mg 6.62400 53.53300 41.71400
C  6.02200 50.11500 41.33800
C  9.87900 52.98700 40.94500
C  6.90200 56.81200 41.30300
C  3.17100 53.91100 42.51100
N  7.84100 51.70500 41.29700
C  7.39900 50.45600 41.07000
C  8.54600 49.43700 40.70800
C  9.85200 50.33000 41.07600
C  9.19100 51.79000 41.05900
C  10.61000 50.05100 42.43300
C  8.63300 48.85000 39.26200
C  8.32400 49.89700 38.19500
H  7.28000 49.52000 37.09800
N  8.19600 54.75200 41.28400
C  9.42700 54.29300 40.86900
C  10.19900 55.43300 40.45000
C  9.34500 56.59800 40.54700
C  8.08000 56.06800 41.03200
C  11.66600 55.42700 39.96900
C  9.76100 58.03400 40.17100
O  10.84100 58.30300 39.58100
C  8.98900 59.11700 40.67000
N  5.25400 55.14000 41.97200
C  5.63300 56.43000 41.73800
C  4.43000 57.28900 41.78400
C  3.28700 56.44200 42.46700
C  3.88400 55.05100 42.29900
C  4.50300 58.71100 42.41200
C  1.79000 56.61800 41.97900
C  0.75800 56.64600 43.11300
N  4.95100 52.34000 41.95700
C  3.66300 52.62600 42.38500
C  2.85900 51.42200 42.42800
C  3.74900 50.42800 42.08700
C  5.02600 51.02400 41.74700
C  1.37100 51.20600 42.79000
C  3.84000 49.02000 41.80900
O  3.02400 48.08600 41.86100
C  5.40200 48.78800 41.43200
C  5.39100 47.97300 40.22000
O  4.81500 48.26000 39.19100
O  5.92300 46.74800 40.46800
C  6.24600 45.85400 39.34800
H  10.91300 53.03200 40.59700
H  6.90800 57.82900 40.90500
H  2.11200 53.92600 42.77700
H  8.34500 48.70700 41.49200
H  10.66900 50.40400 40.35800
H  10.47800 48.99600 42.67200
H  10.37600 50.67900 43.29200
H  11.65700 50.30800 42.26800
H  7.96600 47.99300 39.16700
H  9.61100 48.37500 39.18100
H  9.23000 50.20700 37.67400
H  8.06200 50.81700 38.71700
H  12.19000 54.50000 40.20200
H  12.23200 56.23000 40.44100
H  11.72100 55.63000 38.90000
H  8.52600 59.74000 39.90600
H  9.62800 59.90600 41.06600
H  8.49500 58.91000 41.62000
H  4.24400 57.44100 40.72000
H  3.29400 56.59200 43.54700
H  5.37900 58.88800 43.03700
H  3.68200 58.99000 43.07200
H  4.47500 59.48300 41.64300
H  1.47600 55.89400 41.22700
H  1.67100 57.58500 41.49100
H  0.09500 57.50900 43.06000
H  1.28800 56.73300 44.06200
H  0.13000 55.75500 43.14300
H  0.93400 52.13400 43.15900
H  1.32100 50.54900 43.65900
H  0.82600 50.68000 42.00700
H  5.92800 48.25200 42.22200
H  7.28500 45.83700 39.02000
H  5.56600 45.88700 38.49700
H  6.01300 44.84500 39.68700
Mg 9.78800 48.15400 26.61200
C  7.87000 48.34800 29.57800
C  12.38600 49.57600 28.34100
C  11.31200 48.23600 23.76400
C  6.63200 47.52900 24.80100
N  9.93300 48.96400 28.71500
C  9.17400 48.77900 29.83700
C  9.87600 49.27800 31.07200
C  11.14100 49.98300 30.56100
C  11.21000 49.46200 29.11700
C  10.99500 51.60600 30.55200
C  10.27800 48.21700 32.11200
C  9.70700 48.34100 33.55400
H  9.89500 46.95100 34.31200
N  11.60400 48.70800 26.11000
C  12.59400 49.26100 26.96800
C  13.84100 49.52400 26.13000
C  13.55500 49.10800 24.79300
C  12.11400 48.70100 24.83200
C  15.17200 50.05500 26.77500
C  14.39800 49.09700 23.51000
O  13.98600 48.62000 22.43200
C  15.83200 49.48500 23.59200
N  9.05800 47.70700 24.61200
C  10.04000 47.76700 23.63600
C  9.47500 47.33600 22.23100
C  7.92200 47.27200 22.57100
C  7.81600 47.43200 24.03800
C  9.84100 48.40000 21.15600
C  7.14700 46.02800 21.99500
C  6.66100 46.17600 20.58600
N  7.63400 47.91600 27.01300
C  6.50100 47.67000 26.17900
C  5.33300 47.54900 27.05600
C  5.82400 47.67400 28.38300
C  7.20700 48.01300 28.30800
C  3.94000 47.28400 26.55700
C  5.44400 47.63400 29.72900
O  4.34000 47.33500 30.24000
C  6.76000 47.96600 30.56200
C  7.05500 46.71700 31.22300
O  7.39900 45.74100 30.58400
O  7.10500 46.67200 32.57100
C  7.31600 45.40500 33.13400
H  13.22400 50.05500 28.85200
H  11.81700 48.15800 22.79900
H  5.72600 47.47800 24.19500
H  9.16900 49.92500 31.59100
H  12.09900 49.56600 30.87200
H  11.20500 51.97300 29.54700
H  11.72300 51.99800 31.26300
H  9.96400 51.93600 30.67800
H  11.35700 48.07800 32.17300
H  9.92800 47.28100 31.67500
H  8.64500 48.54900 33.42300
H  10.25900 49.14900 34.03500
H  15.02500 50.86900 27.48400
H  15.78400 50.55600 26.02400
H  15.90300 49.31200 27.09300
H  15.88500 50.56700 23.71500
H  16.43700 49.27200 22.71000
H  16.25900 49.10900 24.52100
H  9.90600 46.36700 21.98100
H  7.50000 48.13600 22.05900
H  10.22000 49.32100 21.59900
H  8.99500 48.55000 20.48600
H  10.70700 48.03800 20.60200
H  6.23000 45.77800 22.52900
H  7.83800 45.18600 21.99200
H  7.21900 47.01500 20.17000
H  5.58700 46.32600 20.46900
H  6.84000 45.27200 20.00400
H  3.87800 46.30300 26.08600
H  3.60300 48.11600 25.93800
H  3.29100 47.38500 27.42700
H  6.63600 48.70300 31.35600
H  6.57500 44.74100 32.68900
H  7.20400 45.48400 34.21500
H  8.32700 45.04600 32.94000

