158

Mg 35.38000 2.76400 29.38500
C  33.08400 3.96100 32.02300
C  37.82800 2.54200 31.97800
C  37.34400 1.73900 27.16600
C  32.64100 2.98900 27.24400
N  35.40800 3.19500 31.73600
C  34.33500 3.53600 32.54500
C  34.78100 3.59900 33.97200
C  36.30500 3.27400 33.96300
C  36.58200 3.04000 32.46900
C  37.25200 4.44600 34.54300
C  33.88800 2.62800 34.86700
C  33.98200 2.83600 36.38200
H  34.74000 4.01800 37.01400
N  37.29500 2.34600 29.52500
C  38.12200 2.21000 30.62800
C  39.42200 1.79500 30.16500
C  39.31500 1.36300 28.81500
C  37.97100 1.85700 28.43400
C  40.61200 1.59300 31.04500
C  40.31300 0.67500 27.98300
O  40.07600 0.36100 26.87500
C  41.56900 0.17700 28.53100
N  35.09000 2.57300 27.39800
C  36.08000 2.00500 26.74400
C  35.63300 1.86100 25.25500
C  34.05400 1.95400 25.30500
C  33.93400 2.57000 26.69000
C  36.34300 2.78000 24.23200
C  33.31900 0.56500 25.17600
C  32.18300 0.64300 24.18800
N  33.39800 3.39100 29.52200
C  32.39100 3.52800 28.51500
C  31.20700 4.14300 28.99600
C  31.44200 4.32500 30.32500
C  32.74700 3.81000 30.59700
C  29.98400 4.33600 28.22300
C  30.86600 4.94600 31.51900
O  29.90600 5.62600 31.74800
C  31.91800 4.65100 32.64800
C  32.21700 5.94800 33.37800
O  32.76500 6.90400 32.80200
O  31.56600 5.98100 34.58400
C  31.32000 7.34000 35.10600
H  38.55000 2.41400 32.78800
H  37.91500 1.24600 26.37700
H  31.81900 2.99400 26.52400
H  34.67600 4.60000 34.39100
H  36.40000 2.36400 34.55600
H  38.17400 4.40100 33.96400
H  37.64300 4.15800 35.51900
H  36.77800 5.42300 34.63900
H  34.35100 1.65800 34.68700
H  32.84700 2.63900 34.54400
H  34.25200 1.90700 36.88500
H  32.98900 3.05700 36.77300
H  40.34900 1.80000 32.08200
H  41.50700 2.18300 30.85000
H  40.98800 0.57400 30.94600
H  41.39400 -0.55300 29.32100
H  42.25500 1.00900 28.69100
H  41.92300 -0.44500 27.70900
H  35.88600 0.84800 24.94200
H  33.66300 2.66000 24.57200
H  35.71200 3.27300 23.49200
H  37.08600 2.20500 23.68100
H  36.67700 3.73600 24.63600
H  32.86600 0.32200 26.13700
H  34.02800 -0.23200 24.94900
H  32.29300 -0.08300 23.38200
H  32.06000 1.55500 23.60400
H  31.33600 0.27500 24.76700
H  29.09600 4.44500 28.84500
H  29.76000 3.34800 27.82100
H  30.03000 5.14300 27.49200
H  31.55500 3.88600 33.33500
H  32.17700 7.59400 35.72900
H  30.37200 7.24700 35.63600
H  31.27200 8.14300 34.37000
Mg 29.82100 58.09900 40.15500
C  27.18200 56.29700 38.94300
C  32.00800 56.09800 38.38600
C  32.46100 60.20900 40.94700
C  27.62800 60.65700 41.04800
N  29.64000 56.49300 38.77200
C  28.41400 55.89500 38.45300
C  28.65000 54.56900 37.71100
C  30.15700 54.46400 37.52800
C  30.63600 55.77500 38.26400
C  30.93000 53.27100 38.27800
C  27.87700 54.32000 36.38900
C  27.65300 55.52200 35.45900
H  28.09800 55.42700 34.03000
N  32.00600 57.97800 39.90100
C  32.62200 57.10800 39.09500
C  34.05000 57.32800 39.14000
C  34.26000 58.52000 39.95200
C  32.86000 58.97600 40.27600
C  35.15100 56.48000 38.51300
C  35.54300 59.06900 40.44100
O  36.60300 58.43200 40.25200
C  35.62600 60.29700 41.29100
N  30.03000 60.20400 40.80200
C  31.22100 60.79200 41.12700
C  30.98700 62.10200 41.84100
C  29.43900 62.19000 42.07900
C  28.95700 60.98700 41.25800
C  31.92600 62.47600 43.03500
C  28.83000 63.50100 41.49700
C  27.54600 63.89100 42.16600
N  27.78800 58.49400 39.94600
C  27.02800 59.51100 40.53200
C  25.62800 59.20400 40.25800
C  25.65400 57.92700 39.72100
C  27.01100 57.53000 39.54900
C  24.43200 59.96600 40.56000
C  24.87200 56.75200 39.32900
O  23.68700 56.48900 39.37500
C  25.80500 55.70100 38.64500
C  25.63200 54.33300 39.18800
O  26.23500 53.78700 40.12400
O  24.67300 53.70800 38.45700
C  24.24000 52.38500 39.02400
H  32.71300 55.42800 37.88900
H  33.28200 60.83000 41.31100
H  26.80600 61.34700 41.25200
H  28.33000 53.73500 38.33500
H  30.51600 54.47100 36.49900
H  31.39900 52.59800 37.56100
H  30.17100 52.69500 38.80800
H  31.76800 53.57000 38.90800
H  26.91500 53.92300 36.71300
H  28.44200 53.57800 35.82600
H  28.06900 56.43600 35.88100
H  26.58000 55.68100 35.34400
H  36.09200 57.01100 38.37200
H  34.82900 56.28100 37.49000
H  35.35100 55.60500 39.13100
H  36.67900 60.22600 41.56600
H  34.97000 60.27800 42.16200
H  35.49500 61.14000 40.61300
H  31.19100 62.87600 41.10000
H  29.20800 61.92300 43.11000
H  32.56000 61.64400 43.34400
H  31.29000 62.83900 43.84300
H  32.59700 63.23500 42.63400
H  28.72900 63.32800 40.42500
H  29.52800 64.32800 41.62700
H  27.52000 64.95800 42.38300
H  27.46400 63.64100 43.22400
H  26.68200 63.70900 41.52800
H  24.45900 60.52600 41.49500
H  23.56800 59.30400 40.61800
H  24.22500 60.64900 39.73600
H  25.54200 55.68800 37.58700
H  23.69000 51.98400 38.17300
H  23.71900 52.31900 39.97900
H  25.15100 51.80300 39.16300

