158

Mg 50.07700 45.19600 41.67900
C  46.86500 45.95000 40.61700
C  49.68100 41.99900 40.60300
C  53.41600 44.71500 41.94700
C  50.72300 48.76000 42.04100
N  48.42700 44.11800 40.70700
C  47.21000 44.63000 40.30000
C  46.34500 43.59900 39.58000
C  47.23400 42.33000 39.63100
C  48.53700 42.80300 40.36700
C  46.57000 41.17500 40.40200
C  46.11700 44.08900 38.04500
C  44.74900 44.06600 37.51300
H  44.57000 43.43000 36.10400
N  51.36600 43.50600 41.43100
C  51.00600 42.30000 40.99600
C  52.09800 41.44100 41.10800
C  53.18200 42.18900 41.57800
C  52.72200 43.50200 41.57400
C  51.91400 40.03000 40.67400
C  54.63800 41.73500 41.82700
O  54.88800 40.54700 41.77000
C  55.82700 42.60600 42.12200
N  51.74000 46.52300 41.97600
C  53.01900 46.00900 42.05000
C  54.03800 47.01900 42.64100
C  53.29300 48.38000 42.20600
C  51.82200 47.87900 42.19700
C  54.30600 46.90600 44.19100
C  53.84800 48.84900 40.86500
C  55.04700 49.81400 40.90200
N  49.01100 47.03400 41.53000
C  49.37400 48.33500 41.75100
C  48.15900 49.11800 41.69600
C  47.18600 48.21100 41.26700
C  47.77800 46.94800 41.13000
C  48.02400 50.62000 41.93300
C  45.80600 48.14900 40.83000
O  44.95900 48.99800 40.79200
C  45.58200 46.75300 40.34900
C  44.35000 46.13400 40.91300
O  44.22600 45.74900 42.04700
O  43.36700 46.03900 39.92200
C  42.18000 45.23700 40.34800
H  49.39400 40.97600 40.35100
H  54.41800 44.58600 42.36300
H  50.90800 49.83600 42.02400
H  45.41200 43.56500 40.14300
H  47.42200 41.90000 38.64800
H  45.54400 41.34000 40.73200
H  47.12900 40.94000 41.30800
H  46.58400 40.24700 39.83100
H  46.73700 43.41500 37.45400
H  46.50000 45.10600 37.96100
H  44.39900 45.09100 37.38500
H  44.04100 43.64900 38.22800
H  50.93500 39.65100 40.96500
H  52.65700 39.39600 41.15800
H  52.14200 39.87000 39.62000
H  55.66300 43.14000 43.05800
H  55.81600 43.37100 41.34600
H  56.74600 42.01900 42.11300
H  54.97700 47.03700 42.08800
H  53.47000 49.14100 42.96500
H  55.30100 47.22200 44.50200
H  54.35700 45.91700 44.64500
H  53.52200 47.47100 44.69600
H  53.09600 49.17000 40.14300
H  54.12400 47.97700 40.27200
H  54.97000 50.51100 40.06700
H  55.93500 49.18200 40.89100
H  55.08400 50.37400 41.83600
H  48.48200 51.34100 41.25500
H  48.31600 50.88900 42.94800
H  46.95000 50.80100 41.89600
H  45.42700 46.91900 39.28300
H  41.29800 45.59900 39.81900
H  41.94400 45.23100 41.41200
H  42.36000 44.18400 40.13200
Mg -2.53200 34.28000 26.62500
C  -4.44100 32.89700 29.25900
C  -1.72900 36.94500 28.64400
C  -0.88700 35.73200 24.07300
C  -4.06900 31.98000 24.55800
N  -3.21500 34.81200 28.68000
C  -3.76700 33.99200 29.63600
C  -3.75400 34.73200 30.98700
C  -2.97300 36.09600 30.62100
C  -2.65300 35.97400 29.17200
C  -3.75800 37.36100 30.97400
C  -3.09600 34.02600 32.15700
C  -2.67200 34.84800 33.42500
H  -3.19700 34.53000 34.83800
N  -1.45300 36.12100 26.37100
C  -1.22100 37.06000 27.29400
C  -0.29000 38.09400 26.82300
C  0.00600 37.71800 25.48200
C  -0.83400 36.53300 25.20900
C  0.30800 39.23400 27.72000
C  0.93500 38.34900 24.42200
O  1.03500 37.96100 23.28500
C  1.76000 39.51200 24.86600
N  -2.62500 33.98500 24.63600
C  -1.79300 34.67700 23.79600
C  -1.69100 33.95400 22.40900
C  -2.65800 32.73100 22.57400
C  -3.15200 32.93000 24.04700
C  -2.02300 34.75800 21.10300
C  -1.82300 31.40800 22.46500
C  -2.59600 30.24800 21.90200
N  -3.99300 32.75400 26.80900
C  -4.49100 31.87500 25.88500
C  -5.38100 30.85500 26.50000
C  -5.40200 31.27800 27.89900
C  -4.56200 32.40300 27.98200
C  -6.03000 29.71000 25.76700
C  -5.94600 30.95600 29.21600
O  -6.67400 30.04100 29.47700
C  -5.26900 31.93700 30.19500
C  -6.29900 32.60200 31.04700
O  -7.11100 33.40200 30.57600
O  -6.26900 32.15700 32.32600
C  -7.39400 32.50700 33.25200
H  -1.41400 37.72600 29.34000
H  -0.31000 36.01100 23.18900
H  -4.45400 31.19800 23.90000
H  -4.81200 34.89900 31.18700
H  -2.00200 36.14500 31.11300
H  -3.47800 38.19000 30.32400
H  -3.56900 37.63900 32.01000
H  -4.81900 37.19900 30.77900
H  -2.35600 33.31200 31.79500
H  -3.78200 33.29500 32.58600
H  -2.84900 35.91900 33.33100
H  -1.58800 34.77100 33.50500
H  1.34100 38.94800 27.91400
H  -0.30700 39.32100 28.61700
H  0.23000 40.19500 27.21200
H  2.21100 39.35900 25.84600
H  1.11400 40.38500 24.95600
H  2.55500 39.75700 24.16100
H  -0.65400 33.65200 22.26100
H  -3.55800 32.78300 21.96200
H  -2.37100 35.78000 21.25500
H  -2.68900 34.27300 20.39000
H  -1.14400 34.90200 20.47500
H  -1.54700 31.21800 23.50200
H  -0.87700 31.55500 21.94600
H  -1.96100 29.72500 21.18700
H  -3.55800 30.49500 21.45200
H  -2.73500 29.56100 22.73700
H  -7.02500 29.90300 25.36600
H  -6.10200 28.86600 26.45400
H  -5.38500 29.55400 24.90300
H  -4.57600 31.45500 30.88400
H  -8.03200 33.19800 32.70000
H  -7.04400 32.89100 34.21000
H  -7.98300 31.61600 33.47200

