158

Mg 8.93800 3.63100 27.99900
C  10.06100 1.92100 30.86800
C  7.12000 5.86400 30.00800
C  7.47100 5.03400 25.27000
C  10.13100 1.06900 25.97900
N  8.58800 3.72900 30.11400
C  9.24600 3.02900 31.12400
C  9.08400 3.75800 32.42900
C  8.07900 4.89800 32.22400
C  7.87900 4.82400 30.67100
C  6.69400 4.80000 33.05000
C  10.40800 4.13600 33.18800
C  10.69400 3.54200 34.59000
H  11.37900 4.42400 35.67200
N  7.62500 5.34300 27.68300
C  7.00800 6.11100 28.60400
C  6.29600 7.19100 27.97600
C  6.27800 6.86400 26.62200
C  7.19600 5.74000 26.43500
C  5.58200 8.28200 28.72500
C  5.39800 7.45800 25.52100
O  5.38500 6.99000 24.42300
C  4.44600 8.68600 25.78100
N  8.92400 3.13900 25.93100
C  8.30500 3.94100 24.97600
C  8.29300 3.28600 23.60200
C  9.22500 2.04100 23.73100
C  9.40300 2.05700 25.29600
C  6.81600 2.89000 23.21800
C  10.53400 2.12200 22.97800
C  10.63300 1.17000 21.78700
N  9.94700 1.87500 28.31300
C  10.38100 0.94800 27.43500
C  11.02900 -0.09600 28.09900
C  10.93000 0.19400 29.44000
C  10.21600 1.41300 29.54300
C  11.67700 -1.26500 27.39000
C  11.36700 -0.15000 30.84500
O  12.00300 -1.06500 31.24900
C  10.73900 0.96800 31.78500
C  9.85700 0.28500 32.78500
O  8.79100 -0.22500 32.56000
O  10.38800 0.31500 34.06400
C  9.63200 -0.41400 35.07300
H  6.55100 6.44300 30.73800
H  7.13100 5.47400 24.33100
H  10.53000 0.24300 25.38800
H  8.66200 3.02100 33.11200
H  8.56200 5.84900 32.45000
H  6.44800 5.81400 33.36500
H  6.92400 4.23800 33.95500
H  5.87900 4.37700 32.46300
H  10.33800 5.21300 33.33800
H  11.26800 3.92300 32.55400
H  11.47400 2.78300 34.53900
H  9.77300 3.09400 34.96500
H  4.50000 8.21100 28.60600
H  5.92800 9.22300 28.29900
H  5.87100 8.35300 29.77300
H  3.78500 8.88400 24.93700
H  5.02500 9.58100 26.01000
H  3.80600 8.61900 26.66000
H  8.36000 4.04000 22.81800
H  8.72500 1.09500 23.52300
H  6.12900 3.26400 23.97800
H  6.68800 1.81000 23.15300
H  6.61500 3.40100 22.27700
H  11.32800 1.73600 23.61800
H  10.67300 3.09700 22.51300
H  11.03500 1.60300 20.87100
H  9.68700 0.72300 21.48000
H  11.27000 0.30800 21.98700
H  11.11500 -1.67600 26.55100
H  11.92600 -2.10900 28.03200
H  12.58300 -0.82100 26.97600
H  11.58500 1.42000 32.30200
H  10.13900 -1.34500 35.32400
H  8.61000 -0.64800 34.77500
H  9.49300 0.21600 35.95200
Mg 16.80400 -2.02200 27.86200
C  15.81100 0.10700 30.37300
C  18.49500 -3.94700 30.04700
C  18.24200 -3.69700 25.24000
C  15.52600 0.30000 25.48600
N  17.23500 -1.80800 29.87000
C  16.58600 -0.93800 30.77900
C  16.94200 -1.36000 32.24200
C  17.93200 -2.50700 32.14500
C  17.93900 -2.77600 30.55700
C  19.42200 -2.16200 32.55900
C  15.72600 -1.49400 33.21500
C  15.83800 -0.60900 34.49800
H  17.29400 -0.25400 35.07600
N  18.13100 -3.71100 27.68300
C  18.57800 -4.43800 28.73400
C  19.24000 -5.62700 28.23600
C  19.07200 -5.56800 26.83100
C  18.53500 -4.23300 26.54600
C  19.75000 -6.72000 29.21500
C  19.42700 -6.57500 25.85200
O  19.32100 -6.43700 24.62800
C  19.97100 -7.83700 26.33600
N  16.81200 -1.81200 25.65600
C  17.61000 -2.52800 24.88200
C  17.47300 -2.05300 23.42400
C  16.35300 -0.94900 23.48900
C  16.22500 -0.76200 24.93300
C  18.72900 -1.57200 22.69500
C  15.00900 -1.30400 22.89300
C  14.37100 -0.42300 21.88500
N  15.78900 -0.24100 27.88800
C  15.28800 0.50400 26.85900
C  14.49600 1.66100 27.41700
C  14.79300 1.57700 28.81400
C  15.46900 0.34300 29.06100
C  13.70300 2.64800 26.71100
C  14.55000 2.21400 30.03200
O  14.09100 3.32500 30.28800
C  15.08600 1.30600 31.17400
C  15.97300 2.11100 31.96600
O  17.16900 2.37600 31.67900
O  15.34600 2.52600 33.12500
C  16.08900 3.35300 34.09500
H  18.79700 -4.70000 30.77900
H  18.51900 -4.18900 24.30500
H  15.08700 1.05700 24.83200
H  17.53100 -0.56600 32.70200
H  17.56500 -3.35900 32.71700
H  19.85700 -3.09900 32.90700
H  19.37800 -1.55800 33.46600
H  19.92100 -1.68600 31.71500
H  15.73100 -2.55200 33.47500
H  14.83700 -1.16500 32.67700
H  15.24900 -1.13900 35.24600
H  15.23900 0.29600 34.39100
H  20.57800 -7.30000 28.80800
H  18.90300 -7.28900 29.59700
H  20.18300 -6.21900 30.08000
H  20.09500 -8.35600 25.38500
H  19.25500 -8.36100 26.97000
H  20.98700 -7.65400 26.68700
H  17.00000 -2.86500 22.87200
H  16.76200 -0.06500 23.00100
H  18.69600 -0.51200 22.44500
H  18.76900 -2.14900 21.77100
H  19.63500 -1.91100 23.19800
H  14.29800 -1.29800 23.71900
H  15.03800 -2.36900 22.66500
H  13.61800 0.21300 22.35100
H  13.84100 -1.06700 21.18400
H  14.93400 0.28600 21.27700
H  14.39500 2.85500 25.89400
H  13.50400 3.54300 27.30100
H  12.78900 2.30100 26.23100
H  14.22400 1.02300 31.77800
H  15.65200 4.35100 34.11800
H  17.14400 3.40300 33.82500
H  16.06900 2.87600 35.07500

