158

Mg 43.41000 3.84900 47.23000
C  41.35400 6.62900 46.73300
C  40.82100 1.79900 46.62200
C  45.48400 1.23100 47.26700
C  46.06300 5.95200 47.65000
N  41.28100 4.21500 46.68700
C  40.64800 5.40800 46.57500
C  39.18800 5.19300 46.29500
C  39.07600 3.62100 46.42000
C  40.44700 3.17100 46.60900
C  38.17400 3.04700 47.57300
C  38.72900 5.84500 44.93600
C  37.35900 5.28300 44.52100
H  37.52200 4.62300 43.19900
N  43.17900 1.77000 46.82200
C  41.98700 1.08900 46.61100
C  42.21900 -0.33600 46.41900
C  43.63800 -0.52000 46.61100
C  44.17500 0.83800 46.93900
C  41.09600 -1.32000 45.99400
C  44.27900 -1.84100 46.56900
O  43.62800 -2.84800 46.35400
C  45.77500 -2.06200 46.75500
N  45.50800 3.59900 47.20700
C  46.05300 2.43000 47.41500
C  47.59300 2.58100 47.54100
C  47.79400 4.09900 47.56100
C  46.34300 4.57700 47.49600
C  48.28800 1.72800 48.65900
C  48.69600 4.60900 46.40300
C  50.17900 4.44500 46.61900
N  43.64100 5.87600 47.30000
C  44.82000 6.61300 47.38100
C  44.58000 8.03100 47.40200
C  43.21300 8.07600 47.21000
C  42.69900 6.73200 47.02700
C  45.53100 9.14900 47.66500
C  42.07000 9.01200 46.98400
O  42.08000 10.23800 47.06100
C  40.75300 8.07500 46.86700
C  39.98300 8.34900 48.09500
O  39.83100 7.60000 49.06900
O  39.24700 9.45700 47.76500
C  38.05900 9.60000 48.58000
H  39.97900 1.10700 46.55600
H  46.17700 0.40500 47.44200
H  46.98700 6.50400 47.83400
H  38.65800 5.68100 47.11300
H  38.71600 3.13000 45.51700
H  38.70200 2.78700 48.49000
H  37.79100 2.05000 47.36000
H  37.34600 3.73200 47.75900
H  39.53700 5.64500 44.23200
H  38.50900 6.90700 45.04100
H  36.63600 6.09700 44.45700
H  36.97200 4.55000 45.22900
H  40.86900 -2.11800 46.70100
H  41.34400 -1.93700 45.13000
H  40.09600 -0.91200 45.84400
H  46.19900 -1.31800 46.07900
H  46.10800 -3.08600 46.58600
H  45.99400 -1.70500 47.76100
H  47.92800 2.15900 46.59400
H  48.22300 4.31200 48.54100
H  47.62100 1.23300 49.36400
H  49.07500 2.32000 49.12600
H  48.85600 0.93800 48.16600
H  48.54800 5.68800 46.44500
H  48.51500 4.25800 45.38700
H  50.67300 5.38800 46.38600
H  50.66700 3.62500 46.09200
H  50.37700 4.17300 47.65500
H  46.44400 8.90500 47.12200
H  45.60900 9.22400 48.74900
H  45.04100 10.00100 47.19200
H  40.12600 8.38100 46.02900
H  38.17300 10.45100 49.25100
H  37.78500 8.71500 49.15300
H  37.21600 9.82900 47.92800
Mg 9.04300 47.55900 26.85200
C  7.08800 47.14200 29.63300
C  11.70500 47.95700 28.99900
C  10.84800 48.65400 24.17000
C  6.13600 47.65000 24.84200
N  9.38100 47.62100 29.14300
C  8.41700 47.35000 30.06000
C  9.01600 47.38700 31.49200
C  10.53000 47.70700 31.25100
C  10.53100 47.77500 29.72100
C  11.21800 48.89100 31.98500
C  8.67700 46.25200 32.55400
C  9.79400 45.90200 33.53000
H  9.43700 45.15500 34.80800
N  11.04500 48.08100 26.60100
C  11.99700 48.13600 27.58900
C  13.24900 48.39400 26.97400
C  13.02100 48.54600 25.58500
C  11.59000 48.48000 25.39500
C  14.55900 48.30900 27.81700
C  14.02000 48.80400 24.50000
O  13.77300 49.01200 23.30500
C  15.46000 49.01900 24.92000
N  8.55100 48.17900 24.80500
C  9.47400 48.66100 23.92400
C  8.86200 48.94000 22.60400
C  7.38200 48.39800 22.75900
C  7.34400 48.00500 24.24100
C  8.87300 50.45600 22.24600
C  7.01200 47.12500 21.77900
C  6.20700 47.45400 20.45000
N  7.01800 47.41700 27.11300
C  5.94600 47.31200 26.18400
C  4.68500 47.10600 26.89000
C  5.06300 47.06900 28.25000
C  6.50100 47.22100 28.33100
C  3.34600 47.07600 26.19600
C  4.59300 46.82900 29.62000
O  3.46100 46.69600 30.06300
C  5.92900 46.73100 30.52600
C  6.01000 45.34700 31.12000
O  6.63700 44.42300 30.63000
O  5.44300 45.35800 32.39300
C  5.70300 44.28600 33.28600
H  12.56200 48.03500 29.67100
H  11.42700 48.85000 23.26500
H  5.27800 47.64800 24.16700
H  8.62700 48.23400 32.05600
H  11.11500 46.81600 31.47800
H  11.74300 49.52900 31.27300
H  12.02600 48.41700 32.54300
H  10.52300 49.47000 32.59400
H  8.56300 45.28200 32.07000
H  7.81300 46.58200 33.13100
H  10.15300 46.88300 33.84000
H  10.61100 45.36100 33.05300
H  14.95600 49.32200 27.74800
H  15.35500 47.65100 27.46900
H  14.37400 48.13100 28.87600
H  15.67400 49.69400 25.74900
H  15.91600 49.33600 23.98200
H  15.85400 48.00800 25.02800
H  9.44900 48.37800 21.87800
H  6.58900 49.14200 22.67900
H  9.41200 50.57400 21.30600
H  9.51300 50.87900 23.02100
H  7.86800 50.87600 22.27300
H  6.50300 46.36400 22.37000
H  8.02500 46.88500 21.45700
H  5.30600 46.84100 20.46700
H  6.72300 47.23100 19.51500
H  5.77700 48.45400 20.39600
H  3.15700 46.32500 25.42800
H  3.19200 48.06600 25.76800
H  2.46200 46.94100 26.81900
H  5.86500 47.51800 31.27700
H  6.41200 43.58200 32.85000
H  4.76700 43.82500 33.60000
H  6.26100 44.61300 34.16400

