158

Mg 27.88900 51.40900 26.26800
C  25.79400 52.49700 28.98200
C  30.31300 50.72200 28.60500
C  29.92600 50.74400 23.72000
C  25.58100 52.83500 24.08500
N  27.94100 51.43400 28.42000
C  26.98900 51.89800 29.32600
C  27.54600 51.80600 30.83600
C  28.98300 51.30000 30.70200
C  29.10600 51.12700 29.13600
C  30.01100 52.34100 31.34800
C  26.49800 50.91900 31.67600
C  27.07300 50.27200 32.90200
H  26.69200 50.72800 34.33900
N  29.74200 50.61400 26.18900
C  30.58100 50.44400 27.25300
C  31.79200 49.87100 26.80200
C  31.65500 49.66200 25.38100
C  30.46100 50.42200 25.00500
C  32.91900 49.51000 27.79600
C  32.60600 49.00700 24.43400
O  32.52900 48.97900 23.19500
C  33.86200 48.37400 24.94200
N  27.78900 51.82900 24.19500
C  28.78400 51.44800 23.31600
C  28.51200 51.87800 21.90100
C  27.11100 52.53300 22.08300
C  26.77200 52.41000 23.53700
C  29.66300 52.82600 21.32300
C  25.99000 52.02400 21.13000
C  25.79600 52.84400 19.84100
N  26.01900 52.35100 26.43800
C  25.20900 52.83700 25.49300
C  23.90900 53.33200 26.05800
C  24.12800 53.18000 27.44600
C  25.41300 52.63900 27.62300
C  22.76300 53.96700 25.28100
C  23.52500 53.39200 28.77400
O  22.45200 53.90500 29.12600
C  24.57300 52.90300 29.76600
C  24.86800 53.95100 30.63900
O  25.86900 54.67500 30.52600
O  24.06700 53.87200 31.76500
C  24.53600 54.49300 32.98900
H  31.02900 50.56700 29.41400
H  30.67500 50.48700 22.96800
H  24.80400 53.25200 23.44000
H  27.39700 52.76300 31.33600
H  29.26200 50.33300 31.12200
H  30.54800 51.81900 32.14000
H  29.47900 53.14700 31.85400
H  30.77000 52.68200 30.64500
H  26.01600 50.29800 30.92000
H  25.75300 51.61800 32.05500
H  28.10200 50.63200 32.92100
H  27.01400 49.18400 32.92500
H  32.85000 48.45800 28.07300
H  33.03600 50.12500 28.68800
H  33.80400 49.75100 27.20800
H  33.57600 47.65900 25.71400
H  34.47600 49.18900 25.32500
H  34.47400 47.92500 24.16000
H  28.37000 50.99300 21.28100
H  27.20800 53.60500 21.91300
H  29.45500 53.85200 21.01900
H  30.01700 52.30300 20.43500
H  30.44000 52.81500 22.08700
H  24.98100 52.02900 21.54300
H  26.27800 51.05500 20.72400
H  24.74400 52.79900 19.55800
H  26.23800 52.33700 18.98400
H  26.19100 53.86000 19.84900
H  21.79300 53.83000 25.75700
H  22.85700 53.67600 24.23500
H  22.92300 55.04500 25.30400
H  24.17200 52.07200 30.34700
H  25.19300 55.32400 32.73300
H  24.94300 53.78600 33.71200
H  23.68000 54.92700 33.50500
Mg -0.90800 34.42300 26.97000
C  -2.87200 32.70500 29.13400
C  0.11200 36.58500 29.47200
C  0.69700 36.24000 24.62900
C  -2.15400 32.44900 24.23000
N  -1.33000 34.58400 29.11200
C  -2.23400 33.75500 29.81700
C  -2.07500 34.05000 31.36300
C  -1.30500 35.41900 31.39700
C  -0.80200 35.57900 29.93000
C  -1.93500 36.68700 32.07900
C  -1.34900 32.90900 32.17100
C  -2.02400 32.16300 33.32300
H  -1.21800 32.17000 34.67400
N  0.28800 36.16300 27.03900
C  0.67000 36.81800 28.13900
C  1.66600 37.83100 27.77900
C  1.91100 37.68900 26.34700
C  0.92800 36.59300 25.96400
C  2.35300 38.73300 28.79200
C  2.87100 38.41100 25.40200
O  2.94300 38.22000 24.21500
C  3.65300 39.53700 26.04200
N  -0.69600 34.27600 24.81500
C  -0.00600 35.19500 24.09600
C  -0.38200 35.19000 22.62200
C  -1.02000 33.80100 22.52900
C  -1.34600 33.47600 23.93000
C  -1.28900 36.39000 22.16900
C  -0.12500 32.67900 21.85500
C  0.81700 31.86600 22.79000
N  -2.16800 32.84300 26.70600
C  -2.52000 32.09400 25.54200
C  -3.27100 30.99900 25.98400
C  -3.55500 31.27000 27.35700
C  -2.81700 32.35000 27.75500
C  -3.92100 29.94100 25.00900
C  -4.35400 30.77900 28.52400
O  -5.15900 29.85300 28.62700
C  -3.82000 31.67100 29.67500
C  -5.03600 32.26200 30.31700
O  -5.75900 33.10400 29.81000
O  -5.20600 31.76400 31.55000
C  -6.19500 32.37600 32.38700
H  0.35600 37.34300 30.22000
H  1.04400 36.88900 23.82200
H  -2.53700 31.85100 23.40000
H  -3.12000 34.26300 31.58900
H  -0.40000 35.13400 31.93400
H  -2.36200 37.40700 31.38100
H  -1.16700 37.17100 32.68300
H  -2.75700 36.38500 32.72800
H  -0.39100 33.28800 32.52800
H  -1.08500 32.21600 31.37200
H  -2.23400 31.10500 33.16800
H  -3.01900 32.56200 33.51900
H  3.39500 38.41900 28.86000
H  2.05000 38.64500 29.83600
H  2.12700 39.79500 28.70700
H  4.29600 39.13500 26.82400
H  2.93500 40.24400 26.45900
H  4.29100 40.09700 25.35800
H  0.54200 35.14800 22.04500
H  -1.92500 33.81100 21.92200
H  -1.53400 37.16200 22.89900
H  -2.24800 35.99800 21.83100
H  -0.73100 36.80200 21.32800
H  0.46000 33.13700 21.05700
H  -0.69200 31.92600 21.30900
H  0.92600 32.13000 23.84200
H  1.82500 31.86900 22.37500
H  0.54700 30.81300 22.85900
H  -4.41000 29.13800 25.56100
H  -3.18500 29.62400 24.27100
H  -4.67200 30.51400 24.46500
H  -3.28700 31.06600 30.40800
H  -6.90300 33.10900 32.00100
H  -5.62900 32.87200 33.17600
H  -6.80700 31.61400 32.87000

