158

Mg 26.06300 -0.70200 29.10000
C  27.65100 -0.60700 32.32400
C  23.06400 -0.33600 30.74600
C  24.67700 -0.47600 26.12700
C  29.32900 -1.35500 27.74600
N  25.38100 -0.59700 31.33000
C  26.29300 -0.44300 32.44800
C  25.50100 -0.09400 33.70600
C  23.99800 -0.09900 33.16300
C  24.11300 -0.35700 31.68100
C  22.98900 -1.14700 33.92900
C  25.91400 1.31200 34.23900
C  25.36300 1.61200 35.61900
H  26.37800 2.01400 36.75800
N  24.09900 -0.61600 28.57600
C  23.02200 -0.43400 29.37600
C  21.85400 -0.36600 28.55200
C  22.29200 -0.28600 27.23300
C  23.75400 -0.46100 27.22100
C  20.43000 -0.22200 29.11600
C  21.38600 -0.07500 25.93500
O  21.84800 -0.09700 24.79800
C  19.95500 0.43600 26.18500
N  26.95200 -0.74700 27.23400
C  26.12600 -0.69100 26.14000
C  26.99300 -0.82800 24.84400
C  28.44000 -1.05000 25.43200
C  28.24100 -1.01300 26.89000
C  26.51800 -1.95100 23.89100
C  29.57700 -0.05200 24.91100
C  29.47600 0.59000 23.54500
N  28.01700 -1.01400 29.83300
C  29.20900 -1.34400 29.10800
C  30.23200 -1.45500 30.03200
C  29.66800 -1.10300 31.30200
C  28.36800 -0.90500 31.13100
C  31.60000 -1.81600 29.72400
C  30.01400 -0.84700 32.69600
O  31.06400 -0.71000 33.23300
C  28.65600 -0.42200 33.41900
C  28.44400 -1.34600 34.61300
O  28.23800 -2.51400 34.51900
O  28.75500 -0.62800 35.70600
C  28.66300 -1.32600 37.03000
H  22.12300 -0.09800 31.24700
H  24.30700 -0.32300 25.11100
H  30.30200 -1.51200 27.27500
H  25.67400 -0.89200 34.42700
H  23.61700 0.86200 33.50900
H  22.03900 -0.79300 34.32900
H  23.55800 -1.43300 34.81300
H  22.79800 -2.07700 33.39400
H  25.54300 2.05100 33.52800
H  26.98300 1.49000 34.34800
H  24.77700 0.74700 35.92900
H  24.68600 2.43800 35.40200
H  19.91200 0.68700 28.81000
H  20.20800 -0.18900 30.18200
H  19.87900 -1.12000 28.83800
H  19.58700 0.77600 25.21800
H  20.04100 1.28400 26.86400
H  19.34900 -0.40800 26.51500
H  26.80600 0.14600 24.39200
H  28.71600 -2.07400 25.17800
H  26.22700 -2.81500 24.49000
H  27.22600 -2.26900 23.12600
H  25.73600 -1.58200 23.22700
H  30.50600 -0.61100 25.02200
H  29.54800 0.79700 25.59400
H  30.41900 0.46900 23.01100
H  29.43100 1.67400 23.65200
H  28.69900 0.21200 22.88000
H  32.26600 -0.99700 29.99600
H  31.70900 -1.98500 28.65200
H  31.93400 -2.71900 30.23400
H  28.76900 0.55000 33.89800
H  27.86500 -0.72600 37.46800
H  29.57000 -1.47800 37.61400
H  28.26400 -2.33200 36.90600
Mg 35.41800 49.82100 25.36500
C  35.51600 48.00800 28.41400
C  33.90300 52.33400 27.11700
C  34.78300 51.39900 22.40600
C  36.14700 46.85300 23.71300
N  34.71600 50.07900 27.61300
C  35.03600 49.28400 28.66200
C  34.79000 50.03700 30.00200
C  34.16200 51.39900 29.51800
C  34.15700 51.27300 28.00100
C  32.65700 51.62400 29.90100
C  36.11100 50.28100 30.84300
C  36.06800 50.02200 32.35300
H  34.79400 49.68400 33.08300
N  34.56300 51.62100 24.81900
C  34.04900 52.52200 25.68900
C  33.79600 53.76300 25.02200
C  34.09300 53.58400 23.60400
C  34.47100 52.13200 23.52200
C  33.22500 54.95600 25.79700
C  33.94900 54.46400 22.42100
O  34.27100 54.14800 21.29100
C  33.42200 55.83600 22.58500
N  35.25100 49.17000 23.31200
C  35.15300 50.04200 22.25300
C  35.58800 49.34900 20.95100
C  36.05700 47.95000 21.42200
C  35.80000 47.98500 22.90900
C  34.54900 49.32900 19.78100
C  37.59200 47.63900 21.19600
C  37.93100 46.29000 20.40000
N  35.76600 47.89200 25.92500
C  36.02600 46.78900 25.11200
C  36.17000 45.62000 25.90500
C  36.00700 46.07000 27.16000
C  35.77800 47.46800 27.18600
C  36.52000 44.25700 25.42700
C  36.11700 45.62200 28.49100
O  36.46100 44.53700 28.96700
C  35.74600 46.84800 29.36800
C  34.61000 46.42000 30.17900
O  33.45100 46.64500 29.86300
O  34.97600 45.96300 31.38800
C  33.91200 45.71800 32.34900
H  33.51700 53.19300 27.67000
H  34.79100 51.97200 21.47600
H  36.45000 45.99900 23.10400
H  34.14200 49.46400 30.66500
H  34.75500 52.28300 29.75500
H  32.28600 50.87600 30.60100
H  32.00700 51.41200 29.05200
H  32.46500 52.62800 30.27900
H  36.55600 51.26400 30.68800
H  36.76300 49.51900 30.41500
H  36.62700 50.83300 32.82000
H  36.77900 49.19900 32.42600
H  32.32100 54.52400 26.22600
H  32.92700 55.89100 25.32300
H  33.87600 55.23500 26.62600
H  32.35300 55.88200 22.79500
H  33.65000 56.47300 21.73100
H  33.87200 56.33500 23.44300
H  36.48000 49.88100 20.62000
H  35.44100 47.15300 21.00600
H  33.59100 49.58000 20.23500
H  34.45200 48.32600 19.36600
H  34.61400 49.97400 18.90400
H  38.13800 47.49100 22.12700
H  38.09500 48.44500 20.66200
H  38.12100 45.53900 21.16600
H  38.69400 46.36400 19.62500
H  37.01500 46.10500 19.83900
H  35.56300 44.10900 24.92700
H  36.67800 43.56300 26.25100
H  37.40100 44.35900 24.79200
H  36.59700 47.06200 30.01400
H  33.56200 44.68900 32.26400
H  33.14100 46.48700 32.30200
H  34.33600 45.70700 33.35300

