158

Mg 48.63300 24.81600 28.67000
C  49.45400 26.87200 31.43800
C  48.10800 22.26900 31.10600
C  48.01000 22.77600 26.33800
C  49.71500 27.24800 26.55700
N  48.74800 24.69100 31.06100
C  49.08800 25.64600 31.95100
C  48.87800 25.27800 33.41300
C  48.63100 23.68700 33.26800
C  48.51600 23.48300 31.69700
C  49.62400 22.81200 34.03400
C  47.79400 26.04700 34.18800
C  48.04700 26.51900 35.63000
H  46.96200 26.23200 36.68300
N  48.01700 22.76300 28.70400
C  47.87300 21.91000 29.76900
C  47.54100 20.52500 29.23000
C  47.38600 20.76200 27.87600
C  47.83200 22.09700 27.58600
C  47.27500 19.32100 29.97800
C  46.73200 19.94100 26.78600
O  46.61400 20.34800 25.58300
C  46.05900 18.51300 27.15300
N  48.89800 24.97800 26.69900
C  48.50800 23.97300 25.88600
C  48.71800 24.31400 24.33800
C  48.99800 25.81700 24.43100
C  49.32500 26.00400 25.96300
C  49.79600 23.51700 23.53700
C  47.80800 26.72900 24.11300
C  47.23300 26.58900 22.71600
N  49.38100 26.74600 28.91100
C  49.84600 27.57700 27.92900
C  50.41200 28.70400 28.58700
C  50.16900 28.52900 29.88800
C  49.62700 27.22800 30.10200
C  50.93200 29.90600 27.89600
C  50.32400 29.12900 31.14500
O  50.66500 30.26100 31.42600
C  49.77800 28.16100 32.19300
C  50.81800 27.93700 33.29800
O  51.83500 27.31000 33.30400
O  50.46900 28.60100 34.45300
C  51.31500 28.34900 35.63600
H  47.86600 21.53300 31.87600
H  47.81300 22.15600 25.46100
H  50.00700 28.03900 25.86200
H  49.65700 25.49200 34.14400
H  47.67100 23.32300 33.63300
H  50.38100 22.53600 33.30000
H  49.09300 21.99500 34.52400
H  50.10700 23.38200 34.82800
H  46.84100 25.51900 34.16800
H  47.60000 26.88100 33.51200
H  47.89800 27.59800 35.57800
H  49.06300 26.30000 35.95800
H  47.62400 19.45000 31.00300
H  47.70600 18.46900 29.45400
H  46.19900 19.14800 29.98500
H  45.44900 18.66200 28.04400
H  46.87000 17.78700 27.10700
H  45.38500 18.35500 26.31200
H  47.72100 24.16100 23.92500
H  49.87400 26.07300 23.83700
H  50.76100 24.01600 23.45600
H  49.39500 23.49000 22.52400
H  49.95200 22.49100 23.87100
H  48.05300 27.79100 24.12300
H  46.86600 26.55600 24.63400
H  47.86500 25.89200 22.16600
H  47.37700 27.51400 22.15800
H  46.17100 26.35700 22.64600
H  51.29200 30.58300 28.67100
H  50.22000 30.34500 27.19700
H  51.67400 29.55700 27.17900
H  48.96700 28.78400 32.56800
H  51.81200 27.37900 35.62500
H  50.82700 28.42600 36.60700
H  52.13900 29.06200 35.62600
Mg 17.06400 51.19200 25.96900
C  18.86800 49.96500 28.69700
C  14.76400 52.43600 28.16700
C  15.21500 52.23600 23.38200
C  19.50000 49.93700 23.91100
N  16.89100 51.18700 28.18200
C  17.71800 50.66400 29.09500
C  17.21100 50.94600 30.58700
C  15.73700 51.48600 30.32800
C  15.82800 51.78500 28.82700
C  14.63400 50.59400 30.79100
C  18.22900 51.92300 31.27100
C  17.90700 52.52100 32.63600
H  16.92200 51.74400 33.51600
N  15.33800 52.32600 25.80700
C  14.54100 52.75700 26.82300
C  13.40300 53.43300 26.31700
C  13.49500 53.45900 24.87900
C  14.75000 52.65000 24.59000
C  12.42900 54.01700 27.17100
C  12.71900 54.23700 23.83800
O  13.00100 54.11300 22.66200
C  11.36700 54.92900 24.16900
N  17.30400 51.07500 23.99400
C  16.35200 51.52500 23.10600
C  16.97900 51.37200 21.66700
C  18.48400 51.04900 21.83500
C  18.45600 50.69900 23.35300
C  16.10200 50.46700 20.73600
C  19.59400 52.16000 21.52600
C  20.78600 51.59300 20.72100
N  18.83200 50.12000 26.17200
C  19.66400 49.62500 25.25700
C  20.79300 48.88000 25.93000
C  20.48400 48.99900 27.31700
C  19.35500 49.78300 27.40400
C  21.98900 48.35200 25.39500
C  20.90700 48.61900 28.62800
O  21.77500 47.87400 28.96800
C  19.87700 49.32700 29.64600
C  19.29000 48.27800 30.50000
O  18.58800 47.29500 30.13800
O  19.54300 48.57300 31.80500
C  18.92200 47.76600 32.88200
H  13.95800 52.79900 28.80800
H  14.68400 52.66400 22.53000
H  20.16800 49.55500 23.13600
H  17.23800 49.98800 31.10500
H  15.53900 52.43200 30.83200
H  14.24700 50.07700 29.91300
H  13.88500 51.22100 31.27500
H  15.04500 49.73900 31.32700
H  18.75700 52.50300 30.51400
H  19.06500 51.27700 31.53900
H  17.38200 53.47100 32.53700
H  18.74700 52.55200 33.33000
H  11.48700 53.47600 27.27000
H  12.23200 55.01700 26.78400
H  12.77900 54.29700 28.16400
H  11.66600 55.80500 24.74600
H  10.81500 54.33200 24.89400
H  10.83900 55.15300 23.24200
H  17.06900 52.31700 21.13100
H  18.70000 50.17300 21.22400
H  15.70500 51.04400 19.90100
H  15.24500 50.09700 21.29900
H  16.69700 49.66100 20.30800
H  19.96100 52.64600 22.43000
H  19.06200 52.91400 20.94700
H  20.73000 51.81200 19.65400
H  20.95100 50.51700 20.67900
H  21.68800 52.10200 21.05800
H  22.84700 49.00400 25.55600
H  21.83000 48.04500 24.36100
H  22.19700 47.39800 25.87900
H  20.32400 50.12200 30.24400
H  19.53400 46.98200 33.32700
H  18.04000 47.28800 32.45400
H  18.52600 48.40900 33.66700

