158

Mg 44.57700 4.93600 47.60100
C  42.23900 7.38800 46.71600
C  42.03800 2.66400 47.02900
C  46.85100 2.58900 47.22400
C  47.12600 7.43500 47.52000
N  42.38400 5.03900 47.07500
C  41.72500 6.13200 46.73600
C  40.26800 5.86000 46.51600
C  40.15200 4.42300 47.19500
C  41.59700 4.02200 47.12900
C  39.56100 4.43800 48.65700
C  39.78100 5.83700 45.04100
C  38.62700 6.82600 44.75400
H  38.90600 7.86200 43.65200
N  44.40500 2.82700 47.36700
C  43.29200 2.14500 47.12700
C  43.63700 0.69600 47.08500
C  45.07700 0.64700 47.03700
C  45.51700 2.05500 47.23000
C  42.59600 -0.43300 47.16200
C  45.90700 -0.64100 46.85300
O  45.32700 -1.73500 46.76200
C  47.46600 -0.53300 46.66300
N  46.67800 5.04300 47.41000
C  47.36200 3.84100 47.32800
C  48.90000 4.04200 47.43900
C  48.98100 5.59100 47.60400
C  47.53500 6.06400 47.44300
C  49.62800 3.16300 48.56200
C  49.86000 6.35500 46.57900
C  50.42800 7.65600 47.06000
N  44.68300 7.06600 47.48600
C  45.81400 7.94300 47.48800
C  45.31800 9.25000 47.41400
C  43.95300 9.14000 47.03500
C  43.59000 7.79500 47.05300
C  46.21800 10.48100 47.49400
C  42.75200 9.88500 46.70100
O  42.52300 11.02400 46.58200
C  41.65000 8.74700 46.50800
C  40.53900 9.03000 47.52200
O  40.49800 8.82700 48.76200
O  39.51800 9.60000 46.82400
C  38.18300 9.62500 47.47500
H  41.17300 1.99900 47.06100
H  47.60300 1.79800 47.27100
H  47.88500 8.21900 47.46800
H  39.71700 6.66600 47.00100
H  39.48900 3.74700 46.65500
H  39.27400 5.40600 49.06900
H  40.31900 4.08800 49.35900
H  38.71100 3.76000 48.58200
H  39.50200 4.82100 44.76100
H  40.58500 6.15900 44.38000
H  38.33800 7.30500 45.68900
H  37.71500 6.24700 44.60600
H  42.65300 -1.12900 46.32500
H  41.57100 -0.08300 47.28300
H  42.95800 -1.02000 48.00600
H  48.00800 -0.16700 47.53500
H  47.54100 0.23200 45.89000
H  47.83700 -1.49100 46.29800
H  49.33700 3.78400 46.47500
H  49.23200 5.86400 48.62900
H  48.85300 2.59400 49.07600
H  50.22700 3.60500 49.35800
H  50.20100 2.46700 47.95000
H  49.15000 6.60300 45.79000
H  50.50800 5.67800 46.02200
H  50.39600 7.86900 48.12900
H  49.93600 8.45600 46.50700
H  51.48300 7.71500 46.79100
H  46.76800 10.54300 46.55500
H  46.78900 10.26500 48.39700
H  45.60400 11.36300 47.67600
H  41.22700 8.92800 45.52000
H  37.96500 10.39100 48.21900
H  37.87200 8.70900 47.97600
H  37.49700 9.73100 46.63400
Mg 35.31800 48.59900 25.50300
C  36.13200 46.78800 28.28800
C  34.13000 51.10100 27.69400
C  34.38700 50.37800 22.81600
C  36.03500 45.81800 23.40300
N  34.96700 48.77100 27.77800
C  35.57400 47.97300 28.68100
C  35.33100 48.47000 30.10800
C  34.50300 49.79800 29.86300
C  34.43600 49.91700 28.33500
C  33.16300 49.97000 30.50800
C  36.63600 48.65500 30.80400
C  36.71000 48.15300 32.24800
H  35.49300 48.21800 33.20600
N  34.46000 50.47900 25.27700
C  34.09700 51.37200 26.28000
C  33.79300 52.69700 25.70800
C  33.85500 52.51100 24.28400
C  34.23600 51.05400 24.06600
C  33.51000 53.96900 26.56100
C  33.59200 53.48700 23.18200
O  33.59600 53.17500 22.02600
C  33.42800 54.94600 23.52100
N  35.25600 48.12600 23.41900
C  34.84400 49.06300 22.51000
C  34.79700 48.52700 21.10700
C  35.47900 47.13000 21.24100
C  35.64400 47.01200 22.80300
C  33.33300 48.42700 20.53700
C  36.71000 46.97000 20.33600
C  37.96600 46.78200 21.14000
N  35.90200 46.71300 25.72300
C  36.20500 45.67600 24.77900
C  36.66700 44.55900 25.49700
C  36.71100 44.93500 26.90200
C  36.16600 46.24800 26.96000
C  37.07700 43.20000 25.10800
C  37.08300 44.55300 28.19200
O  37.52500 43.47300 28.65600
C  36.71900 45.66400 29.10800
C  35.77500 45.09800 30.18000
O  34.59600 44.93400 30.08900
O  36.48900 44.72000 31.24900
C  35.73000 44.52000 32.50000
H  33.94600 51.91500 28.39800
H  34.10100 51.00200 21.96600
H  36.33300 45.01900 22.72100
H  34.76400 47.67400 30.59000
H  35.03600 50.68900 30.19700
H  32.88700 49.00200 30.92600
H  32.47400 50.05100 29.66800
H  33.04200 50.88400 31.09000
H  36.94100 49.70100 30.77700
H  37.40800 48.16800 30.20800
H  37.45600 48.84100 32.64800
H  37.10000 47.14000 32.34300
H  32.71500 54.57900 26.13100
H  34.36700 54.63600 26.46600
H  33.27200 53.84300 27.61700
H  33.36800 55.51500 22.59300
H  34.36300 55.20300 24.01900
H  32.58200 55.25100 24.13600
H  35.35500 49.21400 20.47100
H  34.70900 46.42100 20.93700
H  33.01800 49.28500 19.94200
H  32.68000 48.12000 21.35300
H  33.35900 47.61100 19.81500
H  36.88900 47.80000 19.65300
H  36.63500 45.99600 19.85300
H  38.12700 47.37500 22.04100
H  38.75000 46.90500 20.39300
H  37.95100 45.77100 21.54700
H  36.90300 42.98000 24.05500
H  36.52000 42.47500 25.70200
H  38.12800 43.05800 25.36000
H  37.64700 46.02500 29.55100
H  34.80200 45.09100 32.46900
H  36.16800 44.83400 33.44800
H  35.41700 43.47700 32.53500

