158

Mg 36.27900 49.45300 26.84300
C  36.63000 47.42000 29.52600
C  35.46600 52.03900 28.96700
C  36.01100 51.42600 24.15300
C  36.97100 46.69600 24.73600
N  36.19500 49.71300 29.01900
C  36.45700 48.74900 29.93700
C  36.29200 49.25500 31.39200
C  35.49300 50.61200 31.08500
C  35.73800 50.88000 29.61300
C  34.03800 50.59200 31.56700
C  37.65700 49.41200 32.23200
C  37.55900 49.35400 33.74300
H  36.23700 49.66900 34.40900
N  35.84200 51.48900 26.63200
C  35.51500 52.39400 27.58800
C  35.06200 53.62700 26.96200
C  35.38000 53.48500 25.58400
C  35.70800 52.08800 25.39900
C  34.60600 54.86400 27.78100
C  35.39600 54.60000 24.50400
O  35.77200 54.45700 23.37500
C  34.89500 56.01800 24.92900
N  36.35200 49.02800 24.69900
C  36.27000 50.06900 23.82300
C  36.59800 49.57000 22.43000
C  36.96100 48.09000 22.64000
C  36.80600 47.93300 24.13800
C  35.46500 49.71500 21.39000
C  38.41600 47.76500 22.18400
C  38.63500 46.93200 20.89900
N  36.64700 47.43400 27.01200
C  36.95600 46.40400 26.09700
C  37.26200 45.17300 26.80100
C  37.04800 45.54500 28.09100
C  36.69800 46.88900 28.18500
C  37.65400 43.90000 26.18600
C  37.11900 45.02900 29.47500
O  37.46200 43.89100 29.82200
C  36.79600 46.19200 30.43100
C  35.63200 45.92400 31.26000
O  34.47100 45.83600 30.87100
O  36.07500 45.76700 32.58100
C  35.03500 45.59400 33.55500
H  35.13600 52.85100 29.61700
H  35.93100 52.12200 23.31500
H  37.26200 45.94400 23.99900
H  35.55800 48.71000 31.98600
H  35.95500 51.44900 31.60800
H  33.61400 49.62400 31.83100
H  33.38000 50.97700 30.78800
H  33.90000 51.29800 32.38600
H  38.16700 50.34800 32.00600
H  38.31500 48.61400 31.88600
H  38.31000 50.03800 34.13800
H  37.84400 48.36600 34.10600
H  35.42900 55.54900 27.98600
H  34.44500 54.61700 28.83100
H  33.69200 55.38500 27.49700
H  35.51400 56.44400 25.71900
H  33.86100 55.87200 25.24200
H  34.98000 56.58100 24.00000
H  37.46100 50.17100 22.14300
H  36.26800 47.35900 22.22300
H  35.45300 50.74900 21.04300
H  34.47400 49.50400 21.79100
H  35.71900 49.03900 20.57400
H  39.00400 47.29500 22.97300
H  38.91000 48.72600 22.03900
H  38.63700 45.87800 21.17700
H  39.58800 47.17400 20.43000
H  37.84200 47.17100 20.19100
H  38.66500 43.87200 25.77900
H  37.16400 43.71300 25.23100
H  37.44600 43.02800 26.80500
H  37.65200 46.29900 31.09800
H  34.34200 44.87300 33.12100
H  34.58500 46.55000 33.82300
H  35.44000 45.18700 34.48100
Mg -11.34400 36.93100 41.73200
C  -9.05200 34.67300 40.47400
C  -9.54100 39.49700 40.32700
C  -14.11000 38.98600 41.88300
C  -13.25700 34.27100 42.80800
N  -9.63700 37.04300 40.42200
C  -8.80100 36.00500 40.13800
C  -7.53700 36.46400 39.36500
C  -7.54800 38.00900 39.54200
C  -8.98100 38.20500 40.13100
C  -6.38900 38.76100 40.28000
C  -7.41100 35.92600 37.92800
C  -6.12500 35.18500 37.49800
H  -5.32800 35.70200 36.31200
N  -11.73500 39.00300 41.29300
C  -10.78400 39.91200 40.87000
C  -11.27900 41.22800 40.92800
C  -12.65000 41.11000 41.36800
C  -12.88000 39.63500 41.57000
C  -10.64700 42.44600 40.24800
C  -13.67000 42.23900 41.44000
O  -13.23600 43.39300 41.33600
C  -15.12000 42.07600 41.63000
N  -13.37600 36.56600 42.14100
C  -14.37100 37.63100 42.11900
C  -15.69600 37.19600 42.73800
C  -15.45100 35.68100 43.10700
C  -13.96600 35.49600 42.71700
C  -16.18600 38.12800 43.94000
C  -16.46400 34.69300 42.44000
C  -17.45200 33.92300 43.38700
N  -11.26800 34.88600 41.58200
C  -12.05500 33.97000 42.21100
C  -11.40000 32.65200 42.15800
C  -10.22400 32.90300 41.44700
C  -10.16400 34.28300 41.16400
C  -11.89700 31.35300 42.80200
C  -9.05600 32.30100 40.89800
O  -8.75800 31.11000 40.77600
C  -8.24300 33.41700 40.26200
C  -6.95000 33.32800 41.01200
O  -5.86500 33.10600 40.48300
O  -7.06000 33.76300 42.28900
C  -5.77300 33.63300 43.00100
H  -8.97700 40.37500 40.00500
H  -15.03500 39.56700 41.89600
H  -13.74400 33.41400 43.28000
H  -6.70000 36.08700 39.95300
H  -7.42800 38.40800 38.53500
H  -5.99200 39.44400 39.52900
H  -5.69700 37.99400 40.62700
H  -6.79700 39.37900 41.08000
H  -7.43500 36.74300 37.20700
H  -8.29100 35.28700 37.85200
H  -6.32600 34.12800 37.32600
H  -5.41900 35.23500 38.32800
H  -11.02500 42.51700 39.22800
H  -9.55900 42.39800 40.29000
H  -10.89900 43.41000 40.69200
H  -15.12200 41.59300 42.60700
H  -15.55400 41.35700 40.93500
H  -15.66100 43.02300 41.65200
H  -16.40700 37.37300 41.93100
H  -15.50200 35.61700 44.19300
H  -16.50500 37.43500 44.71900
H  -17.08100 38.64200 43.58800
H  -15.40400 38.81200 44.27000
H  -15.93200 33.93300 41.86800
H  -17.14600 35.25100 41.79900
H  -18.43700 34.31500 43.13200
H  -17.30400 34.16000 44.44000
H  -17.32000 32.85000 43.25300
H  -11.23800 30.52700 42.53100
H  -12.88700 31.12900 42.40400
H  -11.96600 31.29800 43.88900
H  -8.02500 33.19900 39.21700
H  -6.07000 33.80800 44.03500
H  -5.02300 34.28700 42.55700
H  -5.38800 32.61400 42.96900

