158

Mg 7.49300 52.95800 40.90700
C  6.95300 49.43500 40.87200
C  10.67100 52.22400 39.66500
C  7.98400 56.21300 40.51300
C  4.14900 53.48800 41.49700
N  8.63000 51.05800 40.32800
C  8.20700 49.74800 40.41200
C  9.29000 48.79400 39.88500
C  10.54500 49.68800 39.92600
C  9.88000 51.11600 39.85800
C  11.38400 49.44100 41.17700
C  9.05400 48.24500 38.48600
C  8.54200 49.20900 37.41800
H  8.03200 48.53200 36.14900
N  9.10700 54.10000 40.15000
C  10.32100 53.53200 39.84100
C  11.19600 54.68700 39.50700
C  10.47200 55.91300 39.82100
C  9.11800 55.41200 40.11700
C  12.60800 54.54100 38.90400
C  11.04800 57.29000 39.72000
O  12.06400 57.53200 39.04400
C  10.42600 58.43400 40.38700
N  6.17600 54.71000 40.76100
C  6.66100 55.93400 40.86700
C  5.65800 56.91400 41.47500
C  4.41800 56.00300 41.47400
C  4.89400 54.65400 41.28600
C  6.07500 57.48700 42.80400
C  3.32800 56.34000 40.34700
C  2.33900 57.38700 40.71100
N  5.86200 51.79300 41.15900
C  4.57800 52.12900 41.53500
C  3.82100 50.93000 41.82800
C  4.71800 49.83600 41.54900
C  5.95200 50.40800 41.17100
C  2.31300 50.84400 42.14300
C  4.82900 48.40600 41.54600
O  3.91400 47.66600 41.85600
C  6.35500 48.06000 41.12800
C  6.16400 47.19200 39.92800
O  5.83600 47.55400 38.86800
O  6.67400 45.88900 40.15400
C  6.56500 44.89600 39.08100
H  11.69500 52.02400 39.34400
H  8.06700 57.29400 40.64100
H  3.12300 53.60700 41.85300
H  9.32300 47.96600 40.59300
H  11.23900 49.64000 39.08700
H  12.39500 49.26200 40.81200
H  11.26200 48.45600 41.62600
H  11.35000 50.27300 41.88000
H  8.56400 47.27600 38.39300
H  10.08900 48.05300 38.20100
H  9.30400 49.94200 37.15100
H  7.75200 49.84300 37.82200
H  12.82400 55.02700 37.95300
H  12.93600 53.50200 38.88500
H  13.32300 55.02900 39.56600
H  9.68500 58.97500 39.79800
H  11.23800 59.12300 40.61800
H  9.94900 58.11700 41.31500
H  5.61400 57.74700 40.77400
H  3.97500 56.03300 42.47000
H  6.95800 56.94700 43.14800
H  5.30800 57.46900 43.57700
H  6.29000 58.55100 42.70600
H  2.82700 55.48800 39.88700
H  3.96300 56.84800 39.62100
H  2.20400 57.38100 41.79300
H  1.41200 57.33200 40.14000
H  2.64900 58.37300 40.36500
H  2.32700 50.57700 43.20000
H  1.84600 50.07000 41.53400
H  1.93400 51.86400 42.08700
H  6.85000 47.48900 41.91300
H  7.23000 45.08700 38.23800
H  5.52400 44.74900 38.79200
H  6.89400 43.95300 39.51800
Mg -6.52100 24.94900 25.91800
C  -4.68000 26.06500 28.91100
C  -8.21200 22.90400 28.03100
C  -7.61200 23.40200 23.21500
C  -4.00400 26.63900 24.01000
N  -6.48700 24.66100 28.14900
C  -5.74600 25.21700 29.13800
C  -6.21800 24.80600 30.58400
C  -7.04100 23.53400 30.21500
C  -7.29900 23.74200 28.70100
C  -6.25900 22.15300 30.42700
C  -7.01600 25.99300 31.23700
C  -6.90900 26.10100 32.77000
H  -6.51600 24.80600 33.44600
N  -7.97500 23.55100 25.60200
C  -8.53100 22.81700 26.57700
C  -9.47000 21.88200 25.97100
C  -9.34200 22.03200 24.54300
C  -8.34600 23.11200 24.37300
C  -10.40400 21.03600 26.82700
C  -10.03200 21.20100 23.42100
O  -9.80500 21.35000 22.25000
C  -10.97000 20.15400 23.81600
N  -5.88900 24.95800 23.94100
C  -6.51700 24.26100 22.99700
C  -5.82000 24.31200 21.64300
C  -5.01300 25.62100 21.84200
C  -4.92900 25.80200 23.35100
C  -4.88600 23.14600 21.38400
C  -5.56400 26.88100 21.11300
C  -4.73000 27.55700 20.05600
N  -4.70800 26.06500 26.32500
C  -3.87500 26.74400 25.42200
C  -2.86800 27.54700 26.16800
C  -3.08500 27.16400 27.51100
C  -4.19900 26.31200 27.59400
C  -1.83000 28.42700 25.62800
C  -2.67300 27.48100 28.92000
O  -1.73600 28.17600 29.35300
C  -3.67800 26.77700 29.87400
C  -2.91200 25.95100 30.75400
O  -2.54400 24.80200 30.52200
O  -2.55800 26.70600 31.88400
C  -1.77700 26.08800 32.93600
H  -8.81200 22.25400 28.67100
H  -7.89300 22.81700 22.33700
H  -3.34800 27.19600 23.33800
H  -5.33200 24.51400 31.14800
H  -7.97900 23.57800 30.76900
H  -5.27000 22.44700 30.77700
H  -6.13700 21.55100 29.52700
H  -6.73700 21.51300 31.16900
H  -8.06500 25.84000 30.98600
H  -6.60300 26.93000 30.86300
H  -7.85700 26.54700 33.07000
H  -6.08500 26.81100 32.69900
H  -10.76100 21.62400 27.67200
H  -9.87100 20.14500 27.16100
H  -11.29400 20.57400 26.40000
H  -10.30100 19.42800 24.27800
H  -11.40700 19.65500 22.95200
H  -11.76700 20.62200 24.39400
H  -6.56600 24.49400 20.86900
H  -4.01900 25.47800 21.41900
H  -5.01100 22.36900 22.13900
H  -3.84500 23.43600 21.24500
H  -5.17000 22.64300 20.45900
H  -5.69300 27.68400 21.83800
H  -6.51200 26.65600 20.62400
H  -4.88300 28.60800 20.30100
H  -5.08300 27.36400 19.04300
H  -3.70000 27.25400 20.24100
H  -0.89900 28.42600 26.19600
H  -2.24000 29.43100 25.52300
H  -1.60000 28.07000 24.62400
H  -4.26900 27.54600 30.37100
H  -1.61200 26.82000 33.72700
H  -0.82900 25.73200 32.53300
H  -2.35200 25.25000 33.33000

