158

Mg 9.23800 3.79600 27.12200
C  10.29300 2.13700 30.09400
C  6.83100 5.27600 29.10900
C  7.86900 4.97700 24.37300
C  10.96700 1.46800 25.29700
N  8.84500 4.02400 29.40800
C  9.44200 3.18400 30.33100
C  8.88700 3.67000 31.75400
C  7.64700 4.54300 31.40600
C  7.73100 4.64200 29.89200
C  6.31200 4.13800 31.96000
C  10.04300 4.37200 32.57600
C  10.43000 3.68600 33.94200
H  10.77200 4.55500 35.13500
N  7.68400 5.03600 26.74900
C  6.82600 5.54700 27.72600
C  5.80900 6.43000 27.06200
C  6.18900 6.45500 25.69800
C  7.29000 5.49100 25.52400
C  4.58500 7.08000 27.69500
C  5.55200 7.16500 24.59200
O  5.82200 7.07300 23.39400
C  4.42200 8.21100 24.90200
N  9.32200 3.25100 25.12000
C  8.80400 3.94200 24.13600
C  9.38400 3.56200 22.70300
C  10.23200 2.29400 23.03500
C  10.21200 2.38200 24.58700
C  8.33700 3.44700 21.62900
C  11.56400 2.26900 22.39600
C  11.77400 0.89100 21.61900
N  10.36500 2.09000 27.56400
C  11.04300 1.24300 26.68600
C  11.76800 0.25300 27.39100
C  11.47800 0.54200 28.73900
C  10.69200 1.70800 28.79300
C  12.45800 -0.95500 26.78000
C  11.67400 0.11900 30.15200
O  12.23700 -0.84400 30.66700
C  10.91300 1.15700 31.08100
C  9.95600 0.26400 31.75700
O  8.81600 -0.06400 31.35300
O  10.37400 0.08200 33.07300
C  9.36000 -0.57000 33.94600
H  5.99200 5.62000 29.71800
H  7.50500 5.43900 23.45300
H  11.55900 0.66000 24.86100
H  8.74700 2.70600 32.24300
H  7.77400 5.54400 31.81800
H  6.52900 3.48400 32.80500
H  5.81500 3.51900 31.21400
H  5.78700 5.00600 32.35900
H  9.70100 5.36300 32.87200
H  10.87800 4.52700 31.89200
H  11.26500 3.01100 33.74900
H  9.69800 2.90800 34.16000
H  4.78300 8.14600 27.58700
H  4.57000 6.86700 28.76400
H  3.66200 6.86000 27.15900
H  3.53700 7.60000 25.08200
H  4.22400 8.74100 23.97000
H  4.73200 8.91200 25.67800
H  9.93100 4.43200 22.34000
H  9.67800 1.38000 22.81900
H  7.33500 3.51500 22.05400
H  8.45800 2.40700 21.32600
H  8.37700 4.21900 20.86100
H  12.25500 2.54700 23.19100
H  11.64400 3.04300 21.63300
H  11.96500 1.12300 20.57100
H  10.85500 0.30700 21.58300
H  12.55000 0.24000 22.02300
H  11.86600 -1.47400 26.02700
H  12.63000 -1.61100 27.63300
H  13.46400 -0.78100 26.40000
H  11.69800 1.59700 31.69600
H  8.40800 -0.05700 33.81500
H  9.75800 -0.45700 34.95500
H  9.20900 -1.64500 33.84800
Mg 35.45000 49.56100 26.47800
C  35.73600 47.21900 29.05000
C  34.23500 51.89300 28.82800
C  34.87700 51.59800 24.00100
C  36.33600 47.00900 24.15800
N  35.06900 49.52600 28.65700
C  35.31300 48.47700 29.50900
C  35.14800 48.93200 30.88700
C  34.26900 50.18000 30.74800
C  34.44800 50.55000 29.34700
C  32.78800 49.93300 31.08700
C  36.53400 49.13300 31.54300
C  36.74900 48.68500 33.00300
H  37.02800 49.83100 34.00200
N  34.88300 51.51700 26.51000
C  34.44300 52.33200 27.50900
C  34.29400 53.65800 26.95800
C  34.46700 53.62400 25.56300
C  34.78400 52.17600 25.29000
C  33.83000 54.74000 27.85900
C  34.34300 54.72600 24.54200
O  34.50000 54.56000 23.34700
C  34.03400 56.27700 24.91100
N  35.36000 49.20400 24.35000
C  35.20000 50.28900 23.55400
C  35.43300 49.95800 22.05200
C  36.14800 48.58800 22.16900
C  35.92900 48.26300 23.61400
C  34.03600 49.88300 21.35700
C  37.58500 48.45600 21.76600
C  37.92200 47.23900 20.81700
N  35.84600 47.46700 26.52400
C  36.26700 46.55200 25.52000
C  36.47300 45.24300 26.10800
C  36.32000 45.42300 27.53600
C  35.88300 46.82300 27.74600
C  36.74800 43.96600 25.39200
C  36.40000 44.83100 28.91400
O  36.58600 43.68500 29.30700
C  36.11000 45.97100 29.87500
C  35.03800 45.49800 30.84500
O  33.98800 44.94200 30.61700
O  35.40800 45.90500 32.10000
C  34.46500 45.64700 33.16300
H  33.97500 52.50100 29.69700
H  34.71300 52.24800 23.13900
H  36.58700 46.30800 23.35900
H  34.62000 48.11700 31.38200
H  34.72500 50.86400 31.46400
H  32.61700 48.96600 30.61300
H  32.15900 50.58800 30.48400
H  32.53300 49.98500 32.14500
H  36.87200 50.15200 31.73300
H  37.34000 48.76600 30.90800
H  37.48500 47.88100 32.99800
H  35.82900 48.18100 33.29800
H  34.51200 55.58700 27.78800
H  33.59900 54.43000 28.87800
H  32.85100 55.03600 27.48100
H  33.08100 56.43600 25.41500
H  34.08900 56.74900 23.93100
H  34.82100 56.66800 25.55600
H  36.07700 50.68600 21.55900
H  35.52300 47.95200 21.54200
H  33.24600 49.67800 22.07900
H  33.98600 49.19600 20.51300
H  33.82100 50.86100 20.92600
H  38.21100 48.34400 22.65200
H  37.92200 49.33900 21.22200
H  38.08400 47.63700 19.81500
H  37.17200 46.44800 20.81900
H  38.91500 46.83400 21.01300
H  37.72700 44.15500 24.95000
H  36.07300 43.75500 24.56300
H  36.62800 43.05800 25.98300
H  36.90300 46.34900 30.52000
H  34.39400 46.46200 33.88400
H  34.99600 44.89400 33.74500
H  33.45100 45.27400 33.02200

