158

Mg 8.43400 3.35000 27.68700
C  10.01000 2.06200 30.42600
C  6.44400 5.28500 29.79500
C  6.58600 4.29400 24.96600
C  10.26400 1.06200 25.66800
N  8.24800 3.57300 29.83900
C  8.98900 2.93600 30.81300
C  8.57100 3.43400 32.27800
C  7.45300 4.48300 31.93600
C  7.36600 4.48000 30.42100
C  6.08800 4.19300 32.60400
C  9.81600 3.98800 33.03400
C  9.52100 5.11800 34.10700
H  10.20200 5.02400 35.47800
N  6.78000 4.53800 27.38400
C  6.17900 5.32200 28.35900
C  5.18900 6.27900 27.71600
C  5.28300 6.02200 26.33200
C  6.24000 4.89500 26.16700
C  4.35200 7.29300 28.41900
C  4.57500 6.75800 25.19800
O  4.68500 6.45900 23.99300
C  3.61400 7.86200 25.50000
N  8.25300 2.56700 25.68400
C  7.49200 3.29500 24.71200
C  7.97100 2.92300 23.28900
C  9.25600 2.12900 23.52000
C  9.25100 1.90700 25.03600
C  6.79600 2.13700 22.49200
C  10.57800 2.83000 22.97100
C  11.28100 3.90100 23.86000
N  9.72300 1.71000 27.97000
C  10.40000 0.94500 27.04700
C  11.43200 0.23400 27.70700
C  11.29700 0.60300 29.12600
C  10.26400 1.49900 29.18900
C  12.47100 -0.68600 26.96900
C  11.83500 0.43400 30.43800
O  12.71800 -0.34900 30.80100
C  11.04900 1.38700 31.36500
C  10.38700 0.62300 32.43300
O  9.47300 -0.18100 32.26200
O  11.07000 0.72400 33.59900
C  10.42100 0.08800 34.72600
H  5.76500 5.89000 30.40000
H  6.21800 4.77000 24.05500
H  10.96300 0.45800 25.08700
H  8.20900 2.51100 32.73100
H  7.76400 5.49700 32.18900
H  5.49300 3.47300 32.04200
H  5.74400 5.22600 32.55900
H  6.11600 3.79500 33.61800
H  10.52600 4.34300 32.28800
H  10.35900 3.23200 33.60000
H  8.44400 5.02700 34.25300
H  9.73900 6.00000 33.50500
H  3.27800 7.24100 28.24200
H  4.67600 8.29600 28.14200
H  4.44400 7.16700 29.49800
H  2.71500 7.43000 25.94000
H  3.37400 8.16200 24.48100
H  4.14800 8.65400 26.02600
H  8.14100 3.85500 22.74900
H  9.11200 1.19900 22.97100
H  5.88400 2.08100 23.08700
H  7.02600 1.12900 22.14600
H  6.51600 2.76700 21.64800
H  10.28300 3.28000 22.02300
H  11.35200 2.08700 22.77500
H  10.70800 4.04600 24.77600
H  11.27000 4.87000 23.36200
H  12.27000 3.51900 24.11400
H  12.77800 -0.09600 26.10600
H  11.93300 -1.61200 26.76700
H  13.25700 -0.91500 27.68800
H  11.76000 2.08300 31.81000
H  9.90900 0.90900 35.22800
H  11.23300 -0.27300 35.35700
H  9.76200 -0.74500 34.48200
Mg 47.20000 24.60200 27.17400
C  48.48500 26.85300 29.64000
C  46.27200 22.49800 29.72800
C  46.46000 22.24600 24.88200
C  48.48600 26.73700 24.63500
N  47.52000 24.66600 29.46600
C  47.83900 25.72900 30.20800
C  47.55900 25.45800 31.67800
C  47.23100 23.91100 31.61800
C  46.87700 23.75100 30.13900
C  48.48300 22.98700 32.03700
C  46.38600 26.36300 32.21800
C  45.88100 25.85100 33.63700
H  46.03300 26.84200 34.75000
N  46.38400 22.70800 27.24300
C  46.06600 22.05000 28.40300
C  45.51000 20.76200 28.09000
C  45.43900 20.70100 26.69200
C  46.17000 21.89500 26.16700
C  45.01000 19.74200 29.12400
C  44.90500 19.59200 25.76400
O  45.02800 19.75100 24.55700
C  44.31300 18.29400 26.32900
N  47.24800 24.60300 25.03700
C  46.99600 23.42400 24.39000
C  47.14500 23.71100 22.85700
C  47.64100 25.16700 22.79900
C  47.86200 25.52500 24.26500
C  47.91600 22.64800 22.15000
C  46.65600 26.14300 22.08700
C  47.29700 27.10200 21.09400
N  48.27100 26.35700 27.10100
C  48.77500 27.09900 26.00200
C  49.55600 28.30000 26.48900
C  49.40900 28.18800 27.86400
C  48.64100 27.03200 28.23900
C  50.21800 29.38800 25.71400
C  49.62900 28.94300 29.16900
O  50.23200 29.95200 29.35700
C  48.89500 28.17600 30.34200
C  49.84000 27.87700 31.44100
O  50.72100 27.06600 31.55200
O  49.29600 28.56500 32.51500
C  49.98200 28.42600 33.80700
H  46.02500 21.84000 30.56400
H  46.30400 21.67500 23.96400
H  48.69700 27.48200 23.86400
H  48.43400 25.65300 32.29800
H  46.35600 23.64400 32.21200
H  48.91100 22.51400 31.15300
H  48.21400 22.14300 32.67300
H  49.24600 23.56700 32.55600
H  45.52700 26.13900 31.58600
H  46.52800 27.44200 32.26600
H  46.51800 25.07200 34.05500
H  44.87600 25.42900 33.65100
H  45.00400 20.05900 30.16700
H  45.48300 18.77300 28.97100
H  43.95800 19.50900 28.95700
H  43.44600 18.48400 26.96200
H  45.08900 17.81800 26.92900
H  43.91300 17.70400 25.50400
H  46.16300 23.66200 22.38600
H  48.57100 25.25300 22.23600
H  47.28400 21.89600 21.67600
H  48.46100 22.12500 22.93600
H  48.63500 23.07700 21.45200
H  46.08700 26.80600 22.73900
H  45.81700 25.71200 21.54100
H  47.18400 28.11400 21.48100
H  46.95900 27.14900 20.05900
H  48.36300 26.90900 20.96900
H  50.33400 29.10100 24.66900
H  51.19600 29.51900 26.17600
H  49.78600 30.38700 25.78700
H  48.13300 28.91700 30.58600
H  51.06300 28.28600 33.80100
H  49.49800 27.66900 34.42300
H  49.92800 29.34300 34.39400

