158

Mg 54.26500 24.54700 45.18500
C  52.06800 26.96600 44.01000
C  52.45200 22.07100 43.61400
C  56.78600 22.42900 45.76700
C  56.23900 27.21000 46.37400
N  52.69200 24.59600 43.64300
C  51.89000 25.73800 43.40200
C  50.73600 25.20100 42.54200
C  50.53000 23.69000 43.02100
C  51.96700 23.40300 43.47300
C  49.32500 23.62000 44.11100
C  50.95300 25.31600 40.94300
C  52.12000 26.20600 40.47400
H  53.45500 25.45600 40.09900
N  54.59200 22.51000 44.71300
C  53.65300 21.69000 44.19200
C  54.19300 20.41100 44.29300
C  55.49400 20.43900 44.81000
C  55.62700 21.80000 45.17600
C  53.36900 19.25600 43.65100
C  56.40700 19.29000 45.03400
O  56.08400 18.17700 44.58400
C  57.70400 19.37000 45.80200
N  56.25700 24.81200 45.70000
C  57.09800 23.76000 46.02100
C  58.44800 24.26000 46.16600
C  58.18200 25.66900 46.75800
C  56.83700 25.99500 46.11500
C  59.48100 23.45900 47.08300
C  59.25700 26.66200 46.31100
C  60.11700 27.20300 47.48000
N  54.09700 26.59600 45.41900
C  54.91200 27.49800 46.03000
C  54.18900 28.74000 46.24800
C  53.09400 28.65300 45.37800
C  53.09500 27.26900 44.93200
C  54.81200 30.00600 46.97000
C  51.91700 29.28500 44.74200
O  51.44800 30.42900 44.76600
C  51.17300 28.19900 43.82400
C  51.17900 28.76400 42.44600
O  52.12900 29.40900 41.95400
O  49.95800 28.60400 41.85800
C  49.74800 29.10600 40.47400
H  51.86200 21.21400 43.28500
H  57.61900 21.80100 46.09000
H  56.75200 28.12900 46.66400
H  49.92800 25.92800 42.62300
H  50.29100 23.03900 42.18100
H  49.75400 23.12700 44.98300
H  48.51000 22.97400 43.78500
H  49.06800 24.63800 44.40700
H  50.06500 25.65600 40.41000
H  51.20500 24.34300 40.52000
H  52.48500 27.01800 41.10300
H  51.69500 26.61400 39.55700
H  53.32900 19.68200 42.64800
H  52.44300 19.16700 44.21900
H  53.84100 18.27600 43.58600
H  58.08400 18.36500 45.98400
H  57.46900 19.77500 46.78600
H  58.47900 19.89000 45.24000
H  59.00600 24.38300 45.23900
H  58.07300 25.68600 47.84300
H  59.69300 24.04000 47.98000
H  60.45700 23.44100 46.59900
H  59.11600 22.47900 47.39000
H  58.77500 27.53600 45.87300
H  59.87600 26.41500 45.44900
H  59.99800 28.23300 47.81800
H  61.11400 27.16300 47.04100
H  60.19700 26.48800 48.29800
H  55.83600 29.98000 47.34100
H  54.08000 30.41900 47.66500
H  54.82800 30.77700 46.20000
H  50.14200 27.97500 44.09700
H  49.58400 30.15700 40.71000
H  48.93500 28.61500 39.94000
H  50.67700 29.02500 39.91000
Mg 30.56400 58.23800 40.60000
C  27.93700 56.07400 39.61800
C  32.76100 55.87400 39.32100
C  32.98400 60.58500 40.64800
C  28.21200 60.83400 40.69800
N  30.32900 56.14300 39.61700
C  29.23600 55.47300 39.30900
C  29.55700 54.13900 38.56500
C  31.04500 53.97200 38.96500
C  31.40100 55.39900 39.37300
C  31.31800 53.07000 40.24400
C  29.35000 54.29400 37.04800
C  28.25700 53.32200 36.46700
H  27.33200 53.92400 35.40700
N  32.64900 58.22300 40.02500
C  33.31800 57.18500 39.44900
C  34.65900 57.61700 39.21400
C  34.76400 58.99800 39.55200
C  33.38700 59.32900 40.10300
C  35.69500 56.79700 38.58300
C  36.01700 59.87200 39.34400
O  37.07000 59.31200 38.95400
C  36.07500 61.40700 39.52800
N  30.53200 60.50900 40.63600
C  31.68800 61.11400 40.88400
C  31.49700 62.55100 41.39800
C  29.93900 62.69400 41.28100
C  29.50800 61.24000 40.88200
C  32.15700 62.80200 42.80700
C  29.42500 63.81700 40.32200
C  28.76200 64.94800 41.13300
N  28.48400 58.44600 40.43800
C  27.66400 59.56100 40.47100
C  26.29900 59.18200 40.38400
C  26.28400 57.77400 40.05000
C  27.69700 57.39300 40.05000
C  25.19500 60.15400 40.42600
C  25.53800 56.61100 39.63900
O  24.33400 56.38400 39.45800
C  26.55100 55.39900 39.52800
C  26.28200 54.43600 40.59500
O  26.11500 54.74300 41.77000
O  26.11200 53.19800 40.09200
C  25.65900 52.15900 40.96400
H  33.40000 55.11900 38.85800
H  33.85900 61.16100 40.95800
H  27.41100 61.56100 40.84000
H  29.06600 53.25700 38.97600
H  31.67400 53.71400 38.11300
H  30.41100 53.14000 40.84500
H  32.21300 53.39300 40.77600
H  31.62500 52.04400 40.04500
H  30.21400 54.12000 36.40700
H  29.00500 55.31000 36.85600
H  27.60600 53.03500 37.29200
H  28.81300 52.54900 35.93800
H  36.72700 57.07700 38.79400
H  35.49200 56.84900 37.51300
H  35.63800 55.73600 38.82300
H  36.28900 61.63900 40.57200
H  35.05700 61.77700 39.40600
H  36.85400 61.98900 39.03600
H  32.15300 63.17900 40.79500
H  29.44200 62.84000 42.24000
H  32.73400 61.91100 43.05500
H  31.28900 62.94700 43.45100
H  32.70800 63.74000 42.74200
H  28.65500 63.46600 39.63500
H  30.27200 64.20400 39.75700
H  28.64100 65.79500 40.45800
H  29.35900 65.21000 42.00700
H  27.74600 64.65000 41.39200
H  25.12900 60.50700 41.45500
H  24.34700 59.51400 40.18500
H  25.22800 61.02200 39.76700
H  26.55200 54.84800 38.58700
H  25.49600 51.31700 40.29100
H  24.80200 52.58400 41.48600
H  26.43300 51.81900 41.65100

