158

Mg 43.86200 4.36100 48.29700
C  41.66400 6.82800 47.45800
C  41.41500 2.05000 47.66800
C  46.25100 1.86300 48.36000
C  46.52700 6.69200 48.27900
N  41.80300 4.49800 47.32600
C  41.07700 5.59400 47.38200
C  39.60100 5.26100 46.89000
C  39.54100 3.74400 47.23600
C  40.98400 3.43200 47.46500
C  38.69200 3.35300 48.51600
C  39.36100 5.60000 45.37200
C  38.38500 6.77600 45.06500
H  37.51100 6.76400 43.79800
N  43.85900 2.27300 48.09600
C  42.73400 1.55500 47.89100
C  43.11100 0.11900 47.97300
C  44.51400 0.07600 48.18800
C  44.91500 1.41700 48.23800
C  42.09700 -0.99000 47.72400
C  45.31700 -1.24700 48.26900
O  44.74300 -2.31600 48.28900
C  46.79500 -1.27000 48.33200
N  46.07800 4.28600 48.48500
C  46.80700 3.14000 48.48500
C  48.24200 3.53300 48.93300
C  48.38400 5.02500 48.69700
C  46.91200 5.38400 48.49300
C  48.69500 3.12900 50.41500
C  49.30500 5.34600 47.55300
C  50.39700 6.38000 47.72000
N  44.08900 6.32800 48.11700
C  45.18600 7.19400 48.12700
C  44.76400 8.58100 47.84100
C  43.38600 8.47700 47.58000
C  43.04700 7.12100 47.81300
C  45.66700 9.68400 47.67600
C  42.16300 9.21700 47.29500
O  42.03600 10.36900 47.09400
C  40.99000 8.22400 47.31900
C  40.03300 8.52800 48.42900
O  40.22700 8.10100 49.57200
O  38.95400 9.21800 48.01400
C  37.79400 9.21300 48.89800
H  40.67500 1.25400 47.77700
H  47.04900 1.12500 48.47000
H  47.35800 7.37700 48.09900
H  38.96800 5.90600 47.49900
H  39.39800 3.15000 46.33300
H  39.30900 3.04800 49.36100
H  37.95400 2.56100 48.38900
H  38.10700 4.20800 48.85400
H  38.86600 4.75500 44.89300
H  40.23200 5.79400 44.74600
H  39.08700 7.58600 44.86800
H  37.69500 7.09100 45.84700
H  42.33900 -1.51200 46.79900
H  41.06000 -0.65500 47.68400
H  42.18500 -1.72200 48.52700
H  47.08100 -0.83200 49.28800
H  47.10500 -0.62300 47.51100
H  47.24700 -2.26100 48.28000
H  48.80500 2.89900 48.24800
H  48.61500 5.57900 49.60700
H  49.38700 2.29100 50.32700
H  47.79500 2.87400 50.97400
H  49.15300 3.97700 50.92400
H  48.64900 5.77400 46.79500
H  49.70500 4.42200 47.13500
H  50.71400 6.23900 48.75300
H  50.12400 7.41900 47.53400
H  51.18400 6.12700 47.00900
H  46.25800 9.77000 48.58800
H  45.06600 10.58900 47.59200
H  46.36900 9.53100 46.85700
H  40.41200 8.31100 46.39900
H  37.62100 10.26000 49.14700
H  37.89100 8.62800 49.81300
H  36.91500 8.85200 48.36400
Mg -11.32800 39.09200 41.86200
C  -9.80300 36.02900 40.83000
C  -8.71000 40.82000 40.36200
C  -12.91500 41.87300 42.53200
C  -14.14200 37.16800 42.78000
N  -9.55500 38.48300 40.72500
C  -9.12200 37.20600 40.50700
C  -7.75500 37.26900 39.83100
C  -7.33000 38.75800 39.88700
C  -8.60500 39.42500 40.40500
C  -6.14500 38.99400 40.91200
C  -7.83400 36.78400 38.37000
C  -6.73900 35.70000 37.91400
H  -5.83100 36.17600 36.81000
N  -10.91100 41.11000 41.55800
C  -9.76900 41.57600 40.95400
C  -9.79300 43.02800 41.09800
C  -11.00000 43.46500 41.74400
C  -11.63800 42.13600 42.04900
C  -8.73200 43.85200 40.47100
C  -11.46100 44.87800 42.11500
O  -10.70300 45.77100 41.87000
C  -12.75700 45.19700 42.77100
N  -13.34200 39.46100 42.28500
C  -13.72700 40.71200 42.64600
C  -15.13100 40.77700 43.02300
C  -15.61500 39.28200 42.96300
C  -14.29000 38.53600 42.58400
C  -15.33500 41.36000 44.46800
C  -16.84900 39.02800 41.93600
C  -18.18800 38.63600 42.44000
N  -11.78700 36.95700 42.03300
C  -13.01800 36.42600 42.40000
C  -12.87000 34.93000 42.20500
C  -11.57700 34.70500 41.65600
C  -11.03700 35.95300 41.52000
C  -13.84200 33.89500 42.48300
C  -10.56400 33.79300 41.13800
O  -10.60700 32.59200 41.12200
C  -9.29500 34.61600 40.64600
C  -8.21900 34.33300 41.63600
O  -8.01500 34.74300 42.77200
O  -7.43700 33.48300 40.93600
C  -6.33900 32.80700 41.59900
H  -7.80400 41.40600 40.19500
H  -13.50400 42.76600 42.75300
H  -15.04100 36.62400 43.07800
H  -7.06500 36.67100 40.42600
H  -6.94600 39.01000 38.89800
H  -5.53300 39.82800 40.56900
H  -5.52800 38.10400 41.03300
H  -6.43300 39.17300 41.94800
H  -7.66200 37.57700 37.64300
H  -8.78400 36.27300 38.21100
H  -7.29500 34.81800 37.59500
H  -6.22000 35.29900 38.78500
H  -7.78400 43.44600 40.82300
H  -8.69000 44.89700 40.77800
H  -8.85600 43.70900 39.39800
H  -13.56800 45.03800 42.06100
H  -12.65200 46.26400 42.97100
H  -12.90700 44.62900 43.68900
H  -15.54300 41.41500 42.24100
H  -15.75400 38.87500 43.96400
H  -16.03800 40.78700 45.07200
H  -15.74200 42.35100 44.26700
H  -14.49100 41.72400 45.05300
H  -16.45000 38.29900 41.23100
H  -16.99300 39.91200 41.31400
H  -18.55200 37.68600 42.04900
H  -18.99300 39.23600 42.01500
H  -18.29500 38.57000 43.52300
H  -13.58900 32.96200 41.98100
H  -14.79800 34.22400 42.07400
H  -14.02400 33.66900 43.53400
H  -8.98300 34.48900 39.60900
H  -6.37600 32.86000 42.68700
H  -5.39600 33.27500 41.31600
H  -6.38400 31.75300 41.32500

