158

Mg 47.57400 25.53700 28.28400
C  48.49100 27.87100 30.74900
C  46.78000 23.33200 30.78600
C  46.98600 23.17600 25.91800
C  48.88700 27.80600 25.77600
N  47.75600 25.53600 30.47700
C  48.09000 26.60600 31.30600
C  47.71200 26.45500 32.75300
C  47.41000 24.91300 32.75200
C  47.24700 24.56400 31.26400
C  48.52000 24.05700 33.36800
C  46.38100 27.24400 33.08500
C  46.47600 28.14700 34.34400
H  45.56000 27.71700 35.45700
N  47.08700 23.48800 28.33300
C  46.72600 22.83600 29.51200
C  46.27300 21.49600 29.16100
C  46.24000 21.44300 27.72100
C  46.86000 22.72500 27.24700
C  45.87500 20.50200 30.22500
C  45.67800 20.30900 26.80400
O  45.73100 20.39100 25.61900
C  45.13000 19.04900 27.40300
N  48.06300 25.44400 26.13000
C  47.60500 24.35000 25.40400
C  47.94100 24.51400 23.91000
C  48.43000 26.03300 23.92000
C  48.48200 26.51800 25.36800
C  49.01600 23.57600 23.39200
C  47.47600 26.95900 23.05700
C  48.17600 27.80800 22.02800
N  48.40400 27.38400 28.19100
C  48.96800 28.13000 27.13300
C  49.56300 29.35000 27.65500
C  49.37600 29.25200 29.12700
C  48.64200 28.06100 29.36400
C  50.36200 30.44700 26.86000
C  49.66500 29.99500 30.34000
O  50.24000 31.06400 30.40300
C  49.06100 29.12500 31.49100
C  50.15000 28.78900 32.43600
O  51.13600 28.09500 32.18300
O  49.78200 29.31700 33.67900
C  50.64600 29.04700 34.79000
H  46.33300 22.75900 31.60100
H  46.80600 22.48100 25.09600
H  49.29300 28.55400 25.09300
H  48.60100 26.64100 33.35600
H  46.49200 24.60700 33.25500
H  48.05000 23.16000 33.77100
H  49.10100 24.58200 34.12500
H  49.30300 23.71100 32.69300
H  45.64200 26.45000 33.19000
H  46.06700 27.75900 32.17700
H  46.28200 29.15900 33.99000
H  47.48500 28.21000 34.75200
H  46.38200 19.58000 29.93900
H  44.84400 20.17300 30.09100
H  46.03200 20.75200 31.27400
H  44.39800 19.19700 28.19600
H  46.02800 18.58800 27.81300
H  44.71100 18.46900 26.58000
H  46.97200 24.25200 23.48400
H  49.44000 26.03800 23.51000
H  48.49200 22.85900 22.76100
H  49.36800 23.03200 24.26900
H  49.81700 24.13500 22.90700
H  46.97700 27.62000 23.76600
H  46.69400 26.40700 22.53500
H  49.25800 27.76100 22.15000
H  47.75800 28.81400 22.06400
H  47.92700 27.37800 21.05800
H  49.84900 30.85200 25.98800
H  51.39500 30.17500 26.64500
H  50.37500 31.20700 27.64200
H  48.29600 29.78200 31.90400
H  50.24300 28.14400 35.25000
H  50.54100 29.81700 35.55400
H  51.68400 28.78000 34.59400
Mg 26.61300 50.45200 25.99600
C  24.83300 51.40300 28.85300
C  29.39700 49.53800 28.14900
C  28.57400 49.74900 23.34900
C  24.27300 51.76800 24.04900
N  27.02400 50.51800 28.22300
C  26.08700 50.82200 29.20300
C  26.55500 50.47400 30.57100
C  28.03600 49.96000 30.36500
C  28.21200 50.10400 28.83000
C  29.08800 50.79400 31.12200
C  25.71300 49.33400 31.37000
C  25.02900 49.86000 32.70100
H  25.92700 50.34300 33.91300
N  28.61700 49.73700 25.83700
C  29.57400 49.48800 26.76200
C  30.86700 49.35800 26.08900
C  30.73700 49.30300 24.70600
C  29.24000 49.55200 24.55100
C  32.16100 49.28300 26.80200
C  31.68100 49.02600 23.60700
O  31.45400 48.99800 22.40700
C  33.12600 48.92400 24.03300
N  26.58200 50.85400 23.92400
C  27.31400 50.29500 23.02500
C  26.70300 50.32300 21.60500
C  25.22800 50.85300 21.89900
C  25.38000 51.21600 23.38600
C  27.58300 51.11500 20.57100
C  24.02400 49.92900 21.55100
C  22.69000 50.51000 21.17300
N  24.90400 51.44200 26.27900
C  24.01500 51.89200 25.41000
C  22.88500 52.44100 26.15800
C  23.26900 52.42400 27.49400
C  24.45400 51.68500 27.53500
C  21.63900 52.99100 25.56100
C  22.77500 52.69700 28.80300
O  21.79600 53.15900 29.23200
C  23.84900 52.10200 29.73800
C  24.37400 53.25300 30.63900
O  25.36900 53.90800 30.41200
O  23.50200 53.40000 31.69000
C  23.86900 54.33400 32.81400
H  30.21100 49.24100 28.81400
H  29.11400 49.41500 22.46000
H  23.36300 51.99000 23.48600
H  26.50000 51.44600 31.06100
H  28.15500 48.92200 30.67600
H  29.49500 50.20500 31.94400
H  28.53900 51.64700 31.52100
H  29.85000 51.25500 30.49300
H  26.30300 48.44000 31.57200
H  24.93300 49.09400 30.64700
H  24.27000 49.14300 33.01400
H  24.51600 50.76400 32.37300
H  31.97800 49.63000 27.81900
H  32.85900 50.07600 26.53600
H  32.74200 48.36000 26.78800
H  33.29100 48.06500 24.68400
H  33.40500 49.93100 24.34300
H  33.62300 48.59200 23.12100
H  26.68400 49.32100 21.17700
H  25.27300 51.70300 21.21800
H  28.31900 51.59700 21.21500
H  27.05000 52.02700 20.30400
H  28.07200 50.62300 19.73000
H  23.98200 49.35000 22.47400
H  24.16800 49.38400 20.61800
H  22.62800 51.59000 21.31100
H  21.99400 49.81800 21.64800
H  22.51400 50.38300 20.10400
H  21.12500 52.33700 24.85700
H  22.02100 53.83100 24.98100
H  20.87600 53.31800 26.26700
H  23.56800 51.31200 30.43500
H  24.80400 54.13700 33.33800
H  23.03500 54.45700 33.50500
H  23.98000 55.31400 32.34900

