158

Mg 7.69200 3.24200 27.40500
C  8.86600 1.93800 30.42200
C  5.40600 5.10900 28.89900
C  6.65200 4.03000 24.40600
C  9.63200 0.46100 25.77400
N  7.14800 3.37300 29.41400
C  7.84500 2.89000 30.47300
C  7.21200 3.47200 31.78700
C  5.94400 4.24000 31.27800
C  6.19900 4.31100 29.75300
C  4.66000 3.63200 31.79200
C  8.21000 4.29500 32.59200
C  7.98400 4.11000 34.18500
H  9.28700 3.72200 34.94900
N  6.39000 4.71000 26.74900
C  5.45300 5.30500 27.51200
C  4.73200 6.18900 26.75300
C  5.01800 5.88700 25.39300
C  6.11200 4.86500 25.46800
C  3.78800 7.30000 27.35600
C  4.46200 6.57800 24.13400
O  4.86700 6.27300 23.02000
C  3.33400 7.57300 24.23500
N  8.05800 2.22700 25.30600
C  7.43400 2.86800 24.28700
C  7.72500 2.15900 22.93200
C  8.72800 1.04700 23.34100
C  8.78100 1.19300 24.89500
C  6.47500 1.61100 22.17100
C  10.14700 1.22600 22.65400
C  10.42400 0.25400 21.47300
N  8.96200 1.51100 27.95500
C  9.70800 0.62200 27.21900
C  10.60000 -0.10600 28.18300
C  10.33600 0.44200 29.43100
C  9.35800 1.39300 29.20900
C  11.63100 -1.04600 27.74700
C  10.73200 0.37900 30.77500
O  11.54900 -0.29200 31.38600
C  9.72900 1.38400 31.50700
C  8.88800 0.52300 32.40100
O  7.75200 0.05700 32.19800
O  9.52500 0.42500 33.64500
C  8.72900 -0.30500 34.56600
H  4.62100 5.67800 29.40200
H  6.18400 4.38100 23.48400
H  10.24500 -0.36600 25.40800
H  6.92100 2.60000 32.37200
H  5.95500 5.24500 31.69900
H  4.83300 2.79300 32.46700
H  3.99000 3.40100 30.96400
H  4.21100 4.38700 32.43700
H  8.03400 5.35500 32.40900
H  9.22200 4.08800 32.24700
H  7.30400 3.29900 34.44600
H  7.65900 5.07900 34.56500
H  4.06600 7.30700 28.41000
H  2.80400 6.87900 27.14900
H  3.94500 8.26400 26.87200
H  2.75000 7.73300 23.32900
H  3.78400 8.51900 24.53400
H  2.62200 7.22900 24.98500
H  8.27500 2.83400 22.27700
H  8.31900 0.04200 23.24500
H  5.57100 1.95200 22.67500
H  6.60900 0.53200 22.09500
H  6.36800 2.06700 21.18700
H  10.90600 1.02000 23.40900
H  10.40500 2.23800 22.34000
H  9.47800 -0.14300 21.10600
H  11.01700 -0.57100 21.86800
H  10.96700 0.77200 20.68300
H  11.24000 -2.06300 27.76500
H  12.56100 -1.07400 28.31400
H  11.76000 -0.85200 26.68200
H  10.31700 2.10800 32.07200
H  8.28200 -1.24900 34.25600
H  8.05100 0.37500 35.08100
H  9.41300 -0.78100 35.26900
Mg 10.31500 47.55200 26.25800
C  8.18700 47.75500 28.92200
C  12.83200 49.09200 28.06700
C  12.42000 47.38800 23.45900
C  7.79400 46.60500 24.16900
N  10.59300 47.94600 28.47900
C  9.52400 48.13800 29.26400
C  9.92900 48.82600 30.57200
C  11.23400 49.60700 30.06900
C  11.64600 48.80300 28.85500
C  11.01900 51.16400 29.78300
C  10.24100 47.89700 31.79900
C  10.93700 48.54900 33.04400
H  10.22500 48.24400 34.39400
N  12.28900 48.15700 25.86000
C  13.16300 48.71400 26.75900
C  14.45800 48.90100 26.13900
C  14.35700 48.32800 24.83600
C  12.99100 47.91800 24.68200
C  15.60300 49.36600 26.95300
C  15.49600 48.30400 23.77300
O  15.28400 48.00300 22.61800
C  16.89100 48.65600 24.17500
N  10.16300 47.10400 24.06500
C  11.11600 47.08100 23.16300
C  10.69600 46.42700 21.82300
C  9.16400 46.28700 22.07100
C  9.02700 46.67600 23.57100
C  11.18300 47.22600 20.54800
C  8.62200 44.84400 21.80900
C  9.30000 43.72700 22.65300
N  8.33600 47.31400 26.44600
C  7.40200 46.89900 25.47900
C  6.06600 46.83600 26.11900
C  6.28700 47.12300 27.48500
C  7.69000 47.33100 27.65800
C  4.67400 46.77200 25.38800
C  5.74900 47.38700 28.77600
O  4.61000 47.34000 29.20800
C  6.96000 47.77100 29.75000
C  6.93200 46.75900 30.90300
O  7.43700 45.65000 30.89400
O  6.20600 47.29600 31.91600
C  5.88000 46.42200 33.01600
H  13.40700 49.72100 28.75000
H  13.11200 47.25900 22.62400
H  6.89200 46.24300 23.67300
H  9.13700 49.51800 30.85900
H  12.04200 49.55000 30.79900
H  11.12700 51.38100 28.72100
H  11.82300 51.70200 30.28600
H  9.99800 51.42200 30.06300
H  10.97800 47.21100 31.38200
H  9.41300 47.20300 31.94500
H  10.76500 49.62100 32.95400
H  12.00700 48.35200 32.99000
H  15.40300 49.66100 27.98300
H  16.18100 50.21000 26.57700
H  16.39800 48.62400 27.02400
H  16.82100 49.62300 24.67400
H  17.47400 48.45900 23.27500
H  17.20400 47.95700 24.95000
H  11.19600 45.46500 21.71100
H  8.57300 46.97700 21.46900
H  11.95900 46.69700 19.99400
H  11.60600 48.16600 20.90400
H  10.30400 47.45800 19.94700
H  8.78200 44.68900 20.74200
H  7.55500 44.86500 22.03200
H  8.48700 43.26000 23.20900
H  9.97000 44.15000 23.40200
H  9.73400 42.98100 21.98700
H  4.64100 46.36000 24.37900
H  4.26900 47.77900 25.29500
H  4.01800 46.31300 26.12800
H  6.71400 48.75100 30.15900
H  5.88900 47.10000 33.87000
H  6.58300 45.62600 33.26000
H  4.85200 46.07700 32.90000

