158

Mg 1.86200 -1.87200 43.06700
C  5.33600 -1.21700 42.64400
C  1.26900 0.95600 41.23100
C  -1.33700 -2.95500 42.89900
C  2.80600 -4.97900 44.51500
N  3.15000 -0.30000 42.14800
C  4.51900 -0.22700 42.01400
C  4.98500 0.80200 41.00500
C  3.69000 1.75600 40.91000
C  2.62200 0.80300 41.54700
C  3.68400 3.16600 41.57300
C  5.32000 0.06100 39.69400
C  6.40500 0.76700 38.83000
H  6.25000 1.05100 37.38600
N  0.11800 -1.07300 42.19400
C  0.08400 0.12300 41.51600
C  -1.33000 0.41200 41.15900
C  -2.12400 -0.69900 41.57000
C  -1.12400 -1.70300 42.21000
C  -1.72000 1.64000 40.45100
C  -3.65000 -0.92600 41.46400
O  -4.32400 -0.09100 40.87900
C  -4.31100 -2.30100 41.86600
N  0.94700 -3.78100 43.51500
C  -0.43200 -3.85500 43.49300
C  -0.92800 -5.17400 44.12600
C  0.45000 -5.76400 44.65400
C  1.46100 -4.79100 44.22100
C  -2.07900 -5.11400 45.18900
C  0.66500 -7.37400 44.46300
C  0.76400 -8.22900 45.71500
N  3.76200 -2.86200 43.63400
C  3.90600 -4.11900 44.14400
C  5.32500 -4.36200 44.34100
C  5.96600 -3.21900 43.83400
C  4.93800 -2.33800 43.34500
C  6.02700 -5.59200 44.85000
C  7.24900 -2.55200 43.53200
O  8.37000 -2.83200 43.78800
C  6.86500 -1.17000 42.75900
C  7.35600 -0.01700 43.64900
O  8.39300 0.54600 43.61000
O  6.39500 0.32500 44.55200
C  6.47800 1.56400 45.30900
H  1.13700 1.89500 40.68900
H  -2.36100 -3.33200 42.94400
H  2.99900 -5.98900 44.88400
H  5.85900 1.32600 41.39300
H  3.49100 1.88400 39.84600
H  4.62700 3.49100 42.01400
H  2.80800 3.10500 42.21900
H  3.44600 3.87300 40.77900
H  4.45300 -0.16900 39.07500
H  5.82300 -0.87700 39.92900
H  7.21200 0.03700 38.89600
H  6.76300 1.70400 39.25500
H  -1.68900 1.64800 39.36200
H  -0.98300 2.38800 40.74500
H  -2.69200 2.02100 40.76400
H  -5.31300 -2.38900 41.44400
H  -4.27100 -2.44000 42.94600
H  -3.74000 -3.06200 41.33400
H  -1.27700 -5.82300 43.32300
H  0.53100 -5.66800 45.73700
H  -2.79600 -4.30200 45.06800
H  -1.64000 -5.14600 46.18700
H  -2.64700 -6.04200 45.13600
H  1.63100 -7.47600 43.97000
H  -0.08800 -7.88000 43.85800
H  0.03000 -9.03400 45.66900
H  0.38100 -7.61800 46.53200
H  1.77600 -8.63300 45.69900
H  5.76200 -6.50500 44.31700
H  5.91700 -5.61700 45.93400
H  7.10900 -5.54600 44.72600
H  7.35700 -1.21700 41.78700
H  7.54000 1.74400 45.47600
H  5.95500 1.47300 46.26100
H  6.01900 2.39300 44.76900
Mg 1.08700 43.43500 26.25000
C  2.53200 43.46400 29.37900
C  -1.71000 41.99200 27.62100
C  0.01000 42.56300 23.15400
C  4.18600 44.32400 24.85800
N  0.47000 42.83100 28.34900
C  1.20800 43.03000 29.44300
C  0.40400 42.57500 30.66000
C  -0.93800 41.99700 30.01500
C  -0.72000 42.27300 28.57000
C  -1.37200 40.53100 30.45300
C  0.20600 43.56400 31.83600
C  1.13800 43.44200 33.02500
H  0.78200 42.38900 34.07600
N  -0.77200 42.68100 25.51000
C  -1.68900 41.95900 26.22000
C  -2.64300 41.36400 25.39200
C  -2.16400 41.60000 24.06800
C  -0.91500 42.33400 24.18800
C  -3.85000 40.50100 25.94600
C  -2.79400 41.20100 22.76400
O  -2.27200 41.27200 21.65400
C  -4.18300 40.55100 22.73100
N  2.04300 43.36800 24.19200
C  1.29600 43.07700 23.05600
C  2.17100 43.34300 21.82500
C  3.34600 44.18400 22.45300
C  3.25300 43.93800 23.91900
C  2.67900 42.08200 21.04100
C  3.18700 45.68100 22.19300
C  4.13400 46.34800 21.09600
N  2.99100 43.85600 26.90300
C  4.12600 44.21800 26.25500
C  5.14400 44.44600 27.22300
C  4.56900 44.17700 28.48300
C  3.23900 43.80200 28.23200
C  6.50800 44.91200 26.94500
C  4.90900 44.18700 29.91300
O  5.83100 44.49200 30.65400
C  3.61700 43.54200 30.46400
C  4.03600 42.20900 30.94800
O  4.19800 41.16000 30.26100
O  4.25800 42.24000 32.32800
C  4.40200 40.96800 33.00100
H  -2.59000 41.54300 28.08700
H  -0.24400 42.37300 22.10900
H  5.10200 44.76500 24.46000
H  0.96000 41.75100 31.10800
H  -1.74000 42.54300 30.51300
H  -2.45100 40.57100 30.60400
H  -0.97100 40.35100 31.45000
H  -1.11900 39.74700 29.73800
H  -0.75600 43.37600 32.31300
H  0.29700 44.57700 31.44500
H  1.25300 44.42000 33.49300
H  2.08200 43.07300 32.62200
H  -3.89200 40.59700 27.03100
H  -3.66000 39.46600 25.66300
H  -4.74600 40.90900 25.47600
H  -4.45900 40.33000 21.70000
H  -4.81500 41.31700 23.18000
H  -4.03500 39.70500 23.40300
H  1.61500 44.00000 21.15600
H  4.32300 43.77200 22.19700
H  3.56200 41.68600 21.54300
H  2.87700 42.33700 20.00000
H  1.94200 41.27900 21.01800
H  3.36600 46.23500 23.11400
H  2.11300 45.84400 22.10200
H  4.70400 47.12700 21.60400
H  3.37000 46.81100 20.47200
H  4.84000 45.67600 20.60800
H  6.44500 45.82000 26.34500
H  7.23300 44.33500 26.37000
H  6.98100 45.13000 27.90300
H  3.31600 44.08100 31.36200
H  5.40100 40.64300 32.70800
H  3.65400 40.20700 32.78000
H  4.38800 41.11000 34.08200

