158

Mg 24.97800 2.13100 29.28900
C  27.18100 1.96200 31.98800
C  22.36200 2.15900 31.49400
C  22.91300 1.95500 26.62000
C  27.64700 1.83900 27.10900
N  24.82600 2.15700 31.50400
C  25.84200 2.08900 32.41000
C  25.28500 2.09000 33.80100
C  23.75000 2.08600 33.60900
C  23.60600 2.20500 32.13900
C  23.09900 0.80200 34.09300
C  25.74700 3.38100 34.57700
C  24.87100 3.71800 35.78500
H  25.54700 4.13100 37.16400
N  22.87900 2.07400 29.09200
C  21.98100 2.14900 30.09300
C  20.65400 2.15600 29.46800
C  20.86700 2.17000 28.01700
C  22.28200 2.12800 27.86800
C  19.39200 2.19700 30.30700
C  19.85400 2.23200 26.84200
O  20.18300 2.40300 25.66400
C  18.44100 2.06800 27.17000
N  25.19300 1.71600 27.15700
C  24.22200 1.83700 26.22200
C  24.73400 1.89300 24.76600
C  26.28200 2.14200 24.97400
C  26.36600 1.90600 26.50800
C  24.30600 0.68200 23.92300
C  26.89200 3.58700 24.56200
C  26.32900 4.69700 25.41100
N  26.94700 1.83900 29.48200
C  27.91300 1.74600 28.51000
C  29.23900 1.56100 29.18700
C  28.96800 1.68400 30.53500
C  27.58900 1.85800 30.70400
C  30.55100 1.26800 28.60200
C  29.57000 1.54200 31.85300
O  30.70300 1.31400 32.22900
C  28.42500 1.85100 32.83000
C  28.40300 0.97400 33.99500
O  28.00300 -0.17400 34.02400
O  28.95700 1.69500 35.08200
C  28.92700 1.01500 36.41400
H  21.50600 2.18000 32.17200
H  22.31200 1.91200 25.70900
H  28.41800 2.08300 26.37400
H  25.58200 1.15400 34.27400
H  23.29000 3.00600 33.97000
H  23.62100 0.44900 34.98200
H  23.10700 0.14600 33.22300
H  22.06100 0.89400 34.41300
H  25.86000 4.26400 33.94800
H  26.76000 3.33700 34.97700
H  24.23500 2.86100 36.00400
H  24.25300 4.55800 35.46900
H  18.73800 1.34100 30.14700
H  18.65700 2.90300 29.92100
H  19.52800 2.36100 31.37600
H  18.31300 1.12100 27.69500
H  17.90700 1.99200 26.22300
H  18.17700 2.95200 27.75100
H  24.18800 2.74100 24.35300
H  26.90100 1.31400 24.63000
H  24.03100 1.05000 22.93400
H  23.45100 0.19600 24.39400
H  25.08600 -0.07800 23.87700
H  26.67800 3.72500 23.50200
H  27.94100 3.60700 24.85900
H  25.43200 4.45800 25.98200
H  26.25400 5.51500 24.69500
H  27.06600 5.01500 26.14800
H  31.19600 1.94700 29.16000
H  30.63300 1.46500 27.53300
H  31.01500 0.33100 28.90900
H  28.60400 2.83000 33.27500
H  28.39600 1.59700 37.16700
H  29.97400 0.79100 36.61800
H  28.48600 0.03000 36.26700
Mg 47.43500 25.45900 28.07400
C  48.53300 27.81200 30.53900
C  46.07300 23.63800 30.48500
C  47.07300 22.96300 25.77600
C  49.35100 27.29700 25.71500
N  47.48400 25.70800 30.31100
C  47.73000 26.79800 31.06400
C  47.16600 26.58700 32.52200
C  46.40800 25.27100 32.41200
C  46.65000 24.83400 30.99100
C  46.86000 24.15800 33.46500
C  46.36700 27.79900 33.05300
C  47.00500 28.38900 34.41900
H  45.88200 28.72000 35.43800
N  46.56900 23.62700 28.06900
C  46.06600 23.05800 29.20300
C  45.48000 21.77900 28.84000
C  45.62900 21.64200 27.45200
C  46.44400 22.77200 27.02500
C  44.84800 20.83000 29.81900
C  45.02700 20.61100 26.42700
O  45.32100 20.57300 25.23700
C  44.02800 19.72200 27.00700
N  47.93000 25.31200 25.95300
C  47.74600 24.11700 25.32300
C  48.28500 24.21400 23.88100
C  48.88600 25.68800 23.79700
C  48.68300 26.16300 25.25300
C  49.46300 23.17900 23.55600
C  48.04800 26.56700 22.73800
C  48.70300 26.98800 21.37200
N  48.58100 27.18200 28.03600
C  49.29600 27.79200 27.02800
C  49.91000 29.02900 27.51600
C  49.53800 29.10900 28.83700
C  48.84400 27.90300 29.16900
C  50.80800 29.94800 26.78700
C  49.73600 29.83800 30.04300
O  50.46800 30.81600 30.15000
C  49.04400 29.09500 31.17200
C  49.96600 28.85600 32.33800
O  50.76200 27.98900 32.30000
O  49.87800 29.84400 33.36500
C  50.67600 29.80800 34.62900
H  45.42100 23.10500 31.18000
H  47.03700 22.21700 24.97900
H  50.03600 27.90700 25.12200
H  48.06200 26.44500 33.12700
H  45.33800 25.34400 32.60900
H  47.17300 24.60800 34.40800
H  47.65300 23.50300 33.10400
H  45.97200 23.57500 33.70700
H  45.37100 27.42400 33.28700
H  46.36300 28.60300 32.31700
H  47.46000 29.35100 34.18500
H  47.68900 27.74000 34.96600
H  45.30100 20.94900 30.80300
H  45.07200 19.80900 29.51000
H  43.76200 20.91300 29.77600
H  44.54900 18.96500 27.59300
H  43.54900 19.15000 26.21300
H  43.29100 20.26500 27.59900
H  47.41900 24.01100 23.25200
H  49.94600 25.80100 23.57000
H  50.31100 23.59700 23.01400
H  49.05500 22.37400 22.94500
H  49.82600 22.63300 24.42600
H  47.73300 27.54800 23.09500
H  47.14400 25.99900 22.52200
H  49.77500 26.78900 21.38300
H  48.65000 28.03500 21.07400
H  48.29000 26.35700 20.58500
H  51.74500 29.40300 26.67400
H  50.95200 30.90400 27.29100
H  50.28500 30.03800 25.83500
H  48.22500 29.65600 31.62300
H  51.69800 29.62600 34.29500
H  50.30600 28.95400 35.19600
H  50.58200 30.76800 35.13500

