158

Mg 2.36700 -0.61900 43.00800
C  5.79900 0.31500 42.70000
C  1.60600 2.58700 41.98400
C  -0.69800 -1.70000 42.79500
C  3.53100 -3.92800 43.78200
N  3.62800 1.21900 42.40400
C  5.00000 1.43400 42.48400
C  5.38700 2.84700 41.98000
C  3.99700 3.58800 42.07300
C  2.97800 2.39700 42.16900
C  3.72200 4.67600 43.20600
C  6.03800 2.77500 40.65900
C  5.73900 1.68000 39.59700
H  5.83000 2.02000 38.05100
N  0.64900 0.33700 42.42500
C  0.50500 1.68000 42.06500
C  -0.93200 1.97900 41.94300
C  -1.59900 0.74200 42.13300
C  -0.57300 -0.28200 42.45100
C  -1.54500 3.28200 41.71800
C  -3.11100 0.48100 42.00100
O  -3.78400 1.43000 41.62600
C  -3.78200 -0.90300 42.22900
N  1.51100 -2.59800 43.16100
C  0.15700 -2.69300 43.15500
C  -0.35400 -4.11300 43.50500
C  1.04800 -4.83400 43.84100
C  2.10700 -3.73400 43.58900
C  -1.42100 -4.22800 44.59100
C  1.34700 -6.19300 42.93400
C  0.60400 -7.41800 43.42100
N  4.24900 -1.67500 43.31000
C  4.53900 -2.98100 43.58900
C  5.93900 -3.14300 43.65100
C  6.40200 -1.90200 43.29100
C  5.39200 -1.02600 43.17300
C  6.81100 -4.31900 43.99700
C  7.63000 -1.23000 43.11500
O  8.78400 -1.65300 43.21900
C  7.27000 0.19800 42.70500
C  7.95600 1.20500 43.56200
O  8.78100 2.04400 43.22000
O  7.39900 1.26200 44.79600
C  8.07000 2.12300 45.82100
H  1.43000 3.64600 41.78700
H  -1.66300 -2.19300 42.65700
H  3.93900 -4.91600 44.00500
H  6.09800 3.31900 42.65800
H  3.84400 4.16500 41.16100
H  2.79400 4.56500 43.76700
H  3.72300 5.70700 42.85300
H  4.50000 4.63600 43.96900
H  7.11800 2.86800 40.76400
H  5.67800 3.56900 40.00500
H  4.67700 1.47100 39.72500
H  6.35600 0.82000 39.86000
H  -1.76600 3.45700 40.66500
H  -0.67500 3.86000 42.03000
H  -2.36100 3.42600 42.42600
H  -3.31100 -1.38000 43.08800
H  -3.53400 -1.32300 41.25400
H  -4.82800 -0.64300 42.39100
H  -0.76000 -4.42700 42.54400
H  1.10900 -5.14200 44.88500
H  -0.93800 -4.27800 45.56700
H  -2.10600 -5.05700 44.41100
H  -1.96700 -3.29500 44.45200
H  2.42500 -6.35400 42.91000
H  0.98900 -5.94400 41.93500
H  0.30500 -7.30400 44.46300
H  1.11300 -8.37800 43.34300
H  -0.31700 -7.62000 42.87400
H  6.56000 -5.24700 43.48300
H  6.92500 -4.50700 45.06400
H  7.81800 -4.22200 43.59100
H  7.73000 0.27800 41.72100
H  9.04000 2.46700 45.46200
H  8.18900 1.60200 46.77100
H  7.40800 2.97900 45.95500
Mg 29.48100 59.93400 41.06900
C  26.28200 58.75500 40.04200
C  30.88300 57.09400 39.67000
C  32.36700 61.47000 41.22700
C  27.76700 63.12400 41.66000
N  28.65000 58.20300 39.96600
C  27.34600 57.92400 39.63200
C  27.28400 56.67200 38.88300
C  28.74600 56.03100 39.12600
C  29.44900 57.19000 39.68900
C  28.74000 54.97300 40.21200
C  26.85600 56.77600 37.40100
C  26.06600 55.56600 36.85700
H  26.42900 55.08300 35.53000
N  31.37000 59.29000 40.73600
C  31.78100 58.11300 40.17800
C  33.22700 58.04000 40.19600
C  33.69300 59.28500 40.63000
C  32.46000 60.07300 40.97500
C  34.00100 56.86400 39.72700
C  35.13500 59.64200 40.81500
O  36.02100 58.84200 40.55100
C  35.67500 60.93100 41.35700
N  30.02200 62.06500 41.32600
C  31.34000 62.31400 41.40900
C  31.60800 63.77900 41.61200
C  30.17700 64.28600 42.02900
C  29.18400 63.15200 41.61600
C  32.59500 64.11500 42.77800
C  29.83600 65.59000 41.27300
C  30.06200 66.87000 42.16100
N  27.48900 60.83400 40.99200
C  26.97900 62.07000 41.29200
C  25.50800 61.94400 41.35900
C  25.20900 60.66400 40.88500
C  26.43000 60.04500 40.63000
C  24.44400 63.00900 41.72000
C  24.18800 59.74300 40.55300
O  22.96100 59.83600 40.72500
C  24.77900 58.45800 39.98700
C  24.42300 57.17500 40.60900
O  24.20800 56.90100 41.77600
O  24.08700 56.32000 39.63400
C  23.44200 54.96700 39.96600
H  31.31200 56.12400 39.41000
H  33.35100 61.94200 41.26600
H  27.36300 64.08400 41.98800
H  26.48600 56.00400 39.20700
H  29.18200 55.76000 38.16400
H  27.77300 54.83300 40.69600
H  29.44900 55.07400 41.03400
H  28.94400 54.01200 39.73900
H  27.81400 56.93500 36.90600
H  26.30700 57.66000 37.07800
H  25.01600 55.84200 36.76700
H  26.18900 54.62300 37.39000
H  34.52500 57.10100 38.80100
H  33.38000 55.96900 39.70300
H  34.76200 56.73100 40.49700
H  35.57000 61.71500 40.60800
H  36.73300 60.81800 41.59200
H  35.21600 61.29900 42.27500
H  31.93200 64.19400 40.65700
H  29.97200 64.41400 43.09200
H  32.73300 63.28400 43.47000
H  32.32600 65.04900 43.27200
H  33.52000 64.30600 42.23300
H  28.80500 65.67800 40.93100
H  30.48900 65.71500 40.41000
H  31.04700 67.29500 41.97100
H  30.11900 66.59800 43.21500
H  29.26200 67.60900 42.10000
H  24.26000 63.44100 40.73600
H  24.78700 63.76900 42.42200
H  23.60900 62.44600 42.13600
H  24.39200 58.44800 38.96800
H  23.51900 54.37300 39.05500
H  22.37700 55.12600 40.13800
H  23.89200 54.41000 40.78900

