158

Mg 41.02000 8.21300 29.84600
C  42.57600 9.69200 32.72100
C  38.80600 6.60000 32.01600
C  39.90100 6.61300 27.26100
C  43.68200 9.56600 27.81800
N  40.67400 8.31100 32.17400
C  41.54300 8.88000 33.10700
C  40.82500 8.75500 34.47100
C  39.70000 7.66600 34.23600
C  39.71100 7.53400 32.70900
C  39.99900 6.32500 34.91700
C  40.26800 10.09700 34.97500
C  39.66000 10.20600 36.37500
H  40.37400 11.21900 37.31500
N  39.50900 6.87000 29.67500
C  38.71500 6.30600 30.63900
C  37.70400 5.50300 30.00000
C  37.90700 5.57800 28.57400
C  39.18000 6.32500 28.43900
C  36.65800 4.58000 30.68600
C  37.07800 4.97200 27.46600
O  37.25600 5.13900 26.31400
C  35.82500 4.24700 27.75300
N  41.83000 8.00800 27.90200
C  41.01100 7.47500 26.99900
C  41.70100 7.52900 25.59500
C  42.63100 8.78600 25.79300
C  42.74700 8.70600 27.32300
C  42.38200 6.23700 25.08000
C  42.28200 10.18100 25.18400
C  40.86000 10.65100 25.06900
N  42.85800 9.37100 30.13900
C  43.74900 9.87000 29.22900
C  44.66600 10.68500 30.02300
C  44.26400 10.76500 31.36000
C  43.16900 9.86700 31.36900
C  45.74700 11.44600 29.33500
C  44.50700 11.21800 32.67700
O  45.46500 11.89900 33.05700
C  43.42100 10.55000 33.65900
C  44.17100 9.75400 34.65700
O  45.14900 9.05000 34.37300
O  43.71400 10.06800 35.87700
C  44.18900 9.30200 37.06800
H  38.00800 6.10800 32.57600
H  39.50400 6.18100 26.34000
H  44.38500 10.14100 27.21300
H  41.60000 8.35800 35.12700
H  38.78600 8.07400 34.66900
H  41.02700 6.28700 35.27500
H  39.90200 5.60300 34.10700
H  39.39200 6.19900 35.81400
H  39.55200 10.22300 34.16200
H  40.93100 10.95800 34.90200
H  39.94900 9.28500 36.88100
H  38.58800 10.39100 36.43700
H  35.57500 4.64700 30.58200
H  36.76600 4.71500 31.76200
H  36.92700 3.58800 30.32400
H  36.00100 3.29500 28.25300
H  35.28800 4.12500 26.81200
H  35.26700 4.89400 28.43000
H  40.91100 7.85700 24.91900
H  43.60600 8.57200 25.35400
H  43.40800 6.40000 24.74900
H  41.75500 5.84200 24.28100
H  42.43300 5.51200 25.89200
H  42.63900 10.18300 24.15400
H  42.82800 10.91400 25.77800
H  40.24400 10.05000 25.73800
H  40.49400 10.50700 24.05300
H  40.65900 11.69100 25.32500
H  45.50600 11.69400 28.30100
H  46.65300 10.86900 29.52100
H  45.86400 12.32500 29.96900
H  42.88600 11.37600 34.12600
H  44.26700 8.23800 36.84500
H  43.58000 9.54900 37.93800
H  45.21800 9.62500 37.22600
Mg 47.13600 16.10400 28.79900
C  45.05100 15.57200 31.45700
C  48.76500 18.48800 30.60900
C  49.18300 16.85500 26.12000
C  45.06200 14.30200 26.67400
N  46.90100 16.84800 30.93700
C  46.09900 16.40700 31.90100
C  46.46000 16.99700 33.28400
C  47.30200 18.21100 32.81800
C  47.71900 17.88300 31.30700
C  46.69500 19.64700 32.87200
C  47.14100 15.89600 34.19600
C  46.88700 16.06100 35.74000
H  47.93700 15.73800 36.72000
N  48.88400 17.36800 28.57600
C  49.37700 18.22300 29.41700
C  50.41800 19.03400 28.82000
C  50.59500 18.62500 27.44300
C  49.50400 17.60000 27.27700
C  51.18900 20.06800 29.65800
C  51.53400 19.13800 26.37800
O  51.50000 18.66900 25.22000
C  52.40500 20.27700 26.62800
N  47.09100 15.60400 26.68400
C  48.16000 15.88600 25.85100
C  48.15300 14.99300 24.64800
C  46.75300 14.34600 24.73300
C  46.26300 14.72000 26.11100
C  48.48800 15.65500 23.22500
C  46.79600 12.85700 24.52800
C  47.24500 11.92500 25.71900
N  45.39900 15.11900 28.94400
C  44.63300 14.44100 28.00000
C  43.44700 14.01200 28.62800
C  43.54500 14.40600 29.95800
C  44.76400 15.05800 30.13800
C  42.33900 13.08800 28.04300
C  42.83100 14.47500 31.17300
O  41.73800 14.04700 31.41100
C  43.80300 15.18800 32.26000
C  43.09100 16.34700 32.98500
O  43.14300 17.52100 32.63100
O  42.39300 16.01800 34.20200
C  41.95800 17.12400 35.02800
H  49.06500 19.29400 31.28200
H  49.87400 16.99500 25.28600
H  44.48800 13.64100 26.02200
H  45.54700 17.29000 33.80100
H  48.17400 18.15200 33.47000
H  45.67100 19.57800 33.23900
H  46.68200 20.21600 31.94200
H  47.37300 20.18700 33.53400
H  48.21700 15.81300 34.04000
H  46.74700 14.94400 33.84000
H  46.01900 15.48700 36.06400
H  46.60100 17.08600 35.97500
H  52.24000 19.83700 29.48600
H  51.00200 19.98700 30.72900
H  51.03500 21.08400 29.29400
H  52.88500 20.52600 25.68100
H  53.22400 20.01000 27.29600
H  51.93900 21.14800 27.08800
H  48.81500 14.16200 24.89400
H  46.09800 14.93500 24.09100
H  48.46400 16.74400 23.25700
H  47.94800 15.30600 22.34400
H  49.55300 15.47400 23.08100
H  47.39900 12.67600 23.63700
H  45.83800 12.49900 24.15200
H  48.16500 11.42000 25.42500
H  46.52300 11.10900 25.73900
H  47.46300 12.44100 26.65500
H  42.67400 12.05400 28.11700
H  42.24500 13.39600 27.00100
H  41.40500 13.27600 28.57300
H  43.86700 14.46900 33.07700
H  42.33500 18.10800 34.75100
H  42.15700 16.93700 36.08400
H  40.87900 17.25000 34.93900

