158

Mg 50.15300 35.38800 27.42500
C  47.93200 33.74200 29.59600
C  50.48300 37.88800 29.64300
C  52.01600 36.80000 25.15300
C  49.11400 32.97600 24.86900
N  49.24900 35.70800 29.49600
C  48.47800 34.92500 30.21500
C  48.42300 35.42500 31.68200
C  48.93000 36.90100 31.50000
C  49.63100 36.82600 30.09100
C  47.78800 38.01200 31.63200
C  49.24100 34.63200 32.67600
C  48.80800 34.56800 34.12300
H  47.63600 35.42000 34.52400
N  51.14500 37.11000 27.44400
C  51.21100 37.99800 28.45000
C  52.04800 39.11300 28.01300
C  52.42100 38.87200 26.69500
C  51.85000 37.52600 26.34500
C  52.30400 40.23900 28.99800
C  53.14500 39.75700 25.77300
O  53.37800 39.36000 24.65700
C  53.66700 41.14900 26.21700
N  50.31700 35.09400 25.14100
C  51.24200 35.76500 24.54100
C  51.66500 35.23300 23.22200
C  50.58800 34.08500 22.96100
C  49.97600 34.00900 24.40400
C  51.66900 36.34000 22.05600
C  51.11900 32.78400 22.48700
C  51.56300 31.81800 23.67300
N  48.74700 33.74200 27.21000
C  48.51000 32.89400 26.12600
C  47.54500 31.92500 26.63000
C  47.23200 32.28500 27.94600
C  48.10000 33.30200 28.30100
C  47.00400 30.78500 25.77500
C  46.49600 31.86200 29.08800
O  45.76400 30.89200 29.27400
C  46.81800 32.91600 30.17600
C  47.06500 32.11200 31.39800
O  48.12000 31.54400 31.66600
O  45.94300 32.00000 32.13600
C  46.17300 31.49300 33.49700
H  50.64700 38.56900 30.48100
H  52.68200 37.10700 24.34400
H  48.87300 32.21100 24.12700
H  47.38600 35.44600 32.01800
H  49.72600 37.10100 32.21700
H  46.83900 37.53200 31.87100
H  47.66200 38.43700 30.63600
H  48.03600 38.78300 32.36200
H  50.30100 34.87800 32.72700
H  49.29800 33.61400 32.29200
H  49.65600 34.63700 34.80500
H  48.58500 33.51700 34.30900
H  53.35300 40.27600 29.29300
H  51.76700 40.24900 29.94600
H  51.96800 41.17400 28.55100
H  52.83500 41.83400 26.38300
H  54.31700 41.56700 25.44900
H  54.22100 41.03400 27.14900
H  52.69600 34.87800 23.23500
H  49.74600 34.32200 22.31100
H  51.30900 37.29500 22.44000
H  50.97300 35.97000 21.30200
H  52.67200 36.45200 21.64600
H  52.03300 33.00500 21.93500
H  50.38400 32.28800 21.85300
H  51.76100 32.26300 24.64800
H  52.54300 31.45600 23.36200
H  50.89900 30.96400 23.80900
H  46.33200 31.28200 25.07500
H  46.44500 30.00800 26.29600
H  47.73400 30.28900 25.13600
H  45.99600 33.62600 30.26800
H  45.46900 31.95400 34.19000
H  47.13700 31.85200 33.85900
H  45.98900 30.42000 33.55400
Mg 26.58800 49.79500 26.68000
C  24.34600 50.86700 29.13500
C  28.63600 48.72200 29.15900
C  28.72300 48.91200 24.34100
C  24.54400 51.41500 24.33300
N  26.28900 49.45300 28.90500
C  25.35700 50.03800 29.68000
C  25.54000 49.68100 31.17300
C  26.99900 49.05000 31.23000
C  27.37200 49.02200 29.70000
C  28.07400 49.77900 32.03100
C  24.41900 48.74000 31.71200
C  23.79900 49.27700 33.11200
H  24.82400 49.89100 34.18000
N  28.38400 48.90200 26.76600
C  29.08400 48.54200 27.83200
C  30.32800 47.87500 27.47200
C  30.44800 47.94800 26.04100
C  29.15500 48.66700 25.63600
C  31.37300 47.29400 28.38500
C  31.61800 47.48000 25.07300
O  31.55000 47.78500 23.86600
C  32.86900 46.82100 25.60000
N  26.63300 50.15400 24.62300
C  27.61400 49.57000 23.89400
C  27.25600 49.61900 22.42000
C  25.85400 50.34000 22.35100
C  25.60800 50.63600 23.83700
C  28.27900 50.23600 21.42400
C  24.69000 49.55100 21.60200
C  23.61000 50.54400 21.07000
N  24.76000 50.85400 26.63700
C  24.20500 51.61500 25.67000
C  23.07100 52.27200 26.16900
C  23.10000 52.06500 27.53000
C  24.17900 51.25700 27.77300
C  22.10200 53.17700 25.48300
C  22.44000 52.41900 28.77400
O  21.42100 53.09700 28.99900
C  23.33200 51.70800 29.82800
C  23.89600 52.85100 30.61400
O  24.91800 53.44900 30.30100
O  23.08300 53.07300 31.75900
C  23.50900 54.24000 32.43000
H  29.28900 48.28200 29.91600
H  29.45200 48.65500 23.56900
H  23.89300 51.89500 23.59900
H  25.55300 50.66900 31.63300
H  26.92100 47.98600 31.45400
H  28.60800 50.58200 31.52200
H  28.80300 48.99400 32.23500
H  27.65400 50.13600 32.97100
H  24.86900 47.75600 31.84900
H  23.66100 48.62500 30.93800
H  23.39500 48.32700 33.46000
H  22.99600 49.95600 32.82400
H  31.58200 46.25800 28.11800
H  31.07700 47.18900 29.42900
H  32.24100 47.94200 28.26400
H  33.26200 47.51300 26.34400
H  33.62800 46.63400 24.84000
H  32.30200 45.97700 25.99300
H  27.09900 48.65300 21.94000
H  25.98500 51.37100 22.02100
H  28.01000 51.28300 21.28300
H  28.19800 49.77000 20.44200
H  29.29100 50.19600 21.82800
H  24.24400 49.03100 22.45000
H  25.05300 48.71700 21.00100
H  24.04200 51.53000 20.89800
H  22.73700 50.65300 21.71400
H  23.17500 50.16600 20.14600
H  22.68300 53.56000 24.64500
H  21.76500 54.01500 26.09300
H  21.32000 52.52200 25.09800
H  22.79200 51.06400 30.52300
H  22.67500 54.56300 33.05400
H  23.84300 54.98800 31.71100
H  24.39800 53.90700 32.96600

