158

Mg 54.71800 24.47300 44.55700
C  52.10400 26.76100 43.82300
C  52.58400 21.86600 43.54000
C  57.32900 22.39500 44.59300
C  56.69300 27.10300 45.38300
N  52.55700 24.34500 43.94000
C  51.75800 25.43100 43.58200
C  50.40700 24.87800 42.92400
C  50.47800 23.32000 43.37400
C  52.01800 23.14700 43.59600
C  49.70900 22.82400 44.58400
C  50.20000 25.04600 41.41100
C  48.83200 25.05200 40.74700
H  48.68100 24.28100 39.45100
N  54.94100 22.42000 44.03600
C  53.92700 21.49100 43.71600
C  54.54300 20.20600 43.53100
C  55.89500 20.30000 43.94600
C  56.10100 21.71600 44.17600
C  53.72900 19.06600 43.21300
C  56.89500 19.08600 44.07700
O  56.62900 17.90200 43.71200
C  58.18800 19.29000 44.73600
N  56.76000 24.67500 44.86800
C  57.70600 23.68800 44.84300
C  59.04100 24.14300 45.39600
C  58.70400 25.70200 45.60800
C  57.30200 25.83900 45.26000
C  59.57600 23.40400 46.69700
C  59.56200 26.59100 44.66300
C  60.58300 27.42000 45.40400
N  54.54800 26.55600 44.58200
C  55.38100 27.48900 45.12700
C  54.75900 28.76500 45.24400
C  53.49400 28.54600 44.64000
C  53.39800 27.20500 44.30600
C  55.37200 29.96000 45.86600
C  52.27800 29.20700 44.26500
O  51.94300 30.38500 44.39900
C  51.27900 28.05700 43.62300
C  50.84200 28.34500 42.24300
O  51.62500 28.41900 41.24700
O  49.52500 28.42900 42.22100
C  49.08100 28.71600 40.89000
H  51.85000 21.08200 43.34200
H  58.19600 21.74800 44.74200
H  57.36100 27.91700 45.67100
H  49.60100 25.32700 43.50500
H  50.27300 22.69900 42.50200
H  50.43900 22.69900 45.38400
H  49.04900 21.97100 44.42700
H  49.00400 23.61000 44.85300
H  50.88700 24.31700 40.98100
H  50.61100 26.01600 41.13200
H  48.57800 26.10600 40.64200
H  48.13800 24.57600 41.43900
H  53.26000 19.22400 42.24100
H  52.96200 18.94400 43.97800
H  54.22400 18.09700 43.15200
H  58.46900 18.28300 45.04500
H  58.12800 19.83300 45.68000
H  59.02000 19.67200 44.14600
H  59.78800 24.00200 44.61600
H  58.91200 25.91900 46.65600
H  59.33000 24.03300 47.55300
H  60.63800 23.16100 46.72900
H  59.06200 22.44400 46.75700
H  58.99400 27.29200 44.05100
H  60.11900 25.94700 43.98300
H  60.38900 27.41100 46.47600
H  60.54700 28.47900 45.15100
H  61.54000 26.97700 45.12600
H  56.39700 30.16400 45.55500
H  55.31900 29.79600 46.94200
H  54.79400 30.84100 45.59000
H  50.34900 27.91500 44.17200
H  48.84600 29.77400 40.77400
H  48.13100 28.20500 40.73300
H  49.70300 28.41100 40.04800
Mg 10.06900 47.55000 26.59300
C  8.29700 47.68100 29.50800
C  12.75600 49.05600 28.14900
C  11.65200 47.39700 23.72900
C  7.01300 46.56200 24.84500
N  10.40200 48.37100 28.56500
C  9.59000 48.08400 29.67600
C  10.28800 48.47600 30.98200
C  11.63000 49.19000 30.47500
C  11.65100 48.73600 29.00400
C  11.49300 50.79200 30.58200
C  10.60500 47.22800 31.82100
C  10.81400 47.42600 33.33800
H  10.35800 46.30000 34.23100
N  12.02000 48.06800 26.04300
C  12.93400 48.72700 26.78300
C  14.15300 48.84100 26.04300
C  13.84000 48.32100 24.67300
C  12.43800 47.94300 24.75800
C  15.54200 49.25700 26.70000
C  14.81900 48.20900 23.42700
O  14.38800 47.95200 22.31300
C  16.33100 48.58200 23.57000
N  9.31900 47.25400 24.50600
C  10.31900 47.05400 23.56600
C  9.73000 46.46600 22.23200
C  8.30200 46.16600 22.67000
C  8.20500 46.63600 24.12100
C  9.84900 47.43800 21.00700
C  7.93700 44.72400 22.47500
C  8.82500 43.72700 23.20900
N  7.99800 47.20900 27.07600
C  6.90600 46.83600 26.25300
C  5.72800 46.87300 27.12000
C  6.23900 47.10200 28.44200
C  7.60200 47.40000 28.30800
C  4.38400 46.57200 26.71400
C  5.89100 47.15800 29.83200
O  4.84900 46.94800 30.39900
C  7.17500 47.43400 30.56800
C  7.33700 46.16900 31.30500
O  7.83700 45.13000 30.82900
O  6.90400 46.37000 32.62200
C  6.81000 45.13600 33.46400
H  13.66900 49.47000 28.58300
H  12.28300 47.39700 22.83800
H  6.09800 46.14800 24.41800
H  9.65900 49.16900 31.54200
H  12.51300 48.92800 31.05800
H  10.62200 51.05300 31.18300
H  11.42700 51.20600 29.57500
H  12.34000 51.12000 31.18500
H  11.53100 46.85700 31.38200
H  9.84900 46.45400 31.68500
H  10.31400 48.35600 33.60800
H  11.89400 47.47400 33.47500
H  15.81000 50.28100 26.44100
H  16.39100 48.61500 26.46500
H  15.55300 49.16000 27.78500
H  16.93400 48.44200 22.67300
H  16.73800 47.91200 24.32800
H  16.39800 49.58400 23.99400
H  10.32500 45.55600 22.30100
H  7.60800 46.81600 22.13600
H  9.69700 48.35900 21.57100
H  9.07900 47.14700 20.29300
H  10.73000 47.58400 20.38200
H  7.94900 44.51300 21.40500
H  6.89100 44.67300 22.77800
H  9.48300 44.23600 23.91300
H  9.42400 43.13700 22.51600
H  8.20800 43.05600 23.80700
H  4.27000 45.66600 26.11800
H  4.17500 47.44600 26.09800
H  3.60300 46.61200 27.47200
H  7.23000 48.37700 31.11200
H  7.75400 44.60200 33.35400
H  6.09000 44.37000 33.17600
H  6.80600 45.40800 34.52000

