158

Mg 46.75000 24.60400 28.21800
C  47.40900 27.01000 30.80400
C  45.70400 22.41100 30.58300
C  46.68900 22.29200 25.78300
C  47.88200 27.05700 25.92600
N  46.54700 24.76700 30.43600
C  46.98400 25.76800 31.28500
C  46.74800 25.35200 32.77400
C  46.30400 23.83700 32.68600
C  46.20000 23.62400 31.16500
C  47.21700 22.77700 33.23400
C  45.66000 26.22300 33.58800
C  46.01700 26.41000 35.08800
H  44.89400 26.32000 36.11300
N  45.89900 22.70000 28.08800
C  45.57900 21.96300 29.21700
C  45.23100 20.58300 28.74500
C  45.61900 20.50000 27.33900
C  46.07100 21.87300 26.98400
C  44.74500 19.45600 29.70800
C  45.68500 19.22100 26.47600
O  46.05700 19.24900 25.30300
C  45.30500 17.89400 27.07900
N  47.35400 24.65200 26.20900
C  47.29400 23.55000 25.41200
C  47.66000 23.89100 23.93300
C  47.76100 25.43400 23.92200
C  47.70200 25.73200 25.43600
C  48.89000 23.10600 23.31000
C  46.78100 26.27500 23.06500
C  45.30000 26.44500 23.59800
N  47.68400 26.51500 28.26300
C  47.92800 27.40700 27.25000
C  48.31600 28.73000 27.79000
C  48.05500 28.64000 29.17900
C  47.65400 27.27900 29.40200
C  48.83600 29.90200 26.98300
C  48.05500 29.39400 30.47000
O  48.27400 30.56100 30.76800
C  47.71900 28.26600 31.54700
C  48.86000 28.14900 32.47300
O  49.95500 27.77800 32.15400
O  48.57900 28.70900 33.63500
C  49.60700 28.67300 34.69800
H  45.42400 21.72400 31.38400
H  46.85600 21.58000 24.97200
H  48.14100 27.85200 25.22300
H  47.71400 25.44300 33.27200
H  45.30500 23.63200 33.07300
H  47.93300 23.32800 33.84300
H  47.92300 22.25900 32.58500
H  46.64100 22.18600 33.94700
H  44.70800 25.71900 33.41900
H  45.62000 27.15100 33.01900
H  46.31800 27.45600 35.14900
H  46.93100 25.84000 35.25300
H  45.52900 18.69800 29.71700
H  43.85700 19.06200 29.21400
H  44.48100 19.87000 30.68100
H  45.79400 17.56000 27.99400
H  45.59000 17.09800 26.39100
H  44.22600 18.00500 27.19400
H  46.81200 23.61600 23.30600
H  48.76600 25.79200 23.69900
H  48.45400 22.70200 22.39700
H  49.28600 22.38500 24.02500
H  49.57600 23.90200 23.02100
H  46.69100 25.75200 22.11300
H  47.35000 27.18900 22.89400
H  44.57400 26.23500 22.81300
H  45.08600 27.47300 23.88800
H  45.02200 25.92500 24.51500
H  48.02500 30.29300 26.36900
H  49.71600 29.69800 26.37400
H  48.88200 30.69900 27.72500
H  46.94800 28.71000 32.17700
H  49.41800 27.73200 35.21500
H  49.50100 29.52000 35.37600
H  50.64900 28.66200 34.37700
Mg -2.73500 34.50800 26.79500
C  -3.45700 32.63900 29.64700
C  -1.03000 36.77600 28.77500
C  -2.31000 36.52700 24.03400
C  -4.41000 32.27000 24.85100
N  -2.43700 34.70800 28.95900
C  -2.75700 33.82700 29.96800
C  -2.24100 34.29300 31.36400
C  -1.60400 35.69000 31.05500
C  -1.69500 35.76200 29.52800
C  -2.15200 36.88800 31.80100
C  -1.25700 33.20500 32.00000
C  -1.73600 32.59500 33.34500
H  -0.85100 32.67300 34.59200
N  -1.75400 36.38800 26.52600
C  -1.03800 37.11700 27.41300
C  -0.35900 38.19600 26.75100
C  -0.74800 38.17800 25.41300
C  -1.63300 36.99400 25.25700
C  0.65900 39.04200 27.47200
C  -0.43900 39.18500 24.29900
O  -0.82000 38.99200 23.16200
C  0.22700 40.49700 24.57700
N  -3.34200 34.47100 24.75200
C  -3.04000 35.37100 23.89800
C  -3.47600 34.87900 22.47600
C  -3.83700 33.39500 22.63900
C  -3.79300 33.29300 24.14000
C  -4.62600 35.79700 21.95900
C  -2.98500 32.35700 21.91100
C  -3.36500 30.87100 21.82300
N  -3.81000 32.83800 27.15100
C  -4.44100 31.97200 26.24600
C  -5.04200 30.86200 26.99200
C  -4.64000 31.01800 28.31100
C  -3.88600 32.24800 28.37300
C  -5.86700 29.83200 26.41500
C  -4.70900 30.45700 29.60400
O  -5.27700 29.47000 30.01500
C  -4.04300 31.53400 30.54800
C  -5.10500 32.10800 31.47000
O  -5.95000 32.93600 31.13200
O  -4.98900 31.53100 32.69600
C  -5.91600 32.02000 33.75300
H  -0.52700 37.46000 29.46300
H  -2.13400 37.12000 23.13400
H  -4.89100 31.54700 24.18800
H  -3.06900 34.49500 32.04400
H  -0.54900 35.50600 31.26100
H  -2.80900 36.53800 32.59800
H  -2.52900 37.68400 31.15900
H  -1.30800 37.39500 32.26800
H  -0.27400 33.64500 32.16700
H  -1.09900 32.41700 31.26300
H  -1.89200 31.52700 33.19200
H  -2.68300 33.09200 33.55300
H  0.71000 38.67400 28.49700
H  0.47500 40.11500 27.42600
H  1.54500 38.84700 26.86800
H  1.31200 40.46800 24.67200
H  -0.27000 40.79300 25.50100
H  -0.07900 41.24500 23.84600
H  -2.70100 35.12300 21.74900
H  -4.88100 33.21600 22.38300
H  -5.31100 36.21400 22.69700
H  -5.31200 35.08100 21.50600
H  -4.34400 36.48500 21.16200
H  -1.98300 32.34900 22.34100
H  -2.80400 32.53700 20.85200
H  -4.33700 30.73900 22.29800
H  -2.57800 30.32900 22.34700
H  -3.36500 30.50800 20.79600
H  -6.02800 30.16800 25.39100
H  -6.77900 29.82900 27.01200
H  -5.42900 28.83700 26.49200
H  -3.22800 31.06400 31.09800
H  -6.66700 32.75100 33.45400
H  -5.39500 32.65400 34.47100
H  -6.46900 31.16800 34.14900

