158

Mg 46.67800 24.39400 28.95100
C  47.24100 26.92100 31.40600
C  45.69800 22.36500 31.49100
C  46.65100 22.00500 26.67800
C  48.18300 26.56500 26.54100
N  46.51400 24.63100 31.23700
C  46.64600 25.77100 31.96600
C  46.12200 25.56400 33.42000
C  45.86000 24.01900 33.41600
C  45.97600 23.59900 31.95700
C  46.88000 23.15400 34.21800
C  44.97500 26.57800 33.85900
C  45.27700 27.20800 35.22400
H  44.31200 27.13300 36.36900
N  45.98300 22.49300 29.05900
C  45.60600 21.85100 30.17600
C  45.08900 20.60000 29.69900
C  45.41300 20.38000 28.37900
C  46.02700 21.64700 27.94600
C  44.44000 19.64400 30.55600
C  45.22800 19.25500 27.44400
O  45.55000 19.31600 26.20800
C  44.76400 17.97000 28.03400
N  47.48300 24.28600 26.96200
C  47.20100 23.21900 26.15800
C  47.59700 23.38100 24.67200
C  47.75900 24.93800 24.65600
C  47.78500 25.32000 26.12700
C  48.93400 22.63500 24.43400
C  46.60300 25.64900 23.97800
C  46.72100 26.17300 22.51200
N  47.57700 26.25600 28.91800
C  48.19900 27.00600 27.86700
C  48.63800 28.23500 28.44300
C  48.37100 28.21700 29.77700
C  47.67100 27.04300 30.05000
C  49.16100 29.35400 27.66100
C  48.50700 28.96200 31.03600
O  49.12400 29.94300 31.35000
C  47.85600 28.09700 32.16000
C  48.94300 27.62900 33.17100
O  49.88900 26.92500 32.88500
O  48.58900 28.16500 34.36600
C  49.35300 27.77400 35.54300
H  45.39700 21.67200 32.28000
H  46.58100 21.30700 25.84100
H  48.30500 27.27300 25.71900
H  47.04900 25.75000 33.96300
H  44.85600 23.86400 33.81100
H  47.55200 22.53000 33.62900
H  46.27700 22.51200 34.86000
H  47.37300 23.82500 34.92200
H  44.02000 26.05600 33.92300
H  45.05900 27.39300 33.13900
H  45.84700 28.13400 35.14500
H  46.00100 26.55600 35.71100
H  45.01000 18.71900 30.47000
H  43.40800 19.46300 30.25500
H  44.48300 19.88500 31.61800
H  45.46000 17.62100 28.79700
H  44.84100 17.23700 27.23000
H  43.75000 18.03900 28.42800
H  46.73900 23.02900 24.09900
H  48.70400 25.23300 24.20000
H  49.13300 21.80000 25.10500
H  49.83700 23.24200 24.49600
H  48.87900 22.34400 23.38500
H  46.28600 26.45300 24.64200
H  45.78000 24.93400 23.99800
H  47.71600 25.87300 22.18400
H  46.71000 27.25100 22.35100
H  45.93100 25.73000 21.90500
H  48.40500 30.02700 27.25600
H  49.67200 28.98500 26.77200
H  49.83300 29.83300 28.37300
H  47.08400 28.77500 32.52400
H  49.89700 28.61400 35.97500
H  50.01600 26.95300 35.27100
H  48.69700 27.60100 36.39700
Mg 6.49000 53.67000 41.10400
C  5.62200 50.30000 41.14300
C  9.48900 52.75500 39.97600
C  7.04400 57.00400 40.46400
C  3.15700 54.45500 41.81800
N  7.29900 51.76500 40.33100
C  6.85600 50.49200 40.48700
C  7.77200 49.41100 40.01300
C  9.11000 50.16200 40.15500
C  8.61400 51.66200 40.09000
C  9.93200 49.88400 41.46200
C  7.55500 48.96400 38.58000
C  6.42600 49.56900 37.65200
H  5.91000 48.62500 36.56500
N  8.00600 54.78400 40.48000
C  9.17500 54.19700 40.08800
C  10.09400 55.21800 39.85800
C  9.49800 56.46000 39.93400
C  8.08000 56.12700 40.30500
C  11.66600 54.98200 39.56900
C  10.11400 57.76100 39.63200
O  11.21900 57.73900 39.08600
C  9.52400 59.07500 39.90700
N  5.25100 55.43500 41.00100
C  5.73100 56.69100 40.78500
C  4.64600 57.73700 40.88300
C  3.32800 56.93000 41.29900
C  3.98400 55.50000 41.38600
C  4.95200 58.86200 41.85100
C  2.21100 57.02400 40.22600
C  0.80400 57.28100 40.68900
N  4.65300 52.61100 41.45500
C  3.45900 53.07400 41.90500
C  2.72200 51.90300 42.33600
C  3.57400 50.82700 42.05100
C  4.74000 51.28100 41.54300
C  1.38500 51.88300 43.03900
C  3.59900 49.42100 42.13200
O  2.72200 48.62600 42.49200
C  4.95200 49.01500 41.60400
C  4.82300 47.99000 40.49500
O  4.15900 48.18300 39.48100
O  5.45200 46.77200 40.73400
C  5.19500 45.74700 39.81700
H  10.53300 52.50900 39.76800
H  7.22500 58.03600 40.15800
H  2.13500 54.74700 42.06900
H  7.74600 48.57800 40.71500
H  9.74400 49.92300 39.30200
H  11.00900 49.87400 41.29400
H  9.66200 48.91500 41.88200
H  9.70700 50.66400 42.18900
H  7.36400 47.90000 38.72000
H  8.48700 48.97200 38.01500
H  6.91200 50.44400 37.22000
H  5.58000 49.90600 38.25000
H  12.14000 55.46200 38.71300
H  11.76000 53.89800 39.51000
H  12.20100 55.41100 40.41500
H  9.03700 59.16600 40.87800
H  8.77800 59.24600 39.13100
H  10.26400 59.87500 39.93300
H  4.61800 58.17300 39.88400
H  2.96700 57.22000 42.28600
H  5.71700 58.41400 42.48600
H  4.13500 59.10700 42.52900
H  5.29000 59.69300 41.23200
H  2.11300 56.15200 39.58000
H  2.34300 57.90000 39.59000
H  0.57300 57.30600 41.75400
H  0.21200 56.45400 40.29700
H  0.58400 58.28200 40.31600
H  0.78300 51.05200 42.67200
H  0.92000 52.86000 42.91500
H  1.57300 51.77400 44.10700
H  5.62300 48.59400 42.35300
H  5.70800 44.84200 40.14300
H  5.59800 46.04700 38.84900
H  4.12000 45.59800 39.91400

