158

Mg 29.84200 58.23900 40.70900
C  26.83700 56.60900 39.39200
C  31.66600 55.90800 39.44000
C  32.40800 60.39200 40.92700
C  27.64200 60.87400 41.59600
N  29.26600 56.52100 39.55600
C  28.07400 55.98300 39.12500
C  28.26300 54.65600 38.36100
C  29.71200 54.33700 38.78400
C  30.33800 55.64000 39.24700
C  29.85400 53.10700 39.79400
C  28.09800 54.95800 36.83600
C  27.31300 53.91000 36.05600
H  27.48300 53.96900 34.54100
N  31.83500 58.19300 40.31400
C  32.40200 57.12800 39.81900
C  33.81500 57.30600 39.80300
C  34.09700 58.63500 40.26200
C  32.77700 59.16000 40.52900
C  34.82000 56.24400 39.34100
C  35.51500 59.15400 40.49200
O  36.51500 58.42100 40.46000
C  35.77100 60.71800 40.87900
N  30.02200 60.29300 41.24800
C  31.14900 61.02700 41.18400
C  30.97600 62.49200 41.58100
C  29.50200 62.48500 42.05000
C  28.96400 61.16500 41.52000
C  32.02400 63.14900 42.47200
C  28.80100 63.83500 41.54800
C  27.79000 64.40000 42.56100
N  27.65400 58.61500 40.66400
C  26.94900 59.80400 40.99900
C  25.48900 59.57000 40.84300
C  25.43400 58.37100 40.16700
C  26.75100 57.81000 40.09700
C  24.38700 60.49000 41.13400
C  24.50100 57.37400 39.52100
O  23.31900 57.53500 39.30100
C  25.36600 56.20500 39.22000
C  24.93100 55.00500 40.05800
O  25.50600 54.55000 41.02800
O  23.88200 54.43500 39.44100
C  23.03800 53.71500 40.37300
H  32.28700 55.03800 39.21400
H  33.16500 61.17200 41.03300
H  26.94600 61.62600 41.97200
H  27.49000 53.93700 38.63300
H  30.24900 54.08200 37.87000
H  28.89700 52.59300 39.89000
H  30.17200 53.52300 40.75000
H  30.66200 52.43000 39.51600
H  29.06100 54.95800 36.32600
H  27.78800 55.99700 36.72500
H  26.27200 54.08700 36.32700
H  27.66400 52.91600 36.33500
H  34.38900 55.50700 38.66300
H  35.26100 55.64800 40.14000
H  35.64600 56.65900 38.76200
H  36.79200 61.08600 40.77300
H  35.20500 60.92700 41.78600
H  35.32600 61.43000 40.18400
H  31.05600 62.95600 40.59800
H  29.43600 62.28600 43.12000
H  31.41200 63.52400 43.29200
H  32.55700 63.92900 41.92800
H  32.70900 62.40800 42.88200
H  28.19800 63.58100 40.67600
H  29.41300 64.65900 41.18100
H  27.86400 65.48400 42.65100
H  27.98100 63.90500 43.51400
H  26.79000 64.09000 42.25900
H  23.83500 60.15400 42.01200
H  23.79200 60.62200 40.23100
H  24.80700 61.48300 41.29400
H  25.26700 55.81300 38.20800
H  23.51100 52.82300 40.78300
H  22.08800 53.46100 39.90300
H  22.75400 54.37600 41.19100
Mg 5.48800 54.39500 41.45400
C  3.20900 51.60500 41.57300
C  7.68500 52.36800 39.86700
C  7.13100 57.11200 40.57500
C  2.53700 56.41700 41.82000
N  5.34500 52.30700 40.60500
C  4.33800 51.36200 40.74200
C  4.71200 50.12800 39.94600
C  6.21900 50.23000 39.81800
C  6.46000 51.70400 40.16000
C  7.14400 49.19600 40.49200
C  3.98300 50.13100 38.56700
C  3.44600 48.83500 38.00600
H  4.15900 48.27800 36.75700
N  7.33800 54.68700 40.61900
C  8.12200 53.69400 40.06400
C  9.44000 54.33400 39.76800
C  9.26900 55.74900 40.00300
C  7.87200 55.93400 40.44900
C  10.50300 53.46900 39.22800
C  10.43500 56.74800 39.88100
O  11.52700 56.41000 39.41300
C  10.30100 58.16000 40.25600
N  4.84700 56.42200 41.17800
C  5.75200 57.37300 40.81100
C  5.09100 58.80900 40.77900
C  3.58600 58.58900 41.16300
C  3.64100 57.04200 41.38300
C  5.80300 59.95600 41.57100
C  2.55900 59.07800 40.10200
C  2.03800 60.53700 40.29800
N  3.35900 54.13100 41.97400
C  2.30900 55.05000 42.07400
C  1.17100 54.34000 42.58300
C  1.49600 52.95700 42.45700
C  2.81300 52.91900 42.02500
C  -0.09700 54.98200 42.91500
C  0.97500 51.63400 42.58400
O  -0.08400 51.21200 43.00900
C  2.14300 50.73400 42.10700
C  1.59500 49.76800 41.10700
O  1.14900 50.13900 40.05100
O  1.92000 48.51100 41.58000
C  1.45300 47.42800 40.69100
H  8.47700 51.69100 39.53900
H  7.79100 57.97300 40.45500
H  1.65800 57.04400 41.98300
H  4.37600 49.20200 40.41300
H  6.52700 50.19100 38.77300
H  6.55900 48.33400 40.81300
H  7.47500 49.55400 41.46700
H  8.02700 48.99900 39.88400
H  4.58900 50.47400 37.72800
H  3.19800 50.88400 38.64000
H  2.37000 48.87300 37.83400
H  3.52500 48.02900 38.73500
H  10.50000 53.58400 38.14400
H  10.48400 52.41200 39.49700
H  11.44900 53.88600 39.57100
H  11.28000 58.57100 40.50200
H  9.75200 58.28600 41.18900
H  9.87900 58.71400 39.41700
H  5.18300 59.12600 39.74000
H  3.32300 59.05000 42.11500
H  5.15400 60.50800 42.25100
H  6.19400 60.65000 40.82700
H  6.67800 59.80400 42.20200
H  1.60600 58.55000 40.13200
H  3.13200 58.97400 39.18000
H  2.77700 61.16200 39.79700
H  2.07200 60.80000 41.35500
H  1.01100 60.76100 40.00800
H  0.15500 55.72000 43.67600
H  -0.85500 54.37400 43.40800
H  -0.58800 55.40100 42.03600
H  2.47800 50.17400 42.98000
H  1.17900 47.71800 39.67700
H  0.67100 46.87500 41.21300
H  2.42000 46.93500 40.59000

