158

Mg 17.09100 -2.32600 27.17900
C  16.17700 -0.36700 29.85900
C  18.94200 -4.26200 29.31600
C  18.36000 -3.90400 24.48500
C  15.73100 0.02300 25.00100
N  17.43800 -2.34200 29.44600
C  16.97100 -1.45100 30.31400
C  17.35000 -1.84700 31.69100
C  18.51000 -2.97400 31.49900
C  18.28900 -3.22200 30.02700
C  19.96600 -2.58000 31.98200
C  16.20600 -2.30700 32.59500
C  16.19800 -1.66000 33.99400
H  17.40300 -1.05600 34.63900
N  18.29800 -3.93400 26.92500
C  18.99400 -4.61300 27.93100
C  19.83100 -5.70200 27.31000
C  19.56700 -5.62700 25.89400
C  18.69300 -4.47000 25.71100
C  20.62900 -6.66100 28.09900
C  20.17600 -6.54200 24.76100
O  19.99300 -6.29300 23.54600
C  21.08700 -7.73700 25.15200
N  16.85500 -2.11200 25.03400
C  17.59100 -2.82000 24.14300
C  17.74300 -2.14100 22.79000
C  16.55900 -1.09600 22.87700
C  16.31800 -1.04300 24.37800
C  19.13800 -1.50100 22.44800
C  15.24700 -1.46600 22.14600
C  14.93100 -0.49200 21.02100
N  15.93600 -0.59400 27.27800
C  15.52600 0.31900 26.36100
C  14.86000 1.41800 27.00900
C  15.10100 1.23900 28.35600
C  15.74100 -0.04400 28.47600
C  14.23900 2.64700 26.30400
C  14.89400 1.83200 29.68300
O  14.25200 2.82000 29.99000
C  15.52600 0.81700 30.64100
C  16.41800 1.52900 31.56500
O  17.62200 1.64000 31.32500
O  15.81000 2.06000 32.65000
C  16.72300 2.96800 33.44300
H  19.56800 -4.84600 29.99400
H  18.78300 -4.36100 23.58800
H  15.37700 0.76700 24.28400
H  17.80000 -0.91600 32.03700
H  18.23800 -3.86800 32.06000
H  19.97400 -1.56900 32.38900
H  20.73600 -2.83200 31.25400
H  20.07000 -3.16600 32.89600
H  16.22900 -3.38100 32.78300
H  15.30400 -1.98900 32.07300
H  15.94100 -2.43600 34.71500
H  15.36600 -0.96000 34.06000
H  20.82200 -6.25800 29.09300
H  21.56200 -6.92600 27.60200
H  20.00900 -7.55100 28.20700
H  20.37500 -8.33200 25.72400
H  22.00300 -7.51600 25.70000
H  21.43800 -8.30200 24.28800
H  17.44400 -2.98000 22.16200
H  16.92400 -0.12800 22.53400
H  20.03500 -2.05100 22.73100
H  19.30800 -0.55000 22.95300
H  19.07200 -1.58700 21.36300
H  14.37800 -1.57000 22.79600
H  15.37700 -2.45800 21.71300
H  13.98000 -0.01800 21.26300
H  14.70700 -1.13400 20.16900
H  15.69200 0.26200 20.82000
H  13.23500 2.35100 25.99900
H  14.85100 2.91600 25.44300
H  14.07300 3.43700 27.03600
H  14.84600 0.37400 31.36700
H  16.22600 3.14600 34.39700
H  16.71800 3.88800 32.85900
H  17.74800 2.61400 33.55600
Mg 25.92600 -0.74300 29.72700
C  27.55600 -1.24600 32.68300
C  23.00500 -0.37400 31.47100
C  24.40100 -0.45300 26.85500
C  28.94500 -1.58200 27.97800
N  25.30900 -0.81000 31.83300
C  26.19800 -0.78900 32.91900
C  25.59700 -0.38600 34.24600
C  24.05700 -0.52000 33.83100
C  24.12700 -0.59900 32.28100
C  23.38000 -1.86600 34.30800
C  26.20000 1.02600 34.65000
C  27.08900 1.03500 35.89500
H  26.59200 1.90500 37.04600
N  23.93800 -0.51000 29.28000
C  22.85800 -0.34800 30.07100
C  21.63300 -0.12800 29.29300
C  21.99200 -0.27400 27.95000
C  23.48200 -0.39600 27.98300
C  20.22500 0.33500 29.86500
C  21.16600 -0.23300 26.67200
O  21.56100 -0.62900 25.56900
C  19.74000 0.31200 26.78600
N  26.56800 -1.19600 27.60400
C  25.76600 -0.68600 26.68300
C  26.41700 -0.52100 25.34900
C  27.94700 -0.81900 25.70700
C  27.84700 -1.19800 27.20200
C  25.85200 -1.38000 24.12700
C  28.99900 0.25900 25.32200
C  30.09100 -0.12200 24.33000
N  27.84600 -1.38900 30.16800
C  28.90800 -1.71400 29.39500
C  30.05700 -1.92800 30.21100
C  29.59300 -1.80500 31.52500
C  28.23500 -1.48500 31.44100
C  31.36900 -2.33500 29.79500
C  29.94700 -1.77800 32.97700
O  31.07100 -1.93900 33.53900
C  28.60600 -1.40800 33.72100
C  28.45300 -2.48500 34.71400
O  27.90000 -3.55500 34.48000
O  29.24200 -2.25000 35.86200
C  29.01000 -3.25100 36.84600
H  22.03600 -0.32900 31.97200
H  23.75100 -0.14900 26.03100
H  29.94500 -1.68300 27.55100
H  25.96400 -1.10800 34.97500
H  23.42600 0.28400 34.21000
H  23.01600 -1.74900 35.32900
H  24.16600 -2.61900 34.25800
H  22.46400 -2.13500 33.78200
H  25.39900 1.76000 34.73700
H  26.85500 1.41900 33.87300
H  28.04300 1.36400 35.48400
H  27.27900 0.03600 36.28900
H  20.25900 0.71000 30.88800
H  19.42700 -0.38100 29.66800
H  19.97200 1.19700 29.24800
H  19.87200 1.37600 26.98200
H  19.29300 -0.15800 27.66200
H  19.12900 0.17300 25.89400
H  26.27200 0.55400 25.24400
H  28.20100 -1.72000 25.14900
H  24.94800 -1.90100 24.44100
H  26.57400 -2.15100 23.85800
H  25.68100 -0.73900 23.26200
H  29.48300 0.60600 26.23500
H  28.42200 1.01000 24.78200
H  31.02200 0.27000 24.74000
H  30.00500 0.41900 23.38800
H  30.14100 -1.19600 24.15600
H  32.05400 -2.40900 30.64000
H  31.71000 -1.55000 29.11900
H  31.34600 -3.29800 29.28600
H  28.71200 -0.39800 34.11600
H  29.56600 -4.15300 36.58500
H  27.96400 -3.47600 37.05100
H  29.52300 -3.05900 37.78800

