158

Mg 41.66900 8.54100 29.62900
C  43.54500 9.68800 32.43300
C  39.15200 7.69100 31.76100
C  40.02900 7.21000 26.93900
C  44.36600 9.42800 27.66100
N  41.45800 8.38100 31.92000
C  42.31900 9.01900 32.87600
C  41.70700 8.89000 34.31300
C  40.34800 8.10300 34.08100
C  40.25600 8.11000 32.47200
C  40.18900 6.66400 34.68200
C  41.41400 10.27600 34.87200
C  40.44900 10.23600 36.06300
H  40.77600 11.22500 37.14700
N  39.89800 7.48000 29.40100
C  38.96500 7.36600 30.38500
C  37.79300 6.82600 29.75400
C  37.94200 6.78300 28.31800
C  39.29800 7.22100 28.15900
C  36.60100 6.35100 30.51500
C  36.98000 6.31700 27.21100
O  37.35100 6.15700 26.06500
C  35.55700 6.06400 27.51000
N  42.13800 8.27100 27.64000
C  41.30600 7.69100 26.64600
C  41.90500 7.74300 25.16800
C  43.16200 8.71600 25.50700
C  43.20200 8.89700 27.07300
C  42.23700 6.36200 24.48100
C  43.11900 10.03600 24.69900
C  42.51200 11.32700 25.37300
N  43.59700 9.34400 29.91000
C  44.57600 9.68800 29.03300
C  45.64600 10.23200 29.62600
C  45.28500 10.25000 30.96700
C  44.00800 9.73900 31.10600
C  46.94900 10.62000 28.92000
C  45.73000 10.74000 32.25700
O  46.74000 11.36400 32.57900
C  44.62900 10.24200 33.28900
C  45.17800 9.46700 34.45700
O  46.12400 8.65700 34.43700
O  44.43400 9.76000 35.59200
C  44.65700 8.87600 36.71100
H  38.34400 7.44800 32.45400
H  39.58100 6.69900 26.08400
H  45.09600 9.72800 26.90600
H  42.39200 8.35400 34.97000
H  39.52400 8.77200 34.32900
H  39.40100 6.62800 35.43400
H  41.03700 6.36000 35.29500
H  40.18200 5.90400 33.90100
H  40.94100 10.80600 34.04500
H  42.24000 10.92000 35.17200
H  40.33100 9.24300 36.49600
H  39.47400 10.61300 35.75500
H  36.70300 6.47500 31.59300
H  36.50900 5.30500 30.22200
H  35.70000 6.84000 30.14600
H  35.12900 5.83600 26.53400
H  35.18200 6.95600 28.01200
H  35.51200 5.17300 28.13600
H  41.18700 8.20100 24.48800
H  44.05300 8.11500 25.32000
H  43.30500 6.25900 24.28900
H  41.81100 6.28900 23.48000
H  41.99300 5.43000 24.99000
H  42.55000 9.95900 23.77300
H  44.13100 10.35400 24.44900
H  41.97100 10.94800 26.24100
H  41.78900 11.84600 24.74200
H  43.28200 12.07100 25.58000
H  47.85200 10.29800 29.43800
H  47.00600 11.69900 29.06100
H  47.09800 10.15500 27.94600
H  44.24300 11.17800 33.69300
H  44.18200 9.33600 37.57800
H  45.71600 8.70000 36.89400
H  44.23300 7.88400 36.55300
Mg 28.28900 56.81100 39.66200
C  26.36900 53.84700 39.29900
C  31.08100 54.89800 38.70100
C  29.98800 59.65000 39.39600
C  25.35700 58.50100 40.25000
N  28.65000 54.64500 38.97400
C  27.71000 53.69500 38.93500
C  28.31600 52.41200 38.39900
C  29.84500 52.61100 38.45900
C  29.90300 54.13900 38.76400
C  30.47300 51.77300 39.57100
C  27.79600 51.95200 36.97700
C  27.21600 52.98800 35.93000
H  27.47900 52.76700 34.38000
N  30.29100 57.19700 39.27100
C  31.24400 56.29500 38.83900
C  32.48100 57.06700 38.64000
C  32.15500 58.43900 38.83700
C  30.74500 58.46600 39.21300
C  33.76700 56.38300 38.25800
C  33.22400 59.55500 38.70600
O  34.33400 59.34600 38.32300
C  33.02900 60.98100 39.24900
N  27.71800 58.75400 39.67500
C  28.61500 59.74800 39.72000
C  28.03400 61.02900 40.14800
C  26.49100 60.74200 40.03700
C  26.54200 59.21500 40.11200
C  28.50900 61.50500 41.56400
C  25.78300 61.24300 38.71900
C  24.74800 62.38000 38.86100
N  26.26300 56.34300 39.68400
C  25.15900 57.09300 39.95700
C  23.94200 56.28100 40.05700
C  24.39300 54.93700 39.83100
C  25.77400 55.08200 39.59400
C  22.60900 56.79300 40.47200
C  24.04400 53.58800 39.80600
O  22.94400 53.03900 39.87900
C  25.27600 52.79000 39.53300
C  25.40100 51.91200 40.67600
O  24.70100 50.93100 40.84700
O  26.44100 52.22500 41.47400
C  26.69600 51.38000 42.65300
H  31.93600 54.30600 38.36800
H  30.45700 60.63300 39.48500
H  24.44200 59.08100 40.38400
H  27.94500 51.73600 39.16900
H  30.33300 52.47400 37.49400
H  29.95700 50.85800 39.86200
H  30.47600 52.40600 40.45800
H  31.43700 51.39000 39.23400
H  27.03100 51.26100 37.33200
H  28.47000 51.23000 36.51600
H  27.81900 53.86200 36.17400
H  26.16700 53.26000 36.04600
H  33.98600 56.47800 37.19500
H  33.78500 55.29600 38.34400
H  34.61800 56.78500 38.80900
H  32.47600 60.86100 40.18100
H  32.44800 61.61200 38.57600
H  34.03500 61.36500 39.42200
H  28.35700 61.86400 39.52600
H  25.91900 61.05500 40.91100
H  27.70000 61.44200 42.29100
H  28.85500 62.52900 41.42500
H  29.41200 60.92500 41.75300
H  25.23100 60.42500 38.25600
H  26.51200 61.51700 37.95700
H  24.71400 62.80100 37.85600
H  25.25000 63.10000 39.50700
H  23.80300 62.03900 39.28600
H  22.05900 57.25900 39.65400
H  22.79800 57.54300 41.23900
H  22.07200 55.94900 40.90400
H  25.07700 52.22700 38.62100
H  27.49900 51.95800 43.11100
H  27.17100 50.47100 42.28400
H  25.78800 51.13400 43.20300

