158

Mg 25.42400 1.05400 29.32800
C  27.46500 1.00600 32.17000
C  22.68700 1.91700 31.30800
C  23.40100 1.31200 26.57200
C  28.06700 0.12600 27.31100
N  25.10700 1.32400 31.50500
C  26.12200 1.35300 32.48100
C  25.60000 1.67700 33.90200
C  24.03900 1.84700 33.61200
C  23.87100 1.64000 32.06600
C  23.11900 0.83200 34.39400
C  26.16800 2.93600 34.67300
C  26.76600 2.74300 36.08000
H  26.61200 3.84000 37.11200
N  23.32000 1.48000 28.94100
C  22.39000 1.84200 29.88500
C  21.10800 2.17600 29.33000
C  21.36000 1.99600 27.88600
C  22.74400 1.57600 27.72400
C  19.79700 2.43600 30.12600
C  20.24500 2.08000 26.70800
O  20.59700 1.88900 25.59700
C  18.91100 2.50500 26.96900
N  25.62500 0.62600 27.24200
C  24.68800 0.85500 26.31400
C  25.31100 0.87200 24.85000
C  26.75900 0.42700 25.11400
C  26.83700 0.38600 26.65000
C  24.45200 0.08600 23.87400
C  27.85200 1.40900 24.57600
C  29.00800 0.73300 23.86700
N  27.41300 0.61900 29.62000
C  28.39100 0.26100 28.70800
C  29.66600 0.05000 29.43500
C  29.34600 0.37300 30.79500
C  27.96100 0.67400 30.89500
C  30.90400 -0.45500 28.95300
C  29.86800 0.39600 32.15300
O  30.97200 0.16200 32.60400
C  28.63500 0.87200 33.07400
C  28.50300 -0.17600 34.15100
O  28.36600 -1.35400 33.88900
O  28.71500 0.34500 35.45200
C  29.02300 -0.65100 36.55300
H  21.89500 2.17000 32.01500
H  22.80800 1.43700 25.66300
H  28.81900 -0.34700 26.67500
H  25.80000 0.83000 34.55800
H  23.65300 2.85800 33.74200
H  22.62200 0.13000 33.72400
H  22.44300 1.36700 35.06100
H  23.65300 0.20600 35.10900
H  25.39100 3.69900 34.72900
H  26.98400 3.41200 34.12900
H  27.83400 2.74800 35.86400
H  26.67200 1.76600 36.55400
H  19.94500 2.52900 31.20200
H  19.06600 1.67200 29.86000
H  19.26000 3.34400 29.85100
H  18.35100 2.73800 26.06300
H  18.82200 3.47800 27.45200
H  18.33100 1.79200 27.55500
H  25.35600 1.94300 24.65200
H  26.98200 -0.60100 24.82900
H  23.61100 -0.44600 24.31800
H  25.23600 -0.55800 23.47800
H  24.09800 0.78600 23.11700
H  28.32000 1.96500 25.38800
H  27.24800 2.09700 23.98600
H  29.99700 1.16500 24.02100
H  28.73900 0.78300 22.81200
H  29.15800 -0.30900 24.14700
H  30.86400 -1.53500 28.80700
H  31.59900 -0.09100 29.71000
H  31.02700 0.03400 27.98700
H  28.72400 1.68400 33.79500
H  28.23300 -0.58200 37.30100
H  29.97600 -0.42100 37.03000
H  29.07500 -1.64000 36.09700
Mg -1.98400 35.82800 27.09600
C  -4.05000 34.03300 29.29600
C  -1.38700 38.09000 29.68200
C  0.05800 37.60300 25.18100
C  -3.33600 34.13100 24.39300
N  -2.63200 36.01900 29.24700
C  -3.36800 35.11100 29.91700
C  -3.37700 35.40000 31.43300
C  -2.70100 36.83000 31.45800
C  -2.20300 37.01600 30.05100
C  -3.63200 37.96800 32.01200
C  -2.81100 34.27400 32.32700
C  -2.10700 34.69400 33.69300
H  -2.43900 33.77800 34.94200
N  -0.82200 37.62000 27.43200
C  -0.63500 38.31400 28.56500
C  0.33500 39.39400 28.37300
C  0.75700 39.25200 27.01500
C  -0.01600 38.14400 26.45300
C  0.80100 40.37600 29.43700
C  1.72000 40.12100 26.20000
O  1.93800 39.91000 25.04900
C  2.68800 41.14000 26.86500
N  -1.80800 35.93800 24.97500
C  -0.76800 36.65300 24.45100
C  -0.63200 36.34600 22.97600
C  -1.49200 35.03600 22.78300
C  -2.30200 35.01800 24.10200
C  -1.03800 37.67600 22.11000
C  -0.70500 33.75200 22.71100
C  -1.39700 32.69300 21.73200
N  -3.45700 34.40300 26.86200
C  -3.91500 33.83700 25.70500
C  -4.91400 32.85400 26.04600
C  -4.98300 32.93700 27.41300
C  -4.07500 33.83200 27.84500
C  -5.53700 31.74800 25.24400
C  -5.58400 32.25900 28.66100
O  -6.27700 31.23200 28.82300
C  -5.05800 33.08800 29.89000
C  -6.22700 33.77200 30.43400
O  -7.03700 34.52500 29.84000
O  -6.40800 33.52600 31.77400
C  -7.51300 34.09300 32.62300
H  -1.29500 38.80600 30.50100
H  0.94100 37.90800 24.61600
H  -3.84000 33.66600 23.54200
H  -4.39700 35.57000 31.77700
H  -1.81200 36.80100 32.08800
H  -3.00100 38.85700 32.02200
H  -3.98500 37.79300 33.02800
H  -4.53000 38.02800 31.39700
H  -2.17500 33.63800 31.71200
H  -3.68300 33.65800 32.54500
H  -2.44800 35.71400 33.87100
H  -1.04400 34.62400 33.46400
H  1.69600 39.98000 29.91800
H  -0.04300 40.60200 30.08900
H  0.93600 41.32600 28.92000
H  3.50200 41.48900 26.22800
H  3.18000 40.78600 27.77100
H  2.18600 42.07400 27.11500
H  0.40600 36.11400 22.73700
H  -2.10900 35.20400 21.90000
H  -1.77000 37.52500 21.31600
H  -0.06700 38.02900 21.76300
H  -1.46600 38.45600 22.73900
H  -0.45700 33.35100 23.69400
H  0.29500 33.97000 22.33600
H  -0.80400 32.46000 20.84800
H  -2.25300 33.15600 21.24000
H  -1.59200 31.72500 22.19400
H  -4.75200 31.41500 24.56500
H  -6.35600 32.17600 24.66600
H  -5.82200 30.96100 25.94200
H  -4.57800 32.44800 30.63100
H  -8.47000 33.67900 32.30700
H  -7.55700 35.18200 32.63800
H  -7.34200 33.90400 33.68200

