158

Mg -1.68400 17.80300 26.85100
C  -2.64700 15.80800 29.53100
C  -2.67000 20.56500 28.61100
C  -1.00200 19.71500 24.07500
C  -1.68200 14.91300 24.79200
N  -2.63600 18.12400 28.76100
C  -2.69700 17.19100 29.80700
C  -2.95800 17.79400 31.10100
C  -3.40500 19.21100 30.72500
C  -2.90800 19.31900 29.25300
C  -4.92100 19.51000 30.81800
C  -1.76100 17.89100 32.00600
C  -1.95200 17.36100 33.44500
H  -0.70900 17.13600 34.38100
N  -1.69800 19.87200 26.48000
C  -2.16500 20.80300 27.31000
C  -2.15700 22.09300 26.67600
C  -1.42000 21.89700 25.46300
C  -1.26100 20.44700 25.29100
C  -2.74100 23.37000 27.29900
C  -0.95200 23.00900 24.44000
O  -0.35400 22.70700 23.39600
C  -1.00100 24.42000 24.92700
N  -1.40200 17.41600 24.81300
C  -1.06500 18.32300 23.83700
C  -0.98700 17.69500 22.41600
C  -0.76300 16.19400 22.77600
C  -1.31400 16.12200 24.24800
C  -2.16600 18.01000 21.43500
C  0.65800 15.66100 22.76600
C  1.75500 16.63800 23.30000
N  -2.00300 15.77700 27.06300
C  -2.01500 14.76400 26.19900
C  -2.35900 13.50600 26.85700
C  -2.49500 13.87300 28.16700
C  -2.34000 15.26300 28.29100
C  -2.37800 12.14400 26.30300
C  -2.82000 13.34600 29.46300
O  -3.17800 12.19700 29.79400
C  -2.85500 14.59800 30.39800
C  -1.64700 14.31900 31.29700
O  -0.49600 14.62400 30.92200
O  -1.98900 13.84000 32.58800
C  -0.83000 13.68200 33.42500
H  -2.93200 21.39900 29.26500
H  -0.85500 20.37200 23.21500
H  -1.75800 13.96000 24.26300
H  -3.81800 17.21100 31.43100
H  -2.93800 20.06400 31.21800
H  -5.14800 20.42000 30.26200
H  -5.22100 19.58900 31.86300
H  -5.46500 18.70700 30.32100
H  -1.37400 18.90900 32.04000
H  -0.97800 17.35600 31.46700
H  -2.41900 16.37800 33.37100
H  -2.64000 18.05400 33.92800
H  -3.27400 23.96100 26.55400
H  -1.88300 23.99900 27.53900
H  -3.44200 23.22000 28.12000
H  -0.54100 24.47300 25.91400
H  -2.04900 24.70800 25.00700
H  -0.40000 25.04000 24.26200
H  -0.08000 18.11000 21.97700
H  -1.26700 15.49400 22.10900
H  -2.78600 18.78500 21.88600
H  -2.72600 17.12200 21.14300
H  -1.80600 18.35500 20.46600
H  0.88400 15.54600 21.70500
H  0.76200 14.72600 23.31700
H  2.59500 15.99300 23.55400
H  1.46800 17.22900 24.17000
H  2.15100 17.22100 22.46800
H  -1.67000 11.96000 25.49500
H  -3.41100 11.90700 26.05000
H  -2.10700 11.48100 27.12500
H  -3.77700 14.65400 30.97700
H  -0.42300 12.67100 33.42200
H  -1.21400 13.86500 34.42900
H  -0.02600 14.40400 33.28400
Mg 16.54300 52.12300 26.47500
C  18.07000 50.82400 29.36800
C  13.70800 52.75200 28.51400
C  14.85700 53.13400 23.78800
C  19.10900 50.86300 24.62600
N  15.81800 51.51800 28.63500
C  16.82200 51.37300 29.57500
C  16.22900 51.67700 31.00700
C  14.67200 51.78400 30.72100
C  14.73000 52.07800 29.18200
C  13.83700 50.56500 31.04100
C  17.00000 52.91400 31.69100
C  17.69100 52.52200 33.07800
H  16.90300 53.09200 34.30200
N  14.58400 52.94500 26.22300
C  13.54500 53.04300 27.12900
C  12.37200 53.63000 26.49500
C  12.69000 53.79000 25.11000
C  14.06100 53.30700 24.99600
C  11.16200 53.94000 27.22700
C  11.84300 54.35500 23.90100
O  12.25100 54.50000 22.75500
C  10.43500 54.73000 24.16200
N  16.83600 51.86100 24.43300
C  16.07900 52.43900 23.49600
C  16.86700 52.45000 22.19300
C  18.29200 52.00800 22.56500
C  18.02700 51.44600 23.94400
C  16.12400 51.78800 21.05400
C  19.33500 53.23700 22.57100
C  19.46200 53.96800 21.22700
N  18.21500 51.04000 26.83800
C  19.21800 50.60700 25.96200
C  20.26300 49.95200 26.69500
C  19.87500 50.10100 28.00700
C  18.62200 50.66900 28.06000
C  21.49400 49.33300 26.06000
C  20.38200 49.87900 29.31300
O  21.45900 49.42700 29.68100
C  19.21900 50.46800 30.36200
C  18.73900 49.36300 31.28500
O  17.97300 48.43300 30.94000
O  19.36400 49.52100 32.51000
C  19.04300 48.52600 33.52200
H  12.92900 53.21100 29.12500
H  14.37200 53.44400 22.86000
H  20.00600 50.65100 24.04100
H  16.33700 50.78400 31.62300
H  14.42300 52.68500 31.28100
H  13.00300 50.49300 30.34300
H  13.44200 50.58100 32.05700
H  14.38800 49.63300 30.90800
H  16.40600 53.81700 31.83000
H  17.90500 53.09500 31.11100
H  18.74300 52.80000 33.14700
H  17.69500 51.43200 33.06300
H  10.29100 53.43700 26.80600
H  11.08200 55.02400 27.15500
H  11.12200 53.70000 28.29000
H  10.33500 55.34500 25.05600
H  9.91000 53.77900 24.24300
H  9.92900 55.34200 23.41500
H  16.84600 53.52900 22.03900
H  18.71300 51.18300 21.99100
H  16.64200 50.94100 20.60500
H  15.97300 52.60800 20.35100
H  15.14000 51.50100 21.42300
H  20.35300 53.02900 22.89800
H  19.01600 54.00400 23.27700
H  19.45600 55.05600 21.28400
H  18.60400 53.67400 20.62100
H  20.31200 53.59800 20.65400
H  21.74900 48.35300 26.46200
H  22.37900 49.88200 26.38300
H  21.45800 49.31500 24.97100
H  19.60100 51.22900 31.04200
H  19.48800 48.85100 34.46300
H  19.39000 47.50200 33.38600
H  17.95700 48.56200 33.60400

