158

Mg 9.15500 4.29700 27.66800
C  10.20700 2.52000 30.30800
C  6.65000 5.73900 29.60200
C  7.74900 5.61500 24.76100
C  11.15500 2.30700 25.47000
N  8.46100 4.12600 29.64900
C  9.28800 3.52200 30.65900
C  8.74700 3.77500 32.10400
C  7.47900 4.70300 31.79800
C  7.45300 4.85500 30.25200
C  6.16900 4.00100 32.30800
C  9.83200 4.22200 33.06300
C  9.33800 4.95800 34.33400
H  10.29600 5.20000 35.48100
N  7.53600 5.60800 27.23700
C  6.55800 6.02800 28.16800
C  5.59900 6.84800 27.49200
C  5.99900 6.98300 26.08800
C  7.21500 6.08900 25.95100
C  4.53300 7.56400 28.29200
C  5.41400 7.84600 24.98900
O  5.85200 7.86800 23.84200
C  4.34900 8.79300 25.34000
N  9.54700 4.18900 25.44300
C  8.83500 4.83200 24.41500
C  9.24300 4.40300 23.02300
C  10.46100 3.46100 23.26300
C  10.36100 3.28000 24.80600
C  8.00900 3.87300 22.20600
C  11.77300 4.12800 22.91400
C  12.31100 5.37900 23.64500
N  10.29500 2.74400 27.77800
C  11.07400 2.06200 26.84500
C  11.68500 0.89900 27.50800
C  11.46100 1.11600 28.88800
C  10.57300 2.18300 28.99400
C  12.61600 -0.05400 26.84200
C  11.78400 0.67700 30.19700
O  12.63500 -0.17400 30.39500
C  11.06400 1.66300 31.24200
C  10.22400 0.80800 32.15300
O  9.13500 0.33200 31.79100
O  10.71700 0.73600 33.42700
C  9.75300 0.07800 34.38500
H  5.90800 6.13600 30.29800
H  7.15400 5.84200 23.87400
H  11.92400 1.67200 25.02500
H  8.44500 2.80500 32.49800
H  7.49300 5.69000 32.26100
H  5.71000 4.85100 32.81300
H  6.35200 3.24300 33.07000
H  5.56100 3.66600 31.46700
H  10.64900 4.74400 32.56400
H  10.29500 3.27400 33.33800
H  8.54100 4.41100 34.83800
H  9.03500 5.96800 34.06100
H  4.84300 8.54600 28.64800
H  4.32000 6.95800 29.17200
H  3.60400 7.72900 27.74500
H  3.38500 8.34800 25.58300
H  4.12400 9.46300 24.51000
H  4.61500 9.48300 26.14100
H  9.63200 5.20900 22.40100
H  10.36800 2.47500 22.80900
H  7.10300 4.01500 22.79600
H  8.08900 2.79600 22.06000
H  7.98700 4.37700 21.23900
H  11.73900 4.41100 21.86200
H  12.55400 3.36900 22.91400
H  13.10700 5.06600 24.32000
H  11.61200 5.89600 24.30200
H  12.95300 6.02400 23.04500
H  13.07700 -0.64800 27.63000
H  13.43000 0.41200 26.28700
H  11.93200 -0.50600 26.12300
H  11.80100 2.20900 31.83100
H  10.21800 -0.73600 34.94000
H  9.01700 -0.60300 33.95900
H  9.46800 0.84100 35.11000
Mg 40.91900 9.20300 29.72700
C  42.58100 10.37100 32.51900
C  38.76100 7.54200 31.82600
C  39.22600 8.02600 27.00800
C  43.40100 10.27600 27.70300
N  40.81900 8.88300 31.94200
C  41.47100 9.62800 32.85100
C  40.91000 9.50900 34.27500
C  39.89600 8.33600 34.03300
C  39.75700 8.23700 32.48000
C  40.36300 6.95400 34.69100
C  40.37300 10.82600 34.85200
C  40.27500 10.80800 36.40900
H  41.18200 11.81200 37.18800
N  39.15300 8.09600 29.49400
C  38.46300 7.45200 30.46200
C  37.29300 6.89300 29.86000
C  37.26700 7.24700 28.51200
C  38.59600 7.84100 28.26500
C  36.18600 6.16600 30.65300
C  36.17300 7.05300 27.50300
O  36.29000 7.46500 26.35300
C  34.91600 6.35800 27.96700
N  41.27500 9.11200 27.66200
C  40.43300 8.55500 26.73700
C  40.87900 8.84300 25.21700
C  42.18500 9.68700 25.42900
C  42.39100 9.70400 26.98500
C  40.91600 7.51000 24.29300
C  42.09600 11.06600 24.79100
C  41.29300 12.14300 25.47500
N  42.68700 10.09700 29.99200
C  43.65000 10.45500 29.06000
C  44.76100 11.07400 29.75800
C  44.42400 11.04900 31.11300
C  43.13200 10.45500 31.20400
C  45.98300 11.73200 29.11700
C  44.83100 11.46400 32.38200
O  45.78300 12.09900 32.76400
C  43.59400 11.02400 33.41600
C  44.20400 10.06000 34.30800
O  44.73000 9.06900 33.86200
O  44.18800 10.36200 35.61900
C  44.68800 9.25800 36.52300
H  37.98400 7.18600 32.50500
H  38.57300 7.71100 26.19200
H  44.09700 10.70600 26.97900
H  41.70500 9.16300 34.93600
H  38.89800 8.62400 34.36300
H  41.11200 7.10200 35.47000
H  40.86400 6.26800 34.00800
H  39.43300 6.51000 35.04600
H  39.35300 10.96800 34.49700
H  40.91800 11.68100 34.45200
H  40.39500 9.75400 36.66100
H  39.21600 11.05300 36.49400
H  36.70200 5.97900 31.59500
H  36.13800 5.19400 30.16200
H  35.23500 6.67100 30.82200
H  34.26000 6.87200 28.67000
H  35.24600 5.32700 28.09900
H  34.26700 6.35900 27.09200
H  40.11200 9.48700 24.78800
H  43.12800 9.20400 25.17200
H  40.94000 6.57300 24.84800
H  41.85800 7.54600 23.74500
H  40.04900 7.44700 23.63400
H  41.72300 10.97900 23.77000
H  43.17100 11.24400 24.80900
H  40.74600 11.84400 26.37000
H  40.47900 12.49400 24.84100
H  41.99300 12.95300 25.68000
H  46.43200 12.39400 29.85700
H  45.54300 12.44100 28.41500
H  46.61300 11.09900 28.49200
H  43.19900 11.83100 34.03400
H  45.77100 9.20400 36.41600
H  44.30200 8.31700 36.13100
H  44.33400 9.33500 37.55100

