158

Mg -0.22900 43.07400 26.02800
C  2.07900 42.64700 28.66500
C  -2.68800 41.79300 27.96500
C  -2.21100 43.25400 23.33500
C  2.50100 43.98500 23.92800
N  -0.26500 42.28600 27.94800
C  0.72100 42.37800 28.92500
C  0.27300 42.14400 30.36600
C  -1.16900 41.36100 30.09000
C  -1.40300 41.81700 28.56900
C  -1.22200 39.86200 30.30600
C  0.23800 43.37300 31.29900
C  0.60100 43.15200 32.79900
H  0.29800 41.69600 33.46300
N  -2.21400 42.60200 25.71500
C  -3.07700 42.09500 26.56900
C  -4.39500 41.97600 25.95900
C  -4.33600 42.63400 24.67300
C  -2.84400 42.75600 24.45400
C  -5.55900 41.37700 26.63200
C  -5.41400 42.84000 23.59400
O  -5.15800 43.13300 22.41300
C  -6.84600 42.70400 23.96300
N  0.10500 43.47700 23.96900
C  -0.90500 43.57900 23.04300
C  -0.40000 44.20700 21.69400
C  1.04000 44.57600 22.04400
C  1.28600 43.89600 23.35500
C  -0.66500 43.23900 20.57800
C  1.28400 46.14000 22.13100
C  0.76600 46.93100 23.30400
N  1.90100 43.23900 26.18900
C  2.83700 43.64800 25.25300
C  4.12400 43.58700 25.92800
C  3.88900 43.31600 27.24000
C  2.52000 43.08500 27.34600
C  5.43800 43.80000 25.21200
C  4.51300 43.03400 28.54200
O  5.68000 42.99400 28.84800
C  3.27200 42.84800 29.53000
C  3.72500 41.63300 30.39400
O  3.88800 40.47700 30.03000
O  4.11500 41.98100 31.66000
C  4.68300 40.91500 32.52400
H  -3.45900 41.43300 28.64900
H  -2.86400 43.58800 22.52600
H  3.33700 44.21300 23.26400
H  1.00800 41.51300 30.86600
H  -1.97700 41.83400 30.64700
H  -2.19800 39.68100 30.75500
H  -0.34500 39.55300 30.87400
H  -1.34000 39.24800 29.41300
H  -0.78800 43.73800 31.34500
H  0.72000 44.27500 30.92300
H  0.06300 43.85000 33.44200
H  1.67400 43.33400 32.85900
H  -6.24800 42.20700 26.79300
H  -5.14200 40.87000 27.50100
H  -6.01400 40.55100 26.08500
H  -6.98500 43.14200 24.95200
H  -7.07100 41.63700 23.96100
H  -7.49300 43.17200 23.22100
H  -0.99300 45.10100 21.50100
H  1.81800 44.19400 21.38300
H  -1.00500 42.26100 20.91800
H  0.25000 43.00700 20.03300
H  -1.55700 43.50200 20.01000
H  0.98200 46.57100 21.17600
H  2.36300 46.21800 22.26400
H  0.07000 47.62900 22.83800
H  1.49500 47.59100 23.77300
H  0.35100 46.33200 24.11400
H  5.44100 43.32000 24.23300
H  6.20300 43.32200 25.82300
H  5.64700 44.85900 25.06300
H  3.17800 43.65500 30.25600
H  5.70100 40.68500 32.21100
H  4.03700 40.04200 32.61200
H  4.82000 41.22100 33.56100
Mg -1.90700 34.36700 27.22400
C  -3.34000 32.71600 29.80000
C  -0.24500 36.28700 29.52200
C  -0.81200 36.32700 24.68700
C  -3.75300 32.55500 24.92900
N  -1.91200 34.55100 29.44800
C  -2.48800 33.65500 30.28100
C  -2.13700 33.88900 31.74800
C  -1.09200 35.09700 31.64200
C  -1.07100 35.32100 30.12200
C  -1.33400 36.40000 32.39500
C  -1.51700 32.60300 32.50100
C  -2.16400 32.00800 33.75000
H  -1.36100 31.64300 35.01100
N  -0.64800 36.03700 27.10100
C  -0.02700 36.65400 28.17900
C  0.91900 37.60000 27.64200
C  0.67500 37.73900 26.23500
C  -0.32700 36.72000 25.96300
C  1.70900 38.49100 28.65700
C  1.17400 38.77700 25.13600
O  0.77800 38.90900 24.03300
C  2.37000 39.54900 25.56500
N  -2.30100 34.47800 25.15700
C  -1.65600 35.32800 24.33700
C  -2.15100 35.16100 22.93300
C  -2.85200 33.77000 22.93900
C  -3.02100 33.58400 24.40100
C  -3.10000 36.25200 22.46100
C  -2.08000 32.65000 22.22400
C  -0.56900 32.39200 22.69500
N  -3.32800 33.00200 27.30400
C  -3.89700 32.17300 26.30000
C  -4.70000 31.12000 26.88700
C  -4.58000 31.33900 28.26400
C  -3.65100 32.42900 28.43400
C  -5.56500 30.06900 26.25400
C  -4.91400 30.81400 29.52800
O  -5.48900 29.77700 29.77700
C  -4.14700 31.77600 30.61300
C  -5.25500 32.43400 31.29200
O  -6.14500 33.05000 30.80800
O  -5.14500 32.01600 32.61600
C  -6.22000 32.53000 33.48700
H  0.35700 36.64100 30.36200
H  -0.47100 36.93000 23.84200
H  -4.17000 31.89700 24.16400
H  -3.01700 34.22600 32.29500
H  -0.09400 34.87900 32.02100
H  -0.43200 36.75100 32.89600
H  -2.09900 36.37000 33.17000
H  -1.69600 37.18300 31.72900
H  -0.47100 32.85900 32.67300
H  -1.52000 31.78800 31.77800
H  -2.71000 31.10600 33.47500
H  -2.77700 32.81000 34.16200
H  2.74200 38.61500 28.33200
H  1.73400 38.10500 29.67600
H  1.30600 39.49500 28.79100
H  2.87800 39.98700 24.70500
H  3.07600 38.88300 26.05900
H  1.95300 40.34100 26.18700
H  -1.29600 35.13900 22.25800
H  -3.87000 33.71100 22.55400
H  -3.33200 36.78800 23.38100
H  -4.02600 35.85600 22.04500
H  -2.54800 36.83200 21.72100
H  -2.09600 32.79000 21.14300
H  -2.63800 31.72600 22.37400
H  0.14800 32.55600 21.89000
H  -0.42600 31.36900 23.04100
H  -0.31100 33.12600 23.45900
H  -5.22800 29.87200 25.23600
H  -6.59600 30.40200 26.37700
H  -5.39500 29.06500 26.64300
H  -3.59000 31.10200 31.26400
H  -7.16700 32.08900 33.17600
H  -6.31000 33.61600 33.45400
H  -5.91700 32.29600 34.50800

