158

Mg 46.42600 34.34700 28.18000
C  44.87000 32.30100 30.45500
C  46.42900 36.93100 30.30300
C  47.35300 36.52500 25.58800
C  46.08200 31.91300 25.71800
N  45.79900 34.49200 30.14300
C  45.33100 33.53800 30.98000
C  45.25600 33.95800 32.44000
C  45.60400 35.53600 32.33800
C  45.89200 35.70000 30.82100
C  44.66500 36.55600 32.90800
C  46.39100 33.25300 33.34200
C  46.21800 33.35000 34.86000
H  45.23800 34.27500 35.56600
N  47.06200 36.38700 28.09400
C  46.94500 37.27800 29.09400
C  47.37800 38.59000 28.69100
C  47.75200 38.54200 27.30400
C  47.39400 37.08600 26.93100
C  47.38400 39.88000 29.56100
C  48.39100 39.59900 26.33500
O  48.83100 39.30400 25.23300
C  48.71100 41.01200 26.76000
N  46.83300 34.16100 26.04500
C  47.02000 35.24900 25.18100
C  47.10000 34.90900 23.74200
C  46.84600 33.35500 23.80600
C  46.52900 33.10300 25.34200
C  46.24600 35.72200 22.78200
C  47.98000 32.47500 23.24900
C  49.24100 32.38100 24.17500
N  45.68000 32.46000 28.06000
C  45.56700 31.58800 26.95000
C  44.89800 30.34700 27.40300
C  44.49200 30.63000 28.73600
C  45.08600 31.88600 29.11100
C  44.62900 29.07800 26.51900
C  43.84200 30.09400 29.83600
O  43.26800 29.07200 30.02900
C  43.87600 31.28600 30.94700
C  44.09600 30.91300 32.42900
O  45.00800 30.27500 32.87000
O  42.96200 31.34700 33.12800
C  43.03900 31.08300 34.57900
H  46.53200 37.71500 31.05700
H  47.46200 37.32300 24.85100
H  45.88800 31.18600 24.92700
H  44.28200 33.74300 32.87900
H  46.53500 35.70300 32.87900
H  44.40800 37.36200 32.21900
H  45.00400 36.91700 33.87900
H  43.77900 35.94400 33.07500
H  47.32700 33.77900 33.15600
H  46.48900 32.20600 33.05700
H  47.23400 33.63900 35.13100
H  45.85800 32.35200 35.11000
H  48.37100 40.32300 29.42500
H  47.18800 39.65400 30.60900
H  46.69000 40.64700 29.21800
H  47.81100 41.31800 27.29400
H  48.83800 41.67100 25.90200
H  49.67300 41.00100 27.27300
H  48.07700 34.94100 23.26000
H  45.90800 33.06600 23.33200
H  46.81400 36.54100 22.34000
H  45.29100 36.02600 23.21100
H  46.09200 35.00200 21.97900
H  48.25300 32.90600 22.28500
H  47.60900 31.46200 23.09700
H  50.15400 32.79200 23.74400
H  49.55600 31.38700 24.49300
H  49.05600 32.92500 25.10100
H  45.60400 28.82000 26.10400
H  44.01400 29.45200 25.70000
H  44.31900 28.23400 27.13500
H  42.96200 31.86000 30.79300
H  42.37400 31.82400 35.02400
H  44.03000 31.25800 34.99700
H  42.78200 30.09400 34.95900
Mg 34.64400 49.36200 25.93900
C  34.44400 47.29500 28.66500
C  33.39600 51.92700 27.61300
C  34.58200 51.06600 23.00900
C  35.67300 46.46500 24.01700
N  33.81500 49.51400 27.86900
C  34.08000 48.63600 28.86500
C  33.87100 49.36900 30.21200
C  33.16200 50.69700 29.81300
C  33.47300 50.73000 28.32200
C  31.69400 50.84000 30.24500
C  35.17000 49.64000 31.08100
C  35.04000 50.26300 32.44700
H  33.61300 50.32100 33.08000
N  34.20400 51.29900 25.42900
C  33.79800 52.21800 26.30600
C  33.74600 53.48700 25.59100
C  34.03000 53.26100 24.24900
C  34.28600 51.82600 24.15000
C  33.21300 54.79300 26.26400
C  34.04600 54.24300 23.04000
O  34.19100 53.87900 21.88300
C  33.94800 55.69700 23.29200
N  34.93000 48.79800 23.77400
C  34.82700 49.74400 22.77500
C  35.23800 49.11500 21.47500
C  35.79900 47.71900 21.87000
C  35.48200 47.63700 23.29500
C  34.03300 49.08900 20.43200
C  37.23700 47.48700 21.41900
C  38.41500 47.78300 22.39200
N  34.92400 47.26900 26.21600
C  35.32900 46.26900 25.36300
C  35.30400 45.00200 26.10500
C  35.09400 45.37900 27.45000
C  34.76200 46.76400 27.42400
C  35.79600 43.76000 25.51400
C  35.06400 44.99800 28.89100
O  35.31400 43.95400 29.38900
C  34.66400 46.25500 29.69200
C  33.43200 45.90800 30.46400
O  32.38400 45.64300 29.90900
O  33.64600 45.87900 31.81900
C  32.63300 45.28600 32.64300
H  33.26500 52.83200 28.20900
H  34.74300 51.69000 22.12800
H  36.16400 45.65700 23.47100
H  33.24000 48.74600 30.84600
H  33.51700 51.53000 30.42000
H  31.40900 50.01900 30.90200
H  31.12400 50.59300 29.34900
H  31.41800 51.64100 30.93100
H  35.78600 50.19900 30.37700
H  35.62200 48.65900 31.22100
H  35.26500 51.31400 32.27200
H  35.72900 49.75200 33.12000
H  33.84700 55.66300 26.09500
H  33.12700 54.57800 27.33000
H  32.22900 55.07900 25.89300
H  33.12600 56.01800 23.93200
H  33.93100 56.12800 22.29100
H  34.86500 56.00900 23.79300
H  36.00600 49.78400 21.08700
H  35.25600 46.91100 21.37900
H  33.95000 49.88300 19.69000
H  33.17200 48.86200 21.06000
H  34.29100 48.20300 19.85100
H  37.39000 48.15600 20.57300
H  37.31800 46.43200 21.15700
H  38.89300 46.85900 22.71800
H  38.16200 48.30900 23.31200
H  39.18500 48.39100 21.91800
H  36.30600 44.08600 24.60800
H  34.89400 43.15100 25.44900
H  36.47000 43.31900 26.24800
H  35.49000 46.55500 30.33700
H  31.71100 45.74700 32.28900
H  32.79400 45.50900 33.69800
H  32.77500 44.20700 32.59900

