158

Mg 35.99900 2.30900 30.50300
C  33.43900 3.03000 32.53600
C  38.10500 2.37500 33.10300
C  38.58400 2.02000 28.23300
C  33.79900 2.52800 27.69100
N  35.75500 2.79700 32.60200
C  34.59800 2.99300 33.31400
C  34.86500 3.09300 34.81600
C  36.40800 3.24600 34.84900
C  36.78400 2.78400 33.43700
C  36.93800 4.67900 35.17900
C  34.38500 1.85500 35.59400
C  34.06500 2.08500 37.10800
H  34.55000 3.37700 37.83300
N  38.04900 2.15000 30.63500
C  38.72600 2.12800 31.83300
C  40.13400 1.92600 31.58900
C  40.27300 1.59100 30.15700
C  38.94100 1.97100 29.58800
C  41.09700 1.86600 32.72000
C  41.47300 1.03600 29.44800
O  41.43000 0.90100 28.22300
C  42.72500 0.47200 30.17700
N  36.13700 2.22400 28.24500
C  37.37100 2.19200 27.62300
C  37.21400 1.94900 26.11200
C  35.61500 1.75500 25.95300
C  35.14000 2.18100 27.35600
C  37.88700 2.99100 25.10300
C  34.99600 0.32300 25.43200
C  34.21900 0.32900 24.13700
N  34.07500 2.76000 30.11800
C  33.26300 2.67300 28.96200
C  31.91800 3.06700 29.35100
C  31.98100 3.13100 30.72900
C  33.26700 2.91300 31.18100
C  30.72500 3.25700 28.43400
C  31.09800 3.30300 31.84700
O  29.89800 3.42300 31.92400
C  32.00400 3.18600 33.07800
C  31.71300 4.31400 33.95100
O  32.01000 5.49500 33.86500
O  31.15000 3.74900 35.07600
C  30.91000 4.87300 36.06000
H  38.83200 2.14700 33.88500
H  39.47700 2.07500 27.60800
H  33.05000 2.54600 26.89600
H  34.33100 3.97600 35.16800
H  36.91000 2.56700 35.53900
H  37.52900 5.09800 34.36500
H  37.38500 4.74000 36.17100
H  36.12500 5.39500 35.29800
H  35.06500 1.02200 35.41900
H  33.55800 1.47500 34.99500
H  34.41800 1.19100 37.62200
H  32.98300 2.06400 37.24300
H  41.90400 2.59100 32.61000
H  41.60300 0.90100 32.74900
H  40.71300 2.16900 33.69400
H  43.39700 -0.10500 29.54200
H  42.38500 -0.10400 31.03700
H  43.37500 1.22900 30.61800
H  37.64300 0.96500 25.92400
H  35.23000 2.54200 25.30400
H  38.55200 2.38800 24.48500
H  38.44800 3.71000 25.70000
H  37.06300 3.45400 24.56100
H  34.35900 -0.11500 26.20100
H  35.88500 -0.26900 25.21700
H  33.18300 0.07700 24.36100
H  34.57400 -0.42900 23.43700
H  34.26700 1.22800 23.52300
H  30.26100 2.40000 27.94600
H  31.08900 3.79900 27.56100
H  29.93300 3.80400 28.94500
H  31.70500 2.30400 33.64500
H  30.36000 5.70000 35.60900
H  31.82300 5.25800 36.51600
H  30.18800 4.54900 36.80900
Mg 36.59900 48.50500 25.83900
C  36.04700 46.50200 28.72300
C  35.97300 51.32100 27.63000
C  36.34100 50.32000 22.98300
C  36.62100 45.59400 23.98600
N  36.04100 48.81200 27.91800
C  35.95400 47.89300 28.96200
C  35.86500 48.65000 30.32100
C  35.48500 50.09000 29.85600
C  35.83500 50.12700 28.39300
C  34.06800 50.65900 30.08700
C  37.29300 48.57500 31.08400
C  37.22700 48.01100 32.49500
H  35.85300 48.27900 33.20400
N  36.44400 50.56100 25.38700
C  36.17000 51.59100 26.25900
C  36.19600 52.88500 25.63400
C  36.43700 52.58700 24.22600
C  36.47200 51.10100 24.12200
C  35.95100 54.15500 26.42900
C  36.63700 53.58000 23.09200
O  36.94400 53.24500 21.96000
C  36.45300 55.09300 23.33500
N  36.36700 48.04100 23.77300
C  36.40700 48.96400 22.78000
C  36.31900 48.27400 21.37400
C  36.73600 46.81500 21.76900
C  36.57400 46.78000 23.25200
C  34.91400 48.23900 20.66600
C  38.19700 46.65400 21.40700
C  38.67700 46.16500 20.01600
N  36.37100 46.39900 26.20900
C  36.57100 45.40400 25.33700
C  36.64700 44.15900 26.12100
C  36.46800 44.58000 27.43800
C  36.24300 45.92800 27.42700
C  36.91500 42.75100 25.60800
C  36.47600 44.04100 28.80900
O  36.67000 42.89100 29.24400
C  36.34200 45.32100 29.74500
C  35.23100 45.19400 30.65900
O  34.09200 45.55400 30.40600
O  35.63600 44.60000 31.77300
C  34.61400 44.41300 32.81600
H  35.88000 52.25600 28.18600
H  36.26700 50.84000 22.02500
H  36.82800 44.70400 23.38800
H  35.01300 48.15900 30.79300
H  36.06200 50.86300 30.36200
H  34.05500 51.57200 30.68200
H  33.49700 49.88400 30.60000
H  33.43900 50.87000 29.22300
H  37.78400 49.54400 31.17700
H  37.95000 47.98600 30.44500
H  37.99900 48.29900 33.20900
H  37.44100 46.96800 32.26400
H  35.43400 54.05500 27.38300
H  35.26900 54.77400 25.84700
H  36.93200 54.58900 26.62200
H  36.74800 55.55800 22.39500
H  37.23500 55.42200 24.02100
H  35.43000 55.37300 23.58500
H  36.97800 48.77100 20.66200
H  36.10100 46.07600 21.28200
H  34.69400 47.17400 20.59900
H  35.05000 48.73300 19.70300
H  34.02400 48.64200 21.14900
H  38.65200 46.00200 22.15300
H  38.69600 47.61800 21.49800
H  39.29100 46.95600 19.58600
H  37.85800 45.83200 19.37800
H  39.31000 45.29400 20.18400
H  37.99300 42.62200 25.51100
H  36.25900 42.48800 24.77800
H  36.55500 42.09000 26.39600
H  37.28900 45.57300 30.22300
H  34.08300 45.33100 33.07000
H  35.11200 43.96400 33.67500
H  33.86400 43.63900 32.64800

