158

Mg 2.84500 0.27700 43.52600
C  5.94200 2.01000 43.17400
C  1.26500 2.82300 41.98400
C  0.26400 -1.76400 42.88500
C  4.74000 -2.55400 44.54600
N  3.60900 1.99400 42.46100
C  4.80200 2.61700 42.52500
C  4.83300 3.93400 41.93400
C  3.32500 4.36800 41.80000
C  2.67900 3.00800 42.12500
C  2.89600 5.53600 42.79400
C  5.69300 4.21000 40.69600
C  6.51400 3.03700 40.12600
H  6.85300 3.08600 38.63000
N  0.95600 0.52800 42.80000
C  0.46900 1.71300 42.30500
C  -0.94300 1.57800 42.06200
C  -1.33000 0.23900 42.41100
C  -0.02900 -0.40900 42.72300
C  -1.82100 2.72700 41.56300
C  -2.73900 -0.46000 42.34100
O  -3.71400 0.20200 41.98000
C  -2.99300 -1.83500 42.67600
N  2.55100 -1.90800 43.56700
C  1.41600 -2.45600 43.22400
C  1.46300 -3.99000 43.47200
C  2.83100 -4.25100 44.17000
C  3.46400 -2.79000 44.07000
C  0.27700 -4.74900 44.21900
C  3.84400 -5.28600 43.63900
C  4.25300 -6.31500 44.70900
N  4.85400 -0.21200 43.91700
C  5.43600 -1.31600 44.45200
C  6.77300 -0.97900 44.94800
C  7.05400 0.30900 44.41600
C  5.84400 0.71400 43.80700
C  7.76600 -2.00100 45.63100
C  8.03500 1.29200 44.30200
O  9.26600 1.24800 44.60200
C  7.38900 2.45700 43.56000
C  7.29500 3.64500 44.44500
O  8.20900 4.46500 44.45500
O  6.05600 3.90600 45.03800
C  5.74300 5.22900 45.61300
H  0.79000 3.74700 41.64800
H  -0.57900 -2.44500 42.74700
H  5.26400 -3.39700 45.00200
H  5.24700 4.57500 42.71200
H  3.06900 4.65500 40.78000
H  2.25000 5.14400 43.57900
H  2.40900 6.29400 42.18000
H  3.76900 6.06800 43.17200
H  6.28400 5.12500 40.73600
H  5.08000 4.46800 39.83200
H  6.11600 2.05300 40.37300
H  7.48400 3.18600 40.60000
H  -2.80700 2.71700 42.02900
H  -1.90300 2.80000 40.47900
H  -1.25700 3.61000 41.86600
H  -4.04900 -2.10100 42.61400
H  -2.66700 -2.10200 43.68100
H  -2.52200 -2.52400 41.97600
H  1.45600 -4.39000 42.45800
H  2.57800 -4.32900 45.22800
H  -0.09600 -4.14400 45.04600
H  0.55300 -5.73200 44.59800
H  -0.56900 -4.97100 43.56900
H  4.65900 -4.78300 43.11800
H  3.26000 -5.89900 42.95300
H  5.26100 -6.06000 45.03500
H  4.36700 -7.32600 44.31900
H  3.65000 -6.29600 45.61700
H  7.96200 -2.89800 45.04300
H  7.40100 -2.30500 46.61200
H  8.70000 -1.45100 45.74100
H  8.01800 2.57400 42.67700
H  5.92800 5.12600 46.68200
H  4.66800 5.29600 45.44700
H  6.26300 6.09000 45.19300
Mg 17.24500 -2.81200 27.35600
C  16.47100 -0.80900 30.22000
C  19.38500 -4.66900 29.59400
C  18.39800 -4.48900 24.78800
C  15.75900 -0.51400 25.35300
N  17.97700 -2.63900 29.66500
C  17.44100 -1.78900 30.56700
C  17.85900 -2.17900 32.03300
C  18.86200 -3.40500 31.74000
C  18.67200 -3.59200 30.24200
C  20.35700 -3.20700 32.26100
C  16.65300 -2.49300 32.95100
C  16.56800 -1.70700 34.24400
H  17.80900 -1.24800 35.08900
N  18.61900 -4.40700 27.20000
C  19.37300 -4.96500 28.20600
C  20.18300 -6.10700 27.64800
C  19.94700 -6.02500 26.23000
C  18.93800 -4.99100 26.01100
C  21.13700 -6.95000 28.49800
C  20.47500 -6.89400 25.13400
O  20.19600 -6.81300 23.97500
C  21.32900 -8.06600 25.54200
N  17.11900 -2.52800 25.39200
C  17.63200 -3.37700 24.54700
C  17.45700 -2.92600 23.13500
C  16.37900 -1.68200 23.25700
C  16.45800 -1.51400 24.73800
C  18.84200 -2.51700 22.52700
C  14.95200 -2.04200 22.78800
C  14.17000 -0.92200 22.11800
N  16.21900 -1.03700 27.69100
C  15.66500 -0.24900 26.71900
C  14.87800 0.78500 27.38500
C  15.10600 0.54200 28.81300
C  16.00800 -0.53200 28.91700
C  14.07900 1.84100 26.71700
C  14.83000 1.09500 30.19100
O  14.11800 2.02800 30.58100
C  15.80100 0.25800 31.12700
C  16.60200 1.33200 31.73100
O  17.71300 1.64300 31.35100
O  15.93700 2.00300 32.72600
C  16.66000 2.94900 33.60400
H  20.01500 -5.28500 30.23900
H  18.61200 -5.14000 23.93700
H  15.20000 0.15000 24.69000
H  18.40700 -1.28500 32.33200
H  18.41700 -4.27100 32.23000
H  20.49500 -2.39900 32.98000
H  20.95300 -2.98400 31.37600
H  20.64500 -4.10600 32.80500
H  16.45400 -3.54300 33.16200
H  15.74600 -2.19600 32.42300
H  15.98300 -2.27600 34.96700
H  16.11900 -0.72300 34.11300
H  22.13000 -6.97300 28.04900
H  20.86700 -8.00400 28.56100
H  21.26400 -6.76100 29.56400
H  20.87100 -8.76500 26.24100
H  22.24500 -7.68200 25.99000
H  21.65600 -8.66900 24.69500
H  16.91300 -3.73100 22.64000
H  16.72000 -0.79000 22.73100
H  19.61400 -2.79400 23.24500
H  18.89900 -1.44100 22.35800
H  19.03000 -2.97700 21.55700
H  14.34300 -2.38500 23.62500
H  15.06700 -2.93600 22.17600
H  14.77200 -0.01500 22.06400
H  13.22100 -0.74900 22.62600
H  13.98200 -1.06400 21.05400
H  13.92100 2.65300 27.42700
H  13.09100 1.39900 26.58800
H  14.40600 2.17800 25.73300
H  15.18200 -0.11000 31.94600
H  17.66100 2.56600 33.80200
H  16.08200 3.31200 34.45300
H  16.79600 3.89500 33.08100

