158

Mg 2.28900 -1.69200 44.23100
C  5.70100 -1.05600 43.98100
C  1.52600 1.17100 42.66100
C  -1.04200 -2.65600 44.37400
C  3.16600 -4.96900 45.25700
N  3.53000 -0.21800 43.33300
C  4.87600 -0.13400 43.35800
C  5.35000 1.13600 42.61600
C  4.02100 1.94000 42.32300
C  2.92000 0.87100 42.69400
C  3.83900 3.35100 43.01100
C  6.11800 0.71700 41.29000
C  7.28200 1.60300 40.96600
H  7.46200 2.12700 39.43700
N  0.50800 -0.87800 43.51600
C  0.43100 0.41200 43.03300
C  -0.97400 0.72000 42.79800
C  -1.73100 -0.44700 43.19700
C  -0.77000 -1.38900 43.77700
C  -1.40600 1.99600 42.12700
C  -3.26700 -0.62400 43.07800
O  -3.85400 0.24000 42.46400
C  -4.02800 -1.76400 43.55200
N  1.19100 -3.53700 44.61000
C  -0.18700 -3.70200 44.76800
C  -0.64700 -5.07500 45.25900
C  0.77100 -5.75400 45.62500
C  1.80200 -4.66200 45.13900
C  -1.62200 -5.05300 46.36900
C  0.87800 -7.06100 44.70100
C  0.11200 -8.35100 45.21300
N  4.02300 -2.84300 44.62700
C  4.21100 -4.09600 45.02000
C  5.54000 -4.32100 45.25300
C  6.16500 -3.13800 45.01700
C  5.20500 -2.25900 44.51400
C  6.14700 -5.57600 45.71000
C  7.43400 -2.48500 44.92400
O  8.57500 -2.82500 45.27800
C  7.17200 -1.12400 44.22300
C  7.62100 -0.01000 45.05800
O  7.39700 0.14600 46.22300
O  8.45400 0.76200 44.27700
C  8.84500 2.08500 44.84300
H  1.34800 2.21300 42.38600
H  -2.06200 -3.03600 44.45400
H  3.36300 -5.92300 45.75100
H  6.02500 1.77500 43.18500
H  3.99100 2.09200 41.24400
H  4.69100 3.58300 43.65100
H  2.88300 3.54000 43.50000
H  3.84400 4.00800 42.14200
H  5.36500 0.67800 40.50300
H  6.57000 -0.27400 41.33900
H  8.18800 1.03500 41.17900
H  7.41200 2.50500 41.56500
H  -2.12600 1.76000 41.34400
H  -0.59200 2.51000 41.61700
H  -1.80500 2.60900 42.93500
H  -5.00100 -1.97500 43.10800
H  -4.15300 -1.71300 44.63400
H  -3.62000 -2.73600 43.27700
H  -1.01400 -5.64200 44.40400
H  0.85000 -5.97500 46.68900
H  -2.23300 -4.15200 46.33100
H  -1.09300 -5.17800 47.31400
H  -2.26000 -5.91700 46.18200
H  1.94800 -7.25600 44.77200
H  0.56900 -6.80700 43.68800
H  0.79800 -9.08700 45.63200
H  -0.38300 -8.68700 44.30100
H  -0.52900 -7.98400 46.01400
H  6.38900 -6.28900 44.92200
H  5.53100 -6.11500 46.43000
H  7.07600 -5.30500 46.21300
H  7.73100 -1.17600 43.28900
H  8.57900 2.18100 45.89600
H  8.42500 2.83100 44.16900
H  9.91300 2.28900 44.76000
Mg 29.85200 58.59700 39.21800
C  27.13400 56.54500 38.27200
C  32.00500 55.87800 38.79900
C  32.52100 60.70200 39.42800
C  27.61800 61.26600 39.07400
N  29.59500 56.42800 38.60500
C  28.37200 55.85200 38.36500
C  28.64300 54.37600 37.96100
C  30.17900 54.08700 38.22400
C  30.66400 55.54800 38.51800
C  30.55800 53.14000 39.32900
C  28.35300 54.03300 36.44000
C  28.73200 54.97900 35.30900
H  27.84200 55.20800 34.11600
N  32.01300 58.26400 39.26900
C  32.63900 57.08100 39.12800
C  34.00500 57.31500 39.26700
C  34.25500 58.65700 39.60500
C  32.91700 59.28900 39.35800
C  35.00300 56.08900 39.36500
C  35.50700 59.34500 40.04900
O  36.51200 58.61300 40.09700
C  35.66300 60.82900 40.39300
N  30.02300 60.62800 39.16300
C  31.22400 61.28000 39.42100
C  30.97200 62.76600 39.51400
C  29.50800 62.94500 39.21500
C  28.99200 61.49000 39.18000
C  31.58600 63.21800 40.87700
C  29.25500 63.60200 37.76100
C  28.07700 64.67800 37.76100
N  27.75800 58.90800 38.75100
C  27.00100 60.05800 38.76200
C  25.57700 59.67200 38.55400
C  25.58800 58.27500 38.25300
C  26.94500 57.93900 38.45300
C  24.37500 60.57100 38.66200
C  24.80300 57.15000 37.89900
O  23.62700 57.00400 37.61600
C  25.75700 55.99800 37.81100
C  25.29000 54.88800 38.66700
O  25.64300 54.57900 39.75200
O  24.39800 54.08400 38.04500
C  23.98400 52.79600 38.57300
H  32.56200 54.94000 38.74800
H  33.38900 61.35300 39.54800
H  27.00700 62.15600 39.23800
H  28.02900 53.75000 38.60900
H  30.78300 53.84100 37.35100
H  29.71400 52.50000 39.59000
H  30.71700 53.66800 40.27000
H  31.45000 52.52400 39.21400
H  27.26700 53.95200 36.48400
H  28.77400 53.03400 36.32000
H  29.60000 54.47200 34.88700
H  29.13600 55.93300 35.64600
H  35.12200 55.72200 38.34600
H  34.71700 55.30700 40.06900
H  35.96100 56.43500 39.75100
H  34.93300 61.17500 41.12500
H  35.56400 61.37000 39.45100
H  36.67700 60.95200 40.77400
H  31.63300 63.30600 38.83600
H  29.07400 63.57800 39.99000
H  31.65600 62.46800 41.66500
H  30.85700 63.94600 41.23000
H  32.53400 63.75400 40.83300
H  28.95700 62.82500 37.05800
H  30.17600 64.10600 37.46700
H  27.39200 64.41700 36.95500
H  28.48700 65.68700 37.71800
H  27.65000 64.60900 38.76200
H  24.23200 60.82100 39.71300
H  23.54200 60.11800 38.12400
H  24.39000 61.52500 38.13600
H  25.64500 55.63600 36.78900
H  24.35400 51.95800 37.98300
H  22.89500 52.79800 38.55100
H  24.43300 52.69800 39.56100

