158

Mg 6.25900 54.42900 40.79100
C  5.79800 51.15000 40.99200
C  9.41900 53.72100 39.15200
C  6.53100 57.68000 39.79700
C  2.92200 55.00100 41.68800
N  7.42400 52.55300 39.91000
C  6.99700 51.37000 40.25600
C  8.08900 50.35300 39.93200
C  9.41900 51.18300 39.84800
C  8.72000 52.56400 39.63100
C  10.45800 51.30300 41.01900
C  7.70700 49.45200 38.63100
C  6.95800 50.12600 37.49400
H  6.21900 49.13200 36.52700
N  7.85300 55.56800 39.77500
C  8.96000 55.09600 39.14900
C  9.71500 56.28900 38.66600
C  8.95400 57.43300 38.98100
C  7.69800 56.88700 39.47800
C  11.04300 56.29000 37.95400
C  9.39100 58.92300 38.67100
O  10.39300 59.11900 37.93700
C  8.64900 60.12700 39.22800
N  4.71500 56.04400 40.42700
C  5.25400 57.32100 40.29400
C  4.07300 58.29500 40.62800
C  2.79900 57.37300 40.88300
C  3.56000 56.04400 41.07100
C  4.44600 59.13100 41.90800
C  1.77400 57.36500 39.67300
C  2.30200 57.21600 38.29800
N  4.62800 53.34200 41.23000
C  3.36900 53.67200 41.70400
C  2.74400 52.45700 42.17400
C  3.66500 51.50300 41.96200
C  4.74600 52.06500 41.34000
C  1.43800 52.38200 42.86200
C  3.91700 50.12500 42.15400
O  3.21400 49.26100 42.68300
C  5.28300 49.85400 41.50700
C  4.96600 48.90800 40.40500
O  4.61200 49.29600 39.33200
O  5.32800 47.61900 40.82000
C  5.20700 46.48400 39.84200
H  10.43800 53.58400 38.78200
H  6.62700 58.75700 39.64200
H  1.89600 55.16600 42.02400
H  8.07700 49.55700 40.67600
H  10.01300 51.05800 38.94300
H  11.46900 51.06300 40.69000
H  10.17800 50.79400 41.94200
H  10.51100 52.36200 41.26900
H  7.14000 48.59100 38.98500
H  8.61500 49.05300 38.17900
H  7.72100 50.67500 36.94300
H  6.05400 50.62500 37.84300
H  11.00900 56.83500 37.01000
H  11.49000 55.31900 37.74200
H  11.77300 56.79300 38.58800
H  8.20500 59.84600 40.18300
H  7.91200 60.45800 38.49700
H  9.31400 60.98900 39.27000
H  3.97600 58.96000 39.77000
H  2.33300 57.70900 41.80900
H  4.13500 58.74500 42.87800
H  3.97200 60.11000 41.84400
H  5.51300 59.34300 41.98300
H  1.21100 58.29400 39.75800
H  1.09000 56.53300 39.84000
H  1.60800 56.59000 37.73800
H  3.25800 56.70100 38.21100
H  2.34800 58.21000 37.85300
H  1.05300 51.37700 42.69300
H  0.66500 53.06800 42.51600
H  1.67200 52.36100 43.92600
H  6.01000 49.34000 42.13600
H  6.21000 46.27700 39.46900
H  4.44700 46.80700 39.13100
H  4.98600 45.60000 40.43900
Mg -9.66500 18.14900 42.74100
C  -6.25200 17.28000 42.69400
C  -8.81100 21.33900 41.85200
C  -12.92800 18.78600 42.52200
C  -10.26700 14.66600 43.05400
N  -7.62900 19.15400 42.25700
C  -6.39000 18.63100 42.48600
C  -5.38700 19.70600 42.29000
C  -6.25700 20.99900 42.10000
C  -7.69000 20.51700 42.09900
C  -6.01200 22.22700 42.99700
C  -4.24200 19.44700 41.24400
C  -4.69100 18.69000 39.95100
H  -4.10000 19.16400 38.60400
N  -10.73000 19.89800 42.27400
C  -10.20000 21.09500 41.96000
C  -11.27000 22.04900 41.74700
C  -12.50300 21.33600 41.91500
C  -12.08200 19.93600 42.25600
C  -11.05700 23.40000 41.21100
C  -13.89600 21.84100 41.68100
O  -14.11800 23.06000 41.56100
C  -15.02600 20.94000 41.55600
N  -11.33000 16.89000 42.37900
C  -12.55900 17.40200 42.61000
C  -13.64600 16.31000 42.95200
C  -12.72200 15.02000 42.92500
C  -11.33900 15.52000 42.74800
C  -14.32500 16.54100 44.33200
C  -12.99000 14.03400 41.72500
C  -13.80100 12.72900 42.12500
N  -8.51200 16.23900 42.96600
C  -8.90700 14.98600 43.03000
C  -7.83300 14.08300 43.19800
C  -6.72600 14.95400 43.13300
C  -7.18800 16.25400 42.85500
C  -7.90100 12.55500 43.29300
C  -5.29600 15.00200 43.14200
O  -4.44600 14.13900 43.17800
C  -4.90900 16.47000 42.88200
C  -4.07900 16.95600 43.95000
O  -2.91700 17.19800 43.88300
O  -4.85500 17.26900 45.05800
C  -4.20500 18.04600 46.11000
H  -8.48200 22.33600 41.55200
H  -14.00200 18.81200 42.71800
H  -10.58900 13.65400 43.30500
H  -4.95500 19.79400 43.28700
H  -6.06200 21.29300 41.06900
H  -6.94000 22.67200 43.35700
H  -5.74500 23.01700 42.29600
H  -5.31000 22.08400 43.81800
H  -3.42200 18.88600 41.69400
H  -3.73800 20.38500 41.01200
H  -5.76400 18.87400 39.91800
H  -4.51400 17.61700 40.02400
H  -10.99300 24.09200 42.05000
H  -11.87700 23.75400 40.58600
H  -10.19300 23.53900 40.56100
H  -14.86400 20.09100 40.89200
H  -15.89600 21.42700 41.11700
H  -15.27900 20.70700 42.59100
H  -14.48400 16.35000 42.25600
H  -12.84500 14.45700 43.85100
H  -14.04700 15.81300 45.09300
H  -15.41200 16.54800 44.25600
H  -14.21600 17.53100 44.77600
H  -12.10400 13.78700 41.13900
H  -13.70800 14.60100 41.13200
H  -14.73500 12.79100 41.56700
H  -14.12100 12.72700 43.16700
H  -13.15900 11.85800 41.99500
H  -7.37900 12.14200 42.43000
H  -8.94000 12.22900 43.34900
H  -7.49400 12.23200 44.25100
H  -4.39200 16.53100 41.92400
H  -3.19400 18.32400 45.81100
H  -4.09400 17.51300 47.05400
H  -4.68700 19.00900 46.28200

