158

Mg 35.73400 1.37800 29.23300
C  33.52200 2.44200 31.69600
C  38.20200 1.06500 31.62400
C  37.83000 0.51100 26.83700
C  33.23300 2.00000 26.73300
N  35.87100 1.87300 31.36600
C  34.81600 2.12000 32.17200
C  35.22500 2.02400 33.68500
C  36.72600 1.77000 33.57600
C  36.98400 1.49700 32.09500
C  37.53300 3.00800 33.97600
C  34.42100 0.85800 34.43200
C  33.97600 1.37000 35.82100
H  34.75500 2.41900 36.52000
N  37.68200 0.95200 29.25600
C  38.50800 0.69700 30.32600
C  39.77300 0.10500 29.90600
C  39.75500 0.09100 28.46500
C  38.40200 0.55500 28.09600
C  40.78700 -0.25300 30.91200
C  40.88500 -0.23000 27.52100
O  40.85400 -0.11800 26.27200
C  42.03900 -0.99600 28.10800
N  35.49400 1.23700 27.17000
C  36.54400 0.90100 26.34800
C  36.20800 0.71800 24.89300
C  34.76700 1.24700 24.78200
C  34.42300 1.43500 26.31100
C  37.24500 1.37000 23.87900
C  33.83300 0.22200 24.08100
C  32.58900 0.67200 23.30900
N  33.74800 2.09400 29.16200
C  32.92700 2.33800 28.10200
C  31.70400 2.87200 28.63400
C  31.89800 2.95600 30.01300
C  33.13000 2.46800 30.30200
C  30.44200 3.07200 27.95100
C  31.25000 3.26900 31.22900
O  30.17900 3.67900 31.30800
C  32.25300 2.96400 32.37700
C  32.53700 4.20500 33.18000
O  33.29300 5.07200 32.83500
O  31.79900 4.26200 34.30900
C  31.96100 5.47800 35.20700
H  39.06200 1.04300 32.29700
H  38.50800 0.07000 26.10300
H  32.56600 2.23400 25.90100
H  35.00700 2.98900 34.14100
H  36.99500 0.85800 34.10900
H  36.85900 3.69100 34.49400
H  37.98600 3.51800 33.12600
H  38.30800 2.65400 34.65500
H  35.12900 0.03700 34.54900
H  33.50600 0.74300 33.85200
H  34.02200 0.55300 36.54100
H  32.97300 1.74300 35.61500
H  40.84900 0.53600 31.66200
H  41.82700 -0.39900 30.62200
H  40.62800 -1.24200 31.34100
H  41.90500 -1.73500 28.89900
H  42.77200 -0.24900 28.41300
H  42.43200 -1.55100 27.25600
H  36.22500 -0.34200 24.63800
H  34.60000 2.17800 24.23800
H  36.72800 1.99500 23.15100
H  37.65300 0.61100 23.21200
H  38.06600 1.85400 24.40800
H  33.57200 -0.52400 24.83200
H  34.44300 -0.30700 23.34900
H  32.52600 0.14000 22.36000
H  32.49100 1.75200 23.19900
H  31.72500 0.28900 23.85100
H  30.22400 2.15700 27.40000
H  30.53900 3.85600 27.20000
H  29.62500 3.24100 28.65200
H  31.89000 2.15200 33.00800
H  32.72200 6.19900 34.90800
H  32.22900 5.21000 36.23000
H  30.98300 5.95900 35.24000
Mg 47.36800 34.82700 27.48400
C  45.92700 32.89400 30.05200
C  47.79400 37.29300 29.71700
C  48.47300 36.68400 24.86600
C  46.29500 32.28900 25.24100
N  46.73000 35.14900 29.61700
C  46.26100 34.14000 30.50400
C  46.38600 34.63900 31.92000
C  46.59100 36.16400 31.73900
C  47.07000 36.23900 30.24900
C  45.33900 36.96700 32.01400
C  47.67400 33.99100 32.60000
C  47.62400 33.98900 34.08100
H  46.75100 34.97400 34.83000
N  48.15000 36.67400 27.32600
C  48.27700 37.55500 28.36900
C  48.98300 38.72100 27.93000
C  49.17900 38.62600 26.53300
C  48.64500 37.26400 26.18300
C  49.42600 39.80300 28.79300
C  49.74900 39.57600 25.56300
O  49.66300 39.35400 24.34200
C  50.32400 40.91300 26.06300
N  47.34500 34.52100 25.31900
C  47.93600 35.41500 24.50900
C  47.87600 34.90900 23.09000
C  47.42400 33.41100 23.20200
C  46.97900 33.36400 24.66800
C  47.05400 35.80800 22.13800
C  48.59100 32.40800 22.84600
C  49.67300 32.27400 23.95400
N  46.53900 32.95700 27.56400
C  46.14800 32.05900 26.59900
C  45.59200 30.85100 27.26200
C  45.54600 31.16400 28.62300
C  46.07400 32.48700 28.76300
C  45.00600 29.58400 26.61800
C  45.05500 30.66400 29.81900
O  44.51500 29.64800 30.20600
C  45.00400 31.86900 30.70500
C  45.23200 31.49900 32.09600
O  46.24200 31.04900 32.62200
O  44.03200 31.78000 32.77800
C  44.00100 31.21900 34.10100
H  48.13500 38.04900 30.42700
H  48.91100 37.26300 24.05100
H  46.01700 31.41800 24.64300
H  45.45600 34.31800 32.38800
H  47.36000 36.62100 32.36100
H  45.63800 37.77200 32.68500
H  44.51700 36.38900 32.43400
H  45.02700 37.41100 31.06900
H  48.53400 34.57000 32.26400
H  47.76400 32.96000 32.26000
H  48.59100 34.22700 34.52600
H  47.33700 33.00700 34.45600
H  49.34300 39.59500 29.86000
H  48.76300 40.61000 28.48000
H  50.49300 39.91800 28.60400
H  49.47200 41.32000 26.60800
H  50.45300 41.55500 25.19200
H  51.29400 40.90300 26.55900
H  48.86700 34.75300 22.66300
H  46.56200 33.07900 22.62300
H  47.61400 35.99600 21.22100
H  46.78700 36.77200 22.57200
H  46.10900 35.32800 21.88300
H  49.06000 32.79300 21.94100
H  48.27700 31.39100 22.61500
H  49.44600 31.53000 24.71800
H  49.87400 33.23100 24.43700
H  50.63700 32.13800 23.46300
H  45.13500 28.71800 27.26700
H  45.50600 29.30400 25.69100
H  43.98300 29.83600 26.33700
H  44.03300 32.31800 30.49700
H  43.01900 31.00900 34.52600
H  44.32200 32.06400 34.71100
H  44.74400 30.43300 34.24200

