158

Mg 42.73700 41.39000 26.44800
C  41.60300 43.71300 28.92000
C  43.68800 39.29300 29.02800
C  43.81800 39.30500 24.09800
C  41.95500 43.77900 23.96300
N  42.69600 41.53200 28.76900
C  42.12600 42.53900 29.52900
C  42.13200 42.09500 30.98300
C  42.90200 40.74500 31.01900
C  43.14600 40.47600 29.50100
C  44.24800 40.70300 31.84100
C  40.81000 42.06000 31.77100
C  40.64200 43.08900 32.96500
H  40.23300 42.56400 34.35400
N  43.59000 39.56700 26.56400
C  43.93400 38.85000 27.69300
C  44.65600 37.71000 27.31800
C  44.62400 37.64500 25.94400
C  44.01000 38.89100 25.46300
C  45.30800 36.78600 28.27500
C  44.93100 36.43900 25.04300
O  44.87500 36.42700 23.80800
C  45.36800 35.20400 25.59000
N  42.85700 41.51000 24.38100
C  43.30100 40.49300 23.63000
C  43.07600 40.74600 22.06500
C  42.53500 42.22100 22.09700
C  42.47700 42.55100 23.57200
C  44.32100 40.52800 21.19500
C  41.09800 42.34900 21.46100
C  41.07400 42.71600 19.99000
N  42.00400 43.32900 26.36500
C  41.69000 44.13700 25.30800
C  41.19700 45.42200 25.85200
C  41.16400 45.20300 27.20100
C  41.63600 43.91200 27.52200
C  40.85200 46.71100 24.99500
C  40.76900 45.79400 28.46400
O  40.29300 46.91300 28.68000
C  41.02300 44.87300 29.54400
C  42.11700 45.45700 30.44500
O  43.27200 45.69600 30.16200
O  41.47800 45.81400 31.64500
C  42.42200 46.23800 32.75400
H  43.92800 38.58200 29.82100
H  44.19800 38.70700 23.26700
H  41.71600 44.52100 23.19800
H  42.77600 42.76200 31.55500
H  42.22500 39.99700 31.43000
H  45.10600 40.81400 31.17900
H  44.41600 39.85500 32.50400
H  44.44600 41.61400 32.40600
H  40.59100 41.07400 32.17900
H  39.98900 42.31600 31.10100
H  39.73600 43.63000 32.69200
H  41.51700 43.73900 32.99700
H  45.49400 37.32000 29.20700
H  46.24900 36.35700 27.93100
H  44.64400 35.96700 28.55100
H  45.55900 34.43300 24.84500
H  44.59300 34.90500 26.29600
H  46.34700 35.31000 26.05800
H  42.30800 40.07900 21.67300
H  43.25000 42.84400 21.56000
H  45.18700 40.86000 21.76800
H  44.13600 41.15300 20.32200
H  44.54600 39.51100 20.87200
H  40.50600 43.08700 22.00000
H  40.58700 41.40600 21.65400
H  40.21700 43.33800 19.73300
H  40.96300 41.80600 19.40000
H  41.96500 43.30200 19.76700
H  40.15600 46.43300 24.20400
H  41.74800 47.15400 24.56000
H  40.34600 47.44400 25.62300
H  40.12900 44.57400 30.09100
H  42.01500 45.97800 33.73100
H  42.40600 47.32800 32.77500
H  43.41800 45.80000 32.81700
Mg -12.17200 16.99200 42.19500
C  -8.99500 15.71400 41.61800
C  -10.88800 20.16600 41.15500
C  -15.23800 18.06000 41.62800
C  -13.36900 13.78700 42.63900
N  -10.13200 17.86300 41.46200
C  -8.99700 17.07900 41.35200
C  -7.82700 18.00400 41.01100
C  -8.40600 19.49800 41.10100
C  -9.84600 19.20800 41.31900
C  -7.90700 20.52400 42.16900
C  -7.26200 17.64900 39.53200
C  -5.74000 17.36400 39.45100
H  -5.27700 16.09600 38.68500
N  -12.94300 18.86800 41.63100
C  -12.31900 19.99900 41.24700
C  -13.25600 21.02100 40.76200
C  -14.49100 20.43800 41.10200
C  -14.28800 19.06100 41.45300
C  -12.81100 22.36200 40.18200
C  -15.77800 21.33900 41.10500
O  -15.64400 22.51700 40.77000
C  -17.12800 20.82500 41.39400
N  -14.02100 15.99700 42.01900
C  -15.14000 16.67400 41.88100
C  -16.40200 15.88400 42.29800
C  -15.83600 14.55300 42.79400
C  -14.31600 14.74600 42.53100
C  -17.39600 16.57700 43.30600
C  -16.30700 13.26600 42.13600
C  -17.54000 12.52100 42.79900
N  -11.33200 15.11800 42.37500
C  -12.00800 13.89100 42.51800
C  -10.99600 12.83600 42.50800
C  -9.79500 13.53300 42.18600
C  -10.12400 14.91800 41.98500
C  -11.22200 11.44900 42.77700
C  -8.41000 13.24100 42.04600
O  -7.71900 12.25500 42.23900
C  -7.80500 14.73400 41.70100
C  -6.88500 15.07000 42.78500
O  -7.22300 15.56400 43.86700
O  -5.60600 14.62700 42.46000
C  -4.58300 15.03700 43.38700
H  -10.47400 21.16400 40.99400
H  -16.25900 18.43900 41.55800
H  -13.68800 12.78000 42.91800
H  -6.97700 17.94200 41.69000
H  -8.36400 20.02200 40.14600
H  -8.41800 20.55200 43.13200
H  -8.06100 21.45800 41.62800
H  -6.82400 20.42500 42.25300
H  -7.45200 18.39600 38.76100
H  -7.77700 16.75200 39.18700
H  -5.38700 17.26100 40.47600
H  -5.27000 18.25900 39.04200
H  -11.83100 22.33200 39.70600
H  -12.79500 23.09000 40.99300
H  -13.51100 22.73800 39.43600
H  -17.42000 20.23900 40.52300
H  -17.76200 21.71100 41.36800
H  -17.21800 20.08800 42.19200
H  -16.99600 15.73500 41.39700
H  -15.93500 14.48200 43.87700
H  -18.45400 16.55200 43.04500
H  -17.07500 17.61400 43.40000
H  -17.37600 16.07000 44.27000
H  -15.47500 12.57400 42.00300
H  -16.63500 13.47700 41.11800
H  -18.29900 12.55100 42.01700
H  -17.74600 13.06000 43.72400
H  -17.23800 11.49600 43.01200
H  -11.60400 10.93300 41.89700
H  -12.06100 11.14200 43.40200
H  -10.34700 11.00200 43.25000
H  -7.29900 14.73100 40.73500
H  -3.67600 15.12200 42.79000
H  -4.53000 14.30200 44.19100
H  -4.84100 16.02500 43.76800

