158

Mg -2.13800 16.78500 26.67300
C  -2.64800 14.32700 29.21100
C  -3.09600 19.19300 28.70900
C  -2.18600 18.70000 23.87200
C  -1.80200 14.02000 24.46100
N  -2.80900 16.67800 28.66600
C  -2.87400 15.65800 29.56200
C  -2.94800 16.15400 31.01700
C  -3.53700 17.63600 30.83400
C  -3.17800 17.87800 29.31200
C  -5.11900 17.81300 31.02400
C  -1.62700 16.19900 31.84900
C  -1.49200 17.17200 33.04900
H  -0.67700 16.67400 34.26500
N  -2.36900 18.70900 26.36800
C  -2.79100 19.59100 27.38100
C  -2.84700 20.91600 26.78500
C  -2.56800 20.77200 25.40800
C  -2.36500 19.33200 25.13700
C  -3.26100 22.19500 27.60600
C  -2.55400 21.83600 24.36000
O  -2.52600 21.53400 23.16000
C  -2.70200 23.27700 24.64400
N  -1.88900 16.36000 24.41700
C  -1.95600 17.35700 23.50500
C  -1.84700 16.79000 22.09000
C  -1.37700 15.28800 22.37400
C  -1.74300 15.16800 23.82500
C  -3.27300 16.78300 21.41000
C  0.11700 15.02200 22.03800
C  1.18100 15.81700 22.71700
N  -2.23600 14.56200 26.77800
C  -2.04600 13.69400 25.77600
C  -1.91000 12.34200 26.38900
C  -2.24400 12.53600 27.74400
C  -2.37600 13.88500 27.90000
C  -1.75500 11.03300 25.68200
C  -2.42100 11.89400 28.97100
O  -2.34200 10.72700 29.24200
C  -2.53200 13.01800 29.99100
C  -1.25400 12.86800 30.76100
O  -0.23800 13.51200 30.62700
O  -1.44400 12.02500 31.82500
C  -0.37800 12.15300 32.76700
H  -3.09500 20.01500 29.42800
H  -2.26400 19.29500 22.96000
H  -1.46600 13.20400 23.81800
H  -3.70100 15.64600 31.62000
H  -2.96500 18.37700 31.39200
H  -5.55400 16.99900 31.60300
H  -5.60900 17.91000 30.05500
H  -5.23300 18.78200 31.51000
H  -0.85400 16.26200 31.08200
H  -1.42200 15.18600 32.19500
H  -2.45800 17.45400 33.46900
H  -1.01700 18.10900 32.75700
H  -2.47000 22.94500 27.62100
H  -3.52000 22.01300 28.64900
H  -4.13100 22.71200 27.20200
H  -1.83000 23.72500 25.12100
H  -3.64300 23.40300 25.18000
H  -2.84600 23.76100 23.67800
H  -1.06200 17.37400 21.60900
H  -1.89300 14.49700 21.83000
H  -3.55000 15.76000 21.15500
H  -3.20300 17.34500 20.47900
H  -3.98300 17.34200 22.02000
H  0.27000 15.11000 20.96300
H  0.19400 13.94300 22.17600
H  0.68600 16.69200 23.13900
H  1.92300 16.17000 22.00100
H  1.65000 15.16100 23.45000
H  -1.25500 11.30900 24.75400
H  -2.72500 10.59300 25.45300
H  -1.11900 10.44200 26.34200
H  -3.29700 12.79700 30.73600
H  0.56900 11.77000 32.38500
H  -0.65900 11.52400 33.61200
H  -0.16400 13.16300 33.11600
Mg 35.62500 49.44700 24.40700
C  35.67100 48.06600 27.42000
C  34.45200 52.38800 25.86700
C  35.14700 50.85100 21.28000
C  36.42000 46.48800 22.86700
N  35.02000 50.13900 26.45900
C  35.39100 49.41800 27.54000
C  35.30700 50.23600 28.84300
C  34.92600 51.67000 28.22200
C  34.76800 51.39200 26.77600
C  33.63600 52.42100 28.85500
C  36.62800 50.36600 29.63700
C  36.44100 49.97900 31.10500
H  35.19900 50.58900 31.83000
N  34.99000 51.42500 23.63200
C  34.52800 52.42200 24.43500
C  34.17600 53.50800 23.54000
C  34.23400 53.01500 22.19600
C  34.80300 51.71600 22.30000
C  33.65300 54.89600 24.05000
C  33.73500 53.66000 20.93500
O  34.14400 53.36800 19.83800
C  32.89900 54.83600 20.99600
N  35.55000 48.67700 22.21600
C  35.58200 49.56300 21.17500
C  35.86700 48.77500 19.87100
C  36.24000 47.33800 20.42300
C  36.06200 47.47500 21.87200
C  34.70200 48.68500 18.98500
C  37.61900 46.86800 20.02900
C  38.84100 47.28600 20.99400
N  35.91600 47.61400 25.01000
C  36.26800 46.46800 24.26100
C  36.61700 45.42900 25.24100
C  36.29600 45.99000 26.46700
C  35.88600 47.31400 26.28800
C  37.16000 44.14800 24.82600
C  36.24400 45.76800 27.89400
O  36.61500 44.71900 28.47500
C  35.72000 47.04900 28.55200
C  34.51700 46.84600 29.39900
O  33.38800 46.69100 28.94900
O  34.82400 46.87400 30.74400
C  33.82300 46.52600 31.66500
H  34.06100 53.25700 26.40000
H  35.26800 51.27400 20.28000
H  36.90800 45.64900 22.36700
H  34.48500 49.79900 29.40800
H  35.73400 52.39400 28.31600
H  33.44300 52.16500 29.89700
H  32.75000 52.35600 28.22400
H  33.96200 53.44400 29.04600
H  37.02000 51.38100 29.69600
H  37.37400 49.69700 29.20900
H  37.31500 50.42900 31.57600
H  36.46000 48.89300 31.19300
H  32.58600 54.70700 24.16800
H  33.72000 55.71800 23.33700
H  34.05500 55.10900 25.04100
H  32.17900 54.66900 21.79800
H  32.32200 55.00200 20.08600
H  33.48000 55.75700 20.99900
H  36.67300 49.23100 19.29600
H  35.46300 46.69400 20.01000
H  34.17600 49.61300 18.76200
H  33.87800 48.04700 19.30400
H  34.92600 48.29400 17.99200
H  37.79400 46.98600 18.96000
H  37.56300 45.78700 20.16200
H  38.97900 46.35600 21.54500
H  38.66900 48.12100 21.67300
H  39.74900 47.40700 20.40300
H  37.95900 43.93100 25.53500
H  37.57500 44.16900 23.81900
H  36.26200 43.53100 24.84000
H  36.55700 47.27000 29.21500
H  32.92400 46.01400 31.32300
H  33.61900 47.44100 32.22100
H  34.33800 45.81200 32.30800

