158

Mg 41.43100 8.64000 29.24300
C  43.18300 9.61000 32.15900
C  39.18900 6.86300 31.22400
C  40.01600 7.55300 26.44900
C  44.06500 9.95400 27.37700
N  41.18400 8.37800 31.37800
C  42.01300 8.89700 32.42000
C  41.39800 8.53700 33.73300
C  40.37500 7.37400 33.43500
C  40.28900 7.42100 31.89300
C  40.81000 5.93000 33.90100
C  40.77900 9.75300 34.53300
C  40.88200 9.69600 36.02800
H  41.58000 10.89000 36.66700
N  39.81200 7.30500 28.92700
C  38.97700 6.79100 29.83400
C  37.90200 6.17200 29.14000
C  38.07900 6.47100 27.74300
C  39.37600 7.08500 27.62700
C  36.75800 5.39200 29.85100
C  37.19300 6.00500 26.60900
O  37.66400 5.92200 25.49000
C  35.87300 5.45500 26.89500
N  42.12900 8.46800 27.31800
C  41.29500 8.07300 26.28500
C  41.95900 8.26900 24.90900
C  43.30200 8.94700 25.21100
C  43.21700 9.08100 26.73600
C  42.12200 6.88800 24.23800
C  43.51800 10.33000 24.48000
C  42.50100 11.47800 24.75800
N  43.22500 9.68900 29.62600
C  44.19600 10.19600 28.77800
C  45.18700 10.86600 29.51300
C  44.83200 10.66100 30.85400
C  43.67400 9.88300 30.88900
C  46.36300 11.58500 28.93600
C  45.27900 10.96600 32.19000
O  46.11700 11.71700 32.64500
C  44.21000 10.28200 33.08600
C  44.77800 9.25100 34.00200
O  45.22500 8.16700 33.72900
O  44.72800 9.76100 35.26900
C  45.18100 9.02800 36.43100
H  38.47900 6.25600 31.78900
H  39.35300 7.40600 25.59300
H  44.86400 10.45800 26.83000
H  42.19000 8.02300 34.27600
H  39.33300 7.51000 33.72500
H  41.06400 5.33100 33.02600
H  40.05600 5.51700 34.57100
H  41.68600 6.04300 34.54000
H  39.70200 9.80000 34.37800
H  41.20000 10.68500 34.15700
H  41.44500 8.78800 36.24600
H  39.94600 9.59000 36.57600
H  36.98200 5.32200 30.91500
H  36.49400 4.38900 29.51600
H  35.83100 5.96500 29.82500
H  35.17600 5.49800 26.05800
H  35.35900 6.06300 27.64000
H  36.10400 4.44500 27.23400
H  41.26000 8.95300 24.42800
H  44.11400 8.23600 25.06100
H  41.78400 6.03700 24.83000
H  43.13100 6.76100 23.84600
H  41.44400 6.88700 23.38400
H  43.49600 10.11600 23.41200
H  44.55700 10.59000 24.68500
H  42.02300 11.08700 25.65600
H  41.77300 11.40600 23.95000
H  42.94500 12.46800 24.85600
H  46.33700 11.99400 27.92600
H  47.10900 10.79200 28.97900
H  46.59000 12.40900 29.61200
H  43.62600 10.96300 33.70600
H  44.34000 8.73100 37.05800
H  45.85000 9.53900 37.12300
H  45.74200 8.16800 36.06500
Mg 17.18100 53.23900 26.92900
C  19.12600 51.65700 29.28400
C  15.04100 54.17800 29.45800
C  14.97900 54.32900 24.62700
C  19.11000 51.70600 24.39400
N  17.04500 52.76400 29.07100
C  17.93300 52.13300 29.86500
C  17.53800 52.28800 31.26900
C  16.02800 52.69900 31.18100
C  16.02200 53.30800 29.79100
C  15.04300 51.54300 31.27200
C  18.53700 53.35100 31.90100
C  18.91800 53.11700 33.30700
H  17.87100 52.44200 34.14700
N  15.36800 54.18900 26.98900
C  14.67400 54.59800 28.15000
C  13.50600 55.27000 27.81600
C  13.33600 55.21900 26.37400
C  14.62900 54.53000 25.88200
C  12.70800 55.94100 28.86100
C  12.19400 55.62300 25.52600
O  12.08800 55.37900 24.33800
C  11.14000 56.50300 26.16500
N  17.12500 53.02800 24.92400
C  16.08200 53.65500 24.14700
C  16.39600 53.53500 22.58200
C  17.86200 52.93900 22.59600
C  18.03900 52.49300 24.02000
C  15.44500 52.51600 21.86500
C  18.97800 53.88000 22.12300
C  19.98900 53.33500 21.12700
N  18.82900 51.88300 26.80800
C  19.54400 51.45400 25.71000
C  20.74900 50.71800 26.15800
C  20.66400 50.81700 27.57500
C  19.46700 51.59500 27.90200
C  21.76300 50.03000 25.26800
C  21.26800 50.42400 28.85100
O  22.17100 49.65200 29.11800
C  20.40700 51.07000 30.00400
C  20.07600 49.96900 30.92900
O  19.34300 49.05500 30.61700
O  20.60500 50.17700 32.16900
C  19.97000 49.34100 33.26500
H  14.36900 54.39500 30.29000
H  14.33800 54.75400 23.85200
H  19.81600 51.29300 23.67100
H  17.64500 51.33300 31.78400
H  15.80600 53.47100 31.91800
H  15.56100 50.58700 31.34600
H  14.40700 51.58000 30.38700
H  14.35500 51.57800 32.11700
H  18.09900 54.34700 31.84100
H  19.51400 53.35100 31.41700
H  19.02100 54.09100 33.78500
H  19.76900 52.43600 33.27900
H  12.24900 56.85700 28.48700
H  13.30200 56.23600 29.72600
H  11.83900 55.31700 29.07200
H  11.62100 57.46700 26.33000
H  10.78900 55.96600 27.04500
H  10.31400 56.61300 25.46200
H  16.40300 54.50600 22.08700
H  17.92800 51.99100 22.06100
H  16.00200 51.59100 21.71400
H  15.11900 52.96900 20.92900
H  14.51700 52.34800 22.41100
H  19.48700 54.24700 23.01400
H  18.66000 54.83600 21.70700
H  19.71000 53.61100 20.11000
H  20.01000 52.25000 21.22000
H  20.98800 53.70300 21.36200
H  22.38200 50.82500 24.85300
H  21.25300 49.55100 24.43200
H  22.45100 49.34100 25.75700
H  21.03700 51.85700 30.41800
H  20.48900 48.38400 33.20300
H  18.90700 49.31200 33.02700
H  20.09500 49.72900 34.27600

