158

Mg 41.17900 9.31200 29.15100
C  42.65000 10.31000 32.28700
C  38.74800 7.89800 31.10900
C  39.71100 8.54000 26.39800
C  43.97300 10.53800 27.49900
N  40.79600 9.25700 31.47300
C  41.50000 9.64200 32.49900
C  40.82700 9.32500 33.85800
C  39.69300 8.29900 33.41700
C  39.70600 8.50300 31.92400
C  39.78900 6.86700 33.93800
C  40.35100 10.58000 34.63200
C  40.53300 10.54100 36.16600
H  41.49900 11.46600 36.83100
N  39.50700 8.30100 28.76500
C  38.62000 7.80900 29.65100
C  37.54200 7.13900 28.95900
C  37.66700 7.50900 27.59800
C  39.00100 8.11700 27.49600
C  36.43400 6.39100 29.67800
C  36.70600 7.38700 26.47600
O  36.84400 7.94500 25.38900
C  35.40300 6.73600 26.69000
N  41.85400 9.50000 27.25900
C  40.98400 9.17400 26.24000
C  41.57900 9.44500 24.80000
C  43.00600 10.01500 25.16600
C  42.99700 9.96600 26.76500
C  41.45800 8.20600 23.82700
C  43.38500 11.41400 24.64700
C  42.60600 12.66000 25.00100
N  43.06700 10.05400 29.76200
C  44.04800 10.61700 28.92000
C  45.10400 11.13900 29.76400
C  44.56700 11.07600 31.02200
C  43.34800 10.43900 31.00300
C  46.33900 11.67800 29.33300
C  44.87200 11.39400 32.40400
O  45.84900 11.88100 32.87400
C  43.63300 10.82500 33.33700
C  44.14800 9.93600 34.35400
O  44.10700 8.70200 34.29300
O  44.81100 10.67000 35.36700
C  45.67800 9.96500 36.31500
H  37.92500 7.56400 31.74500
H  39.25000 8.18200 25.47400
H  44.72800 11.10600 26.95200
H  41.54900 8.80400 34.48800
H  38.70800 8.65700 33.71400
H  38.81900 6.50000 34.27400
H  40.46700 6.72300 34.77900
H  40.07000 6.20500 33.11900
H  39.28900 10.72100 34.43000
H  40.67400 11.49800 34.14100
H  40.74800 9.54000 36.54000
H  39.59000 10.90700 36.57200
H  36.75600 5.99100 30.63900
H  36.11700 5.59600 29.00400
H  35.58300 6.99900 29.98300
H  35.55500 5.69900 26.99100
H  34.77700 6.73800 25.79800
H  34.84000 7.20300 27.49800
H  40.94100 10.24500 24.42400
H  43.82400 9.35900 24.86600
H  41.24700 7.27000 24.34300
H  42.41600 8.29000 23.31300
H  40.66500 8.40800 23.10700
H  43.32900 11.21400 23.57700
H  44.46800 11.46200 24.76400
H  41.73700 12.49600 25.63900
H  42.15000 13.05800 24.09500
H  43.29800 13.39100 25.41700
H  46.87000 12.18700 30.13800
H  46.07400 12.45300 28.61400
H  47.01100 10.97200 28.84500
H  43.30200 11.71500 33.87100
H  46.72700 10.26000 36.35600
H  45.71500 8.90600 36.06300
H  45.29900 10.04000 37.33400
Mg 6.10700 53.21800 40.46000
C  5.94000 49.61100 40.33600
C  9.47700 52.95900 39.63300
C  6.08700 56.56000 39.56200
C  2.65800 53.30000 40.65600
N  7.50000 51.44800 40.04400
C  7.26000 50.07400 40.06800
C  8.51900 49.28700 39.87600
C  9.58900 50.45500 39.97200
C  8.80700 51.72100 39.82000
C  10.51600 50.42200 41.30100
C  8.63900 48.39300 38.62000
C  8.75200 49.16700 37.29500
H  7.64200 48.84900 36.35600
N  7.61400 54.56900 39.93700
C  8.96300 54.27700 39.68700
C  9.63300 55.51600 39.18300
C  8.75400 56.54500 39.35800
C  7.38800 55.95300 39.72400
C  11.09000 55.57300 38.78400
C  9.09300 58.07800 39.27100
O  10.22300 58.49400 38.90800
C  8.03000 59.05200 39.61200
N  4.49400 54.72200 39.92900
C  4.81800 56.04000 39.74900
C  3.57700 56.86300 39.90300
C  2.45000 55.78500 40.11700
C  3.23400 54.52600 40.35700
C  3.71400 57.86500 41.06100
C  1.40900 55.68500 38.94900
C  -0.05800 56.10100 39.28800
N  4.60700 51.76700 40.53500
C  3.26900 52.00200 40.67400
C  2.58600 50.74000 40.80000
C  3.56900 49.75500 40.70600
C  4.78400 50.42600 40.41700
C  1.21100 50.49600 41.24700
C  3.88700 48.41300 40.85500
O  3.21600 47.43800 41.14600
C  5.41800 48.19800 40.49100
C  5.42800 47.28400 39.30500
O  5.13200 47.65000 38.22500
O  5.78600 46.00300 39.57600
C  5.76300 45.17300 38.36200
H  10.53300 52.88400 39.36400
H  6.15200 57.57500 39.16400
H  1.58800 53.41100 40.84100
H  8.52000 48.73800 40.81700
H  10.26600 50.28000 39.13600
H  11.55900 50.41200 40.98200
H  10.21500 49.54400 41.87200
H  10.22600 51.27400 41.91600
H  7.75100 47.76600 38.69000
H  9.50300 47.73000 38.57000
H  9.70300 48.92700 36.81900
H  8.99700 50.22600 37.37000
H  11.21800 56.47500 38.18500
H  11.50200 54.77600 38.16500
H  11.70900 55.69400 39.67300
H  8.39200 60.05300 39.84600
H  7.56000 58.64100 40.50500
H  7.35700 59.08500 38.75500
H  3.40300 57.43700 38.99300
H  1.79700 55.87000 40.98600
H  4.07800 58.78900 40.61100
H  4.46000 57.39500 41.70200
H  2.76700 57.88800 41.60000
H  1.49500 54.68100 38.53100
H  1.83300 56.26300 38.12800
H  -0.74100 55.57000 38.62400
H  -0.13700 57.18200 39.39900
H  -0.12100 55.55100 40.22700
H  0.83600 51.42900 41.66800
H  1.23900 49.63700 41.91800
H  0.57400 50.26400 40.39400
H  5.73800 47.73500 41.42400
H  4.88900 45.36400 37.73800
H  5.78600 44.10500 38.57900
H  6.66400 45.36200 37.77900

