158

Mg 39.73100 9.47100 28.68100
C  41.86600 10.24000 31.37300
C  37.76300 7.68300 30.95400
C  37.87400 8.59200 26.02400
C  42.16300 10.55600 26.54600
N  39.84900 8.91600 30.96700
C  40.76300 9.49500 31.82000
C  40.25500 9.20700 33.20900
C  39.28400 7.98800 32.96300
C  38.85400 8.24700 31.56300
C  40.02500 6.64700 33.13400
C  39.57400 10.50500 33.79600
C  39.47400 10.72800 35.25200
H  40.03900 11.99300 35.83900
N  38.03700 8.40800 28.48800
C  37.41800 7.69500 29.50600
C  36.35600 6.94800 28.91800
C  36.28900 7.26000 27.56900
C  37.44000 8.07000 27.30400
C  35.43700 6.04400 29.76600
C  35.29800 6.87600 26.50700
O  35.48000 7.10100 25.28100
C  34.00800 6.06000 26.87400
N  39.89900 9.62200 26.60700
C  39.02500 9.19800 25.67700
C  39.44800 9.36500 24.21400
C  40.75700 10.29300 24.48000
C  40.98800 10.11300 25.95800
C  39.68200 8.13600 23.36300
C  40.55700 11.72000 24.05000
C  39.15000 12.42400 24.22500
N  41.63300 10.23000 28.88500
C  42.54400 10.65000 27.92800
C  43.67600 11.38900 28.52500
C  43.34400 11.28400 29.90100
C  42.20300 10.44700 30.03400
C  44.87500 12.00100 27.87700
C  43.82800 11.71500 31.19700
O  44.77800 12.48800 31.43800
C  42.90800 11.01000 32.19100
C  43.63400 10.23000 33.28900
O  44.70900 9.67600 33.20500
O  42.92300 10.28300 34.46400
C  43.46800 9.67000 35.73500
H  37.10200 7.11400 31.61100
H  37.23800 8.34800 25.17000
H  42.89000 11.05200 25.90000
H  41.04400 8.98300 33.92700
H  38.41600 7.99200 33.62200
H  40.91600 6.69300 33.76000
H  40.29700 6.27000 32.14800
H  39.35100 5.89100 33.53700
H  38.57400 10.59200 33.37200
H  40.09900 11.24000 33.18700
H  39.86500 9.93900 35.89400
H  38.39200 10.82200 35.34700
H  35.89800 5.65400 30.67400
H  35.10700 5.09300 29.34600
H  34.54400 6.60300 30.04600
H  34.31100 5.11600 27.32700
H  33.36200 5.92600 26.00700
H  33.55900 6.70700 27.62700
H  38.72300 9.93700 23.63500
H  41.59000 9.92700 23.88000
H  39.35100 7.22200 23.85500
H  40.69100 8.03700 22.96200
H  38.96100 8.26700 22.55500
H  40.62100 11.77300 22.96400
H  41.29500 12.34500 24.55100
H  38.76700 12.51800 23.20900
H  39.20000 13.45800 24.56500
H  38.38300 11.89100 24.78800
H  44.76400 12.25900 26.82400
H  45.66100 11.25500 27.99600
H  45.19700 12.88200 28.43300
H  42.37100 11.72200 32.81800
H  44.19300 8.88000 35.54100
H  42.64700 9.14100 36.21700
H  43.77500 10.51200 36.35500
Mg 49.01200 35.94200 27.24200
C  46.85100 34.44300 29.66300
C  49.43100 38.60100 29.35900
C  50.56000 37.57600 24.71100
C  47.88600 33.56200 25.02900
N  48.29700 36.45200 29.29700
C  47.52100 35.65000 30.10600
C  47.37200 36.32400 31.49600
C  48.04500 37.74900 31.32800
C  48.64300 37.61000 29.90600
C  47.02500 38.90600 31.41700
C  47.98600 35.54700 32.63700
C  47.28900 35.80200 33.98000
H  47.74700 36.96500 34.85200
N  50.01400 37.79400 27.18900
C  50.11200 38.74600 28.14300
C  50.90100 39.85800 27.67700
C  51.15100 39.58100 26.29900
C  50.55600 38.27700 25.95200
C  51.35000 40.95900 28.48600
C  52.00500 40.46700 25.34200
O  52.09300 40.21100 24.17100
C  52.63700 41.66500 25.84500
N  49.18200 35.51700 25.21000
C  50.01700 36.30600 24.39300
C  50.11900 35.70900 22.96300
C  49.40800 34.32300 23.14200
C  48.82600 34.42400 24.55000
C  49.40200 36.52600 21.84400
C  50.20900 33.00100 22.89200
C  49.77500 32.05900 21.76000
N  47.73400 34.21900 27.31400
C  47.32200 33.44800 26.28700
C  46.35200 32.45700 26.78300
C  46.18700 32.84900 28.10800
C  47.05600 33.89200 28.37600
C  45.72500 31.33000 26.06000
C  45.50700 32.44500 29.32200
O  44.77400 31.47200 29.51300
C  45.88500 33.49800 30.38100
C  46.41800 32.84300 31.61600
O  47.44100 32.13500 31.63300
O  45.56400 33.11000 32.63400
C  45.90000 32.46900 33.93700
H  49.82700 39.42100 29.96200
H  51.17500 38.00800 23.91900
H  47.69400 32.71600 24.36500
H  46.30600 36.24700 31.71300
H  48.93700 37.95800 31.91900
H  46.93800 39.49000 30.50100
H  47.32100 39.64000 32.16600
H  46.03000 38.57000 31.70900
H  48.97600 36.00200 32.60300
H  48.09700 34.49600 32.37200
H  47.30800 34.88500 34.56900
H  46.22600 35.99900 33.83600
H  52.43900 40.98700 28.47500
H  51.23700 40.89400 29.56800
H  51.01500 41.93000 28.12100
H  53.08000 42.10200 24.95000
H  53.42800 41.32600 26.51500
H  52.00000 42.38000 26.36500
H  51.08600 35.42900 22.54400
H  48.51600 34.28300 22.51700
H  48.39100 36.13300 21.73800
H  49.94400 36.34800 20.91500
H  49.38400 37.60400 22.00100
H  50.31800 32.45800 23.83100
H  51.26200 33.24300 22.75000
H  48.78600 32.29400 21.36600
H  49.77600 31.03000 22.11900
H  50.48700 32.10000 20.93500
H  46.11400 31.32800 25.04100
H  44.65300 31.52600 26.06200
H  45.91800 30.32900 26.44600
H  44.99300 34.03500 30.70400
H  45.18300 32.87500 34.65000
H  46.95900 32.66500 34.10800
H  45.85400 31.38000 33.94400

