158

Mg 8.83900 3.72500 27.84500
C  10.00500 1.99600 30.73100
C  6.89900 5.56000 29.83900
C  7.63900 5.15500 25.04300
C  10.56000 1.39700 25.83400
N  8.53800 3.70600 30.08400
C  9.16000 3.08200 30.98500
C  8.66100 3.46200 32.38400
C  7.69000 4.63500 32.14900
C  7.70600 4.62400 30.60300
C  6.25100 4.57700 32.90600
C  9.81000 3.87400 33.37200
C  9.64200 5.10200 34.32400
H  10.29900 5.26900 35.68300
N  7.51400 5.14500 27.46700
C  6.85600 5.85300 28.44200
C  6.09100 6.92900 27.81200
C  6.33000 6.80600 26.42700
C  7.18000 5.65100 26.27600
C  5.18000 7.84400 28.61200
C  5.92400 7.72100 25.36700
O  6.10500 7.49000 24.17000
C  5.17200 8.96000 25.75400
N  9.10200 3.34100 25.78300
C  8.43900 4.07300 24.79600
C  8.83700 3.65300 23.38800
C  9.77900 2.45900 23.63800
C  9.87500 2.39300 25.17100
C  7.62700 3.35700 22.47600
C  11.14300 2.47900 22.89200
C  11.22700 1.28300 21.82300
N  10.02200 2.00900 28.13800
C  10.63300 1.18500 27.23900
C  11.27900 0.13600 27.99100
C  11.05800 0.37800 29.30700
C  10.29300 1.51200 29.40000
C  12.17400 -0.91800 27.30600
C  11.47500 -0.03300 30.70700
O  12.14600 -0.93000 31.12000
C  10.72300 1.05800 31.70100
C  9.87400 0.29900 32.74100
O  8.83300 -0.23500 32.51900
O  10.53100 0.37200 33.98000
C  9.97700 -0.18800 35.26100
H  6.33100 6.24400 30.47200
H  7.42100 5.67300 24.10700
H  11.16300 0.82200 25.12800
H  8.08000 2.61800 32.75800
H  8.07800 5.64900 32.24100
H  5.49600 4.21600 32.20800
H  6.04000 5.59200 33.24100
H  6.26000 3.91200 33.76900
H  10.72700 4.11000 32.83300
H  10.07200 3.01600 33.99100
H  8.61300 5.43900 34.45400
H  10.21500 5.88000 33.82000
H  4.26200 8.14300 28.10500
H  5.71000 8.72900 28.96400
H  4.73800 7.34500 29.47400
H  5.80500 9.57200 26.39600
H  4.16500 8.69600 26.08000
H  5.08500 9.45700 24.78800
H  9.35100 4.39800 22.78100
H  9.26600 1.52500 23.41000
H  7.70300 2.31700 22.15800
H  7.43500 4.01800 21.63100
H  6.80100 3.44900 23.18100
H  11.99500 2.37500 23.56400
H  11.26500 3.38900 22.30400
H  10.29800 0.74100 21.64400
H  12.05900 0.60100 22.00000
H  11.36100 1.70400 20.82600
H  13.19000 -0.52500 27.30600
H  11.76100 -1.22900 26.34600
H  12.05400 -1.79300 27.94400
H  11.57800 1.60000 32.10500
H  9.74500 0.55900 36.02000
H  10.72400 -0.83100 35.72600
H  9.08700 -0.75500 34.98800
Mg 48.57600 45.23800 43.35600
C  45.39400 45.60200 41.81000
C  49.13000 42.61800 41.11900
C  51.94600 45.32000 43.90200
C  48.16100 48.47300 44.61700
N  47.39700 44.33300 41.63500
C  46.14800 44.60000 41.20200
C  45.69500 43.65700 40.12300
C  46.74200 42.51800 40.14500
C  47.88700 43.18400 41.02600
C  46.31500 41.15600 40.65900
C  45.47500 44.28400 38.65200
C  44.10100 43.90700 37.98900
H  44.24300 43.18000 36.65900
N  50.23100 43.95200 42.83300
C  50.20700 42.98300 41.94300
C  51.50200 42.28200 41.95200
C  52.36300 43.04100 42.80300
C  51.51700 44.15400 43.27900
C  51.78100 41.06000 41.16100
C  53.84500 42.73000 43.06700
O  54.36600 41.77100 42.52700
C  54.71100 43.63100 43.99100
N  49.87000 46.63500 44.16700
C  51.22200 46.43700 44.40000
C  51.83100 47.58300 45.07100
C  50.59300 48.59100 45.37500
C  49.49400 47.87400 44.63100
C  52.75700 47.37400 46.26000
C  50.84100 50.09400 45.10900
C  51.98700 50.68900 45.85800
N  47.03200 46.67700 43.46600
C  47.00300 47.92600 44.01000
C  45.62800 48.41000 44.04000
C  44.94900 47.51600 43.16300
C  45.84300 46.47400 42.84500
C  45.18300 49.61700 44.82500
C  43.72300 47.23200 42.60100
O  42.68500 47.84200 42.65300
C  43.93100 46.01400 41.67200
C  42.90400 45.03100 42.06800
O  41.77900 44.86700 41.50600
O  43.23600 44.49700 43.34800
C  42.19800 43.85700 44.17500
H  49.18800 41.77500 40.42700
H  52.99800 45.30800 44.19200
H  47.99000 49.49800 44.95400
H  44.74500 43.31400 40.53300
H  47.09600 42.39900 39.12100
H  46.32400 40.38300 39.89100
H  45.25300 41.20200 40.90000
H  46.82200 40.75900 41.53900
H  46.30800 44.26200 37.94900
H  45.42200 45.36000 38.82000
H  43.56800 44.82200 37.73100
H  43.45200 43.28300 38.60400
H  50.94000 40.54400 40.69700
H  52.24200 40.34300 41.83900
H  52.55300 41.35600 40.45100
H  54.25000 43.74000 44.97300
H  54.86800 44.60300 43.52400
H  55.64600 43.08200 44.10400
H  52.42500 47.98400 44.25000
H  50.35300 48.48400 46.43200
H  53.49200 48.17800 46.28900
H  53.48500 46.56400 46.21200
H  52.27700 47.42200 47.23700
H  49.99700 50.75600 45.30400
H  51.02500 50.23100 44.04300
H  51.72200 51.71100 46.12900
H  52.89000 50.92400 45.29400
H  52.32100 50.03600 46.66400
H  45.93500 49.86600 45.57400
H  44.22200 49.37100 45.27500
H  45.09200 50.50900 44.20500
H  43.67900 46.33800 40.66200
H  42.51200 42.83700 44.39500
H  41.20200 43.82200 43.73500
H  42.11100 44.43400 45.09600

