158

Mg 53.06100 24.67800 45.43400
C  50.47400 26.71000 44.36500
C  51.45500 22.01300 43.83900
C  55.80200 22.76100 45.80400
C  54.81300 27.43600 46.52800
N  51.31100 24.39500 44.21900
C  50.41000 25.36700 43.91500
C  49.37600 24.94900 42.90200
C  49.41800 23.35600 43.12300
C  50.83300 23.22900 43.78900
C  48.33100 22.94300 44.07100
C  49.79200 25.48100 41.51900
C  48.68900 25.96400 40.57000
H  48.33300 24.98500 39.45200
N  53.59500 22.65800 44.95800
C  52.75800 21.73100 44.34400
C  53.42100 20.45800 44.28500
C  54.66000 20.63400 44.90300
C  54.74300 22.01700 45.31300
C  52.82300 19.17000 43.79300
C  55.69100 19.53200 45.08000
O  55.50700 18.37100 44.68300
C  57.03000 19.75200 45.79200
N  55.12300 25.01200 45.91500
C  56.01500 24.07000 46.09900
C  57.35400 24.75100 46.60200
C  57.04100 26.28600 46.65900
C  55.56300 26.20800 46.39100
C  57.95200 24.22700 47.92700
C  57.79600 26.97400 45.52700
C  59.28100 27.28700 45.73200
N  52.72600 26.70300 45.65300
C  53.43900 27.70900 46.13300
C  52.63200 28.91200 46.16200
C  51.42100 28.50300 45.60100
C  51.60000 27.22400 45.10900
C  53.04500 30.18700 46.78800
C  50.02100 28.92800 45.28300
O  49.35500 29.88200 45.74300
C  49.34900 27.72800 44.34400
C  49.04800 28.21200 43.02100
O  49.78000 28.74900 42.20000
O  47.65500 28.23800 42.91600
C  47.11500 29.04000 41.79100
H  50.83200 21.17800 43.51300
H  56.70000 22.15400 45.93600
H  55.36500 28.30200 46.90200
H  48.48000 25.48800 43.21000
H  49.43200 22.90500 42.13100
H  48.79600 22.94900 45.05600
H  47.98100 21.96500 43.74000
H  47.43600 23.56500 44.08600
H  50.24700 24.60900 41.04900
H  50.53600 26.26900 41.63400
H  48.87600 26.91200 40.06600
H  47.74100 26.01400 41.10600
H  51.74600 19.25900 43.65400
H  52.94300 18.30500 44.44600
H  53.51200 18.87100 43.00200
H  57.78700 20.25500 45.19200
H  57.50700 18.79200 45.99200
H  56.77000 20.32700 46.68100
H  58.09300 24.54400 45.82900
H  57.14000 26.65000 47.68200
H  57.91400 24.91000 48.77500
H  58.95100 23.82100 47.76500
H  57.36300 23.44400 48.40500
H  57.34800 27.93900 45.28900
H  57.48500 26.41800 44.64300
H  59.62200 27.20200 46.76400
H  59.44300 28.26600 45.28100
H  59.86800 26.64100 45.07900
H  53.42200 30.17600 47.81100
H  52.28700 30.95900 46.91800
H  53.87300 30.62400 46.23000
H  48.47300 27.36100 44.87800
H  47.72500 29.66500 41.13900
H  46.20100 29.58100 42.03700
H  46.76600 28.28800 41.08400
Mg 16.22900 51.26000 24.63100
C  18.16700 50.79700 27.41600
C  13.61800 52.28600 26.55900
C  14.43300 51.74500 21.73200
C  19.07200 50.49400 22.66400
N  15.91000 51.44800 26.86400
C  16.82700 51.20200 27.84000
C  16.30400 51.46200 29.24600
C  14.72300 51.76900 28.93200
C  14.70900 51.82100 27.36800
C  13.66400 50.77000 29.47300
C  16.99500 52.67500 29.90200
C  16.66600 53.04500 31.35700
H  16.05200 52.03000 32.26200
N  14.32000 51.95300 24.18800
C  13.43000 52.41000 25.12600
C  12.31400 52.95800 24.43800
C  12.48100 52.75200 23.02900
C  13.80900 52.08200 22.94000
C  11.13900 53.60200 25.26500
C  11.52300 53.02900 21.88700
O  11.77900 52.87700 20.70000
C  10.11200 53.42900 22.15500
N  16.66000 51.12100 22.55900
C  15.71400 51.33000 21.51600
C  16.36900 51.01700 20.08600
C  17.89400 51.16900 20.48600
C  17.88300 50.87900 22.00100
C  15.79000 49.71200 19.37000
C  18.47000 52.60200 20.27300
C  19.40100 52.83200 19.16200
N  18.12100 50.56200 24.91600
C  19.18700 50.26400 24.06900
C  20.33200 49.96900 24.83600
C  19.93000 50.08000 26.14700
C  18.58000 50.47500 26.15900
C  21.65400 49.66400 24.24400
C  20.44800 49.93400 27.49500
O  21.49800 49.58200 27.95800
C  19.29100 50.37300 28.30800
C  18.95800 49.24800 29.25900
O  18.50000 48.18600 28.98800
O  19.09700 49.84000 30.53800
C  18.46500 49.14900 31.65800
H  12.81800 52.68200 27.18800
H  14.02200 52.01000 20.75600
H  19.94300 50.19100 22.08000
H  16.58300 50.56800 29.80500
H  14.53300 52.78500 29.27700
H  12.95300 50.56000 28.67400
H  13.23200 51.22000 30.36700
H  14.06900 49.80200 29.76900
H  16.80500 53.46500 29.17600
H  18.08000 52.56500 29.89400
H  15.95100 53.86100 31.25500
H  17.61200 53.41500 31.75400
H  10.69400 54.42900 24.71100
H  11.56200 54.00400 26.18600
H  10.40000 52.81500 25.41800
H  9.70100 52.83200 22.96900
H  9.49100 53.17100 21.29800
H  10.04900 54.49100 22.39600
H  16.01500 51.83700 19.46200
H  18.48300 50.39300 19.99800
H  14.76200 49.82800 19.02700
H  15.82600 48.93600 20.13500
H  16.45800 49.37700 18.57600
H  19.03600 52.90700 21.15300
H  17.66400 53.33400 20.24800
H  18.82200 53.20200 18.31600
H  19.79200 51.88700 18.78400
H  20.27400 53.47100 19.29300
H  21.92000 50.32400 23.41800
H  21.64300 48.60100 24.00500
H  22.46100 49.81100 24.96200
H  19.55100 51.17100 29.00300
H  18.97000 48.31300 32.14200
H  17.42500 48.89800 31.44800
H  18.51100 49.90800 32.43900

