158

Mg 1.51600 7.50900 25.12400
C  2.01700 9.42500 28.03300
C  1.64000 4.61400 27.15500
C  1.05000 5.75600 22.38500
C  2.13000 10.37100 23.20100
N  1.95800 7.06800 27.27900
C  1.91300 8.01200 28.31500
C  1.91700 7.46800 29.70600
C  2.13000 5.95100 29.30400
C  1.82400 5.85700 27.83200
C  3.57900 5.33900 29.58600
C  0.60500 7.63000 30.51800
C  0.29100 6.77700 31.77200
H  1.50500 6.22500 32.51400
N  1.37000 5.44100 24.88100
C  1.46300 4.48000 25.72300
C  1.45300 3.19700 25.01300
C  1.28300 3.46900 23.64300
C  1.18100 4.94500 23.60900
C  1.51800 1.80300 25.66800
C  1.13400 2.56900 22.44000
O  0.97600 2.97500 21.26800
C  1.16000 1.09600 22.49000
N  1.70200 8.02200 23.06400
C  1.21400 7.08800 22.15800
C  1.14900 7.78000 20.73300
C  1.42800 9.31900 21.00600
C  1.80100 9.27200 22.53000
C  2.11300 7.18900 19.66200
C  0.12600 10.13200 20.77100
C  0.27500 11.45000 20.04900
N  2.01100 9.49600 25.48800
C  2.20400 10.58900 24.62000
C  2.34400 11.74400 25.42900
C  2.32700 11.35600 26.74900
C  2.15300 9.94900 26.73400
C  2.40700 13.18400 24.96000
C  2.49200 11.83200 28.07700
O  2.65200 12.92800 28.49800
C  2.25100 10.61100 29.00200
C  3.36800 10.67600 29.98500
O  4.48400 10.28200 29.78300
O  2.94800 11.34300 31.13200
C  3.86300 11.55100 32.20400
H  1.79500 3.75100 27.80600
H  0.80000 5.32100 21.41500
H  2.21900 11.23900 22.54300
H  2.83600 7.84400 30.15500
H  1.42000 5.31800 29.83800
H  4.18900 5.71700 30.40600
H  4.19500 5.26700 28.68900
H  3.59800 4.30200 29.92200
H  -0.16900 7.57800 29.75300
H  0.50600 8.68700 30.76700
H  -0.40200 6.00300 31.44300
H  -0.18700 7.33900 32.57400
H  0.55800 1.36200 25.93500
H  2.08600 1.89500 26.59400
H  2.15200 1.20900 25.01000
H  0.54300 0.71400 23.30400
H  2.17500 0.70000 22.45200
H  0.65000 0.81100 21.57000
H  0.12700 7.58500 20.40800
H  2.22700 9.71700 20.38000
H  2.97400 7.85700 19.68600
H  1.54200 7.25600 18.73600
H  2.38100 6.15600 19.88700
H  -0.30500 10.40100 21.73500
H  -0.54700 9.55300 20.13800
H  0.35600 11.29000 18.97400
H  1.23700 11.84100 20.38200
H  -0.56800 12.12100 20.20800
H  1.41500 13.44500 24.59100
H  3.14600 13.07300 24.16600
H  2.95400 13.92000 25.55000
H  1.29800 10.84600 29.47700
H  4.81100 11.93500 31.82900
H  4.04600 10.56300 32.62500
H  3.55100 12.23100 32.99600
Mg 43.17000 2.95100 47.81500
C  41.52600 5.71200 47.22900
C  40.31700 1.01300 47.42200
C  45.10300 0.19100 47.47700
C  46.14200 4.73400 47.84000
N  41.15300 3.32800 47.49000
C  40.64100 4.55300 47.19500
C  39.05700 4.46600 46.92500
C  38.78500 3.02100 47.54000
C  40.15100 2.40800 47.52000
C  37.98200 2.97800 48.86600
C  38.80000 4.58600 45.39300
C  38.35700 5.99000 44.85500
H  38.96500 6.41100 43.56300
N  42.75300 0.95700 47.38100
C  41.51200 0.36700 47.31500
C  41.62200 -1.07400 46.99500
C  43.03700 -1.34700 47.00700
C  43.68100 -0.05700 47.43400
C  40.44600 -1.94200 46.68200
C  43.56600 -2.69900 46.59600
O  42.74300 -3.56300 46.34900
C  45.00200 -2.95800 46.64600
N  45.32700 2.47300 47.83700
C  45.89600 1.28600 47.71100
C  47.41000 1.29600 47.78300
C  47.71500 2.80300 47.70800
C  46.33100 3.38900 47.72100
C  47.94600 0.58000 48.98800
C  48.45300 3.29300 46.38100
C  49.94500 3.02700 46.37000
N  43.73200 4.82200 47.69700
C  44.95300 5.41300 47.75400
C  44.84800 6.82300 47.69500
C  43.45100 7.01300 47.46900
C  42.84600 5.79300 47.52000
C  45.87900 7.87000 47.85800
C  42.36900 7.99100 47.28300
O  42.37200 9.23000 47.25400
C  41.02400 7.13800 47.05500
C  40.11600 7.54400 48.19700
O  40.00000 6.87900 49.27400
O  39.36400 8.61100 47.99300
C  38.23500 8.89500 48.90800
H  39.39300 0.45600 47.25400
H  45.54900 -0.80300 47.40700
H  47.03000 5.36000 47.94700
H  38.67400 5.28200 47.53700
H  38.26800 2.46600 46.75800
H  37.65000 3.98500 49.11800
H  38.67700 2.58000 49.60500
H  37.11800 2.35400 48.63900
H  38.02800 3.87800 45.09200
H  39.64000 4.34000 44.74300
H  38.37100 6.76700 45.61900
H  37.28900 5.96900 44.63900
H  39.47100 -1.47200 46.81600
H  40.47300 -2.85400 47.27900
H  40.61200 -2.25400 45.65100
H  45.53000 -2.30900 45.94700
H  45.04500 -4.01300 46.37500
H  45.28900 -2.98600 47.69700
H  47.88800 0.82800 46.92200
H  48.31400 3.28400 48.48100
H  47.18700 0.12500 49.62300
H  48.67000 1.10700 49.60900
H  48.51900 -0.23700 48.54800
H  48.28400 4.36900 46.38600
H  48.07900 2.88600 45.44200
H  50.53000 3.59400 45.64500
H  49.91800 1.96600 46.12000
H  50.35300 3.08800 47.37900
H  46.87000 7.46000 47.66000
H  45.78100 8.09700 48.92000
H  45.62100 8.71100 47.21400
H  40.64700 7.44500 46.07900
H  37.61100 8.01700 49.07700
H  37.70700 9.77300 48.53800
H  38.59700 9.13900 49.90700

