158

Mg 26.06200 51.97000 26.39000
C  23.91900 52.93000 28.94200
C  28.33000 51.13500 28.77500
C  28.28800 51.61100 23.86700
C  23.79400 53.48900 24.05800
N  26.02700 51.80500 28.57200
C  25.05700 52.25400 29.38600
C  25.39000 52.03100 30.88000
C  26.93700 51.66300 30.82900
C  27.12400 51.55200 29.31400
C  27.84500 52.76100 31.45400
C  24.45300 50.94900 31.62000
C  23.72500 51.57000 32.86900
H  23.54400 50.54400 34.03100
N  28.07400 51.47600 26.32300
C  28.80600 50.99700 27.44400
C  30.12700 50.58500 26.95200
C  30.14600 50.88000 25.58300
C  28.84100 51.34800 25.18000
C  31.26800 50.05500 27.85000
C  31.33000 50.79600 24.62300
O  31.20900 51.17400 23.41200
C  32.69600 50.47100 25.04400
N  26.05200 52.47300 24.32600
C  27.07100 52.15100 23.50900
C  26.77500 52.54500 22.02900
C  25.25200 52.88100 22.04200
C  25.03300 52.96900 23.54300
C  27.65600 53.71400 21.47100
C  24.42000 51.74200 21.31600
C  23.79700 52.25600 20.02900
N  24.13400 52.75900 26.45900
C  23.42700 53.39400 25.42100
C  22.10900 53.87100 25.97400
C  22.30200 53.66200 27.33800
C  23.54600 53.05600 27.59500
C  20.99300 54.60800 25.20000
C  21.64300 53.79800 28.59700
O  20.49000 54.16000 28.81500
C  22.67000 53.34500 29.67800
C  22.90300 54.48200 30.60800
O  23.80400 55.24000 30.44200
O  21.95800 54.45100 31.58000
C  22.02400 55.54100 32.63000
H  29.09800 50.92600 29.52200
H  28.97200 51.41800 23.03800
H  23.07000 53.69400 23.26700
H  25.18000 53.00600 31.32000
H  27.18800 50.67900 31.22400
H  27.45100 53.77600 31.48500
H  28.82100 52.78000 30.96800
H  28.19900 52.51200 32.45400
H  24.91400 49.99500 31.87200
H  23.68900 50.70700 30.88100
H  22.75100 51.83800 32.46000
H  24.28100 52.45500 33.17600
H  32.20300 50.52200 27.53900
H  31.27000 48.96900 27.75800
H  30.99300 50.37800 28.85400
H  32.70500 49.39400 25.21300
H  33.17200 51.09500 25.80100
H  33.29500 50.63600 24.14900
H  26.91500 51.60300 21.49900
H  25.08100 53.87600 21.63100
H  27.95100 54.42900 22.24000
H  27.01100 54.15900 20.71400
H  28.54600 53.32400 20.97800
H  23.66200 51.26800 21.94100
H  25.05800 50.96300 20.89800
H  24.42800 52.02700 19.17000
H  23.63400 53.33100 20.11000
H  22.73100 52.13600 19.83600
H  20.05800 54.10200 25.43800
H  21.05200 54.53600 24.11400
H  21.07000 55.65800 25.48300
H  22.18200 52.53700 30.22400
H  22.96100 55.58600 33.18600
H  21.27500 55.36300 33.40200
H  21.93500 56.50100 32.12200
Mg -0.34400 43.49600 26.91900
C  2.05700 43.26500 29.34800
C  -2.70900 42.31100 29.19300
C  -2.68900 43.46800 24.37400
C  2.16400 44.13800 24.61700
N  -0.31600 42.85500 29.03500
C  0.76600 43.15500 29.86200
C  0.38500 43.15200 31.34600
C  -1.08600 42.55400 31.31300
C  -1.45000 42.61300 29.79700
C  -1.16000 41.07800 31.79900
C  0.45700 44.58600 32.03500
C  0.72100 44.47900 33.49800
H  0.43100 43.30900 34.37200
N  -2.44000 43.00800 26.77400
C  -3.14400 42.45500 27.85800
C  -4.45400 42.03400 27.23400
C  -4.45300 42.48400 25.89100
C  -3.16800 43.05500 25.64700
C  -5.46800 41.34900 28.17400
C  -5.56700 42.20300 24.96600
O  -5.39600 42.43000 23.76500
C  -6.85100 41.44300 25.30200
N  -0.29800 43.66100 24.77600
C  -1.40800 43.72700 23.99400
C  -1.00800 43.97300 22.55400
C  0.46100 44.37400 22.66600
C  0.80600 44.02200 24.12100
C  -1.18200 42.78200 21.53500
C  0.78500 45.82700 22.29100
C  0.24200 46.88900 23.24200
N  1.72800 43.55800 26.87700
C  2.64400 43.75800 25.86600
C  4.00700 43.71400 26.36200
C  3.78500 43.56200 27.76100
C  2.45400 43.49400 28.03700
C  5.25700 43.70800 25.46000
C  4.52100 43.41000 29.01100
O  5.69100 43.44200 29.15400
C  3.40700 43.39500 30.15700
C  3.62100 42.18300 30.99800
O  3.45600 41.04600 30.55100
O  4.21400 42.55400 32.16700
C  4.81100 41.43900 32.98400
H  -3.35100 41.99000 30.01600
H  -3.32300 43.31700 23.49800
H  2.88300 44.55000 23.90600
H  1.10800 42.48900 31.82100
H  -1.74300 43.16800 31.92900
H  -0.35700 40.46600 31.38900
H  -2.09200 40.75900 31.33300
H  -1.14500 40.98100 32.88500
H  -0.51000 45.08000 31.92900
H  1.21100 45.20200 31.54400
H  0.43400 45.43500 33.93400
H  1.80800 44.54800 33.52800
H  -6.39800 41.91500 28.10100
H  -5.24500 41.25400 29.23700
H  -5.67600 40.33500 27.83500
H  -7.37700 42.25700 25.80000
H  -6.66400 40.61600 25.98700
H  -7.38500 41.10000 24.41600
H  -1.69000 44.70000 22.11200
H  1.17200 43.79300 22.07800
H  -2.25600 42.60900 21.60300
H  -0.51500 42.02500 21.94700
H  -0.84500 42.96900 20.51500
H  0.32900 45.94100 21.30800
H  1.85800 45.80700 22.10100
H  -0.60900 47.40000 22.79200
H  1.16100 47.46100 23.36600
H  -0.15900 46.44800 24.15500
H  5.35700 42.77200 24.91000
H  6.10700 43.81000 26.13400
H  5.31300 44.57800 24.80600
H  3.38700 44.36400 30.65500
H  4.41200 40.47500 32.66900
H  4.48500 41.58900 34.01300
H  5.88300 41.42600 32.78600

