158

Mg 27.04100 51.22100 26.14000
C  25.12700 52.14200 29.03100
C  29.39700 50.04900 28.38500
C  28.98900 50.72800 23.54200
C  24.65200 52.81200 24.11600
N  27.24200 51.16800 28.44300
C  26.31100 51.40100 29.39900
C  26.73900 50.97600 30.72400
C  28.24500 50.47400 30.57300
C  28.32500 50.58500 29.04000
C  29.28600 51.45200 31.17500
C  25.67500 49.91500 31.30200
C  24.91800 50.32200 32.60600
H  24.63300 49.22300 33.71700
N  28.86300 50.48200 25.97300
C  29.69400 49.99700 26.97300
C  30.90800 49.54600 26.39600
C  30.87900 49.75700 24.98100
C  29.55100 50.35300 24.80700
C  31.97700 48.72100 27.15200
C  31.93900 49.50400 24.01100
O  31.84800 49.86700 22.84800
C  33.25400 48.87700 24.45000
N  26.79400 51.56800 24.09600
C  27.76500 51.28800 23.18600
C  27.26800 51.58100 21.67500
C  25.79200 52.15100 21.93400
C  25.75500 52.25200 23.43100
C  28.22400 52.47800 20.78800
C  24.65600 51.21100 21.34300
C  23.55300 52.04700 20.71800
N  25.28700 52.24800 26.41200
C  24.44800 52.81900 25.50900
C  23.38200 53.43500 26.17700
C  23.57500 53.20400 27.51100
C  24.78800 52.49500 27.65500
C  22.23900 54.08700 25.60600
C  22.97300 53.34400 28.84900
O  21.93100 53.81200 29.25700
C  23.98300 52.71200 29.80500
C  24.47200 53.87100 30.70200
O  25.04100 54.87200 30.34100
O  24.23200 53.47300 32.02400
C  24.82100 54.48600 32.96500
H  30.04400 49.71600 29.20000
H  29.60900 50.52100 22.66800
H  24.04900 53.47000 23.48700
H  26.82400 51.81700 31.41200
H  28.33300 49.44700 30.92800
H  28.76900 52.29700 31.63000
H  29.99000 51.84600 30.44200
H  29.88300 50.87800 31.88300
H  26.20600 49.03300 31.66000
H  24.95400 49.50500 30.59500
H  23.92900 50.71800 32.37500
H  25.38800 51.20500 33.03800
H  32.87700 49.33500 27.12800
H  32.20600 47.75900 26.69500
H  31.74400 48.67700 28.21600
H  33.93200 48.71800 23.61000
H  33.00900 47.87800 24.81000
H  33.72800 49.54500 25.16800
H  27.24200 50.60100 21.19900
H  25.72700 53.18900 21.60800
H  28.86100 51.92400 20.09900
H  28.92200 53.08600 21.36300
H  27.57500 53.18100 20.26700
H  24.26100 50.45800 22.02500
H  25.02900 50.65200 20.48400
H  22.62400 51.71700 21.18300
H  23.43600 52.01100 19.63500
H  23.70700 53.09100 20.99400
H  21.50400 54.11600 26.41100
H  21.90300 53.42000 24.81300
H  22.43300 55.08800 25.22000
H  23.50100 51.85000 30.26700
H  23.98700 55.16900 33.12500
H  25.77900 54.92900 32.69200
H  24.98800 54.03900 33.94500
Mg 17.29400 52.81200 26.33100
C  19.30500 51.02700 28.68800
C  14.83000 53.03300 28.87100
C  15.24700 54.14900 24.08800
C  19.57800 51.72900 23.83600
N  17.08500 52.07700 28.55400
C  18.10900 51.51200 29.27500
C  17.73200 51.43900 30.74000
C  16.16600 51.69100 30.70100
C  15.95500 52.29500 29.30800
C  15.35900 50.43400 30.80600
C  18.64900 52.45100 31.48900
C  18.96500 52.04200 33.00100
H  17.88300 51.38800 33.83500
N  15.27300 53.55100 26.42500
C  14.51800 53.67000 27.56700
C  13.32300 54.43800 27.22800
C  13.35600 54.77900 25.81900
C  14.63500 54.12200 25.33000
C  12.29100 54.96800 28.28600
C  12.47000 55.51500 24.85700
O  12.60800 55.52500 23.61300
C  11.46900 56.41000 25.51800
N  17.40700 52.90500 24.37200
C  16.51400 53.70000 23.67100
C  16.77700 53.60300 22.15600
C  18.18200 53.06800 22.09900
C  18.45900 52.54200 23.49400
C  15.69800 52.88800 21.24700
C  19.31800 53.98500 21.57000
C  19.64100 55.17300 22.50200
N  19.12300 51.66800 26.25400
C  19.93700 51.35800 25.13000
C  21.08400 50.58200 25.58100
C  20.86000 50.40500 26.97500
C  19.69300 51.10600 27.34200
C  22.21900 50.22600 24.65100
C  21.53100 49.83500 28.10300
O  22.59100 49.18300 28.21600
C  20.52500 50.26300 29.35000
C  20.04400 49.06700 30.05900
O  19.36100 48.10700 29.60300
O  20.38300 49.22900 31.41200
C  20.19400 48.06800 32.28500
H  14.10000 52.95700 29.67900
H  14.60800 54.58100 23.31500
H  20.22400 51.39100 23.02300
H  17.85100 50.45300 31.19000
H  15.88700 52.38800 31.49100
H  15.07100 50.31500 31.85100
H  15.77900 49.49600 30.44500
H  14.48300 50.56300 30.17200
H  18.12600 53.40700 31.51400
H  19.61900 52.61800 31.02100
H  19.57200 52.73300 33.58400
H  19.57400 51.14200 32.91600
H  12.69400 55.91300 28.65100
H  12.42100 54.32700 29.15800
H  11.29000 55.12100 27.88300
H  11.02400 56.96100 24.69000
H  11.94900 57.22900 26.05500
H  10.76800 55.81200 26.10000
H  16.89700 54.61600 21.77100
H  18.21200 52.17000 21.48300
H  16.12000 52.85600 20.24300
H  14.80900 53.51800 21.24800
H  15.52200 51.88100 21.62600
H  18.92400 54.40800 20.64600
H  20.19800 53.36300 21.40200
H  19.41500 56.09200 21.96000
H  20.71600 55.15200 22.68100
H  19.00500 55.21100 23.38700
H  23.14500 50.07300 25.20400
H  22.19200 51.01500 23.89800
H  22.04300 49.31600 24.07700
H  21.02500 50.89600 30.08300
H  19.86500 47.14800 31.80200
H  19.45400 48.36300 33.02900
H  21.04200 47.82500 32.92500

