158

Mg -9.40200 40.14400 39.79500
C  -8.66400 36.89000 39.26900
C  -6.01000 40.93400 38.87500
C  -10.28600 43.54100 39.25500
C  -12.72200 39.35100 40.07800
N  -7.53300 39.04500 39.18800
C  -7.54000 37.66200 39.09500
C  -6.08000 37.21400 38.68700
C  -5.25000 38.48700 39.01900
C  -6.32800 39.55400 39.01700
C  -4.45900 38.57300 40.42000
C  -6.07700 36.72500 37.20700
C  -6.22400 37.80500 36.08300
H  -7.42700 37.58600 35.21300
N  -8.31000 41.98500 39.21100
C  -6.91400 42.06500 38.95000
C  -6.66300 43.41000 38.59700
C  -7.93200 44.10400 38.43900
C  -8.89900 43.20400 39.00400
C  -5.25700 43.92700 38.18500
C  -8.11700 45.58900 37.90800
O  -7.16400 46.20300 37.62600
C  -9.42300 46.20500 37.60700
N  -11.20400 41.29500 39.63900
C  -11.31000 42.63300 39.65100
C  -12.77800 43.05600 40.09800
C  -13.41300 41.79600 40.47900
C  -12.40600 40.75600 40.07500
C  -12.75700 44.32400 41.13800
C  -14.87400 41.56700 39.89200
C  -15.78600 40.62800 40.69100
N  -10.56800 38.44900 39.78800
C  -11.85000 38.25500 39.94300
C  -12.20700 36.85100 39.81500
C  -10.96900 36.25700 39.56900
C  -10.01500 37.30200 39.51600
C  -13.62000 36.24200 39.90200
C  -10.34200 35.03200 39.21900
O  -10.79200 33.89800 39.10100
C  -8.84300 35.36000 38.87900
C  -7.95100 34.45400 39.71900
O  -8.04700 34.12500 40.88500
O  -6.90700 34.01100 38.87900
C  -5.83900 33.20900 39.43300
H  -4.95800 41.21000 38.77400
H  -10.54900 44.59900 39.30900
H  -13.77800 39.19900 40.31400
H  -5.85700 36.37200 39.34300
H  -4.58000 38.79900 38.21800
H  -3.41300 38.83800 40.26500
H  -4.62500 37.74000 41.10400
H  -4.87400 39.44200 40.93100
H  -6.92700 36.06500 37.03400
H  -5.22500 36.09200 36.95900
H  -5.35000 37.68500 35.44200
H  -6.39600 38.75300 36.59200
H  -4.90600 44.75800 38.79800
H  -5.25700 44.39700 37.20100
H  -4.52400 43.12100 38.14300
H  -9.75400 46.76100 38.48400
H  -10.12400 45.41200 37.34900
H  -9.44600 46.92900 36.79200
H  -13.25000 43.40500 39.17900
H  -13.39200 41.71100 41.56500
H  -13.41500 44.17200 41.99400
H  -12.96600 45.26000 40.62000
H  -11.74000 44.35200 41.52900
H  -14.60300 41.12700 38.93200
H  -15.26600 42.57900 39.78300
H  -16.74200 41.10300 40.91300
H  -15.25500 40.30100 41.58500
H  -16.02100 39.79100 40.03300
H  -13.61800 35.24600 40.34500
H  -13.99300 36.22200 38.87800
H  -14.18900 36.88000 40.57800
H  -8.79000 35.07900 37.82700
H  -6.19000 32.18100 39.34400
H  -5.54200 33.48500 40.44500
H  -4.95900 33.21100 38.79000
Mg 0.04900 43.61100 26.01400
C  2.44000 43.79700 28.65000
C  -2.29700 43.18700 28.32400
C  -2.15100 42.86300 23.49400
C  2.58600 44.01500 23.66600
N  0.08600 43.57600 28.24300
C  1.16400 43.59300 29.12700
C  0.68800 43.45800 30.61600
C  -0.89300 43.45500 30.48500
C  -1.05700 43.34100 28.93900
C  -1.54200 42.24200 31.21600
C  1.34200 44.65200 31.49500
C  0.83200 44.89400 32.99100
H  0.57300 43.66400 33.84700
N  -2.02700 43.01100 25.89600
C  -2.82000 42.95900 26.97300
C  -4.14100 42.81200 26.57500
C  -4.12200 42.68700 25.16400
C  -2.71800 42.83600 24.77000
C  -5.30200 42.80200 27.46200
C  -5.27000 42.58100 24.16300
O  -5.07800 42.38700 22.95500
C  -6.71000 42.74200 24.67300
N  0.10000 43.65200 23.94500
C  -0.85300 43.13100 23.13000
C  -0.46800 43.08000 21.63100
C  0.89300 43.81700 21.67900
C  1.23300 43.82800 23.19600
C  -0.62800 41.76400 20.91700
C  0.89600 45.22500 20.92600
C  1.60900 45.44600 19.64700
N  2.12300 43.92700 26.05200
C  3.01400 44.00500 24.99100
C  4.30100 44.23200 25.62100
C  4.17100 44.10500 26.99200
C  2.79100 43.94900 27.27000
C  5.58700 44.44800 24.94600
C  4.88900 43.94000 28.27800
O  6.07800 43.98200 28.52500
C  3.82900 43.94000 29.38900
C  4.14900 42.69900 30.16500
O  3.72800 41.57700 29.86400
O  4.94000 43.05300 31.24200
C  5.12700 42.08000 32.27900
H  -3.04100 43.12900 29.12100
H  -2.80800 42.65900 22.64600
H  3.34100 44.16200 22.89100
H  1.03400 42.43400 30.75900
H  -1.25800 44.40100 30.88400
H  -1.72200 41.41600 30.52800
H  -2.47500 42.55500 31.68300
H  -0.91500 41.81700 32.00100
H  1.34800 45.55900 30.89000
H  2.38500 44.36800 31.62800
H  0.05000 45.65200 33.01900
H  1.66200 45.48300 33.38200
H  -5.91500 43.69800 27.37300
H  -4.98700 42.51400 28.46500
H  -5.91500 42.00200 27.04800
H  -6.96200 43.70000 25.12700
H  -6.90100 41.86900 25.29700
H  -7.43300 42.68300 23.85900
H  -1.23500 43.73800 21.22500
H  1.68200 43.17200 21.29100
H  0.09200 41.03900 21.29600
H  -0.65000 41.92500 19.83900
H  -1.66000 41.48100 21.12400
H  1.52700 45.84100 21.56600
H  -0.14300 45.55200 20.89200
H  2.52900 44.86100 19.63300
H  1.84400 46.50500 19.75000
H  0.87700 45.16800 18.88900
H  5.52300 45.01200 24.01600
H  6.08700 43.50800 24.71200
H  6.02700 45.21700 25.58100
H  3.89100 44.85500 29.97700
H  5.85500 41.41000 31.82200
H  4.20800 41.56600 32.56100
H  5.57100 42.62800 33.11000

