158

Mg 53.56500 24.85800 44.33200
C  51.15400 27.26300 43.40900
C  51.37900 22.53100 43.02900
C  56.12800 22.73900 44.03400
C  55.78400 27.47600 45.11300
N  51.60400 24.93700 43.12400
C  50.74100 25.99000 43.03800
C  49.39300 25.61000 42.43300
C  49.31300 24.04000 42.61700
C  50.83800 23.80500 42.86400
C  48.32700 23.49400 43.65600
C  49.35400 26.08600 40.98900
C  47.91100 26.09300 40.48600
H  47.77200 25.17000 39.25500
N  53.71400 22.84600 43.80000
C  52.70600 22.05900 43.29600
C  53.21200 20.73200 43.02300
C  54.60800 20.65200 43.41300
C  54.87600 22.12000 43.75600
C  52.32800 19.58200 42.54100
C  55.50500 19.50000 43.31300
O  55.16900 18.44800 42.84400
C  56.87300 19.58600 43.93300
N  55.65700 25.17200 44.37500
C  56.48700 24.11300 44.30700
C  57.94300 24.47500 44.63100
C  57.89300 25.99000 44.76700
C  56.40100 26.25200 44.90400
C  58.47200 23.66100 45.84900
C  58.56900 26.75700 43.56200
C  60.04400 27.27600 43.65300
N  53.49100 26.91800 44.46900
C  54.40700 27.80900 44.89100
C  53.74600 29.10900 45.10200
C  52.50500 28.95900 44.47900
C  52.33600 27.60400 44.09100
C  54.30100 30.32000 45.74900
C  51.27900 29.68000 44.15000
O  50.92500 30.82200 44.41300
C  50.41600 28.65400 43.38700
C  50.22700 29.27400 42.03100
O  51.14200 29.60400 41.27400
O  48.91300 29.43000 41.76300
C  48.49600 29.84800 40.46800
H  50.68700 21.82400 42.56600
H  57.01300 22.10000 43.99700
H  56.36900 28.27400 45.57500
H  48.59800 26.08700 43.00600
H  48.98300 23.55900 41.69600
H  47.50200 22.88000 43.29500
H  47.99200 24.39500 44.17000
H  48.96400 23.01800 44.40100
H  49.88400 25.30400 40.44500
H  49.84200 27.02200 40.71900
H  47.57300 27.07000 40.13900
H  47.16200 25.79800 41.22000
H  52.34200 19.42300 41.46200
H  51.29800 19.77600 42.84100
H  52.64300 18.62100 42.94700
H  57.62000 19.95700 43.23100
H  57.13900 18.53600 44.05900
H  56.76500 20.07000 44.90300
H  58.60400 24.20800 43.80700
H  58.33500 26.39900 45.67500
H  58.96000 22.74200 45.52300
H  57.68900 23.34700 46.53900
H  59.19700 24.28500 46.37200
H  57.87400 27.54100 43.26300
H  58.55300 26.03600 42.74400
H  60.30900 27.29600 44.71000
H  60.02300 28.23900 43.14300
H  60.67700 26.71000 42.97100
H  54.24000 31.11600 45.00700
H  55.26500 30.10800 46.21200
H  53.53400 30.48000 46.50600
H  49.47400 28.51300 43.91800
H  49.17400 29.49200 39.69200
H  48.47800 30.93700 40.45900
H  47.50900 29.61200 40.07000
Mg 10.07500 48.17000 26.21900
C  7.91200 47.78700 29.10400
C  12.35500 49.62600 28.13100
C  12.08600 48.05800 23.56200
C  7.38100 47.06400 24.30300
N  10.08800 48.70500 28.32800
C  9.17600 48.44200 29.36400
C  9.78400 48.88500 30.68200
C  10.95800 49.76300 30.28000
C  11.21400 49.31200 28.87400
C  10.80500 51.26500 30.54200
C  10.15400 47.69600 31.62000
C  9.55300 47.63300 32.98000
H  9.81900 46.37800 33.86600
N  11.94000 48.93100 25.86900
C  12.77300 49.37400 26.82100
C  14.09200 49.56600 26.22700
C  13.95200 49.15200 24.87500
C  12.59300 48.74200 24.67200
C  15.22800 50.03400 27.02900
C  14.98700 49.13500 23.89900
O  14.80800 48.92800 22.67800
C  16.39300 49.34800 24.29900
N  9.68200 48.00400 24.14700
C  10.75700 47.84700 23.27800
C  10.42100 47.02500 22.03100
C  8.96900 46.48400 22.30800
C  8.60300 47.29300 23.67600
C  10.75500 47.74900 20.69700
C  8.90200 44.91600 22.46300
C  8.77800 43.88800 21.26100
N  8.00800 47.58500 26.56100
C  7.07000 47.10100 25.67200
C  5.83300 46.85100 26.40200
C  6.15500 47.08300 27.79100
C  7.49200 47.44300 27.76900
C  4.56800 46.41300 25.82000
C  5.56600 47.22400 29.11200
O  4.39700 47.14900 29.47200
C  6.79500 47.32900 30.02800
C  6.99600 46.05800 30.81200
O  7.92500 45.22800 30.74300
O  6.00200 45.97500 31.82300
C  6.21500 44.85800 32.74400
H  13.03200 50.28800 28.67500
H  12.84100 47.63800 22.89400
H  6.69100 46.63600 23.57300
H  9.11100 49.49000 31.29100
H  11.85900 49.60500 30.87200
H  11.73400 51.67800 30.93600
H  10.00000 51.51100 31.23400
H  10.50700 51.73300 29.60400
H  11.23700 47.75700 31.72000
H  9.81300 46.79600 31.10800
H  8.49200 47.56700 32.74000
H  9.80400 48.55600 33.50300
H  14.86000 50.41300 27.98200
H  15.80400 50.82200 26.54300
H  15.81400 49.15900 27.31300
H  16.56700 50.33200 24.73300
H  17.03100 49.28400 23.41800
H  16.65800 48.62200 25.06800
H  11.09000 46.16500 22.05300
H  8.29100 46.89000 21.55700
H  11.65500 47.37200 20.21200
H  11.05400 48.75900 20.97900
H  10.11500 47.80000 19.81600
H  8.07300 44.79700 23.16000
H  9.84200 44.64800 22.94500
H  9.68600 43.36500 20.96200
H  8.37600 44.57900 20.52000
H  8.03800 43.11000 21.44800
H  4.33700 47.04200 24.96000
H  3.94300 46.54400 26.70400
H  4.58500 45.36600 25.51800
H  6.56300 48.11000 30.75300
H  7.13300 45.04200 33.30200
H  6.23400 43.88000 32.26300
H  5.37200 44.74600 33.42600

