158

Mg 47.38000 25.45900 29.22100
C  48.39400 27.63700 31.82200
C  46.19600 23.30600 31.56500
C  47.05700 23.18700 26.77200
C  49.11800 27.53700 26.95500
N  47.05600 25.60400 31.40200
C  47.59900 26.54600 32.30000
C  47.21400 26.14700 33.80200
C  46.66000 24.74400 33.59600
C  46.56400 24.55800 32.07200
C  47.57000 23.66700 34.27300
C  46.28900 27.25300 34.41300
C  46.70600 27.94500 35.75000
H  47.13100 26.96100 36.88000
N  46.62700 23.47800 29.11500
C  46.19100 22.81600 30.24900
C  45.64900 21.60900 29.75300
C  45.89800 21.52600 28.37100
C  46.56000 22.74300 28.01300
C  44.81500 20.66500 30.64500
C  45.53300 20.39900 27.36400
O  45.98900 20.34200 26.24400
C  44.68100 19.19500 27.69800
N  48.12000 25.37600 27.14800
C  47.65700 24.38400 26.35500
C  48.01500 24.58500 24.90900
C  48.48200 26.05200 24.93400
C  48.58900 26.33800 26.45900
C  49.07300 23.64700 24.37500
C  47.59700 27.00900 24.07600
C  48.16600 28.27100 23.61900
N  48.62800 27.23000 29.36900
C  49.23500 28.00000 28.35700
C  49.78800 29.17100 28.92000
C  49.44700 29.08900 30.29000
C  48.75500 27.87200 30.47300
C  50.32200 30.31900 28.18300
C  49.52600 29.79000 31.59100
O  49.98700 30.89300 31.92400
C  48.96800 28.81300 32.64200
C  50.08500 28.35800 33.52200
O  50.94500 27.62400 33.15400
O  49.96800 28.85000 34.81000
C  50.92800 28.26800 35.74400
H  45.98800 22.58000 32.35400
H  46.76500 22.47900 25.99300
H  49.66100 28.15400 26.23600
H  48.17100 26.07800 34.32000
H  45.63700 24.55000 33.91800
H  48.21300 24.06700 35.05700
H  48.09500 22.91700 33.68200
H  46.80500 23.05800 34.75300
H  45.26700 26.92100 34.59700
H  46.14900 28.08600 33.72400
H  45.82700 28.46300 36.13300
H  47.48100 28.69500 35.59200
H  44.40800 21.14300 31.53600
H  45.37500 19.76000 30.88300
H  43.94900 20.36800 30.05400
H  44.97200 18.73900 28.64300
H  44.79400 18.44800 26.91200
H  43.62400 19.45500 27.62800
H  47.13100 24.49900 24.27800
H  49.47100 26.15300 24.48900
H  50.04700 24.08700 24.15900
H  48.77700 23.21300 23.42000
H  49.21000 22.85000 25.10600
H  46.64700 27.16500 24.58700
H  47.38700 26.56100 23.10500
H  48.34900 28.41500 22.55400
H  49.18800 28.34200 23.98900
H  47.56100 29.07800 24.03100
H  49.51100 31.03200 28.32900
H  50.54900 30.11100 27.13700
H  51.19600 30.48300 28.81400
H  48.21300 29.34600 33.22100
H  51.03500 28.84300 36.66400
H  51.93400 28.23500 35.32700
H  50.53700 27.31700 36.10700
Mg 7.54300 54.49800 41.36200
C  6.92700 51.10500 40.43800
C  10.78800 54.19200 40.35000
C  7.74700 57.83800 41.54300
C  4.00900 54.69700 41.98300
N  8.60500 52.87800 40.31400
C  8.21400 51.60700 40.10700
C  9.30400 50.89400 39.28000
C  10.63800 51.61300 39.68200
C  10.01200 52.98300 40.22800
C  11.50400 50.93300 40.74300
C  9.00500 51.06300 37.74500
C  9.29900 49.78600 36.86800
H  8.77400 49.76400 35.43200
N  9.12200 55.83200 41.18100
C  10.38700 55.53000 40.72100
C  11.16600 56.71300 40.76400
C  10.36000 57.78200 41.18600
C  9.00500 57.20300 41.38300
C  12.66100 56.67400 40.35300
C  10.79200 59.13000 41.41300
O  11.99200 59.36200 41.29400
C  10.00400 60.26900 41.94400
N  6.03200 56.00100 41.71700
C  6.45700 57.33100 41.68400
C  5.18500 58.21400 41.77300
C  4.00600 57.21900 41.85700
C  4.68700 55.95000 41.83500
C  5.28000 59.41700 42.79500
C  2.99500 57.29800 40.66400
C  1.48600 57.35400 40.97900
N  5.81200 53.15200 41.46000
C  4.53600 53.39900 41.74100
C  3.84300 52.18400 41.71200
C  4.72300 51.23800 41.31500
C  5.93900 51.90900 40.98900
C  2.48000 51.98000 42.29800
C  4.96200 49.82400 41.02900
O  4.28100 48.80200 41.18100
C  6.35800 49.72100 40.28600
C  6.24800 49.32800 38.92300
O  5.68200 49.98600 38.07300
O  6.72200 48.02700 38.81100
C  6.41300 47.46600 37.45300
H  11.86200 54.19600 40.15500
H  7.81800 58.92700 41.58700
H  2.93400 54.60400 42.15100
H  9.16600 49.89200 39.68700
H  11.26000 51.77600 38.80100
H  11.71500 51.63000 41.55300
H  12.41300 50.46200 40.36800
H  10.81800 50.20700 41.17900
H  9.52300 51.92900 37.33300
H  7.94700 51.22500 37.53600
H  8.88100 48.94400 37.42000
H  10.37800 49.64300 36.81200
H  12.99800 57.61400 39.91600
H  12.94100 55.88400 39.65500
H  13.22300 56.44800 41.25900
H  9.61600 59.96200 42.91600
H  9.14000 60.59700 41.36700
H  10.60500 61.16200 42.11800
H  5.03000 58.74400 40.83300
H  3.46100 57.26500 42.79900
H  4.96900 60.29100 42.22400
H  6.27900 59.40600 43.23200
H  4.48300 59.38800 43.53800
H  3.18600 56.37200 40.12200
H  3.26700 58.09100 39.96800
H  1.06900 56.40500 40.64300
H  0.90800 58.09000 40.42000
H  1.34200 57.61200 42.02800
H  2.27600 50.91100 42.34600
H  1.77000 52.49100 41.64600
H  2.32000 52.48700 43.25000
H  6.95200 48.95600 40.78500
H  6.26900 46.44200 37.79800
H  7.25600 47.60200 36.77500
H  5.50600 47.83600 36.97500

