158

Mg 53.35000 23.99500 45.50700
C  50.56700 26.21900 44.65600
C  51.24900 21.30200 44.78100
C  55.99200 22.05200 45.65100
C  55.28100 26.86400 45.92500
N  51.29000 23.85500 44.59900
C  50.28500 24.86000 44.51900
C  48.85900 24.21400 44.43200
C  49.11900 22.76900 44.87600
C  50.65800 22.59900 44.72100
C  48.73700 22.55200 46.41700
C  48.16400 24.40800 43.07400
C  49.02700 24.28900 41.79900
H  48.33500 23.62900 40.49000
N  53.55100 21.90500 45.28700
C  52.62500 21.00200 44.90400
C  53.29400 19.69500 44.85700
C  54.69000 19.89100 44.86300
C  54.81400 21.33400 45.29200
C  52.53600 18.42700 44.52800
C  55.74300 18.81200 44.61900
O  55.49800 17.80800 43.94500
C  57.19600 18.98200 44.98600
N  55.37300 24.44900 45.55100
C  56.26700 23.40200 45.76800
C  57.74200 24.04300 45.91600
C  57.48800 25.61000 45.96500
C  55.99500 25.70800 45.79800
C  58.70800 23.40400 46.91500
C  58.31500 26.43600 44.94900
C  57.51300 26.92900 43.74500
N  53.06000 26.06800 45.37400
C  53.91200 27.10800 45.60400
C  53.31900 28.43600 45.40900
C  51.92100 28.07000 45.11800
C  51.86400 26.65800 44.95800
C  53.99700 29.77100 45.62800
C  50.62800 28.62800 44.94600
O  50.26800 29.80500 44.86300
C  49.76600 27.50600 44.62200
C  49.25900 27.85800 43.28600
O  49.94600 27.83400 42.23700
O  47.93300 28.17900 43.33100
C  47.37200 28.81000 42.17300
H  50.66000 20.38300 44.74600
H  56.89900 21.44600 45.72000
H  55.90300 27.70300 46.24400
H  48.15300 24.73300 45.08000
H  48.56900 22.10600 44.20800
H  48.20300 23.39500 46.85500
H  49.60900 22.46900 47.06500
H  48.20600 21.60100 46.45100
H  47.67600 25.37800 42.97500
H  47.31800 23.72700 42.98900
H  49.89400 23.67200 42.03800
H  49.41700 25.27500 41.54700
H  53.07000 17.51700 44.80000
H  52.27000 18.18900 43.49900
H  51.65400 18.31100 45.15800
H  57.89600 18.16900 44.79000
H  57.11300 19.32800 46.01600
H  57.55600 19.79800 44.36000
H  58.20200 23.82100 44.95300
H  57.74600 25.89700 46.98400
H  59.13200 24.16600 47.56900
H  59.50700 22.97100 46.31400
H  58.27200 22.56700 47.46000
H  59.20100 25.93500 44.55600
H  58.55400 27.35600 45.48200
H  58.23300 26.96700 42.92700
H  57.07800 27.92800 43.77300
H  56.75800 26.19900 43.45400
H  54.22600 29.96700 46.67500
H  53.43700 30.65300 45.31600
H  54.89400 29.69800 45.01200
H  49.00100 27.35300 45.38400
H  46.43900 29.28100 42.48400
H  47.14700 28.10700 41.37200
H  48.00100 29.63300 41.83400
Mg 26.00000 50.56600 26.27300
C  23.90300 51.62000 28.76100
C  28.06000 49.27400 28.52200
C  28.23500 50.05600 23.77800
C  24.04200 52.54200 24.04400
N  26.01700 50.65600 28.36500
C  25.01200 50.98500 29.18900
C  25.30400 50.50300 30.62000
C  26.82800 50.18000 30.58900
C  27.04300 50.06800 29.06200
C  27.90600 51.11900 31.23400
C  24.36200 49.31600 31.23300
C  23.99000 49.29800 32.72600
H  24.72300 50.25900 33.80400
N  27.85000 49.64600 26.17000
C  28.50100 49.08100 27.21300
C  29.71400 48.41200 26.76200
C  29.77400 48.64300 25.30300
C  28.60400 49.49600 25.00000
C  30.55600 47.55200 27.65300
C  30.88200 48.14600 24.33300
O  30.84400 48.32200 23.11000
C  31.95400 47.27100 24.77200
N  26.20000 51.33300 24.30700
C  27.13300 50.86700 23.44100
C  27.06300 51.56200 22.11700
C  25.68700 52.22400 22.15800
C  25.18000 52.00700 23.59100
C  28.27000 52.53300 21.94000
C  24.74800 51.69200 20.97400
C  23.80200 50.52000 21.35500
N  24.23300 51.76500 26.32300
C  23.49000 52.38000 25.33900
C  22.22700 52.85300 25.87300
C  22.28600 52.62900 27.23600
C  23.58600 51.93700 27.45200
C  21.10600 53.50800 25.12000
C  21.68800 52.73700 28.57700
O  20.65800 53.27200 28.85300
C  22.66300 51.97200 29.59100
C  23.00600 52.77800 30.79400
O  23.71900 53.77900 30.74800
O  22.52600 52.30000 31.97700
C  22.73900 53.02900 33.27600
H  28.78700 48.90900 29.25000
H  28.85800 49.68900 22.95900
H  23.39700 53.06900 23.33700
H  25.10900 51.37600 31.24200
H  26.88300 49.23600 31.13100
H  28.52800 51.59300 30.47400
H  28.52600 50.42800 31.80500
H  27.46600 51.90500 31.84700
H  24.67700 48.29900 30.99900
H  23.44400 49.38700 30.64900
H  24.16400 48.28100 33.07700
H  22.90900 49.38500 32.83300
H  30.16800 47.52000 28.67100
H  31.55300 47.94200 27.86000
H  30.73000 46.55200 27.25700
H  31.56900 46.25200 24.82500
H  32.36600 47.64100 25.71100
H  32.76300 47.46000 24.06700
H  27.05500 50.72000 21.42600
H  25.72800 53.29900 21.98600
H  28.91300 52.53200 22.81900
H  28.04100 53.54400 21.60100
H  28.92400 52.01600 21.23700
H  25.45700 51.19500 20.31200
H  24.32400 52.51300 20.39600
H  23.65300 50.54000 22.43500
H  24.08500 49.49600 21.11200
H  22.80000 50.62100 20.93800
H  20.67100 54.20500 25.83500
H  20.34400 52.80600 24.78100
H  21.50100 53.89500 24.18100
H  22.30100 51.04700 30.04000
H  21.91300 53.74000 33.28000
H  23.61400 53.67900 33.25400
H  22.82200 52.29800 34.08100

