158

Mg 2.05800 -2.26100 44.28300
C  5.35900 -1.35800 43.59900
C  0.94000 0.31400 42.32600
C  -0.99400 -3.71700 44.48600
C  3.38000 -5.37900 45.55200
N  3.12700 -0.80200 42.87000
C  4.43800 -0.46100 42.99400
C  4.74800 0.85000 42.32500
C  3.26100 1.45000 42.14300
C  2.36000 0.25600 42.40200
C  3.05000 2.62300 43.15300
C  5.60600 0.66400 41.04800
C  6.89400 1.52600 40.96000
H  7.29700 2.19900 39.58800
N  0.20800 -1.69400 43.57600
C  -0.09200 -0.57500 42.78400
C  -1.52900 -0.46500 42.54000
C  -2.10200 -1.60100 43.30700
C  -0.93200 -2.37800 43.89900
C  -2.27900 0.61900 41.87700
C  -3.61500 -1.87300 43.46500
O  -4.47700 -1.21100 42.85500
C  -4.11500 -3.04000 44.26300
N  1.26500 -4.23900 45.08500
C  -0.02800 -4.56800 45.02500
C  -0.24900 -6.10100 45.18800
C  1.16600 -6.65200 45.35000
C  2.01300 -5.31200 45.35100
C  -1.39400 -6.50500 46.25700
C  1.70800 -7.61000 44.26300
C  1.06700 -8.96400 44.20000
N  3.98200 -3.12800 44.86100
C  4.30600 -4.33800 45.35500
C  5.78300 -4.31300 45.54400
C  6.23100 -3.14700 44.99000
C  5.11500 -2.51500 44.43300
C  6.61000 -5.38700 46.22400
C  7.34200 -2.31100 44.74300
O  8.53700 -2.46000 45.02600
C  6.90800 -1.25100 43.70000
C  7.34000 0.07700 44.31200
O  6.96600 0.57700 45.34700
O  8.32900 0.59600 43.54200
C  8.81200 1.92800 43.93700
H  0.45000 1.18100 41.88000
H  -1.92500 -4.28700 44.44200
H  3.82400 -6.36600 45.70100
H  5.35200 1.39000 43.05400
H  3.01800 1.86500 41.16500
H  3.95300 3.19800 43.35900
H  2.74300 2.26700 44.13600
H  2.30600 3.27000 42.68800
H  4.92900 0.94600 40.24200
H  5.82200 -0.40500 41.02100
H  7.68900 0.82100 41.20500
H  6.88300 2.29700 41.73000
H  -2.74200 0.24500 40.96400
H  -1.60200 1.42800 41.60300
H  -3.07600 0.94400 42.54600
H  -5.17400 -2.96500 44.51000
H  -3.54400 -2.88700 45.17900
H  -3.99900 -3.90700 43.61200
H  -0.57600 -6.57800 44.26400
H  1.19100 -7.20300 46.29000
H  -2.11300 -5.69000 46.34200
H  -1.00300 -6.71600 47.25200
H  -2.00700 -7.24400 45.74100
H  2.74600 -7.81500 44.52600
H  1.59200 -7.07500 43.32100
H  0.65500 -8.93600 43.19100
H  0.19400 -9.02800 44.85000
H  1.77600 -9.77000 44.38700
H  5.95000 -5.70900 47.02900
H  7.52800 -4.98800 46.65600
H  6.69200 -6.17200 45.47200
H  7.45600 -1.59300 42.82200
H  9.86800 2.02400 43.68100
H  8.66900 2.27200 44.96100
H  8.35900 2.65800 43.26700
Mg -2.70300 34.71000 26.59100
C  -3.97900 32.85200 29.42200
C  -1.13000 36.70500 29.03300
C  -2.08500 36.80800 24.23300
C  -4.59900 32.69900 24.50700
N  -2.58400 34.77900 29.02400
C  -3.11800 33.85100 29.90900
C  -2.61900 34.06300 31.32000
C  -1.84600 35.37200 31.16600
C  -1.82900 35.67000 29.67900
C  -2.36600 36.52000 32.02200
C  -1.66100 32.89600 32.00500
C  -2.10400 32.33100 33.37200
H  -1.25400 32.24000 34.62700
N  -1.67200 36.50000 26.57700
C  -1.16200 37.17700 27.64900
C  -0.37200 38.28900 27.17700
C  -0.61300 38.29900 25.75000
C  -1.50700 37.18200 25.43300
C  0.62600 39.03000 28.06600
C  -0.26900 39.32600 24.69500
O  -0.59100 39.21900 23.52900
C  0.53200 40.48900 25.17100
N  -3.35700 34.80400 24.73700
C  -2.85000 35.74700 23.82500
C  -3.28000 35.51700 22.37000
C  -3.86200 34.08600 22.53100
C  -4.03000 33.87700 24.02200
C  -4.25600 36.65000 21.89200
C  -2.87600 33.00900 21.93600
C  -3.38500 32.08800 20.84100
N  -4.01900 33.11500 26.87000
C  -4.68000 32.33900 25.93200
C  -5.38800 31.28300 26.52500
C  -5.16400 31.46700 27.87500
C  -4.39400 32.63500 28.09800
C  -6.18900 30.22800 25.82300
C  -5.54400 30.93600 29.12300
O  -6.13900 29.96900 29.42600
C  -4.76500 31.75500 30.23700
C  -5.78700 32.43200 31.06200
O  -6.71600 33.02500 30.55400
O  -5.57700 32.25800 32.43900
C  -6.58400 32.87900 33.30900
H  -0.61800 37.36100 29.74000
H  -1.94900 37.47100 23.37600
H  -5.22300 32.01500 23.93000
H  -3.44200 34.21800 32.01700
H  -0.82200 35.21800 31.50600
H  -2.87400 36.23800 32.94400
H  -3.06000 37.13100 31.44400
H  -1.47400 37.03800 32.37200
H  -0.65700 33.30400 32.12300
H  -1.67800 32.05400 31.31200
H  -2.33500 31.29400 33.12800
H  -3.06000 32.76100 33.66800
H  0.23200 39.97100 28.45000
H  1.63500 39.17200 27.67700
H  0.86700 38.39300 28.91700
H  0.71000 41.04400 24.25000
H  1.41800 40.02200 25.59900
H  -0.13000 40.98200 25.88400
H  -2.44100 35.56000 21.67600
H  -4.88900 33.94200 22.19700
H  -4.56800 37.38600 22.63300
H  -5.23000 36.28500 21.56300
H  -3.85100 37.23200 21.06400
H  -2.55500 32.44800 22.81300
H  -1.91800 33.40700 21.60200
H  -3.76000 31.17200 21.29700
H  -2.56200 31.83300 20.17400
H  -4.24600 32.43700 20.27000
H  -5.75700 29.24300 26.00200
H  -6.26400 30.31300 24.73900
H  -7.18700 30.31100 26.25400
H  -4.14200 31.11100 30.85700
H  -7.41200 33.37900 32.80700
H  -6.08000 33.55800 33.99600
H  -7.04800 32.03200 33.81400

