158

Mg -2.28800 17.39500 24.90800
C  -2.60800 15.07800 27.64900
C  -3.22400 19.82900 27.08600
C  -1.87700 19.38800 22.49400
C  -2.14900 14.53600 22.77700
N  -2.69100 17.44700 27.19300
C  -2.76200 16.43600 28.04800
C  -3.32200 16.93200 29.39700
C  -4.04200 18.35200 29.01200
C  -3.31400 18.57300 27.63300
C  -5.57200 18.32500 28.77800
C  -2.31900 16.99400 30.55600
C  -2.62100 16.17600 31.92100
H  -1.44900 15.88800 32.82800
N  -2.32700 19.31500 24.85300
C  -2.77100 20.21800 25.77000
C  -2.56800 21.59700 25.32000
C  -2.15200 21.45300 24.00500
C  -2.06700 20.04900 23.73000
C  -2.85500 22.78500 26.19900
C  -1.90400 22.53000 22.90800
O  -1.74800 22.17800 21.72200
C  -1.88400 23.95000 23.44400
N  -2.13500 16.97600 22.83500
C  -1.89300 18.08500 22.04400
C  -1.85700 17.68400 20.58100
C  -1.99600 16.11600 20.66400
C  -2.06400 15.84600 22.17100
C  -2.82200 18.30200 19.61500
C  -0.71300 15.42800 20.03500
C  0.49400 15.26800 20.95100
N  -2.29600 15.26600 25.12100
C  -2.21400 14.27400 24.14600
C  -2.25800 12.91600 24.83400
C  -2.35800 13.19600 26.18500
C  -2.33000 14.61300 26.32600
C  -2.25000 11.70800 24.16300
C  -2.49700 12.56600 27.44800
O  -2.53800 11.38300 27.66000
C  -2.67100 13.75300 28.47500
C  -1.65500 13.69200 29.49300
O  -0.50100 14.17600 29.48400
O  -2.22700 12.92400 30.47900
C  -1.35900 12.45700 31.56800
H  -3.67600 20.58200 27.73600
H  -1.82500 20.05300 21.62900
H  -1.98800 13.72500 22.06400
H  -4.07700 16.22800 29.74700
H  -3.87700 19.18100 29.70000
H  -6.08600 19.12000 29.31900
H  -5.97400 17.46000 29.30600
H  -5.84000 18.11700 27.74200
H  -1.99800 17.96100 30.94200
H  -1.43400 16.51900 30.13300
H  -3.11200 15.25900 31.59500
H  -3.34700 16.81700 32.42200
H  -2.12300 23.58500 26.08100
H  -2.93400 22.55000 27.26000
H  -3.82400 23.23700 25.99000
H  -1.52000 24.66200 22.70200
H  -1.14200 24.06200 24.23400
H  -2.86400 24.21300 23.84200
H  -0.87300 17.99300 20.22700
H  -2.97100 15.75400 20.33900
H  -3.38700 19.10600 20.08700
H  -3.52200 17.55200 19.24600
H  -2.34900 18.67700 18.70700
H  -0.45700 16.05300 19.17900
H  -1.13000 14.47000 19.72400
H  0.34500 15.80500 21.88800
H  1.32300 15.70000 20.39100
H  0.57200 14.20200 21.16200
H  -2.33400 11.94800 23.10300
H  -3.13400 11.17200 24.50900
H  -1.32400 11.18600 24.40100
H  -3.61800 13.62400 28.99900
H  -1.36900 11.36900 31.50200
H  -1.79400 12.87000 32.47800
H  -0.30900 12.73100 31.46300
Mg -11.34100 18.01200 42.60600
C  -8.15200 16.51000 41.92000
C  -9.74500 21.02100 41.81100
C  -14.28300 19.38000 42.47100
C  -12.80600 14.84200 42.49800
N  -9.26800 18.57500 41.87700
C  -8.14000 17.86300 41.67700
C  -6.86100 18.66900 41.29000
C  -7.39900 20.08100 41.66500
C  -8.90400 19.90000 41.87900
C  -6.73200 20.98000 42.71800
C  -6.49100 18.43300 39.82800
C  -4.94400 18.42600 39.52900
H  -4.28400 18.80500 38.23800
N  -11.91200 20.02100 42.42200
C  -11.17900 21.10900 41.99700
C  -12.09500 22.18700 41.68300
C  -13.42900 21.80900 42.04000
C  -13.30700 20.34300 42.36600
C  -11.58000 23.49100 41.13300
C  -14.61000 22.70800 42.11900
O  -14.49100 23.92400 42.08700
C  -15.97500 22.18300 42.57600
N  -13.31600 17.17800 42.43000
C  -14.32600 17.99100 42.60800
C  -15.58800 17.26300 42.67700
C  -15.14400 15.75300 42.73800
C  -13.63600 15.88600 42.35000
C  -16.46300 17.60100 43.94900
C  -15.92500 14.71500 41.89900
C  -15.78900 14.81700 40.36800
N  -10.67200 16.03000 42.36300
C  -11.37200 14.87200 42.34100
C  -10.47500 13.71100 42.22600
C  -9.20200 14.33800 42.11700
C  -9.35300 15.74500 42.11900
C  -10.88300 12.26700 42.11300
C  -7.79800 14.05600 42.12600
O  -7.21900 13.00900 42.14000
C  -7.06400 15.49800 41.72100
C  -5.92600 15.66900 42.74700
O  -4.71700 15.75100 42.52900
O  -6.49300 15.91000 43.91400
C  -5.59800 16.45000 44.93800
H  -9.13300 21.87200 41.50500
H  -15.31300 19.71700 42.34100
H  -13.27900 13.86000 42.56500
H  -6.05700 18.38500 41.96900
H  -7.38900 20.73200 40.79100
H  -7.43600 21.37000 43.45300
H  -6.28700 21.87300 42.27800
H  -5.94000 20.36300 43.14200
H  -6.84600 19.13500 39.07400
H  -6.90800 17.53800 39.36700
H  -4.44600 17.51700 39.86800
H  -4.58200 19.17400 40.23500
H  -12.40200 23.77200 40.47400
H  -10.73700 23.48600 40.44200
H  -11.44300 24.29300 41.85800
H  -16.50500 21.61500 41.81300
H  -16.52400 23.09100 42.82900
H  -15.77500 21.69900 43.53200
H  -16.29100 17.32400 41.84600
H  -15.22100 15.55600 43.80700
H  -16.64000 16.77500 44.63900
H  -17.38500 18.13100 43.70800
H  -15.87800 18.26100 44.58900
H  -16.99400 14.74000 42.11200
H  -15.62400 13.72800 42.25000
H  -15.22800 13.98600 39.94100
H  -15.19800 15.70800 40.15700
H  -16.78500 14.88400 39.93000
H  -10.17800 11.55000 42.53200
H  -10.88300 12.14200 41.03000
H  -11.93800 12.21800 42.38400
H  -6.65400 15.50400 40.71100
H  -6.27900 16.60900 45.77400
H  -5.31100 17.44200 44.58900
H  -4.82400 15.81400 45.36600

