158

Mg 36.10700 49.25200 25.37200
C  36.37400 47.45000 28.33600
C  34.71800 51.92000 27.19000
C  35.65100 50.84800 22.55400
C  37.28200 46.46600 23.63900
N  35.46100 49.54100 27.45800
C  35.83700 48.73800 28.50200
C  35.61300 49.46600 29.79800
C  34.95400 50.83300 29.45800
C  35.11000 50.77600 27.95800
C  33.49400 51.04000 29.89900
C  36.96200 49.78800 30.53100
C  36.82800 50.06400 32.07600
H  35.41300 50.06000 32.79500
N  35.16200 51.09600 24.90800
C  34.68800 52.09500 25.77600
C  34.26900 53.28400 25.07000
C  34.52600 52.98800 23.68000
C  35.11600 51.62300 23.65100
C  33.78700 54.63400 25.72400
C  34.19500 53.74500 22.45000
O  34.41000 53.29500 21.36300
C  33.40600 55.08900 22.47900
N  36.27800 48.70200 23.37700
C  36.09700 49.57200 22.38100
C  36.39000 48.92000 20.95600
C  37.15700 47.63900 21.38100
C  36.90500 47.57100 22.89700
C  35.08700 48.60700 20.17800
C  38.61500 47.59900 20.86300
C  39.60400 48.51500 21.64400
N  36.61400 47.27100 25.81000
C  37.22400 46.27300 25.04300
C  37.47100 45.07600 25.84600
C  37.22200 45.57500 27.17800
C  36.72700 46.91100 27.10500
C  37.92600 43.72200 25.56800
C  37.28200 45.18200 28.54600
O  37.73900 44.12100 28.99100
C  36.71000 46.37000 29.39500
C  35.33500 45.92200 29.81800
O  34.44700 45.42600 29.16100
O  35.33600 46.09000 31.20700
C  34.24000 45.55300 31.96100
H  34.38200 52.79000 27.75800
H  35.56600 51.40000 21.61600
H  37.92300 45.78200 23.07800
H  34.89600 48.93800 30.42700
H  35.56300 51.66900 29.80300
H  32.75200 51.19100 29.11400
H  33.51400 51.98000 30.45100
H  33.09900 50.21600 30.49300
H  37.50500 50.61100 30.06700
H  37.62200 48.92700 30.42300
H  37.28200 51.04200 32.23800
H  37.41500 49.35600 32.66100
H  34.40100 55.49200 25.45000
H  33.81100 54.55600 26.81100
H  32.74900 54.83800 25.46200
H  33.34300 55.46600 21.45800
H  33.95900 55.86100 23.01300
H  32.40400 54.93100 22.87900
H  36.99600 49.65500 20.42500
H  36.59000 46.82800 20.92400
H  34.20400 48.85400 20.76600
H  35.08300 47.57300 19.83200
H  35.08100 49.40100 19.43100
H  38.45200 47.81300 19.80600
H  38.91800 46.55200 20.88300
H  40.13700 47.79900 22.27000
H  39.04300 49.20000 22.27900
H  40.27600 49.04200 20.96600
H  38.56100 43.75700 24.68300
H  37.06100 43.08200 25.39500
H  38.48300 43.30900 26.40900
H  37.42700 46.58200 30.18800
H  33.57700 46.38600 32.19600
H  34.47000 45.08100 32.91600
H  33.66500 44.88700 31.31700
Mg 26.68000 50.14000 26.97000
C  24.74500 51.29100 29.61300
C  29.10700 49.10600 29.16400
C  28.78300 49.29200 24.31100
C  24.35400 51.34600 24.71700
N  26.87100 50.28700 29.16800
C  25.99000 50.78000 30.04000
C  26.43000 50.44000 31.52700
C  27.88900 49.96800 31.33400
C  27.99500 49.77800 29.79700
C  29.01700 50.82900 31.86000
C  25.46500 49.38800 32.18500
C  24.54200 50.10000 33.22400
H  24.40700 49.63400 34.74600
N  28.55100 49.17900 26.76100
C  29.43100 48.83000 27.79000
C  30.71300 48.33700 27.28700
C  30.70400 48.46100 25.87500
C  29.24400 49.02000 25.58900
C  31.74700 47.72900 28.11000
C  31.78800 48.18300 24.94800
O  31.59400 48.08700 23.70200
C  33.16400 48.04600 25.49000
N  26.59000 50.32100 24.77600
C  27.52100 49.83500 23.93000
C  27.02200 49.85700 22.42600
C  25.51600 50.38800 22.59200
C  25.42300 50.60000 24.12000
C  27.91800 50.60900 21.44600
C  24.40100 49.36000 22.14000
C  24.17900 48.08700 22.97600
N  24.93300 51.17900 27.09400
C  24.10100 51.64000 26.11600
C  22.93600 52.20300 26.71800
C  23.11100 52.06100 28.14000
C  24.35500 51.40200 28.30000
C  21.85200 52.78800 25.98700
C  22.53800 52.40100 29.42000
O  21.54800 53.04400 29.68100
C  23.57300 51.86400 30.44900
C  23.86000 52.94300 31.38600
O  24.86000 53.63800 31.34400
O  22.86300 53.17800 32.28300
C  23.23100 54.29500 33.24000
H  29.94600 48.94200 29.84300
H  29.38100 48.94300 23.46700
H  23.62000 51.63100 23.96000
H  26.43000 51.35200 32.12300
H  28.01200 48.98900 31.79600
H  29.82000 50.09200 31.88400
H  29.01700 51.28900 32.84800
H  29.11400 51.62500 31.12100
H  26.11900 48.62000 32.59800
H  24.86100 48.86700 31.44200
H  23.56900 49.92400 32.76600
H  24.64100 51.18500 33.26800
H  31.32000 47.53000 29.09300
H  32.49400 48.51700 28.21100
H  32.33200 46.90000 27.71200
H  33.25100 48.77500 26.29500
H  33.85900 48.08000 24.65000
H  33.13200 47.02200 25.86200
H  26.95100 48.83600 22.05100
H  25.47600 51.33200 22.04800
H  27.39400 51.39100 20.89700
H  28.33500 49.82800 20.81000
H  28.77100 50.97900 22.01500
H  24.63200 49.00900 21.13400
H  23.46600 49.90600 22.01200
H  23.16600 48.17100 23.37000
H  24.74500 47.93500 23.89500
H  24.28000 47.17400 22.38900
H  21.80200 52.45100 24.95200
H  22.02400 53.85900 26.09900
H  20.98300 52.48700 26.57200
H  23.02300 51.14800 31.05900
H  23.51300 55.16800 32.65200
H  24.13300 54.03800 33.79500
H  22.30700 54.54100 33.76400

