158

Mg 46.52600 16.83500 28.32900
C  44.51000 16.87600 31.11600
C  49.03700 18.33000 30.25000
C  48.42600 17.45500 25.44000
C  43.89700 15.74500 26.41200
N  46.69300 17.62100 30.33800
C  45.82400 17.38700 31.38100
C  46.29200 17.63700 32.76300
C  47.65200 18.35300 32.42600
C  47.82700 18.10700 30.87000
C  47.73800 19.91200 32.76400
C  46.26500 16.31100 33.64600
C  45.39700 16.30700 34.88800
H  45.12800 17.67300 35.50500
N  48.50400 17.65000 27.84900
C  49.32800 18.18300 28.81600
C  50.62500 18.55000 28.13500
C  50.50100 18.30700 26.78100
C  49.09600 17.78300 26.59400
C  51.76800 19.34200 28.87600
C  51.48300 18.55200 25.59200
O  51.19100 18.29800 24.43800
C  52.84500 19.11100 25.88800
N  46.20200 16.63400 26.22900
C  47.09300 16.94700 25.22700
C  46.52400 16.73100 23.84300
C  45.16700 16.13200 24.18400
C  45.12300 16.03000 25.72300
C  46.41600 18.02200 22.97800
C  44.96200 14.80600 23.40500
C  45.52300 13.52100 23.88900
N  44.68800 16.30100 28.66000
C  43.81000 15.79200 27.82900
C  42.62900 15.33600 28.56100
C  42.79600 15.86200 29.86800
C  44.07300 16.38700 29.86500
C  41.49100 14.59300 28.06500
C  42.14600 16.02400 31.10600
O  40.99900 15.63200 31.44000
C  43.22800 16.69200 31.99400
C  42.60100 17.90400 32.65000
O  42.52400 19.07400 32.23600
O  41.98200 17.48300 33.84900
C  41.06900 18.44400 34.50000
H  49.84000 18.79800 30.82400
H  48.79300 17.79800 24.47000
H  43.08800 15.31300 25.81900
H  45.54000 18.26500 33.24100
H  48.55300 17.93600 32.87600
H  46.82300 20.19600 33.28400
H  47.63400 20.50600 31.85600
H  48.63700 20.16200 33.32800
H  47.25600 16.21700 34.09000
H  45.94900 15.43700 33.07800
H  45.90400 15.74300 35.67100
H  44.46600 15.75000 34.77700
H  52.75600 18.91800 28.69800
H  51.54000 19.26900 29.93900
H  51.67100 20.40200 28.64100
H  53.28400 18.51000 26.68500
H  52.71000 20.15300 26.17700
H  53.43300 19.17900 24.97300
H  47.16300 15.99300 23.35800
H  44.35600 16.78200 23.85700
H  45.45100 18.52600 23.03600
H  46.53000 17.74400 21.93100
H  47.18200 18.77200 23.17800
H  45.44100 14.97800 22.44200
H  43.89800 14.71300 23.18900
H  46.25400 13.08700 23.20700
H  44.67000 12.84900 23.98100
H  46.08600 13.56700 24.82200
H  41.29300 13.82700 28.81500
H  41.60900 14.15900 27.07200
H  40.65300 15.28600 27.99000
H  43.50700 15.95900 32.75100
H  40.14300 18.54400 33.93500
H  41.54700 19.42400 34.48900
H  40.87000 18.14500 35.52900
Mg 27.89200 51.02000 26.36400
C  25.85100 52.07100 28.94900
C  30.23400 50.04600 28.63600
C  29.78900 49.99700 23.80900
C  25.50300 52.27500 24.16800
N  27.99600 51.11000 28.50100
C  27.04700 51.55000 29.43900
C  27.51500 51.25000 30.86100
C  28.99200 50.88800 30.63900
C  29.04900 50.57500 29.12300
C  30.01400 51.88200 31.25000
C  26.73500 50.13100 31.57900
C  26.14500 50.39000 32.94600
H  25.71900 49.15200 33.80400
N  29.77300 50.11200 26.25600
C  30.57700 49.77700 27.31800
C  31.85500 49.34700 26.76900
C  31.73500 49.42200 25.34500
C  30.42000 49.92600 25.07300
C  32.99400 48.96900 27.63300
C  32.80700 49.13000 24.32600
O  32.55400 49.14000 23.13700
C  34.18200 48.65500 24.78400
N  27.66800 51.12900 24.26100
C  28.51300 50.47400 23.45700
C  27.96800 50.42400 22.03300
C  26.53400 50.99200 22.19000
C  26.54400 51.51800 23.62000
C  28.89900 51.20000 21.04600
C  25.34200 49.98500 21.96900
C  24.22900 50.60100 21.09700
N  26.06800 51.99700 26.46000
C  25.16900 52.41200 25.49000
C  24.01600 53.00300 26.04100
C  24.25200 52.84600 27.40600
C  25.52200 52.23500 27.62500
C  22.82500 53.71900 25.30600
C  23.64300 53.12700 28.68700
O  22.61400 53.71800 29.02900
C  24.69400 52.63200 29.76300
C  24.98300 53.78300 30.67200
O  26.02200 54.41700 30.65200
O  23.96900 53.80200 31.70000
C  24.20000 54.92300 32.61200
H  30.94800 49.67700 29.37500
H  30.28300 49.52200 22.95900
H  24.67600 52.45300 23.47700
H  27.27300 52.09200 31.50900
H  29.20600 49.89100 31.02700
H  30.76000 51.31500 31.80800
H  29.56900 52.53800 31.99800
H  30.44100 52.58900 30.53800
H  27.37400 49.25600 31.70100
H  25.92400 49.74100 30.96400
H  25.16900 50.85800 32.82200
H  26.82300 51.00900 33.53400
H  33.21200 47.92600 27.40100
H  32.62700 49.00300 28.65800
H  33.83200 49.66700 27.61500
H  34.83800 48.73100 23.91700
H  34.00800 47.61600 25.06500
H  34.63000 49.19400 25.61900
H  27.88800 49.38900 21.70200
H  26.51600 51.90800 21.59900
H  28.39300 52.14800 20.86600
H  29.05600 50.69100 20.09500
H  29.81400 51.35700 21.61700
H  24.89800 49.72100 22.92900
H  25.60900 49.02600 21.52400
H  24.51800 50.36000 20.07400
H  24.17300 51.68800 21.16700
H  23.24300 50.24900 21.39900
H  22.32100 54.47500 25.90900
H  22.16500 52.91100 24.98900
H  23.18600 54.25300 24.42700
H  24.29000 51.87000 30.42900
H  23.23900 55.00700 33.11900
H  24.62300 55.80200 32.12500
H  25.02000 54.70100 33.29500

