158

Mg 30.14800 59.09700 40.87600
C  27.23100 57.50300 39.73200
C  32.02500 56.54200 39.94000
C  32.90300 61.07900 41.28200
C  28.20700 61.93200 41.66300
N  29.69200 57.24300 39.82100
C  28.40400 56.82300 39.41900
C  28.53000 55.46000 38.71300
C  30.02300 54.97200 39.03200
C  30.64100 56.27300 39.59800
C  30.06500 53.81300 40.15300
C  28.29900 55.40600 37.17500
C  27.29200 54.37400 36.75700
H  26.28800 54.73400 35.59400
N  32.14000 58.78400 40.75800
C  32.74000 57.60700 40.48800
C  34.12400 57.64200 40.76400
C  34.42200 58.90900 41.22400
C  33.11400 59.66900 41.11800
C  35.06100 56.55300 40.25900
C  35.77900 59.40400 41.61500
O  36.78100 58.72100 41.38500
C  35.94000 60.75800 42.16300
N  30.54300 61.17900 41.47800
C  31.74800 61.80700 41.39500
C  31.73700 63.37300 41.45900
C  30.24000 63.56800 41.90200
C  29.58200 62.16000 41.70400
C  32.90000 64.00900 42.36500
C  29.51900 64.78100 41.24100
C  29.31600 66.05200 42.07600
N  28.13000 59.59200 40.90200
C  27.48600 60.76500 41.26300
C  26.05300 60.64300 40.93500
C  25.87500 59.35400 40.39500
C  27.17100 58.78300 40.42700
C  25.04000 61.69700 41.27600
C  24.94100 58.40500 39.82900
O  23.73000 58.50900 39.69300
C  25.74400 57.16800 39.49700
C  25.45300 56.06700 40.36900
O  25.84400 55.95300 41.51400
O  24.55500 55.22500 39.72400
C  23.92400 54.22500 40.61800
H  32.63200 55.65200 39.76300
H  33.85200 61.60800 41.39100
H  27.68200 62.86800 41.86800
H  27.89200 54.74900 39.23800
H  30.48200 54.52200 38.15200
H  30.50700 54.16900 41.08300
H  30.71300 53.07800 39.67600
H  29.11900 53.31900 40.37600
H  29.20700 55.27900 36.58600
H  27.85700 56.39100 37.02700
H  26.70800 54.04200 37.61600
H  27.89100 53.53600 36.40100
H  34.65000 55.84400 39.54000
H  35.27200 55.93700 41.13300
H  35.95100 56.90500 39.73900
H  36.86600 60.75100 42.73600
H  35.19500 61.16400 42.84800
H  36.09500 61.51000 41.38900
H  31.85800 63.69000 40.42400
H  30.24500 63.69100 42.98500
H  33.54800 64.52600 41.65700
H  33.48400 63.28900 42.93800
H  32.51000 64.70900 43.10400
H  28.57700 64.52100 40.75800
H  30.12100 65.08900 40.38700
H  29.54300 65.94100 43.13700
H  28.31900 66.48000 41.97200
H  30.05400 66.77400 41.72400
H  24.14700 61.09700 41.45000
H  24.86900 62.35300 40.42200
H  25.25700 62.38700 42.09100
H  25.66700 56.91100 38.44000
H  24.70300 53.54200 40.95600
H  23.21800 53.53500 40.15600
H  23.40900 54.69300 41.45700
Mg 35.90900 49.69200 26.01200
C  35.77000 47.96200 29.02200
C  34.74600 52.43400 27.56200
C  35.62800 51.13900 22.95800
C  36.71800 46.66300 24.44300
N  35.33500 50.07900 28.06000
C  35.42400 49.32500 29.22500
C  35.07000 50.04300 30.53200
C  34.59100 51.41000 29.94500
C  34.89800 51.33700 28.37400
C  33.14100 51.84000 30.38000
C  36.19400 50.04100 31.56300
C  35.84300 49.89800 32.96300
H  34.36100 50.10000 33.51100
N  35.31100 51.50300 25.32600
C  34.94800 52.54300 26.20400
C  34.79600 53.71800 25.40500
C  34.89100 53.36500 24.04300
C  35.26800 51.91500 24.05200
C  34.51800 55.14800 25.90900
C  34.45300 54.17700 22.86600
O  34.47600 53.74100 21.68700
C  34.06500 55.59400 23.09300
N  36.08800 48.90300 24.02500
C  35.93700 49.73700 22.89800
C  36.22400 49.01200 21.62500
C  36.72800 47.67000 22.16200
C  36.51900 47.77100 23.66300
C  34.99900 48.95400 20.68100
C  38.19500 47.33800 21.78600
C  39.31600 47.91100 22.72100
N  36.24600 47.67300 26.58400
C  36.59500 46.53300 25.86400
C  36.64000 45.47400 26.73000
C  36.35700 45.95200 27.98500
C  36.06400 47.31000 27.85400
C  37.06900 43.99900 26.39600
C  36.24000 45.57500 29.40600
O  36.47000 44.50200 29.93500
C  35.73900 46.89600 30.09900
C  34.43900 46.53300 30.66100
O  33.42700 46.50800 30.00900
O  34.57300 46.12700 31.99200
C  33.38400 45.69200 32.75600
H  34.40000 53.32900 28.08500
H  35.59600 51.67400 22.00600
H  37.02800 45.78900 23.86700
H  34.24800 49.48100 30.97700
H  35.25100 52.21200 30.27500
H  32.61300 50.93100 30.66700
H  32.69300 52.17000 29.44300
H  33.12700 52.65300 31.10700
H  36.71800 50.98400 31.40600
H  37.00900 49.32700 31.44100
H  36.45800 50.67000 33.42600
H  36.26300 48.95400 33.31000
H  34.75000 55.05700 26.97100
H  33.47400 55.45500 25.83700
H  35.23700 55.89000 25.56300
H  33.81400 56.01200 22.11800
H  34.84400 56.30000 23.37900
H  33.17200 55.61800 23.71800
H  37.06700 49.56000 21.20300
H  36.16200 46.81600 21.78900
H  34.22500 49.55100 21.16300
H  34.60300 47.95200 20.51900
H  35.20800 49.51600 19.77100
H  38.58100 47.67200 20.82300
H  38.34600 46.26400 21.67600
H  40.10600 48.43600 22.18300
H  39.77800 47.13200 23.32800
H  38.90500 48.60700 23.45200
H  36.21200 43.33900 26.26300
H  37.73400 43.62100 27.17200
H  37.39800 43.89500 25.36100
H  36.50300 47.14900 30.83300
H  33.67300 45.69800 33.80700
H  33.05100 44.70000 32.44900
H  32.48600 46.28000 32.56600

