158

Mg 9.08900 3.92200 27.59000
C  10.44600 2.42900 30.31600
C  7.36900 6.20600 29.68500
C  8.22400 5.72900 24.92500
C  10.51500 1.52400 25.54200
N  8.73600 4.08300 29.73800
C  9.56300 3.46900 30.71300
C  9.19700 3.96400 32.12400
C  8.13500 5.10800 31.88600
C  8.00500 5.14500 30.31900
C  6.77600 4.83400 32.59900
C  10.42100 4.45600 33.03500
C  10.05900 5.11500 34.31000
H  10.44500 4.46400 35.65200
N  7.93500 5.68700 27.31600
C  7.29600 6.41700 28.24200
C  6.61100 7.59200 27.61500
C  6.96500 7.52200 26.25300
C  7.75900 6.29400 26.13900
C  5.78600 8.66600 28.34900
C  6.73600 8.57000 25.10200
O  7.02000 8.31400 23.95500
C  6.02400 9.84900 25.35100
N  9.20700 3.60400 25.48400
C  8.83700 4.51200 24.57100
C  8.98100 3.98200 23.16700
C  9.69400 2.63000 23.37900
C  9.90800 2.60600 24.89100
C  7.66000 4.04200 22.39500
C  11.06300 2.36700 22.60600
C  11.09300 1.14400 21.69500
N  10.28200 2.23100 27.78000
C  10.82500 1.37500 26.91300
C  11.75800 0.49500 27.62600
C  11.64300 0.82300 28.93000
C  10.75500 1.97700 28.98300
C  12.58000 -0.60900 26.92800
C  12.02900 0.49600 30.24400
O  12.75100 -0.38800 30.60600
C  11.32200 1.50000 31.18300
C  10.55000 0.93700 32.23800
O  9.34400 0.65800 32.18400
O  11.40800 0.66000 33.27500
C  10.75900 0.43700 34.51100
H  6.92200 7.10400 30.11600
H  7.76300 6.21500 24.06200
H  11.06700 0.85700 24.87600
H  8.82800 3.07700 32.63800
H  8.54400 5.98600 32.38700
H  5.96600 4.79800 31.86900
H  6.70500 5.69900 33.25700
H  6.86500 3.90300 33.15900
H  10.98400 5.05300 32.31700
H  11.18500 3.71000 33.25300
H  8.97700 5.21500 34.39600
H  10.59200 6.05200 34.14600
H  6.09700 9.68600 28.12100
H  5.90100 8.60000 29.43100
H  4.70600 8.53900 28.27700
H  5.90800 10.27100 24.35300
H  6.67500 10.51200 25.92200
H  5.06100 9.76400 25.85600
H  9.61600 4.64700 22.58200
H  8.91600 1.92800 23.07800
H  7.62800 4.79500 21.60800
H  6.77400 4.21500 23.00500
H  7.55100 3.11200 21.83700
H  11.93100 2.21400 23.24700
H  11.21000 3.27600 22.02200
H  11.94400 1.23900 21.02100
H  10.21500 0.97300 21.07200
H  11.23100 0.25300 22.30700
H  11.87800 -1.30600 26.47000
H  13.21100 -1.19100 27.60000
H  13.07500 -0.05900 26.12800
H  12.11800 2.13900 31.56400
H  11.27300 1.07000 35.23500
H  10.96600 -0.60900 34.73700
H  9.71500 0.72700 34.62800
Mg 9.25000 48.08700 24.69800
C  7.00900 48.88600 27.43600
C  11.79800 49.28900 26.78200
C  11.46700 47.48800 22.24900
C  6.52700 47.57500 22.67800
N  9.35000 48.79900 26.86400
C  8.33900 48.99900 27.77400
C  8.80100 49.54000 29.11700
C  10.13500 50.16600 28.58600
C  10.48700 49.31300 27.36300
C  10.05700 51.65100 28.23800
C  8.98000 48.42900 30.20200
C  8.84300 48.84300 31.65900
H  8.14400 47.86000 32.62500
N  11.33100 48.28100 24.57200
C  12.20800 48.78400 25.54000
C  13.60600 48.61100 25.11700
C  13.46000 48.04400 23.78200
C  12.06600 47.92000 23.47800
C  14.75600 48.93600 25.94800
C  14.57800 47.68900 22.83900
O  14.38600 47.22300 21.74100
C  15.92800 47.95700 23.31800
N  9.02600 47.71600 22.74500
C  10.12700 47.52400 21.90000
C  9.69300 47.00500 20.58200
C  8.10400 46.99200 20.57600
C  7.83600 47.46300 22.09100
C  10.14600 47.87800 19.38000
C  7.47100 45.64200 20.14800
C  7.32400 45.55400 18.57900
N  7.23200 48.17200 24.91900
C  6.23900 48.06700 23.99900
C  4.96800 48.38600 24.48700
C  5.16800 48.59200 25.84900
C  6.54700 48.51100 26.13900
C  3.69900 48.19800 23.74900
C  4.50900 48.85000 27.16300
O  3.29700 48.83200 27.45500
C  5.73300 49.18900 28.15400
C  5.50100 48.46900 29.38500
O  5.74900 47.32400 29.63900
O  4.84300 49.35500 30.23900
C  4.58100 48.84100 31.58800
H  12.59400 49.80300 27.32500
H  12.10100 47.24900 21.39200
H  5.64700 47.32800 22.08000
H  8.10900 50.29100 29.49900
H  10.89000 49.95900 29.34400
H  9.18400 52.19400 28.60100
H  9.87300 51.77900 27.17100
H  10.87400 52.24700 28.64400
H  10.00300 48.08900 30.04700
H  8.38400 47.52000 30.12000
H  8.56000 49.86200 31.92300
H  9.86300 48.85200 32.04300
H  14.44400 48.89500 26.99200
H  15.15800 49.89300 25.61700
H  15.45700 48.10700 25.84600
H  16.04800 48.91900 23.81600
H  16.74300 47.97600 22.59400
H  16.06900 47.17200 24.06100
H  10.19400 46.05400 20.40500
H  7.71800 47.80800 19.96500
H  9.35800 48.37300 18.81300
H  10.79800 47.38400 18.65900
H  10.72900 48.73200 19.72500
H  6.49900 45.51400 20.62600
H  8.17000 44.93100 20.58800
H  7.78500 46.42700 18.11800
H  6.27000 45.40000 18.34700
H  7.83900 44.66100 18.22600
H  3.52800 47.14400 23.52900
H  3.73200 48.79800 22.83900
H  2.95000 48.68000 24.37800
H  5.56600 50.24900 28.34600
H  3.50400 48.93100 31.72900
H  4.87900 49.61800 32.29200
H  4.94300 47.89600 31.99300

