158

Mg 16.90600 -1.59400 28.26300
C  15.50400 0.27400 30.99500
C  19.00600 -3.16300 30.61300
C  18.17200 -3.29200 25.78900
C  14.97900 0.32600 26.13000
N  17.26300 -1.37700 30.62000
C  16.56600 -0.57800 31.52600
C  17.07000 -0.85000 32.98600
C  18.34000 -1.68700 32.70300
C  18.13300 -2.18200 31.21100
C  19.70300 -1.07700 33.06400
C  15.93800 -1.64200 33.78300
C  16.08300 -1.70300 35.38600
H  17.15900 -0.82000 36.14400
N  18.31100 -3.11200 28.19100
C  19.07500 -3.63400 29.25800
C  19.87700 -4.71200 28.70700
C  19.64400 -4.77800 27.31000
C  18.65900 -3.72600 27.06100
C  20.77000 -5.54800 29.55900
C  20.21300 -5.65200 26.15600
O  19.70100 -5.67600 24.99000
C  21.32600 -6.65200 26.40600
N  16.63000 -1.45100 26.19300
C  17.31700 -2.22200 25.38200
C  16.95700 -2.03600 23.89500
C  15.88500 -0.85300 24.04500
C  15.77300 -0.60200 25.54600
C  18.18100 -1.63900 22.90800
C  14.54100 -1.21900 23.29700
C  14.47500 -0.81500 21.83600
N  15.60900 0.00700 28.40000
C  14.81500 0.62500 27.44700
C  13.88900 1.54700 28.06700
C  14.17900 1.39100 29.43800
C  15.17600 0.46300 29.59400
C  12.96800 2.55700 27.47900
C  13.76500 1.89600 30.78000
O  12.90600 2.72600 31.06200
C  14.67600 1.22800 31.84200
C  15.47100 2.30300 32.49000
O  16.06900 3.22400 31.89000
O  15.33900 2.33400 33.82300
C  16.13100 3.30900 34.59600
H  19.67700 -3.62800 31.33800
H  18.38300 -3.86800 24.88500
H  14.38000 1.02400 25.54100
H  17.29700 0.09500 33.48000
H  18.28700 -2.63800 33.23300
H  20.35800 -1.11700 32.19400
H  20.16900 -1.65400 33.86300
H  19.46100 -0.08900 33.45600
H  15.89800 -2.65000 33.37000
H  14.95500 -1.20300 33.60800
H  16.28400 -2.74700 35.62400
H  15.19900 -1.46400 35.97800
H  21.75200 -5.16000 29.28900
H  20.57700 -6.55600 29.19400
H  20.58400 -5.43500 30.62800
H  21.60900 -7.05200 25.43200
H  20.90500 -7.44200 27.02800
H  22.10000 -6.01600 26.83300
H  16.45700 -2.92100 23.50100
H  16.21100 0.09300 23.61300
H  17.90100 -0.88800 22.17000
H  18.49600 -2.56600 22.42900
H  18.96700 -1.18300 23.51100
H  13.64200 -0.78500 23.73500
H  14.46000 -2.30400 23.36600
H  13.52800 -0.32600 21.60700
H  14.55000 -1.68100 21.17900
H  15.33700 -0.22100 21.53200
H  12.95400 2.41000 26.39900
H  13.44300 3.51000 27.71200
H  11.96100 2.52500 27.89400
H  14.05400 0.81100 32.63500
H  17.11700 3.48800 34.16600
H  16.18600 3.01000 35.64300
H  15.53600 4.21400 34.71600
Mg 41.25900 40.95600 27.33600
C  40.95000 43.51600 29.67600
C  42.52200 38.94300 29.88100
C  42.24500 38.70100 24.96600
C  40.42600 43.16100 24.79500
N  41.82200 41.31200 29.53500
C  41.45600 42.36700 30.26600
C  41.55400 42.12800 31.74800
C  42.25500 40.68800 31.85700
C  42.19900 40.27700 30.37200
C  43.66300 40.65000 32.44500
C  40.20500 42.11100 32.48300
C  40.11200 43.12000 33.73900
H  39.45400 42.62600 35.01600
N  42.33300 39.13800 27.36600
C  42.67100 38.46900 28.53400
C  43.27400 37.21100 28.21900
C  43.12800 37.08500 26.80600
C  42.52300 38.35200 26.30200
C  43.81400 36.22100 29.27500
C  43.54800 35.97700 25.91500
O  43.43400 36.06700 24.72400
C  44.07200 34.69200 26.43500
N  41.58200 41.03800 25.20400
C  42.00000 39.98600 24.40600
C  41.68100 40.12600 22.92200
C  40.93500 41.49800 22.95800
C  40.87800 41.89400 24.45400
C  42.96900 39.99500 21.94500
C  39.61300 41.42900 22.29000
C  38.38800 41.14200 23.19500
N  40.83200 42.90800 27.15200
C  40.45900 43.67300 26.10900
C  40.17000 44.98300 26.55900
C  40.25100 44.94000 27.98400
C  40.78100 43.68200 28.29100
C  40.00400 46.16000 25.52200
C  40.19200 45.74000 29.12800
O  39.86200 46.88700 29.27300
C  40.62200 44.79300 30.31500
C  41.70400 45.59800 31.02000
O  42.56300 46.26200 30.41900
O  41.46800 45.76100 32.35200
C  41.97500 47.02000 32.93300
H  42.82100 38.40200 30.78100
H  42.32800 38.00100 24.13100
H  40.02900 43.82100 24.02100
H  42.26600 42.89300 32.05900
H  41.72900 39.92300 32.42800
H  43.77700 39.76700 33.07400
H  43.80000 41.56300 33.02400
H  44.41600 40.69100 31.65700
H  39.89300 41.13600 32.85700
H  39.39800 42.38500 31.80400
H  39.52000 43.96800 33.39300
H  41.11200 43.48700 33.96800
H  43.60100 35.15900 29.15600
H  43.55500 36.43300 30.31200
H  44.90100 36.28500 29.23100
H  43.96300 33.89100 25.70300
H  43.42500 34.26500 27.20100
H  45.08900 34.82600 26.80300
H  41.03500 39.27300 22.71100
H  41.58100 42.24600 22.49900
H  42.77800 40.59100 21.05300
H  42.92600 38.92300 21.75400
H  43.86300 40.38900 22.42900
H  39.58600 40.66800 21.51100
H  39.44800 42.43000 21.89300
H  37.87300 40.26300 22.80800
H  37.75400 42.02100 23.07300
H  38.64300 40.92800 24.23300
H  39.46500 46.99600 25.96900
H  39.72600 45.67200 24.58800
H  41.04900 46.41400 25.34600
H  39.85700 44.72900 31.08900
H  43.02800 46.91400 33.19400
H  41.48700 47.25400 33.87900
H  41.88400 47.81300 32.19100

