158

Mg 48.67800 35.69300 27.97800
C  46.28300 34.37400 30.18300
C  49.08400 38.20700 30.21100
C  50.63800 37.00600 25.65900
C  47.49100 33.31300 25.66900
N  47.98600 36.07200 30.00500
C  47.17400 35.26900 30.70600
C  47.33300 35.58100 32.21900
C  47.79700 37.06300 32.16000
C  48.27400 37.14600 30.69400
C  46.65900 38.09400 32.46200
C  48.39400 34.61300 32.99000
C  48.87500 35.00000 34.46700
H  48.28900 36.20200 35.23300
N  49.83100 37.29100 28.05100
C  49.81000 38.31600 29.01400
C  50.77000 39.37000 28.61300
C  51.26600 38.91200 27.34600
C  50.66600 37.63500 26.97000
C  51.00200 40.61300 29.44200
C  52.23400 39.69300 26.43100
O  52.55800 39.34900 25.30100
C  52.86700 40.95800 26.95800
N  48.91200 35.25700 25.80300
C  49.89000 35.94000 25.09900
C  50.09700 35.29800 23.68000
C  49.00700 34.15700 23.66100
C  48.48600 34.12900 25.13600
C  50.02500 36.47900 22.56500
C  49.48100 32.73900 23.13600
C  48.80500 32.15700 21.92600
N  47.21000 34.15200 27.93000
C  46.90600 33.27900 26.89500
C  45.80400 32.45100 27.34400
C  45.51500 32.86000 28.60000
C  46.42600 33.86200 28.89700
C  45.23200 31.33200 26.46500
C  44.68100 32.51000 29.75700
O  43.78700 31.67100 29.93000
C  45.12800 33.56600 30.83700
C  45.41700 32.82500 32.10100
O  46.02000 31.72400 32.15000
O  44.86700 33.47600 33.20200
C  44.83500 32.68700 34.47700
H  49.29900 39.07500 30.83800
H  51.44100 37.32600 24.99100
H  47.07600 32.63400 24.92100
H  46.36900 35.58200 32.72700
H  48.58600 37.29700 32.87600
H  46.88800 38.60100 33.39900
H  45.76700 37.51200 32.69200
H  46.49700 38.80800 31.65400
H  49.26900 34.57700 32.34200
H  47.91600 33.63500 33.05000
H  49.94600 35.10100 34.29000
H  48.73500 34.12500 35.10300
H  50.79600 41.53500 28.89700
H  52.05500 40.64800 29.72400
H  50.40000 40.53000 30.34700
H  52.14000 41.77000 26.98500
H  53.77400 41.14800 26.38600
H  53.24500 40.81200 27.97000
H  51.06500 34.80800 23.57600
H  48.20900 34.45100 22.97900
H  49.07800 36.26300 22.07100
H  50.86400 36.48000 21.86900
H  49.89700 37.46700 23.00800
H  49.30700 32.02800 23.94400
H  50.54700 32.71300 22.91100
H  48.39200 32.91400 21.25900
H  48.02200 31.44000 22.17300
H  49.56500 31.60000 21.38000
H  44.91500 31.75500 25.51200
H  44.43000 30.68600 26.82200
H  46.12300 30.75600 26.21400
H  44.26100 34.20700 30.99700
H  43.81300 32.63500 34.85400
H  45.38500 33.29500 35.19500
H  45.11400 31.63500 34.41300
Mg 43.07200 42.82700 26.67900
C  41.78100 45.19100 28.87900
C  44.27600 40.94000 29.26600
C  44.29800 40.75800 24.43700
C  42.16900 45.01900 23.95600
N  43.00200 43.04600 28.81400
C  42.36900 44.05700 29.53700
C  42.42300 43.69900 31.03600
C  43.52300 42.62500 31.14700
C  43.54500 42.08400 29.68200
C  44.84700 43.01100 31.80800
C  41.03300 43.08600 31.45100
C  40.40100 43.43300 32.77200
H  41.25300 43.83700 33.93300
N  44.07000 41.06300 26.80200
C  44.43500 40.44800 27.92400
C  45.02500 39.20700 27.63900
C  44.98200 39.07200 26.19700
C  44.42900 40.34900 25.75500
C  45.67300 38.30500 28.66800
C  45.34900 37.90700 25.36400
O  45.24600 37.87200 24.15800
C  45.82200 36.73800 25.99800
N  43.46400 43.00100 24.52300
C  43.87300 41.92700 23.86800
C  43.88000 42.02000 22.40700
C  42.98800 43.33100 22.25600
C  42.84100 43.83300 23.68400
C  45.28800 42.13100 21.72800
C  41.66400 43.08500 21.34900
C  40.26400 43.00200 22.00200
N  42.28100 44.77300 26.40800
C  42.04300 45.56000 25.24200
C  41.33500 46.75900 25.64700
C  41.26900 46.64500 27.07400
C  41.85900 45.44800 27.48400
C  40.71900 47.84900 24.70900
C  40.76200 47.31300 28.23700
O  40.06400 48.34500 28.34900
C  40.97200 46.32600 29.59000
C  41.85400 47.08300 30.41500
O  42.97100 47.36500 30.13400
O  41.21500 47.25500 31.63300
C  41.99800 47.94200 32.65100
H  44.66200 40.26700 30.03400
H  44.57000 39.91600 23.79800
H  41.78400 45.68500 23.18200
H  42.72800 44.54200 31.65500
H  43.15000 41.88200 31.85200
H  45.12100 42.31700 32.60300
H  44.79600 44.00500 32.25300
H  45.59600 43.08600 31.02000
H  41.02200 41.99600 31.40800
H  40.22100 43.32800 30.76500
H  39.87700 42.51000 33.02200
H  39.63700 44.19900 32.64200
H  45.83400 38.72400 29.66200
H  46.68800 38.13700 28.30800
H  45.20800 37.31900 28.68700
H  46.71900 37.10300 26.49900
H  46.07600 35.99500 25.24200
H  45.01800 36.34400 26.62000
H  43.32100 41.11800 22.15500
H  43.63600 44.08200 21.80400
H  45.49800 43.06100 21.20000
H  45.26300 41.31700 21.00300
H  46.13400 42.06900 22.41300
H  41.70100 42.17100 20.75600
H  41.78600 43.84700 20.57900
H  39.69700 43.87400 21.67500
H  40.29000 42.86800 23.08300
H  39.86400 42.03000 21.71300
H  40.29300 47.29300 23.87400
H  41.49900 48.47200 24.27000
H  39.99500 48.46400 25.24400
H  40.03900 46.00100 30.05200
H  42.74200 48.70000 32.40400
H  42.48400 47.24000 33.32800
H  41.17000 48.45600 33.14000

