158

Mg 54.35600 24.54700 44.66500
C  51.84000 26.91700 43.99400
C  52.13600 22.05100 43.49400
C  56.87600 22.41700 44.53700
C  56.59800 27.18300 45.18100
N  52.27400 24.57800 43.78900
C  51.50900 25.62000 43.62600
C  50.17600 25.15000 42.92800
C  50.11100 23.60000 43.22100
C  51.58000 23.37400 43.56700
C  49.12400 22.97600 44.18400
C  50.28400 25.45100 41.42100
C  48.86500 25.41200 40.73500
H  48.77000 24.38800 39.63700
N  54.48300 22.47600 44.06900
C  53.48000 21.62400 43.71700
C  54.01400 20.27000 43.59900
C  55.35000 20.36700 44.06200
C  55.64200 21.79300 44.22900
C  53.24700 19.10300 43.09100
C  56.28300 19.12900 44.17600
O  55.75800 18.01100 44.01000
C  57.84000 19.15200 44.43000
N  56.44300 24.80300 44.74000
C  57.28300 23.75700 44.77700
C  58.73700 24.08500 45.12200
C  58.63600 25.61900 45.18600
C  57.11800 25.94400 45.01900
C  59.19800 23.37200 46.38800
C  59.58800 26.32200 44.17200
C  60.14400 27.63700 44.75700
N  54.27400 26.62800 44.79100
C  55.22300 27.53800 45.07200
C  54.55400 28.80300 45.34800
C  53.24900 28.60000 44.82300
C  53.09100 27.21500 44.59500
C  55.18300 30.02600 45.81000
C  52.06300 29.27900 44.54000
O  51.73500 30.48900 44.69900
C  51.09000 28.16500 44.00000
C  50.76800 28.60100 42.64100
O  51.51300 28.70400 41.65900
O  49.50700 28.81000 42.51200
C  48.97700 29.39600 41.30400
H  51.40800 21.29700 43.18800
H  57.61800 21.62600 44.41600
H  57.13200 28.09300 45.46200
H  49.30200 25.57900 43.41800
H  50.02700 22.98000 42.32800
H  49.00500 21.92400 43.92700
H  48.16700 23.39000 43.86800
H  49.42700 23.24300 45.19600
H  51.03200 24.79400 40.97800
H  50.74700 26.41700 41.22200
H  48.68600 26.43800 40.41200
H  48.09400 25.19300 41.47400
H  52.19800 19.25900 42.83900
H  53.22700 18.28200 43.80700
H  53.68000 18.68400 42.18300
H  58.40800 19.64900 43.64300
H  58.20900 18.12900 44.50200
H  58.06600 19.52900 45.42700
H  59.32000 23.73800 44.26800
H  59.00400 25.99400 46.14200
H  59.11400 23.99800 47.27600
H  60.21500 22.98200 46.34700
H  58.58200 22.48500 46.53900
H  58.97100 26.43200 43.28000
H  60.47900 25.71700 44.00800
H  59.83000 28.55200 44.25400
H  61.23300 27.64600 44.70700
H  59.84900 27.74400 45.80100
H  54.91100 30.84500 45.14400
H  56.25700 29.85400 45.88200
H  54.72800 30.18300 46.78700
H  50.21800 28.10100 44.65100
H  48.71700 28.61500 40.59000
H  49.61300 30.19100 40.91500
H  48.05900 29.94200 41.52000
Mg 1.17900 42.34800 24.82300
C  1.80300 42.45700 28.27500
C  -1.79200 40.69500 25.66000
C  0.79900 41.70400 21.60500
C  4.37900 43.66900 24.27900
N  0.15400 41.67300 26.73500
C  0.53300 41.93100 28.03000
C  -0.63900 41.59900 29.02400
C  -1.58100 40.70900 28.10400
C  -1.03900 41.11900 26.75500
C  -1.54800 39.22800 28.39300
C  -1.39100 42.87300 29.58700
C  -1.22500 43.21200 31.07100
H  -1.49200 42.09600 32.06600
N  -0.40600 41.57700 23.80400
C  -1.53500 40.92800 24.31300
C  -2.35000 40.47600 23.16700
C  -1.75200 41.01200 21.96900
C  -0.36400 41.45500 22.39800
C  -3.62700 39.78400 23.45700
C  -2.15400 40.86100 20.56500
O  -1.35000 41.02100 19.67200
C  -3.55300 40.48100 20.18900
N  2.41900 42.48100 23.22600
C  2.05300 42.24100 21.97400
C  3.18500 42.48200 21.02400
C  4.05900 43.54800 21.72000
C  3.56600 43.25800 23.19000
C  3.93500 41.21800 20.62900
C  3.74700 44.98900 21.15100
C  2.81800 45.92700 21.89800
N  2.76700 42.93400 25.97000
C  4.00300 43.44800 25.62000
C  4.74100 43.81900 26.85600
C  3.87300 43.46700 27.85000
C  2.71800 42.86300 27.32000
C  6.02100 44.43900 27.02000
C  3.77300 43.47400 29.29600
O  4.52300 44.03800 30.16200
C  2.52500 42.74800 29.62400
C  2.83100 41.60000 30.53700
O  3.72200 40.74100 30.29800
O  2.01800 41.60200 31.57700
C  2.10900 40.38800 32.47900
H  -2.69300 40.11600 25.87100
H  0.75500 41.56500 20.52300
H  5.29000 44.21900 24.03500
H  -0.17800 41.02100 29.82500
H  -2.59600 41.06400 28.28000
H  -0.74800 39.09900 29.12100
H  -1.18200 38.72200 27.50000
H  -2.55600 38.98300 28.72800
H  -2.47100 42.76100 29.49900
H  -1.00200 43.65800 28.93800
H  -1.87900 44.02000 31.39800
H  -0.23200 43.63000 31.22900
H  -4.25700 39.84300 22.57000
H  -4.25200 40.29600 24.18900
H  -3.40100 38.73800 23.66500
H  -3.90300 39.51100 20.54200
H  -3.50700 40.31400 19.11300
H  -4.13400 41.31800 20.57800
H  2.69200 42.95100 20.17300
H  5.10800 43.26700 21.62300
H  3.87900 41.15700 19.54200
H  3.43100 40.34200 21.03700
H  4.98300 41.31400 20.91200
H  3.39600 44.85800 20.12700
H  4.72800 45.45700 21.23200
H  2.21600 45.48400 22.69100
H  2.11400 46.56600 21.36400
H  3.41400 46.66900 22.42900
H  6.69600 43.76400 27.54600
H  6.03500 45.36200 27.60000
H  6.44500 44.79300 26.08000
H  1.93600 43.48300 30.17300
H  2.92500 39.70700 32.23600
H  1.22400 39.75700 32.55400
H  2.34500 40.70100 33.49600

