158

Mg 24.46600 -5.25900 45.99600
C  26.60600 -2.69300 44.33300
C  22.05700 -4.30400 43.83700
C  22.84000 -7.97500 46.98800
C  27.42100 -6.21700 47.66500
N  24.42300 -3.68700 44.25200
C  25.31400 -2.77500 43.78500
C  24.71200 -1.92600 42.67600
C  23.13500 -2.21100 42.76900
C  23.18600 -3.52600 43.63700
C  22.15700 -1.01800 43.25600
C  25.28600 -2.28400 41.28600
C  26.23900 -1.25500 40.55900
H  26.17000 -1.21200 39.02300
N  22.65300 -5.96400 45.53700
C  21.77600 -5.39700 44.69100
C  20.50900 -6.24100 44.71100
C  20.77500 -7.39100 45.56100
C  22.14200 -7.10400 46.12200
C  19.26200 -5.96500 43.84600
C  19.82800 -8.66000 45.83500
O  18.78600 -8.67700 45.22100
C  20.12200 -9.78300 46.69600
N  25.05900 -6.89700 47.13400
C  24.20400 -7.85100 47.43700
C  24.98300 -8.96100 48.38100
C  26.33500 -8.26800 48.65300
C  26.24700 -7.09600 47.72000
C  24.32300 -9.32000 49.72100
C  27.47900 -9.17400 48.21000
C  28.59200 -9.29800 49.16500
N  26.59100 -4.60400 46.08600
C  27.57500 -5.09500 46.86400
C  28.78800 -4.32700 46.57900
C  28.38700 -3.38300 45.66600
C  27.07300 -3.59300 45.34300
C  30.18900 -4.49300 47.11500
C  28.94500 -2.27800 44.85000
O  30.06500 -1.73000 44.81800
C  27.72100 -1.75600 44.08500
C  27.59700 -0.32800 44.49300
O  26.68000 0.07800 45.21000
O  28.37700 0.49300 43.76300
C  27.90400 1.86500 43.73900
H  21.23500 -3.96000 43.20500
H  22.37000 -8.90400 47.32000
H  28.34000 -6.49000 48.18800
H  24.84400 -0.86200 42.87400
H  22.77800 -2.48700 41.77700
H  21.44500 -1.38700 43.99400
H  21.67900 -0.65800 42.34500
H  22.76200 -0.21800 43.68100
H  24.44000 -2.44000 40.61600
H  25.89100 -3.18700 41.35700
H  27.28700 -1.25900 40.85800
H  25.93500 -0.29700 40.98200
H  19.34900 -5.09900 43.19000
H  18.43600 -5.86700 44.55000
H  19.05400 -6.77200 43.14400
H  19.21800 -10.38500 46.79900
H  20.21300 -9.35900 47.69600
H  20.93700 -10.44200 46.39700
H  24.93900 -9.85900 47.76300
H  26.59600 -7.84800 49.62500
H  23.76700 -10.23500 49.52000
H  23.62100 -8.58000 50.10400
H  25.03400 -9.47400 50.53200
H  27.80600 -8.81800 47.23300
H  27.13900 -10.19800 48.05700
H  28.87400 -8.29500 49.48400
H  29.43600 -9.73300 48.62800
H  28.16200 -9.86500 49.99000
H  30.26100 -4.64100 48.19200
H  30.79700 -3.59100 47.04900
H  30.64200 -5.27800 46.50900
H  27.75700 -1.65800 43.00000
H  27.99600 2.20500 44.77000
H  26.90600 1.97300 43.31300
H  28.53400 2.43300 43.05500
Mg 40.64700 9.62200 30.17900
C  42.66400 11.10100 32.74800
C  38.68600 8.40300 32.61800
C  39.09100 7.98100 27.77500
C  43.07400 10.47300 27.76000
N  40.68200 9.79200 32.40300
C  41.56300 10.48500 33.24400
C  41.14700 10.37400 34.75900
C  39.93700 9.33800 34.64700
C  39.66400 9.22300 33.15600
C  40.20100 7.93900 35.29300
C  40.92100 11.74600 35.38200
C  40.02500 11.68000 36.63100
H  40.46400 12.45200 37.89400
N  39.11200 8.35300 30.18700
C  38.36000 7.99500 31.27200
C  37.25800 7.07500 30.86800
C  37.33200 7.07200 29.46400
C  38.58100 7.82100 29.06500
C  36.30700 6.46400 31.87000
C  36.25500 6.44400 28.53500
O  36.28000 6.57900 27.34700
C  35.10900 5.68600 29.00300
N  41.02100 9.23500 27.96600
C  40.19100 8.63300 27.17500
C  40.40000 8.75400 25.69200
C  41.71600 9.63900 25.71800
C  41.96000 9.79200 27.21800
C  40.59300 7.41000 24.98600
C  41.46900 11.09500 25.07000
C  42.62600 11.79400 24.22000
N  42.55300 10.45100 30.15900
C  43.37600 10.72700 29.11500
C  44.52200 11.46500 29.67000
C  44.33500 11.60500 31.01900
C  43.13900 10.95400 31.31600
C  45.54300 12.09600 28.85000
C  44.86000 12.26600 32.23700
O  45.75500 13.06300 32.32900
C  43.80000 11.90800 33.44400
C  44.68100 11.30200 34.46000
O  45.12800 10.17900 34.42800
O  44.99500 12.18200 35.45700
C  45.79700 11.69400 36.59400
H  38.12200 7.96800 33.44500
H  38.36800 7.54200 27.08500
H  43.79500 10.87300 27.04300
H  41.97000 9.99500 35.36600
H  39.04300 9.83100 35.02900
H  41.12000 7.98700 35.87700
H  40.42900 7.19100 34.53300
H  39.35400 7.69900 35.93600
H  40.39600 12.35200 34.64400
H  41.82900 12.24700 35.71900
H  39.98500 10.62200 36.88900
H  38.98200 11.90800 36.41100
H  36.55100 6.68400 32.91000
H  36.01900 5.43400 31.65900
H  35.30500 6.85600 31.69800
H  34.35500 5.53500 28.23000
H  34.59800 6.28700 29.75600
H  35.53500 4.74600 29.35300
H  39.52400 9.23400 25.25600
H  42.61100 9.20200 25.27400
H  39.68000 7.16500 24.44400
H  40.81400 6.63700 25.72300
H  41.41800 7.38500 24.27400
H  41.23500 11.71200 25.93700
H  40.53100 11.07000 24.51600
H  42.32700 12.01500 23.19500
H  43.53700 11.20400 24.31700
H  42.86000 12.74700 24.69300
H  45.25500 13.10500 28.55400
H  45.75400 11.53800 27.93700
H  46.47800 12.12300 29.40800
H  43.43100 12.90100 33.70000
H  45.12800 11.27900 37.34800
H  46.27800 12.53700 37.09100
H  46.55400 10.99200 36.24500

