158

Mg 1.58000 8.83500 27.05200
C  2.23500 10.86000 29.68800
C  1.47800 6.08500 29.24600
C  1.19500 6.65100 24.41100
C  1.80900 11.44100 24.94200
N  1.82900 8.52700 29.25600
C  2.10000 9.49600 30.11900
C  1.88100 9.04200 31.51600
C  1.74500 7.42900 31.34300
C  1.61000 7.30700 29.81100
C  2.91500 6.61800 31.90100
C  0.59700 9.73600 32.13100
C  0.02400 9.15100 33.41300
H  0.91800 8.64700 34.50500
N  1.41100 6.67900 26.78800
C  1.37600 5.76300 27.85300
C  1.27300 4.44000 27.36200
C  1.37900 4.57600 25.95000
C  1.29000 6.03600 25.65900
C  1.41400 3.12300 28.15900
C  1.48300 3.51300 24.86500
O  1.51900 3.76300 23.66000
C  1.66100 2.03600 25.21600
N  1.45400 8.95600 24.98700
C  1.27700 8.01600 24.09700
C  1.14900 8.52400 22.75700
C  0.90800 10.07400 22.98700
C  1.44200 10.19300 24.42700
C  2.37700 8.33100 21.85400
C  -0.56700 10.45600 22.80900
C  -0.94200 11.67600 21.91000
N  2.08600 10.77900 27.25200
C  2.18500 11.72100 26.29500
C  2.38600 12.99400 26.92400
C  2.43700 12.65200 28.23400
C  2.22500 11.30400 28.37400
C  2.31600 14.31700 26.28800
C  2.61100 13.23300 29.56400
O  2.61800 14.40300 29.94400
C  2.33200 12.10500 30.53200
C  3.31700 12.13800 31.60900
O  4.39000 11.56400 31.71400
O  2.65000 12.70600 32.68100
C  3.06700 12.41000 34.09900
H  1.44700 5.29400 29.99800
H  1.01300 6.01300 23.54400
H  1.62800 12.26600 24.25100
H  2.78400 9.26100 32.08700
H  0.83300 7.09500 31.83900
H  3.43800 6.08500 31.10800
H  2.56500 5.82500 32.56200
H  3.54800 7.26500 32.50900
H  -0.25000 9.73300 31.44500
H  0.84100 10.74100 32.47400
H  -0.54700 8.28200 33.08700
H  -0.73500 9.80000 33.84900
H  2.35700 2.67900 27.83900
H  0.59800 2.40500 28.08100
H  1.32000 3.17300 29.24400
H  2.57000 1.93700 25.81000
H  1.86700 1.61000 24.23300
H  0.75600 1.58000 25.61700
H  0.30100 8.06100 22.25100
H  1.54900 10.67600 22.34300
H  2.14800 7.50900 21.17500
H  3.24000 8.00600 22.43500
H  2.68600 9.19700 21.26800
H  -0.95700 10.69700 23.79800
H  -1.09300 9.55600 22.49200
H  -1.40600 12.42000 22.55800
H  -1.72400 11.31800 21.24000
H  -0.09300 12.16400 21.43000
H  1.34100 14.68200 26.61000
H  2.17400 14.21400 25.21200
H  3.13700 14.95500 26.61400
H  1.31700 12.23300 30.90800
H  3.54100 11.43300 34.19200
H  2.32100 12.54500 34.88100
H  3.92200 13.04200 34.33700
Mg 30.03900 57.54800 40.55900
C  27.33500 55.55100 39.93400
C  32.19800 55.17800 39.46200
C  32.68600 59.71700 40.75100
C  27.96100 60.05100 41.77900
N  29.77700 55.65700 39.61400
C  28.55500 54.98000 39.61300
C  28.77600 53.55400 39.19000
C  30.30400 53.46900 39.21700
C  30.81400 54.79800 39.51300
C  30.90500 52.41300 40.13900
C  28.06900 53.28700 37.82100
C  28.49200 54.10000 36.61500
H  27.47600 54.95700 35.76700
N  32.11300 57.50100 39.94300
C  32.76400 56.40200 39.50700
C  34.13600 56.64200 39.27600
C  34.30000 57.94400 39.66600
C  33.01200 58.50200 40.18100
C  35.10500 55.76900 38.65100
C  35.55700 58.78000 39.51400
O  36.64100 58.23300 39.33100
C  35.58500 60.34800 39.67900
N  30.26700 59.63900 40.94200
C  31.47600 60.26600 41.03500
C  31.27500 61.74300 41.37800
C  29.89400 61.73100 42.08300
C  29.29200 60.34600 41.56300
C  32.32100 62.53200 42.22900
C  28.99500 62.94700 41.81200
C  28.55700 63.61800 43.16200
N  28.07700 57.77900 40.79700
C  27.35700 58.87200 41.31800
C  25.91500 58.50500 41.38800
C  25.84800 57.24200 40.77200
C  27.22600 56.81200 40.44600
C  24.72600 59.48100 41.62400
C  25.04400 56.09300 40.27300
O  23.83800 56.04400 40.24800
C  25.92400 55.01800 39.81300
C  25.56400 53.83900 40.61000
O  25.97700 53.59800 41.72000
O  24.61200 53.07400 39.92100
C  24.05000 51.92600 40.51100
H  32.97800 54.46000 39.19700
H  33.57000 60.30300 41.01000
H  27.36600 60.79900 42.30600
H  28.34200 52.90600 39.95200
H  30.50900 53.27000 38.16500
H  30.60900 51.38900 39.91100
H  30.49900 52.67200 41.11700
H  31.98200 52.46400 40.29400
H  26.98000 53.26200 37.86200
H  28.32900 52.24900 37.61100
H  28.97300 53.41800 35.91400
H  29.19500 54.86900 36.93600
H  35.82200 56.31100 38.03500
H  34.73700 54.95400 38.02700
H  35.67300 55.18600 39.37600
H  34.67900 60.77700 39.25200
H  36.35600 60.58200 38.94500
H  35.77500 60.56900 40.73000
H  31.19200 62.19900 40.39100
H  30.05000 61.61100 43.15500
H  33.17000 61.85100 42.27900
H  31.92200 62.79100 43.21000
H  32.61300 63.45900 41.73700
H  28.09000 62.63000 41.29500
H  29.56900 63.67300 41.23600
H  28.95300 64.60800 43.38500
H  28.68500 63.04700 44.08100
H  27.47700 63.73700 43.25000
H  25.04900 60.27500 42.29700
H  23.88100 58.94300 42.05400
H  24.42300 59.91200 40.67000
H  25.63100 54.95100 38.76500
H  23.03200 51.92000 40.12200
H  24.12500 51.82100 41.59400
H  24.54900 50.99700 40.23400

