158

Mg 40.96600 41.09500 27.87000
C  40.25800 43.41300 30.42300
C  41.52400 38.69400 30.28700
C  42.22100 39.05200 25.39500
C  40.93500 43.74100 25.69600
N  40.85200 41.10100 30.12500
C  40.36000 42.09800 30.90400
C  40.16500 41.59200 32.33200
C  40.71800 40.09400 32.28200
C  41.12900 39.95800 30.81800
C  41.90500 39.77900 33.28300
C  38.68200 41.61500 32.80500
C  38.46300 40.94000 34.20000
H  37.95700 41.76500 35.38800
N  41.56200 39.04700 27.82600
C  41.70500 38.26500 28.91900
C  42.20800 36.98800 28.43700
C  42.35600 37.01300 27.05500
C  42.03000 38.46200 26.66400
C  42.51900 35.86100 29.46800
C  42.85300 35.96200 26.06100
O  43.10500 36.18300 24.87600
C  42.99700 34.54400 26.52500
N  41.41200 41.30100 25.89600
C  41.87600 40.35400 24.98900
C  41.87400 40.83300 23.49200
C  41.54500 42.34200 23.68300
C  41.20700 42.48200 25.23200
C  43.15400 40.53300 22.70800
C  40.51100 42.97700 22.70000
C  39.17100 42.25700 22.44600
N  40.83700 43.16700 28.01400
C  40.77800 44.08900 27.04200
C  40.46300 45.36800 27.56100
C  40.22500 45.16100 28.94400
C  40.44400 43.82000 29.10200
C  40.30400 46.60200 26.74400
C  39.71600 45.78000 30.08100
O  39.23000 46.89300 30.25600
C  39.86400 44.67700 31.15700
C  40.91800 45.15700 32.13700
O  42.09700 45.25900 31.90400
O  40.30800 45.07700 33.38100
C  41.34400 45.33600 34.43900
H  41.64100 37.89500 31.02200
H  42.78800 38.47700 24.66000
H  40.91200 44.61600 25.04300
H  40.73000 42.24700 32.99500
H  40.00800 39.32600 32.58900
H  41.54200 38.95400 33.89700
H  42.18500 40.67500 33.83700
H  42.84400 39.43300 32.85200
H  37.98700 41.22200 32.06400
H  38.34000 42.65000 32.77700
H  39.37500 40.45900 34.55400
H  37.73200 40.13200 34.17800
H  41.58400 35.33400 29.65500
H  42.91000 36.21800 30.42100
H  43.24300 35.11600 29.13600
H  42.05300 34.17600 26.92800
H  43.78700 34.35000 27.25100
H  43.09300 33.96600 25.60600
H  40.96500 40.43100 23.04500
H  42.51400 42.83400 23.60300
H  43.94900 40.13900 23.34100
H  43.39700 41.38600 22.07500
H  42.90500 39.72300 22.02200
H  41.03500 43.13700 21.75700
H  40.27900 43.99700 23.00700
H  39.03700 41.58400 21.60000
H  38.43200 43.05800 22.47500
H  38.90600 41.57900 23.25700
H  39.24600 46.85100 26.66200
H  40.81100 46.51600 25.78300
H  40.74100 47.43900 27.28700
H  38.85600 44.53800 31.54800
H  40.88600 45.05200 35.38600
H  41.49000 46.41600 34.48600
H  42.21000 44.68500 34.32200
Mg 30.14800 59.09700 40.87600
C  27.23100 57.50300 39.73200
C  32.02500 56.54200 39.94000
C  32.90300 61.07900 41.28200
C  28.20700 61.93200 41.66300
N  29.69200 57.24300 39.82100
C  28.40400 56.82300 39.41900
C  28.53000 55.46000 38.71300
C  30.02300 54.97200 39.03200
C  30.64100 56.27300 39.59800
C  30.06500 53.81300 40.15300
C  28.29900 55.40600 37.17500
C  27.29200 54.37400 36.75700
H  26.28800 54.73400 35.59400
N  32.14000 58.78400 40.75800
C  32.74000 57.60700 40.48800
C  34.12400 57.64200 40.76400
C  34.42200 58.90900 41.22400
C  33.11400 59.66900 41.11800
C  35.06100 56.55300 40.25900
C  35.77900 59.40400 41.61500
O  36.78100 58.72100 41.38500
C  35.94000 60.75800 42.16300
N  30.54300 61.17900 41.47800
C  31.74800 61.80700 41.39500
C  31.73700 63.37300 41.45900
C  30.24000 63.56800 41.90200
C  29.58200 62.16000 41.70400
C  32.90000 64.00900 42.36500
C  29.51900 64.78100 41.24100
C  29.31600 66.05200 42.07600
N  28.13000 59.59200 40.90200
C  27.48600 60.76500 41.26300
C  26.05300 60.64300 40.93500
C  25.87500 59.35400 40.39500
C  27.17100 58.78300 40.42700
C  25.04000 61.69700 41.27600
C  24.94100 58.40500 39.82900
O  23.73000 58.50900 39.69300
C  25.74400 57.16800 39.49700
C  25.45300 56.06700 40.36900
O  25.84400 55.95300 41.51400
O  24.55500 55.22500 39.72400
C  23.92400 54.22500 40.61800
H  32.63200 55.65200 39.76300
H  33.85200 61.60800 41.39100
H  27.68200 62.86800 41.86800
H  27.89200 54.74900 39.23800
H  30.48200 54.52200 38.15200
H  30.50700 54.16900 41.08300
H  30.71300 53.07800 39.67600
H  29.11900 53.31900 40.37600
H  29.20700 55.27900 36.58600
H  27.85700 56.39100 37.02700
H  26.70800 54.04200 37.61600
H  27.89100 53.53600 36.40100
H  34.65000 55.84400 39.54000
H  35.27200 55.93700 41.13300
H  35.95100 56.90500 39.73900
H  36.86600 60.75100 42.73600
H  35.19500 61.16400 42.84800
H  36.09500 61.51000 41.38900
H  31.85800 63.69000 40.42400
H  30.24500 63.69100 42.98500
H  33.54800 64.52600 41.65700
H  33.48400 63.28900 42.93800
H  32.51000 64.70900 43.10400
H  28.57700 64.52100 40.75800
H  30.12100 65.08900 40.38700
H  29.54300 65.94100 43.13700
H  28.31900 66.48000 41.97200
H  30.05400 66.77400 41.72400
H  24.14700 61.09700 41.45000
H  24.86900 62.35300 40.42200
H  25.25700 62.38700 42.09100
H  25.66700 56.91100 38.44000
H  24.70300 53.54200 40.95600
H  23.21800 53.53500 40.15600
H  23.40900 54.69300 41.45700

