158

Mg 48.45600 13.81500 27.81700
C  46.65500 14.21500 30.66200
C  50.94100 15.91100 29.14800
C  50.42400 13.37400 24.92000
C  45.92700 12.15800 26.40700
N  48.76200 14.89300 29.70000
C  47.83600 14.89100 30.71400
C  48.39100 15.59600 31.90500
C  49.45800 16.48000 31.23600
C  49.80700 15.64400 29.96500
C  49.03300 17.91100 30.94200
C  48.98100 14.56800 32.99800
C  48.37800 14.88100 34.38300
H  49.37300 14.85500 35.56900
N  50.35700 14.61600 27.14400
C  51.20200 15.45500 27.84700
C  52.43600 15.74900 27.11800
C  52.21400 15.11500 25.84200
C  50.97400 14.33700 25.88300
C  53.57300 16.45300 27.68200
C  53.08300 15.08400 24.60500
O  52.76500 14.78100 23.49000
C  54.53500 15.69600 24.62400
N  48.16900 12.99000 25.84900
C  49.14200 12.80200 24.88200
C  48.58500 12.04800 23.69200
C  47.12700 11.73600 24.21700
C  47.09300 12.28300 25.66400
C  48.72000 12.69700 22.31500
C  46.59000 10.26700 23.96500
C  46.91300 9.25800 25.01400
N  46.60100 13.33900 28.30700
C  45.68000 12.61700 27.65900
C  44.56100 12.34800 28.52700
C  44.89600 12.92900 29.73400
C  46.12500 13.58400 29.56600
C  43.25700 11.67200 28.13700
C  44.39000 13.23800 31.09100
O  43.34000 12.98500 31.71200
C  45.60900 13.94900 31.73500
C  45.04800 15.18300 32.27900
O  44.53200 16.12800 31.63400
O  45.16800 15.21700 33.61700
C  44.55900 16.32500 34.42400
H  51.60300 16.59600 29.68300
H  50.95500 13.23500 23.97500
H  45.08800 11.62000 25.95900
H  47.64300 16.33300 32.19800
H  50.39500 16.40000 31.78700
H  48.73200 18.46400 31.83200
H  48.23200 17.82800 30.20700
H  49.76300 18.48700 30.37300
H  50.06600 14.67500 33.00000
H  48.72200 13.52000 32.84700
H  47.68500 14.06500 34.59200
H  47.90900 15.85900 34.49400
H  53.45000 16.91000 28.66400
H  53.88500 17.33200 27.11700
H  54.42100 15.77100 27.73300
H  55.08300 15.20900 25.43100
H  54.39700 16.77500 24.68900
H  55.06700 15.54000 23.68500
H  49.11600 11.10300 23.57300
H  46.61300 12.46200 23.58800
H  49.27300 12.05700 21.62700
H  49.19000 13.63800 22.60100
H  47.75200 12.96100 21.88800
H  47.09600 9.87300 23.08300
H  45.51100 10.32600 23.82200
H  47.29100 9.69900 25.93700
H  47.71500 8.60900 24.66300
H  46.02900 8.67200 25.26600
H  42.36700 12.16700 28.52500
H  43.31100 10.61400 28.39300
H  43.02600 11.85700 27.08800
H  46.10600 13.41900 32.54700
H  43.48700 16.16700 34.54600
H  44.79300 17.30400 34.00700
H  45.03800 16.24900 35.40000
Mg -10.78600 40.45300 42.09700
C  -9.57600 37.37400 40.90700
C  -7.67900 41.83400 41.03600
C  -12.26100 43.33800 42.09200
C  -13.92300 38.85700 42.56600
N  -8.94300 39.64700 40.98300
C  -8.70300 38.38600 40.63200
C  -7.28700 38.26000 40.04000
C  -6.61000 39.60200 40.52200
C  -7.79900 40.45400 40.96400
C  -5.56500 39.45300 41.68400
C  -7.37700 37.98000 38.45500
C  -6.65200 36.67500 38.02700
H  -5.37600 36.65800 37.09200
N  -10.06200 42.39800 41.79600
C  -8.75600 42.76700 41.41000
C  -8.73100 44.17000 41.49900
C  -10.03700 44.68700 41.92300
C  -10.83200 43.48100 41.93300
C  -7.55800 44.97900 41.05600
C  -10.44100 46.09600 42.21700
O  -9.54200 46.97300 42.14000
C  -11.66800 46.39500 42.90900
N  -12.90000 40.91900 42.00500
C  -13.17600 42.26900 42.15300
C  -14.67500 42.51100 42.32100
C  -15.17200 41.04300 42.49600
C  -13.89500 40.19800 42.36900
C  -15.09600 43.53200 43.48600
C  -16.39700 40.55800 41.66900
C  -17.65700 41.37200 41.65800
N  -11.63000 38.47300 41.94600
C  -12.82900 37.94400 42.31300
C  -12.80200 36.54000 42.23400
C  -11.53500 36.23100 41.69500
C  -10.89100 37.47600 41.45700
C  -13.97300 35.63700 42.24500
C  -10.71600 35.16900 41.19500
O  -10.91400 33.95400 41.18400
C  -9.41500 35.89300 40.69100
C  -8.36300 35.41700 41.61400
O  -8.34100 35.44100 42.83300
O  -7.66900 34.52100 40.85400
C  -7.24100 33.22300 41.40900
H  -6.65900 42.20200 40.90700
H  -12.88400 44.23400 42.07000
H  -14.80600 38.32000 42.91700
H  -6.81400 37.49300 40.65300
H  -6.06900 40.12800 39.73500
H  -5.91300 39.88200 42.62400
H  -4.61000 39.85600 41.34700
H  -5.46000 38.42500 42.03300
H  -6.82200 38.77800 37.96200
H  -8.40300 38.04900 38.09300
H  -7.40700 36.12300 37.46900
H  -6.37900 36.15900 38.94800
H  -8.00700 45.70200 40.37500
H  -6.84900 44.43700 40.43000
H  -7.07800 45.51200 41.87700
H  -12.46000 46.55500 42.17700
H  -11.51100 47.35300 43.40500
H  -12.04900 45.72200 43.67600
H  -15.13400 42.64700 41.34200
H  -15.38500 40.78400 43.53400
H  -15.94800 43.20500 44.08100
H  -15.15300 44.60300 43.29100
H  -14.30100 43.27200 44.18600
H  -16.72400 39.63200 42.14200
H  -16.14500 40.39700 40.62100
H  -18.01400 41.40400 40.62900
H  -17.40100 42.36400 42.03100
H  -18.43000 40.92100 42.28100
H  -13.68000 34.59400 42.36900
H  -14.61700 35.65500 41.36600
H  -14.56100 35.86200 43.13500
H  -9.15700 35.73700 39.64300
H  -6.28300 32.88300 41.01600
H  -7.80900 32.48000 40.84900
H  -7.39000 33.13100 42.48500

