158

Mg 0.14300 7.03600 25.61900
C  0.90000 9.09400 28.44900
C  0.32500 4.37700 27.81600
C  -0.47000 5.23500 23.01200
C  0.69000 9.82800 23.63400
N  0.45700 6.80600 27.96800
C  0.70600 7.77700 28.88500
C  0.62400 7.24200 30.29500
C  0.75800 5.69500 30.00100
C  0.38500 5.60600 28.54400
C  2.20800 5.11100 30.39100
C  -0.78600 7.65200 30.89400
C  -0.85500 7.82200 32.43800
H  0.30600 7.58700 33.40900
N  -0.08300 5.05700 25.40400
C  0.10500 4.10400 26.35000
C  0.05700 2.81800 25.73100
C  -0.32900 3.01700 24.32400
C  -0.26300 4.49100 24.18800
C  0.27200 1.63900 26.60400
C  -0.62400 2.00300 23.27200
O  -0.79500 2.27700 22.11300
C  -0.86100 0.61200 23.68500
N  0.24900 7.47100 23.55100
C  -0.25600 6.54500 22.70100
C  -0.63700 7.23300 21.36900
C  -0.42900 8.67800 21.67000
C  0.20500 8.66900 23.04800
C  0.18500 6.59100 20.21200
C  -1.71000 9.65600 21.62700
C  -1.79200 10.70300 20.44800
N  0.59200 9.12200 25.93600
C  0.94600 10.10500 25.04700
C  1.44000 11.29700 25.71300
C  1.38100 10.97700 27.05200
C  0.92300 9.64300 27.14700
C  1.59800 12.68000 25.10100
C  1.61100 11.45100 28.39100
O  2.01600 12.52100 28.92100
C  1.20300 10.25400 29.28200
C  2.26600 10.08100 30.29600
O  3.23100 9.38000 30.13700
O  1.94000 10.80200 31.40200
C  2.79600 10.76300 32.56300
H  0.55000 3.57900 28.52700
H  -0.80400 4.55200 22.22700
H  0.76100 10.73900 23.03600
H  1.46200 7.64600 30.86300
H  0.13700 5.04200 30.61400
H  2.62300 4.80300 29.43100
H  2.02600 4.26600 31.05600
H  2.75100 5.87500 30.94600
H  -1.47600 6.89600 30.51800
H  -1.03000 8.61400 30.44400
H  -1.65800 7.20300 32.83800
H  -1.16200 8.84300 32.66500
H  0.92700 1.91600 27.43000
H  0.82900 0.96100 25.95600
H  -0.61900 1.14800 26.99700
H  -1.35900 0.49800 24.64800
H  0.06800 0.04200 23.72300
H  -1.46600 0.05800 22.96700
H  -1.70800 7.04000 21.30100
H  0.39100 9.01500 21.03700
H  -0.48300 6.02700 19.56100
H  0.94700 5.96600 20.67500
H  0.71900 7.30400 19.58300
H  -1.71800 10.14100 22.60300
H  -2.64000 9.08800 21.63800
H  -0.85200 10.58500 19.91000
H  -1.77100 11.66100 20.96900
H  -2.71300 10.67700 19.86600
H  2.48100 12.77200 24.46800
H  1.62000 13.46700 25.85500
H  0.76400 12.90800 24.43700
H  0.39200 10.59600 29.92500
H  3.50200 9.93200 32.55900
H  2.30300 10.83800 33.53200
H  3.48900 11.59800 32.45300
Mg 24.87800 1.32600 30.17500
C  27.07400 0.95900 32.89100
C  22.30500 1.72600 32.32500
C  22.82800 1.43500 27.54700
C  27.57800 0.30700 28.07700
N  24.69400 1.26800 32.36200
C  25.76400 1.30400 33.27500
C  25.19100 1.59000 34.66000
C  23.65100 1.65600 34.45200
C  23.50400 1.47900 32.96400
C  22.71700 0.63400 35.18300
C  25.83900 2.78800 35.45000
C  26.40600 2.50600 36.78800
H  26.20400 3.71300 37.78300
N  22.80400 1.53500 29.97800
C  21.91200 1.64900 30.95500
C  20.54800 1.71700 30.40600
C  20.73000 1.69300 29.03700
C  22.18400 1.58700 28.79100
C  19.29800 1.90800 31.20600
C  19.71500 1.70400 27.89700
O  19.97500 1.82200 26.71500
C  18.32600 1.62600 28.24600
N  25.15100 0.88000 28.11500
C  24.15000 1.08300 27.19900
C  24.74200 0.96800 25.73000
C  26.15900 0.57100 25.97700
C  26.30800 0.48900 27.47700
C  23.87200 0.07300 24.66200
C  27.22500 1.56800 25.43600
C  27.25200 3.07500 25.86200
N  26.95800 0.78600 30.38000
C  27.89100 0.33700 29.44500
C  29.15200 0.09200 30.11400
C  28.91600 0.44000 31.44500
C  27.56500 0.75700 31.56000
C  30.44700 -0.32100 29.49200
C  29.43500 0.50300 32.75100
O  30.54200 0.17600 33.11900
C  28.29300 0.83400 33.73100
C  28.10900 -0.24300 34.71300
O  27.49000 -1.27400 34.63100
O  28.76500 0.19900 35.78500
C  28.47000 -0.26300 37.12400
H  21.45400 1.90900 32.98400
H  22.13800 1.26700 26.71800
H  28.34900 -0.02500 27.37800
H  25.40900 0.67200 35.20600
H  23.17600 2.60600 34.69600
H  22.25900 -0.00900 34.43200
H  21.93000 1.27600 35.57700
H  23.20600 0.03000 35.94800
H  25.17500 3.65300 35.43400
H  26.61800 3.09600 34.75300
H  27.46700 2.33600 36.60200
H  25.94400 1.58600 37.14600
H  18.92700 2.76400 30.64300
H  19.41500 2.17800 32.25600
H  18.62500 1.05100 31.15800
H  17.93100 2.45800 28.83000
H  18.30400 0.79300 28.94900
H  17.68300 1.41300 27.39200
H  24.83000 1.98800 25.35700
H  26.28700 -0.41000 25.51800
H  23.09300 -0.40800 25.25400
H  24.46400 -0.67500 24.13400
H  23.31400 0.62700 23.90700
H  27.15800 1.64400 24.35100
H  28.20900 1.13800 25.62400
H  26.52200 3.30000 26.64000
H  27.02900 3.75800 25.04200
H  28.22200 3.30800 26.29900
H  30.82500 0.34200 28.71400
H  30.31500 -1.28000 28.99100
H  31.22100 -0.21500 30.25200
H  28.40300 1.82500 34.17200
H  28.59600 -1.34100 37.22400
H  27.39400 -0.10700 37.20500
H  29.01600 0.22400 37.93200

