158

Mg 35.63800 49.65800 25.58300
C  36.10200 47.86800 28.59500
C  34.24600 52.15700 27.39100
C  34.81500 51.05700 22.62900
C  36.66400 46.78100 23.87800
N  35.26200 49.99200 27.74300
C  35.61000 49.18700 28.79500
C  35.29900 49.83300 30.19300
C  34.31900 51.02900 29.77700
C  34.69700 51.17100 28.24900
C  32.74900 50.69800 30.05500
C  36.53900 50.29300 30.98100
C  36.67400 49.62900 32.36300
H  35.47400 49.65100 33.32000
N  34.79100 51.42900 25.09300
C  34.34500 52.35700 25.98100
C  33.90100 53.55400 25.25700
C  33.98100 53.21200 23.90900
C  34.54400 51.83100 23.77500
C  33.44700 54.85500 25.95800
C  33.50500 54.07300 22.67300
O  33.76700 53.80800 21.50100
C  32.84900 55.38600 22.93800
N  35.69300 48.96200 23.62000
C  35.37200 49.77400 22.55800
C  35.56900 49.08200 21.17100
C  36.42200 47.82600 21.63000
C  36.22300 47.83200 23.16100
C  34.20000 48.76700 20.48500
C  37.89600 47.66900 21.11700
C  39.03400 48.40500 21.82100
N  36.24400 47.68900 26.04600
C  36.57700 46.64900 25.26500
C  37.03800 45.49300 26.09500
C  36.89800 45.94600 27.41700
C  36.35100 47.25700 27.37700
C  37.65200 44.17100 25.51800
C  37.11100 45.58800 28.79700
O  37.66200 44.64800 29.36900
C  36.51800 46.86800 29.61400
C  35.37200 46.29900 30.40200
O  34.27500 46.09800 29.90500
O  35.80300 45.93000 31.62800
C  34.81200 45.20000 32.47100
H  33.80600 53.00600 27.91800
H  34.49500 51.44200 21.65900
H  36.88000 45.95500 23.19700
H  34.78900 49.10600 30.82400
H  34.51200 51.91800 30.37700
H  32.20800 51.03500 29.17100
H  32.43400 51.26100 30.93400
H  32.60600 49.65100 30.32400
H  36.52300 51.36300 31.18500
H  37.42700 50.04100 30.40100
H  37.43500 50.20400 32.88900
H  37.08000 48.62800 32.21600
H  33.94600 55.71300 25.50600
H  33.78400 54.86800 26.99500
H  32.36400 54.96600 26.00600
H  31.94000 55.32600 23.53600
H  32.63600 55.88100 21.99000
H  33.63700 55.92900 23.46000
H  36.13400 49.74200 20.51300
H  35.80100 47.01800 21.24200
H  33.46500 48.57300 21.26600
H  34.35600 47.88700 19.86200
H  33.95900 49.62800 19.86000
H  37.99500 47.91700 20.06000
H  38.19700 46.62200 21.09000
H  39.49900 47.83600 22.62600
H  38.54300 49.25300 22.29800
H  39.77300 48.83400 21.14400
H  38.69600 44.34900 25.25900
H  37.04200 43.77600 24.70500
H  37.62800 43.27300 26.13500
H  37.27800 47.21700 30.31300
H  33.84100 45.69200 32.53300
H  35.14600 45.10100 33.50400
H  34.75200 44.17500 32.10400
Mg 9.36700 47.99800 26.17600
C  7.11400 48.69100 28.69000
C  11.86600 49.49400 28.07300
C  11.53700 47.89500 23.49800
C  6.79900 47.21000 24.09500
N  9.43400 48.92500 28.19800
C  8.40100 49.06000 29.06200
C  8.97600 49.50800 30.43200
C  10.36600 50.13600 30.10500
C  10.55600 49.49300 28.71800
C  10.50500 51.73300 30.05200
C  8.93500 48.38300 31.45200
C  8.23500 48.93300 32.75700
H  8.16000 47.95500 34.04600
N  11.40000 48.50300 25.91000
C  12.23900 49.01700 26.79300
C  13.62100 48.82900 26.25700
C  13.53100 48.47200 24.91400
C  12.09700 48.22900 24.72600
C  14.87400 49.09400 27.10200
C  14.66500 48.33500 23.87700
O  14.49500 47.98900 22.71500
C  16.10300 48.47300 24.23300
N  9.18700 47.70000 24.06600
C  10.19400 47.67800 23.18100
C  9.79400 47.17600 21.76700
C  8.25200 46.85500 21.99700
C  8.06100 47.25800 23.47200
C  9.98400 48.15700 20.67300
C  7.89600 45.28700 21.68500
C  6.62400 45.01300 20.91100
N  7.37200 47.90100 26.38000
C  6.43100 47.50300 25.43400
C  5.15100 47.63000 26.04500
C  5.39900 48.06300 27.34800
C  6.73900 48.32700 27.44700
C  3.86900 47.46600 25.40000
C  4.75000 48.43300 28.59300
O  3.54300 48.34900 28.84800
C  5.85300 48.78000 29.58000
C  5.87000 47.66000 30.50700
O  6.42100 46.57200 30.40200
O  5.05100 47.94400 31.59700
C  4.64500 46.86700 32.53400
H  12.70600 49.89200 28.64500
H  12.17000 47.60400 22.65700
H  5.93600 46.89600 23.50500
H  8.34500 50.31400 30.80700
H  11.08400 49.67100 30.78000
H  10.89200 52.02600 29.07600
H  11.40600 51.94500 30.62700
H  9.55200 52.21200 30.27800
H  9.91300 48.07500 31.82300
H  8.48600 47.49900 30.99900
H  7.16000 49.04200 32.61700
H  8.66400 49.88600 33.06700
H  14.61900 49.09200 28.16200
H  15.07700 50.13400 26.84400
H  15.64100 48.36900 26.83400
H  16.44500 47.58600 24.76600
H  16.21600 49.35800 24.85900
H  16.59600 48.64000 23.27500
H  10.32900 46.23000 21.68100
H  7.56800 47.45500 21.39700
H  9.32200 48.04200 19.81500
H  10.86700 47.89600 20.08900
H  10.18200 49.17200 21.02000
H  7.82400 44.75300 22.63200
H  8.72800 44.90600 21.09400
H  6.91300 44.73900 19.89600
H  5.95900 45.87600 20.87300
H  6.07000 44.24500 21.45300
H  3.99800 46.77100 24.57100
H  3.42600 48.40800 25.07700
H  3.25200 46.99500 26.16600
H  5.78000 49.72200 30.12500
H  4.82300 47.26700 33.53300
H  5.31300 46.01200 32.43300
H  3.58500 46.66100 32.38600

