158

Mg 9.12400 3.16300 27.23700
C  10.50500 1.55800 30.07900
C  7.36000 5.31900 29.37400
C  7.59700 4.39700 24.57300
C  10.53600 0.53800 25.19400
N  8.95000 3.34800 29.48600
C  9.62100 2.62400 30.41700
C  9.35800 3.19900 31.79400
C  8.30200 4.32500 31.55600
C  8.21500 4.36500 30.02300
C  6.89500 4.21100 32.29500
C  10.62400 3.66700 32.61200
C  10.34200 4.55600 33.83200
H  10.97500 4.18300 35.15900
N  7.86000 4.82000 26.97800
C  7.21700 5.57100 27.98300
C  6.35300 6.55200 27.33700
C  6.39400 6.27300 25.92000
C  7.32500 5.14900 25.80000
C  5.48000 7.56300 28.10500
C  5.67700 6.86000 24.72500
O  5.69600 6.40700 23.56500
C  4.66800 7.95100 24.98100
N  9.17300 2.55600 25.17400
C  8.30500 3.19200 24.33900
C  8.30000 2.48900 22.94400
C  9.34900 1.39800 23.07300
C  9.73100 1.50400 24.57900
C  6.91900 2.05500 22.34300
C  10.67000 1.72000 22.24100
C  10.95200 0.82400 20.97800
N  10.30100 1.36600 27.50800
C  10.88000 0.49300 26.59700
C  11.70800 -0.46600 27.32300
C  11.67100 0.00700 28.66400
C  10.73800 1.09400 28.73700
C  12.42400 -1.67900 26.81400
C  12.19500 -0.24000 30.00400
O  13.00400 -1.08600 30.46100
C  11.43300 0.74600 30.94900
C  10.73400 0.05800 32.09700
O  9.62100 -0.41800 32.06500
O  11.46500 0.05500 33.38200
C  10.74900 -0.39100 34.49400
H  7.08900 6.19200 29.97200
H  7.18300 4.77300 23.63500
H  10.87200 -0.29300 24.57100
H  8.87900 2.33600 32.25700
H  8.74500 5.29100 31.79600
H  6.85500 3.69400 33.25400
H  6.28400 3.63900 31.59700
H  6.57600 5.22700 32.52900
H  11.24800 4.18800 31.88600
H  11.23000 2.82300 32.94000
H  9.28100 4.48300 34.06900
H  10.57400 5.60600 33.65000
H  5.80500 8.59300 27.96000
H  5.59000 7.44200 29.18300
H  4.47800 7.32800 27.74600
H  4.03600 7.49000 25.74000
H  4.06500 8.18900 24.10500
H  5.13900 8.83700 25.40800
H  8.54300 3.22100 22.17400
H  9.01300 0.37300 22.91600
H  6.97700 0.99200 22.11200
H  6.56000 2.55400 21.44300
H  6.15500 2.19800 23.10800
H  11.51100 1.71400 22.93400
H  10.62500 2.73400 21.84400
H  11.99100 0.49800 21.02100
H  10.81000 1.41600 20.07300
H  10.37300 -0.09900 21.00200
H  12.67400 -2.28000 27.68800
H  13.32500 -1.31100 26.32300
H  11.70400 -2.21400 26.19400
H  12.22000 1.38300 31.35100
H  9.98700 0.37300 34.64500
H  11.24500 -0.38400 35.46500
H  10.23600 -1.33000 34.28500
Mg 43.98900 2.77400 47.07600
C  43.40200 6.02700 46.18300
C  40.64200 1.90200 46.18300
C  44.66700 -0.53700 47.46400
C  47.43900 3.51600 47.14100
N  42.36400 3.83100 46.25300
C  42.28700 5.18200 45.92200
C  40.88600 5.53800 45.39600
C  40.01300 4.36000 45.93300
C  41.07600 3.27900 46.13900
C  39.22900 4.77400 47.21100
C  40.82100 5.71100 43.86500
C  40.15500 7.05700 43.45100
H  39.10100 6.95000 42.36400
N  42.78300 0.88400 46.83600
C  41.46600 0.77400 46.46500
C  41.11600 -0.59700 46.31600
C  42.29000 -1.34400 46.83200
C  43.27000 -0.33500 47.07700
C  39.79200 -1.20500 45.76900
C  42.39700 -2.85600 46.92500
O  41.50500 -3.53900 46.48300
C  43.58300 -3.51300 47.43900
N  45.78500 1.68400 47.31400
C  45.75800 0.32800 47.55300
C  47.24900 -0.21200 47.62000
C  48.07900 1.08900 47.49900
C  47.04700 2.21900 47.28800
C  47.46300 -0.98300 48.87600
C  49.12200 1.01300 46.29800
C  50.53800 1.53900 46.52800
N  45.25300 4.46000 46.86500
C  46.57300 4.58400 46.99700
C  46.89600 6.05000 47.04800
C  45.66100 6.64400 46.69800
C  44.74800 5.64700 46.57100
C  48.23300 6.56700 47.34200
C  44.91400 7.90800 46.48600
O  45.40900 9.03500 46.64500
C  43.44200 7.52300 46.03000
C  42.53000 8.39700 46.87300
O  42.27800 8.08100 47.97600
O  42.11000 9.55600 46.29500
C  41.03300 10.20000 47.05000
H  39.63300 1.69400 45.81900
H  45.01900 -1.54400 47.69400
H  48.51700 3.67800 47.06500
H  40.52900 6.43200 45.90800
H  39.34700 4.00500 45.14700
H  39.51700 5.74400 47.61800
H  39.41000 4.09600 48.04500
H  38.16200 4.84100 47.00100
H  40.29300 4.86000 43.43500
H  41.86400 5.69500 43.55000
H  40.94300 7.72700 43.10600
H  39.68500 7.54300 44.30600
H  39.17400 -1.35500 46.65400
H  39.94800 -2.15600 45.26000
H  39.50900 -0.45800 45.02800
H  43.75600 -3.11100 48.43700
H  44.36100 -3.31000 46.70200
H  43.40300 -4.57300 47.61700
H  47.37600 -0.88700 46.77400
H  48.49900 1.24200 48.49300
H  47.11100 -2.00500 48.73500
H  47.07100 -0.41100 49.71700
H  48.53100 -1.10600 49.05500
H  48.78000 1.55200 45.41400
H  49.19500 -0.01900 45.95400
H  50.61900 2.04300 47.49100
H  50.79000 2.17800 45.68200
H  51.17600 0.65500 46.52500
H  48.36700 7.24200 46.49800
H  49.06700 5.86600 47.35900
H  48.11400 7.16400 48.24600
H  43.32500 7.93900 45.03000
H  41.49500 10.87300 47.77300
H  40.41200 9.54300 47.65800
H  40.38000 10.78700 46.40500

