158

Mg 36.24600 49.50400 25.78700
C  36.22700 47.43800 28.61500
C  34.95200 52.14300 27.85100
C  35.63400 51.33100 22.98300
C  37.12400 46.68800 23.89900
N  35.58900 49.70700 27.92300
C  35.74300 48.77500 28.88400
C  35.49400 49.29300 30.30700
C  34.82700 50.66800 30.01800
C  35.17200 50.89500 28.53700
C  33.41000 50.96500 30.50800
C  36.74200 49.43200 31.13600
C  36.55600 48.87300 32.57300
H  35.25300 49.13000 33.29300
N  35.54300 51.45400 25.50500
C  35.06800 52.37500 26.42300
C  34.78900 53.60400 25.79000
C  34.89600 53.35300 24.36000
C  35.30800 51.99300 24.28500
C  34.25800 54.81200 26.59200
C  34.65500 54.28400 23.11600
O  34.81300 54.00200 21.96300
C  33.86100 55.56100 23.44500
N  36.56100 49.12200 23.77800
C  36.14100 49.98900 22.81800
C  36.36400 49.39000 21.43400
C  37.15300 48.13600 21.76100
C  36.92700 47.93700 23.23400
C  35.11600 49.22500 20.47900
C  38.65900 48.15700 21.31100
C  39.02100 47.03600 20.31400
N  36.78300 47.58900 26.14000
C  37.02900 46.54700 25.30800
C  37.26100 45.32000 25.96700
C  36.98800 45.61500 27.29000
C  36.67600 46.97800 27.37000
C  37.61800 44.02200 25.28100
C  36.91300 45.08500 28.61700
O  37.13400 44.00800 29.05200
C  36.43200 46.32800 29.56500
C  35.26400 45.77700 30.40000
O  34.12100 45.74800 30.01600
O  35.67500 45.30900 31.67200
C  34.56100 44.78500 32.51900
H  34.63400 52.91900 28.55100
H  35.52400 51.86800 22.03900
H  37.43600 45.86400 23.25500
H  34.77100 48.61000 30.75300
H  35.31200 51.44400 30.61000
H  32.97400 50.03400 30.87000
H  32.74500 51.23500 29.68800
H  33.32700 51.78500 31.22100
H  37.17000 50.43400 31.16500
H  37.62700 48.96000 30.70700
H  37.11600 49.56700 33.19900
H  36.83100 47.82100 32.64900
H  34.45100 55.75700 26.08400
H  34.77800 54.99500 27.53200
H  33.21000 54.69100 26.86500
H  33.13500 55.29000 24.21100
H  33.42100 55.81700 22.48100
H  34.49600 56.41300 23.68800
H  36.97000 50.09900 20.86900
H  36.61200 47.27400 21.37100
H  34.25400 49.46700 21.10100
H  34.94100 48.18100 20.22000
H  35.26400 49.85400 19.60200
H  39.27200 47.88200 22.16900
H  38.97200 49.17400 21.07500
H  39.14000 47.59900 19.38800
H  38.15800 46.38200 20.18500
H  39.91000 46.54900 20.71400
H  38.67300 43.99500 25.00900
H  36.96600 43.92500 24.41300
H  37.45000 43.15400 25.91900
H  37.24700 46.55900 30.25100
H  34.82300 45.09100 33.53100
H  34.36800 43.71300 32.54100
H  33.63100 45.28400 32.24400
Mg 26.81000 50.46200 26.98100
C  24.62000 51.32100 29.69800
C  29.10100 49.48100 29.28000
C  28.83800 49.90900 24.39600
C  24.32100 51.66200 24.84700
N  26.83700 50.50300 29.23900
C  25.83600 50.78300 30.07800
C  26.37600 50.48800 31.54300
C  27.77300 49.91400 31.42800
C  27.91600 50.05100 29.89700
C  28.83900 50.52400 32.33200
C  25.36800 49.52300 32.29400
C  24.37900 50.10700 33.27900
H  24.17700 49.45500 34.70500
N  28.76800 49.74400 26.85900
C  29.48600 49.41600 27.91700
C  30.79600 48.99000 27.40400
C  30.72700 49.05300 25.97800
C  29.43500 49.59500 25.66300
C  31.91900 48.42700 28.32700
C  31.83700 48.79600 24.92900
O  31.65600 48.98600 23.72000
C  33.23500 48.20800 25.33900
N  26.70200 50.94800 24.94100
C  27.65500 50.56100 24.02700
C  27.23100 50.80200 22.49000
C  25.74400 51.20700 22.71700
C  25.55100 51.32900 24.22500
C  27.92500 51.98600 21.70600
C  24.67500 50.26500 22.03200
C  24.70700 48.75600 22.29700
N  24.94000 51.45100 27.14500
C  24.02900 51.80500 26.17900
C  22.83600 52.38000 26.75900
C  22.99300 52.21900 28.14900
C  24.26800 51.62200 28.31200
C  21.65000 53.09700 26.00800
C  22.44200 52.51000 29.41200
O  21.38800 53.10600 29.68000
C  23.41900 51.93300 30.50200
C  23.67400 53.10100 31.36800
O  24.43000 54.00100 31.22500
O  22.69200 53.13100 32.33800
C  22.78300 54.31600 33.27100
H  29.86400 49.13900 29.98200
H  29.43800 49.72700 23.50200
H  23.57800 51.96600 24.10600
H  26.63300 51.42800 32.03000
H  27.79200 48.84600 31.64500
H  28.91900 51.59000 32.11600
H  29.78600 50.01200 32.16600
H  28.55400 50.46400 33.38300
H  25.88400 48.87400 33.00200
H  24.87900 48.88700 31.55500
H  23.36200 49.89900 32.94300
H  24.49500 51.18700 33.37000
H  31.70500 48.65000 29.37300
H  32.89500 48.80200 28.01900
H  31.83700 47.37300 28.06000
H  33.84100 48.14300 24.43600
H  33.13900 47.27700 25.89800
H  33.79100 48.93500 25.93000
H  27.48500 49.81600 22.09900
H  25.48100 52.16200 22.26200
H  27.57900 52.94600 22.08800
H  27.64400 51.92200 20.65500
H  29.01400 52.01800 21.71500
H  24.90800 50.34500 20.97000
H  23.69200 50.73700 22.01500
H  23.71400 48.38500 22.54900
H  25.34300 48.53200 23.15300
H  24.94800 48.17100 21.40900
H  20.80300 52.93500 26.67500
H  21.49000 52.69000 25.01000
H  22.05600 54.10800 25.96600
H  22.85000 51.18900 31.05900
H  22.88300 55.22000 32.67100
H  23.62000 54.19000 33.95900
H  21.81700 54.34800 33.77500

