158

Mg -1.91000 16.89300 25.11600
C  -2.16100 14.85500 27.90600
C  -2.92300 19.48900 26.96400
C  -1.78300 18.78600 22.27600
C  -1.20400 13.98500 23.21900
N  -2.59000 17.16800 27.25800
C  -2.59800 16.22000 28.18200
C  -2.96300 16.86800 29.60100
C  -3.52300 18.26300 29.13400
C  -3.05900 18.27700 27.67400
C  -5.07300 18.52200 29.21300
C  -1.80600 16.94600 30.59900
C  -1.78000 16.04600 31.84200
H  -2.47600 16.61200 33.00900
N  -2.20700 18.92100 24.71500
C  -2.56200 19.81500 25.64600
C  -2.56200 21.15200 25.05800
C  -2.26800 21.00000 23.68300
C  -2.13900 19.48300 23.47200
C  -2.70900 22.41400 25.86700
C  -2.21400 21.93200 22.57200
O  -1.94100 21.57400 21.47700
C  -2.43300 23.35500 22.87400
N  -1.63700 16.39300 22.96300
C  -1.42100 17.40000 22.10600
C  -1.04500 16.88100 20.72300
C  -0.68400 15.39300 21.15000
C  -1.20400 15.22300 22.54300
C  -2.05900 17.06300 19.47500
C  0.79400 15.07300 21.07600
C  1.64400 16.01300 21.90700
N  -1.82600 14.78400 25.43200
C  -1.55800 13.75500 24.54800
C  -1.69700 12.50300 25.24300
C  -1.86800 12.89800 26.61800
C  -1.97900 14.30800 26.63400
C  -1.56300 11.07000 24.67200
C  -1.95700 12.49700 27.97800
O  -1.91700 11.35200 28.46300
C  -1.95900 13.78100 28.84200
C  -0.74600 14.01900 29.54900
O  0.20200 14.68500 29.22000
O  -0.69100 13.28900 30.67500
C  0.61800 13.23300 31.29500
H  -3.23100 20.36500 27.54000
H  -1.63200 19.29000 21.31900
H  -1.01100 13.08800 22.62600
H  -3.76800 16.33100 30.10100
H  -3.09400 19.09800 29.68700
H  -5.64000 17.74600 29.72600
H  -5.52900 18.87800 28.28900
H  -5.10300 19.40200 29.85500
H  -1.55400 17.96000 30.90700
H  -0.93300 16.83800 29.95600
H  -0.77200 15.77000 32.15200
H  -2.14000 15.06900 31.52000
H  -1.87700 23.11800 25.84400
H  -2.81200 22.13300 26.91500
H  -3.59500 23.00900 25.64500
H  -2.84500 23.78400 21.96000
H  -1.48400 23.85600 23.06600
H  -3.21500 23.50600 23.61800
H  -0.13100 17.38900 20.41600
H  -1.21600 14.68000 20.52100
H  -1.62000 17.51600 18.58600
H  -2.92600 17.64600 19.78400
H  -2.33500 16.03800 19.22600
H  1.00400 15.08800 20.00600
H  0.87600 14.02100 21.34900
H  2.14700 15.42600 22.67600
H  1.26700 16.99000 22.21100
H  2.43900 16.40800 21.27500
H  -1.70700 11.01800 23.59200
H  -2.39300 10.67300 25.25700
H  -0.60200 10.61600 24.91200
H  -2.83700 13.81500 29.48700
H  1.50600 13.48100 30.71200
H  0.74800 12.23600 31.71500
H  0.64800 14.00000 32.06900
Mg 40.79500 40.98900 26.69900
C  40.38500 43.38000 29.18100
C  41.58000 38.71900 29.09400
C  41.58000 38.78200 24.32800
C  40.28600 43.43100 24.32900
N  41.09700 41.13400 28.90200
C  40.58300 42.09100 29.74800
C  40.57400 41.70000 31.27600
C  41.06800 40.23700 31.10300
C  41.25100 40.01300 29.56500
C  42.34500 39.96200 31.94100
C  39.11500 41.89600 31.93300
C  39.00000 41.26200 33.31300
H  39.19100 42.22600 34.48900
N  41.59700 39.02000 26.73200
C  41.83100 38.24700 27.80100
C  42.26700 36.95800 27.40200
C  42.35900 36.90700 26.01100
C  41.87100 38.30400 25.62700
C  42.58900 35.89900 28.48500
C  42.86200 35.87400 25.05500
O  42.75900 35.92600 23.77200
C  43.46500 34.66700 25.71200
N  40.85200 41.08500 24.64100
C  41.23200 40.00500 23.82600
C  41.07400 40.34700 22.30100
C  40.47100 41.85100 22.36000
C  40.49500 42.14700 23.83800
C  42.29500 40.17400 21.37400
C  39.12300 42.06100 21.58000
C  39.26400 42.15400 20.04700
N  40.37600 42.98900 26.67600
C  40.19600 43.86700 25.64000
C  40.00400 45.17800 26.12500
C  40.08000 45.03500 27.46400
C  40.28500 43.67800 27.79600
C  40.04300 46.38000 25.29700
C  39.92300 45.76100 28.70900
O  39.65900 46.91200 29.01400
C  40.06100 44.68100 29.87700
C  41.15900 45.19400 30.80800
O  42.32200 45.34400 30.47400
O  40.76600 45.45400 32.10400
C  41.76200 45.98300 33.06400
H  41.55200 38.00900 29.92400
H  41.63300 37.98600 23.58300
H  40.06000 44.15800 23.54600
H  41.26300 42.35900 31.80400
H  40.33100 39.51800 31.46100
H  42.45900 40.64300 32.78400
H  43.24300 40.11800 31.34300
H  42.24700 38.96700 32.37500
H  38.29500 41.54000 31.30900
H  38.99300 42.97200 32.06100
H  39.65100 40.41100 33.51500
H  38.02000 40.80600 33.17700
H  42.05000 35.05700 28.05200
H  42.10900 36.01700 29.45600
H  43.65700 35.68100 28.48600
H  42.69900 34.04400 26.17300
H  44.29900 35.02400 26.31700
H  43.92000 34.03400 24.95100
H  40.25900 39.74700 21.89800
H  41.16700 42.57500 21.93600
H  41.99600 39.48100 20.58800
H  43.02900 39.53800 21.86900
H  42.74400 40.99200 20.81100
H  38.58200 42.95100 21.90400
H  38.57400 41.14200 21.78700
H  38.63000 42.97300 19.70800
H  38.93300 41.23200 19.56900
H  40.25800 42.24900 19.60900
H  40.58000 47.08500 25.93300
H  39.10200 46.84100 24.99800
H  40.68400 46.28900 24.42000
H  39.15600 44.40900 30.42000
H  41.46100 45.44900 33.96500
H  41.71000 47.03800 33.33500
H  42.79600 45.75900 32.80500

