158

Mg 16.25100 52.27200 26.48800
C  18.03500 50.93700 29.09300
C  13.66600 52.68800 28.68800
C  14.52800 53.24400 23.92800
C  18.77800 51.05700 24.22400
N  15.91600 51.79300 28.55800
C  16.81000 51.48800 29.48800
C  16.43200 51.76900 31.00400
C  14.90600 51.91600 30.74900
C  14.83000 52.21700 29.19800
C  14.12900 50.63900 31.29100
C  17.28600 53.00300 31.39500
C  17.44100 53.30700 32.93900
H  16.43900 52.54000 33.93200
N  14.34200 53.04000 26.37800
C  13.36900 53.07700 27.34700
C  12.20400 53.73500 26.75500
C  12.48200 53.99000 25.37600
C  13.83500 53.40400 25.17700
C  10.95300 54.11700 27.57200
C  11.65100 54.63900 24.24900
O  12.07800 54.91100 23.17500
C  10.28700 55.22600 24.56200
N  16.59100 52.09500 24.45900
C  15.70800 52.69300 23.59600
C  16.17400 52.66800 22.17400
C  17.71700 52.42800 22.28600
C  17.78300 51.84500 23.68900
C  15.51300 51.67500 21.14500
C  18.68700 53.54800 22.05300
C  18.88900 53.87500 20.54200
N  17.98800 51.13600 26.58500
C  19.01600 50.77000 25.60900
C  20.05400 50.15600 26.26900
C  19.73100 50.15500 27.60500
C  18.47300 50.76000 27.75400
C  21.26000 49.54800 25.69700
C  20.26100 49.87900 28.92800
O  21.26900 49.29100 29.31700
C  19.17700 50.42700 29.94100
C  18.64700 49.37300 30.88100
O  17.64400 48.71800 30.73700
O  19.35000 49.37900 32.06000
C  18.70400 48.62600 33.13400
H  12.77900 52.73100 29.32400
H  13.97400 53.61000 23.06100
H  19.63100 50.93100 23.55400
H  16.62800 50.92600 31.66700
H  14.45600 52.81900 31.16000
H  13.41900 50.80400 32.10200
H  14.82700 49.85800 31.59000
H  13.56100 50.19400 30.47400
H  16.80700 53.79000 30.81300
H  18.29900 52.81800 31.03500
H  17.26500 54.38000 33.01500
H  18.42500 53.14900 33.38300
H  10.03000 53.77200 27.10800
H  10.87400 55.20100 27.64800
H  10.92100 53.62400 28.54400
H  9.94800 55.72200 23.65200
H  10.33000 55.82400 25.47200
H  9.71100 54.33900 24.82400
H  16.06600 53.70500 21.85300
H  18.04300 51.66900 21.57400
H  15.32300 52.21100 20.21600
H  14.59200 51.22800 21.51900
H  16.20300 50.93000 20.75100
H  19.60200 53.19400 22.53000
H  18.27600 54.38300 22.62000
H  18.10300 53.38200 19.97000
H  19.89100 53.57000 20.24000
H  18.97000 54.95000 20.38400
H  21.87800 50.32600 25.25000
H  20.95000 48.81300 24.95400
H  21.70900 48.97800 26.51000
H  19.50800 51.28600 30.52400
H  18.67100 47.56500 32.88500
H  17.66700 48.89300 33.33500
H  19.21700 48.64400 34.09600
Mg -4.08500 25.83000 25.51800
C  -3.06200 27.19900 28.49500
C  -6.12300 23.59500 27.38000
C  -4.77100 24.04400 22.67800
C  -1.70600 27.67800 23.85100
N  -4.62600 25.46100 27.70600
C  -4.04800 26.19800 28.67600
C  -4.63700 25.82500 30.06600
C  -5.44300 24.54900 29.71400
C  -5.41000 24.52900 28.15900
C  -5.07200 23.21700 30.46200
C  -5.52500 26.91200 30.73900
C  -5.24100 27.34300 32.22000
H  -4.96800 26.27700 33.31100
N  -5.31500 24.11100 25.07600
C  -6.11700 23.37300 25.96100
C  -6.90900 22.37900 25.25600
C  -6.50900 22.47600 23.83200
C  -5.48300 23.58400 23.78700
C  -7.93100 21.49300 25.92400
C  -7.00100 21.74500 22.62000
O  -6.73000 22.09600 21.47900
C  -8.02000 20.58500 22.70400
N  -3.37500 25.89100 23.56600
C  -3.77700 25.03700 22.57300
C  -3.07000 25.32900 21.26400
C  -2.26500 26.61300 21.54500
C  -2.40100 26.75800 23.07900
C  -2.22200 24.12800 20.75700
C  -2.55800 27.93000 20.69600
C  -3.74900 28.81200 21.03000
N  -2.73300 27.26400 25.96400
C  -1.85500 27.99900 25.19800
C  -1.01400 28.76900 26.03300
C  -1.51900 28.56100 27.37000
C  -2.53400 27.61300 27.25600
C  0.09800 29.74300 25.63100
C  -1.36200 28.88400 28.73000
O  -0.51000 29.55900 29.36000
C  -2.36400 27.95600 29.54900
C  -1.54800 27.26000 30.52200
O  -1.14900 26.16300 30.40800
O  -1.38100 28.07500 31.59700
C  -0.90600 27.43300 32.82300
H  -6.61000 22.80900 27.96100
H  -4.78200 23.43000 21.77600
H  -0.88800 28.24600 23.40300
H  -3.75900 25.62300 30.67900
H  -6.49900 24.68900 29.94700
H  -4.70800 22.38500 29.86000
H  -6.01700 22.81200 30.82300
H  -4.42800 23.31000 31.33700
H  -6.57600 26.64700 30.85100
H  -5.46700 27.80000 30.11000
H  -5.98100 27.98500 32.69700
H  -4.38900 27.99100 32.01600
H  -7.46100 20.98300 26.76500
H  -8.23000 20.72100 25.21500
H  -8.82300 22.05700 26.19400
H  -9.02500 20.97400 22.86900
H  -7.83200 19.82500 23.46200
H  -8.04700 20.17900 21.69200
H  -3.77900 25.51800 20.45800
H  -1.19500 26.44200 21.43300
H  -1.22600 24.52700 20.56300
H  -2.69000 23.66700 19.88700
H  -2.07000 23.37700 21.53200
H  -2.60700 27.48700 19.70200
H  -1.64200 28.52000 20.71600
H  -4.22800 28.26200 21.84000
H  -4.41800 28.94800 20.18100
H  -3.35700 29.77200 21.36500
H  -0.38500 30.52400 25.04500
H  0.76400 29.18700 24.97100
H  0.69300 30.06100 26.48700
H  -3.08900 28.58600 30.06500
H  -1.18100 26.39200 32.99600
H  -1.29200 27.95100 33.70100
H  0.17700 27.36800 32.92700

