158

Mg 47.24000 25.24100 28.18500
C  48.11900 27.53800 30.64800
C  46.19300 23.05200 30.55900
C  46.41700 23.08200 25.74200
C  48.50000 27.39700 25.73300
N  47.24200 25.27400 30.37000
C  47.53300 26.34700 31.17400
C  47.39400 26.03400 32.69800
C  46.84600 24.55600 32.57600
C  46.81900 24.26100 31.06300
C  47.65000 23.58400 33.40300
C  46.54500 27.16700 33.41600
C  45.83700 26.62600 34.69500
H  45.42300 27.63300 35.84000
N  46.43800 23.34900 28.13000
C  46.08100 22.57900 29.21400
C  45.63700 21.26100 28.82300
C  45.55600 21.27900 27.42300
C  46.16000 22.57200 27.00900
C  45.34000 20.09300 29.74700
C  45.04400 20.19400 26.50000
O  45.05100 20.36700 25.28600
C  44.54400 18.90100 27.03000
N  47.36900 25.21600 25.97900
C  47.02700 24.27600 25.27000
C  47.22400 24.43700 23.75500
C  47.69700 25.94300 23.67100
C  47.89900 26.24300 25.22600
C  48.15600 23.39800 23.06100
C  46.80100 26.94400 22.95000
C  47.32100 27.37800 21.51800
N  48.17000 27.04700 28.16600
C  48.56400 27.85300 27.13200
C  49.08900 29.09900 27.62200
C  48.97300 29.07400 28.97900
C  48.36900 27.76600 29.28200
C  49.73100 30.20300 26.91300
C  49.19300 29.74000 30.23900
O  49.65300 30.85000 30.49200
C  48.53100 28.88200 31.30000
C  49.49600 28.71800 32.37400
O  50.31700 27.83300 32.62900
O  49.11800 29.60200 33.37900
C  49.74700 29.48500 34.66700
H  45.69400 22.50600 31.36200
H  46.20100 22.36400 24.94800
H  48.84000 28.09900 24.96900
H  48.44500 26.14100 32.96400
H  45.82500 24.47600 32.95000
H  47.84400 22.71300 32.77700
H  47.08500 23.20500 34.25500
H  48.63700 23.97900 33.64600
H  45.91700 27.73300 32.72800
H  47.21900 27.91200 33.83700
H  46.49800 25.85900 35.09800
H  44.90900 26.15300 34.37300
H  46.04900 19.31800 29.45300
H  44.30400 19.76200 29.81700
H  45.63900 20.37300 30.75700
H  45.44700 18.61600 27.57000
H  44.29600 18.27600 26.17300
H  43.74200 19.05200 27.75300
H  46.27500 24.47200 23.22000
H  48.72400 25.90100 23.30600
H  49.03400 23.89700 22.65100
H  47.63300 23.06100 22.16500
H  48.45500 22.54700 23.67300
H  46.79200 27.77800 23.65100
H  45.77700 26.56900 22.92900
H  46.36900 27.37300 20.98800
H  48.01100 26.61300 21.16100
H  47.75000 28.37800 21.57800
H  49.36300 31.09200 27.42500
H  49.54600 30.29600 25.84300
H  50.80700 30.06800 27.02200
H  47.60300 29.36400 31.60700
H  49.25800 28.78500 35.34400
H  49.90500 30.43600 35.17600
H  50.81100 29.28700 34.53600
Mg -11.90300 16.36800 42.37600
C  -8.85400 14.81800 41.59700
C  -10.66200 19.17200 40.61700
C  -15.04700 17.71500 42.17500
C  -13.17800 13.34200 43.24600
N  -10.02600 16.85800 41.21200
C  -8.94500 16.07700 41.08900
C  -7.84500 16.73100 40.22900
C  -8.36900 18.18700 40.09800
C  -9.79700 18.09700 40.71100
C  -7.57500 19.35800 40.81400
C  -7.61300 16.02200 38.86600
C  -6.30800 15.28400 38.68600
H  -5.38400 15.76900 37.55600
N  -12.70400 18.29000 41.82800
C  -12.02100 19.26700 41.02000
C  -12.90700 20.38700 40.89900
C  -14.16800 20.05600 41.55600
C  -14.03600 18.64100 41.84800
C  -12.37600 21.66700 40.36000
C  -15.31900 21.02500 41.58900
O  -15.25900 22.06500 40.97500
C  -16.50300 20.75800 42.31500
N  -13.88900 15.61300 42.49400
C  -14.99700 16.34800 42.43200
C  -16.26200 15.45900 42.63700
C  -15.63900 14.20700 43.32700
C  -14.17300 14.33700 42.94400
C  -17.42800 16.06000 43.48100
C  -16.30300 12.94300 42.89300
C  -16.62700 11.94300 44.08000
N  -11.17600 14.53000 42.63100
C  -11.78300 13.39500 42.95700
C  -10.81800 12.27200 43.05200
C  -9.68300 12.84300 42.53600
C  -9.92100 14.16800 42.29000
C  -11.17700 10.90600 43.50800
C  -8.37300 12.55900 42.16900
O  -7.76500 11.52700 42.20600
C  -7.68800 13.81800 41.60500
C  -6.54800 14.32400 42.51700
O  -6.62300 14.88200 43.63100
O  -5.34600 13.95900 42.01600
C  -4.16300 14.23700 42.80500
H  -10.30400 20.04100 40.06000
H  -16.00300 18.24100 42.13800
H  -13.66900 12.45200 43.64600
H  -6.92700 16.91100 40.78900
H  -8.52000 18.45900 39.05300
H  -7.78300 20.26300 40.24400
H  -6.51800 19.18300 40.61000
H  -7.71700 19.41500 41.89300
H  -7.69200 16.74000 38.04900
H  -8.45500 15.34900 38.70300
H  -6.49900 14.25100 38.39400
H  -5.81900 15.36300 39.65600
H  -13.14700 22.39000 40.09300
H  -11.92700 21.60300 39.36900
H  -11.64400 22.20600 40.96200
H  -17.10300 21.66600 42.38600
H  -16.27800 20.29500 43.27600
H  -16.98300 20.05500 41.63500
H  -16.57200 15.19800 41.62500
H  -15.66300 14.33400 44.40900
H  -16.98900 16.95400 43.92300
H  -17.80300 15.42400 44.28300
H  -18.22300 16.47400 42.86000
H  -15.85100 12.51700 41.99700
H  -17.26800 13.21500 42.46600
H  -16.45400 12.35800 45.07300
H  -15.83300 11.19700 44.08600
H  -17.62100 11.49500 44.10200
H  -10.31500 10.34700 43.87200
H  -11.80000 10.29700 42.85300
H  -11.74300 11.16400 44.40300
H  -7.29200 13.61800 40.60900
H  -4.14100 15.24100 43.22900
H  -3.33900 14.12100 42.10200
H  -4.08200 13.54900 43.64700

