158

Mg -1.23200 17.26600 26.73000
C  -1.64400 15.09100 29.38600
C  -1.73800 19.93100 28.93600
C  -1.17100 19.36400 24.15700
C  -1.43000 14.65400 24.53900
N  -1.65700 17.44000 28.89300
C  -1.75500 16.41500 29.83200
C  -1.90200 16.96300 31.29400
C  -2.18900 18.48200 31.01900
C  -1.88000 18.67900 29.53100
C  -3.60200 19.02000 31.46500
C  -0.70900 16.68700 32.28600
C  -0.68300 17.60000 33.54900
H  -0.58400 16.95200 34.94000
N  -1.29500 19.31300 26.58400
C  -1.37300 20.25800 27.62400
C  -1.23100 21.52700 27.07600
C  -1.07100 21.43000 25.65100
C  -1.08000 19.97600 25.41600
C  -1.36200 22.80200 27.94200
C  -1.01000 22.58500 24.66800
O  -0.97500 22.41700 23.46700
C  -0.78200 24.02200 25.07600
N  -1.25700 17.11300 24.67700
C  -1.30500 18.10900 23.79700
C  -1.52500 17.64100 22.35500
C  -1.24100 16.07100 22.48300
C  -1.29100 15.91700 24.00300
C  -2.87500 17.96700 21.83600
C  0.15600 15.61900 22.01400
C  0.41900 15.81300 20.52300
N  -1.34100 15.28700 26.81900
C  -1.38100 14.36500 25.94400
C  -1.36700 13.04100 26.51800
C  -1.47200 13.24900 27.84800
C  -1.55000 14.67900 28.01500
C  -1.35900 11.84000 25.65400
C  -1.63600 12.61000 29.12200
O  -1.74800 11.40600 29.37800
C  -1.82500 13.79900 30.17100
C  -0.93200 13.43300 31.24500
O  0.25700 13.64500 31.34100
O  -1.69700 12.85300 32.28900
C  -0.80600 12.41500 33.43200
H  -1.98900 20.77700 29.58000
H  -1.13700 20.08500 23.33700
H  -1.41600 13.78400 23.87900
H  -2.83800 16.70600 31.79000
H  -1.55600 19.19800 31.54500
H  -3.94600 19.67900 30.66800
H  -3.43800 19.59800 32.37400
H  -4.38500 18.33100 31.78000
H  0.18300 16.85500 31.68200
H  -0.73100 15.68700 32.71700
H  -1.58200 18.20500 33.66600
H  0.18400 18.25800 33.48900
H  -2.28100 23.28400 27.60700
H  -0.47300 23.41000 27.77600
H  -1.35600 22.62900 29.01900
H  0.03500 24.15100 25.78500
H  -1.74700 24.33600 25.47300
H  -0.40300 24.47500 24.16000
H  -0.69700 18.11700 21.83100
H  -1.92100 15.37000 21.99900
H  -3.10200 18.95600 22.23400
H  -3.56500 17.14700 22.03600
H  -2.81200 18.11200 20.75700
H  0.31700 14.57200 22.27300
H  0.80100 16.31100 22.55500
H  0.62500 14.87900 19.99900
H  1.28000 16.44900 20.31800
H  -0.41900 16.26900 19.99500
H  -2.30900 11.78600 25.12100
H  -1.28900 11.03800 26.38800
H  -0.58800 11.65200 24.90600
H  -2.86100 13.60500 30.45000
H  -0.42700 13.21700 34.06600
H  0.04300 11.77300 33.20000
H  -1.47600 11.94700 34.15200
Mg 15.75100 52.56900 25.11400
C  17.43100 51.39500 27.93000
C  13.21000 53.50800 27.10900
C  14.19800 53.41700 22.32500
C  18.60200 51.40500 23.13700
N  15.47300 52.56200 27.18000
C  16.31300 52.11000 28.15000
C  15.74200 52.46800 29.55100
C  14.30700 52.81500 29.29100
C  14.30100 52.94300 27.73100
C  13.28000 51.75500 29.70500
C  16.66500 53.52700 30.38100
C  17.06900 53.07900 31.77500
H  16.07100 52.46700 32.82700
N  13.90200 53.36400 24.71000
C  13.03500 53.76800 25.68400
C  11.86300 54.38600 25.10400
C  12.18300 54.39200 23.69100
C  13.47500 53.72700 23.49900
C  10.62200 54.79100 25.86600
C  11.43600 54.99800 22.64500
O  11.88000 55.01200 21.49200
C  10.07900 55.67800 22.92800
N  16.44300 52.59900 23.05000
C  15.51400 52.94000 22.08800
C  16.05800 52.66800 20.70400
C  17.51700 52.19400 20.97000
C  17.53200 52.03500 22.48300
C  15.29200 51.50900 19.88200
C  18.68500 53.13300 20.54000
C  19.88600 52.53100 19.77500
N  17.66800 51.59400 25.38300
C  18.61700 51.14200 24.55700
C  19.60400 50.35400 25.29900
C  19.20600 50.48700 26.60900
C  17.99400 51.14700 26.61700
C  20.73700 49.61500 24.64400
C  19.52000 50.12200 28.00400
O  20.50600 49.55300 28.43700
C  18.36700 50.69100 28.92200
C  17.71000 49.71800 29.78500
O  16.73600 49.02000 29.51100
O  18.33300 49.70200 31.03000
C  17.69800 48.86600 32.06000
H  12.40400 53.93100 27.71200
H  13.65700 53.64900 21.40500
H  19.43400 51.01000 22.55100
H  15.87200 51.64200 30.25000
H  14.02600 53.81900 29.61200
H  12.69100 52.13700 30.53800
H  13.73200 50.83900 30.08400
H  12.66800 51.55000 28.82700
H  16.13900 54.47900 30.45400
H  17.58600 53.75100 29.84300
H  17.32300 54.01100 32.28100
H  17.98700 52.51300 31.62000
H  10.36900 55.84900 25.79400
H  10.65300 54.66900 26.94900
H  9.68900 54.30800 25.57400
H  10.41900 56.39100 23.67800
H  9.21600 55.03700 23.10900
H  9.89700 56.21200 21.99600
H  16.01400 53.66500 20.26600
H  17.68700 51.25600 20.44000
H  15.64100 50.52500 20.19400
H  15.28300 51.68600 18.80600
H  14.28100 51.59400 20.28100
H  19.09900 53.72400 21.35700
H  18.19800 53.81100 19.84000
H  19.77500 51.46900 19.55800
H  20.78800 52.71900 20.35800
H  20.01300 53.02900 18.81300
H  21.63500 50.15900 24.93500
H  20.67900 49.47000 23.56600
H  20.82200 48.65200 25.14800
H  18.85800 51.44900 29.53300
H  18.38400 48.02600 32.16800
H  16.71000 48.45700 31.85100
H  17.74300 49.45300 32.97700

