158

Mg 27.08000 50.00900 26.63100
C  25.05400 51.14500 29.23900
C  29.27800 49.11800 28.85000
C  29.30300 49.67000 23.97100
C  24.98900 51.83300 24.33300
N  27.06300 50.13600 28.79600
C  26.15600 50.47700 29.75600
C  26.66500 50.29000 31.17900
C  28.13300 50.01100 30.91000
C  28.16500 49.76800 29.37100
C  29.03200 51.23800 31.27300
C  25.85200 49.25800 32.00100
C  25.11600 49.81300 33.19500
H  25.87400 50.08500 34.52200
N  28.98500 49.32400 26.49100
C  29.70100 48.86300 27.49700
C  30.96500 48.34700 26.99200
C  31.03300 48.57000 25.58100
C  29.75400 49.24300 25.29500
C  31.99700 47.67200 27.85700
C  32.11400 48.06000 24.64300
O  31.97200 48.31700 23.42000
C  33.35200 47.28200 25.18800
N  27.12400 50.64600 24.42000
C  28.09800 50.25900 23.53400
C  27.73600 50.44600 22.03000
C  26.36700 51.18600 22.25400
C  26.09300 51.18400 23.73800
C  28.69700 51.17800 21.13300
C  25.15300 50.68000 21.44100
C  24.37800 49.48800 22.00800
N  25.35000 51.16000 26.71500
C  24.58700 51.77900 25.68100
C  23.45600 52.54800 26.33200
C  23.60100 52.26500 27.68100
C  24.79300 51.47700 27.87500
C  22.42500 53.31100 25.59100
C  22.98400 52.51500 28.95800
O  21.96700 53.07400 29.21300
C  24.01400 51.90100 30.02700
C  24.66600 53.10200 30.66600
O  25.84100 53.46800 30.49400
O  23.90500 53.48000 31.71600
C  24.62200 54.47400 32.59600
H  29.94800 48.70600 29.60700
H  29.98400 49.46300 23.14300
H  24.29500 52.13700 23.54700
H  26.56300 51.23400 31.71300
H  28.52000 49.11300 31.39000
H  29.10300 51.94800 30.44900
H  30.01600 51.03700 31.69600
H  28.52600 51.78700 32.06700
H  26.53000 48.47900 32.35000
H  25.15800 48.73500 31.34300
H  24.32700 49.09900 33.42800
H  24.55100 50.72700 33.01500
H  32.01300 46.65200 27.47300
H  31.79900 47.58800 28.92500
H  32.87000 48.31700 27.76200
H  33.99700 47.20900 24.31300
H  32.93100 46.34600 25.55500
H  33.82400 47.91800 25.93700
H  27.58200 49.44500 21.62700
H  26.37700 52.25700 22.05500
H  28.32000 52.10500 20.70200
H  28.76300 50.59400 20.21500
H  29.60400 51.40100 21.69500
H  25.52600 50.51800 20.43000
H  24.37000 51.42900 21.32000
H  24.96800 48.94800 22.74900
H  24.28600 48.84700 21.13100
H  23.46600 49.86800 22.46800
H  22.28600 54.33700 25.93400
H  21.52700 52.69800 25.66700
H  22.70200 53.36400 24.53800
H  23.46600 51.46400 30.86200
H  25.50100 53.98500 33.01700
H  23.92800 54.85500 33.34500
H  24.93200 55.31700 31.98000
Mg -12.46600 16.49300 42.30200
C  -9.70000 14.51400 41.62800
C  -10.96300 18.98500 40.55100
C  -15.27400 18.00300 42.38000
C  -14.04400 13.49000 43.68700
N  -10.61300 16.64200 40.91800
C  -9.56700 15.69700 40.94600
C  -8.31200 16.31400 40.24500
C  -8.76000 17.80400 39.98900
C  -10.20900 17.82300 40.50700
C  -7.76200 18.78300 40.73200
C  -7.93400 15.66100 38.89300
C  -6.44200 15.48500 38.52700
H  -5.87000 16.34900 37.42700
N  -12.99600 18.29700 41.65200
C  -12.26300 19.23400 41.07000
C  -13.00800 20.44400 40.92300
C  -14.30400 20.22400 41.39000
C  -14.25200 18.80400 41.85600
C  -12.35900 21.69000 40.24900
C  -15.39700 21.19400 41.43800
O  -15.20700 22.32100 40.94300
C  -16.74000 20.93900 41.99100
N  -14.44800 15.80800 42.93800
C  -15.41200 16.72100 42.82100
C  -16.78300 16.04700 43.12000
C  -16.42400 14.53600 43.45100
C  -14.85500 14.61200 43.43300
C  -17.44200 16.90900 44.28900
C  -17.04600 13.58600 42.41800
C  -17.63400 12.16800 42.87000
N  -12.03100 14.46800 42.75300
C  -12.68500 13.39200 43.33400
C  -11.78800 12.29100 43.53000
C  -10.54800 12.72800 42.99400
C  -10.77200 14.03800 42.40500
C  -12.04800 11.00200 44.30000
C  -9.18200 12.31600 42.74500
O  -8.66800 11.28500 43.14900
C  -8.55200 13.44800 41.88200
C  -7.50700 14.03000 42.78300
O  -7.71500 14.62600 43.80300
O  -6.23200 13.80000 42.33500
C  -5.18700 14.48000 43.12400
H  -10.42200 19.87900 40.23300
H  -16.19500 18.56900 42.22200
H  -14.40500 12.53100 44.06400
H  -7.46300 16.17300 40.91400
H  -8.76000 18.10400 38.94100
H  -8.14300 19.27300 41.62800
H  -7.45500 19.53600 40.00700
H  -6.93500 18.24600 41.19600
H  -8.40200 16.12900 38.02700
H  -8.50600 14.73800 38.79900
H  -6.19300 14.45200 38.28100
H  -5.78700 15.83400 39.32400
H  -12.77200 22.60800 40.66800
H  -12.50300 21.62000 39.17100
H  -11.29700 21.70100 40.49300
H  -16.62000 20.50000 42.98200
H  -17.34100 20.35300 41.29600
H  -17.22100 21.90600 42.13500
H  -17.50700 16.00800 42.30600
H  -16.83600 14.38300 44.44900
H  -16.81300 17.72500 44.64400
H  -17.59800 16.15800 45.06400
H  -18.46800 17.23000 44.10800
H  -16.31500 13.42800 41.62600
H  -17.99200 14.03700 42.11900
H  -17.20100 11.89400 43.83200
H  -17.27500 11.39100 42.19500
H  -18.72200 12.22200 42.82800
H  -11.33300 10.80200 45.09800
H  -11.98700 10.19200 43.57300
H  -13.04800 10.97000 44.73100
H  -8.00800 12.98300 41.06100
H  -4.23400 14.01700 42.86900
H  -5.32000 14.34600 44.19700
H  -5.23800 15.52800 42.82800

