158

Mg 6.00900 54.03200 40.49700
C  5.35700 50.48200 39.80100
C  9.23400 53.40500 39.51000
C  6.46100 57.30500 40.55100
C  2.52900 54.42600 40.82300
N  7.12000 52.12700 39.66200
C  6.66300 50.86700 39.50800
C  7.87300 49.87300 39.27000
C  9.08300 50.83000 39.61600
C  8.43900 52.20900 39.62700
C  9.79000 50.54900 40.92400
C  8.04800 49.13200 37.88600
C  8.01200 50.00400 36.54200
H  6.87600 49.77000 35.57900
N  7.74000 55.21800 40.10300
C  8.91100 54.80500 39.66200
C  9.72900 55.95700 39.49500
C  8.99200 57.08400 40.01600
C  7.67200 56.61500 40.26000
C  11.18600 55.78100 39.07900
C  9.53200 58.47200 40.21100
O  10.71800 58.74100 39.94600
C  8.72300 59.63700 40.67800
N  4.65400 55.61800 40.48100
C  5.12800 56.89100 40.66500
C  3.90800 57.84300 40.86500
C  2.68400 56.90800 40.94600
C  3.30500 55.55800 40.74300
C  4.03200 58.79700 42.13800
C  1.48200 57.22300 40.00900
C  0.28700 57.93000 40.59800
N  4.36100 52.77000 40.50000
C  3.01100 53.07200 40.76100
C  2.18300 51.89100 40.72400
C  3.12400 50.85700 40.45300
C  4.39100 51.39700 40.29800
C  0.70100 51.72400 40.88100
C  3.26600 49.49000 40.29800
O  2.45700 48.62000 40.45300
C  4.71700 49.14200 39.80600
C  4.50300 48.56500 38.42100
O  3.87500 49.09000 37.51300
O  4.87700 47.25100 38.49100
C  4.49900 46.45300 37.29600
H  10.20100 53.05800 39.14100
H  6.59000 58.38300 40.67200
H  1.48900 54.63300 41.08600
H  7.68400 49.17000 40.08100
H  9.73400 50.79300 38.74200
H  9.56100 51.30300 41.67700
H  10.87100 50.54100 40.78200
H  9.60000 49.53500 41.27500
H  7.33200 48.31200 37.93800
H  9.06100 48.73400 37.81300
H  8.95800 49.90700 36.00800
H  7.84600 51.01400 36.91800
H  11.49100 54.79500 39.43100
H  11.82100 56.34400 39.76300
H  11.40600 56.06900 38.05100
H  9.44000 60.45800 40.65800
H  8.40000 59.32700 41.67200
H  8.01000 59.69000 39.85500
H  3.70000 58.41400 39.96000
H  2.31000 56.88000 41.96900
H  3.04900 58.92800 42.59000
H  4.56700 59.65100 41.72100
H  4.65200 58.31600 42.89400
H  1.13600 56.28600 39.57400
H  1.74200 57.78700 39.11400
H  0.28600 58.88700 40.07600
H  0.48100 58.13100 41.65200
H  -0.70400 57.49300 40.48000
H  0.52800 50.94200 41.62000
H  0.24300 51.36600 39.95900
H  0.24600 52.65300 41.22500
H  5.15400 48.37500 40.44600
H  5.14400 45.57400 37.26500
H  4.56500 47.05500 36.38900
H  3.47800 46.09200 37.42200
Mg -2.79200 34.17000 26.77400
C  -4.66500 32.47800 29.22100
C  -1.92700 36.58400 29.17800
C  -1.24200 35.81300 24.38600
C  -4.09500 32.01600 24.32300
N  -3.33800 34.48400 28.91000
C  -4.02400 33.61100 29.72600
C  -3.92200 34.01000 31.20200
C  -3.32200 35.46800 31.03500
C  -2.84100 35.53800 29.62300
C  -4.34700 36.57600 31.36000
C  -3.10000 33.03000 31.97700
C  -3.82800 32.29400 33.06000
H  -4.30100 33.01900 34.26600
N  -1.69200 35.98100 26.79000
C  -1.46000 36.80300 27.86000
C  -0.49200 37.79100 27.47800
C  -0.30000 37.61900 26.03100
C  -1.07200 36.41800 25.68900
C  -0.07800 38.94600 28.33000
C  0.45700 38.48400 25.10700
O  0.50000 38.22400 23.94900
C  1.12800 39.79600 25.59500
N  -2.64400 33.84700 24.64400
C  -1.90500 34.66500 23.90400
C  -1.64200 34.20800 22.43400
C  -2.42400 32.82500 22.52000
C  -3.10100 32.91000 23.91200
C  -2.12900 35.11800 21.29600
C  -1.51800 31.53000 22.41800
C  -2.04200 30.37500 21.52700
N  -4.12100 32.66400 26.70700
C  -4.43400 31.78300 25.64600
C  -5.27800 30.80300 26.20100
C  -5.37700 30.97600 27.54300
C  -4.66200 32.12600 27.82700
C  -5.75400 29.68700 25.38800
C  -6.01300 30.45700 28.73900
O  -6.74200 29.49700 28.81800
C  -5.57300 31.43500 29.92400
C  -6.82000 32.06500 30.59600
O  -7.35300 33.14100 30.25700
O  -7.24500 31.30300 31.70200
C  -8.03700 32.00100 32.66300
H  -1.62300 37.25900 29.98000
H  -0.72400 36.22200 23.51600
H  -4.32800 31.21800 23.61400
H  -4.88000 34.06000 31.71900
H  -2.54300 35.69100 31.76400
H  -4.56800 37.16400 30.46900
H  -3.86500 37.28500 32.03400
H  -5.22700 36.13200 31.82400
H  -2.27400 33.48600 32.52400
H  -2.57900 32.25400 31.41700
H  -3.29400 31.40500 33.39600
H  -4.71600 31.78200 32.68700
H  0.97900 38.82900 28.57100
H  -0.63000 38.98600 29.26900
H  -0.14900 39.92300 27.85100
H  0.41300 40.58400 25.83200
H  1.81300 40.27900 24.89800
H  1.72700 39.58700 26.48100
H  -0.60000 33.93200 22.27100
H  -3.19000 32.82500 21.74400
H  -2.45100 36.06600 21.72600
H  -2.94600 34.63200 20.76200
H  -1.31900 35.30700 20.59100
H  -1.27100 31.22800 23.43600
H  -0.52700 31.88700 22.13800
H  -2.42100 29.56400 22.14900
H  -1.15000 30.16100 20.93900
H  -2.87700 30.70100 20.90700
H  -5.12300 29.33100 24.57400
H  -6.65500 30.01000 24.86600
H  -6.03800 28.88900 26.07400
H  -4.97200 30.88600 30.64900
H  -8.83500 32.60800 32.23400
H  -7.38400 32.65800 33.23800
H  -8.42200 31.33800 33.43800

