158

Mg 35.77900 1.63300 29.89900
C  33.52300 2.79400 32.19700
C  38.23600 1.90200 32.36200
C  38.16600 1.13500 27.50700
C  33.39500 2.04100 27.52600
N  35.90900 2.54400 31.98800
C  34.80200 2.69700 32.71100
C  35.08300 2.76000 34.21900
C  36.69900 2.72700 34.24300
C  36.98300 2.31400 32.77900
C  37.32600 4.12100 34.62400
C  34.32500 1.61300 34.97500
C  33.81600 1.94000 36.40400
H  34.36600 3.32800 36.95500
N  37.87600 1.36800 29.92100
C  38.63800 1.42600 31.07400
C  39.93200 0.97800 30.71600
C  39.98200 0.69200 29.30500
C  38.64700 1.04000 28.84600
C  41.11600 0.79600 31.67800
C  41.09400 0.26400 28.39600
O  41.00600 -0.08500 27.27500
C  42.50800 0.27300 28.98100
N  35.83400 1.67900 27.79700
C  36.90600 1.39900 27.00000
C  36.48700 1.41700 25.47100
C  34.92900 1.72200 25.59800
C  34.72300 1.72900 27.09800
C  37.42800 2.26100 24.51300
C  34.00100 0.62700 24.77500
C  33.33100 1.37300 23.53400
N  33.76100 2.20500 29.80400
C  32.92000 2.34100 28.78100
C  31.66900 2.85800 29.17800
C  31.82400 2.98700 30.60100
C  33.11600 2.65900 30.85300
C  30.44700 3.04900 28.34700
C  31.17200 3.42200 31.79600
O  30.06800 3.90600 32.00500
C  32.19800 3.27100 32.91400
C  32.33300 4.69600 33.45900
O  33.09500 5.57800 33.03100
O  31.55500 4.94900 34.52900
C  31.49500 6.35400 35.06300
H  38.97300 1.95700 33.16500
H  38.89800 0.97400 26.71300
H  32.76400 2.19000 26.64800
H  34.79300 3.70300 34.68200
H  37.20200 1.97700 34.85300
H  38.25600 3.93200 35.16000
H  36.70000 4.81700 35.18200
H  37.67700 4.62200 33.72100
H  35.01800 0.77400 35.03400
H  33.51000 1.18900 34.38900
H  34.19200 1.14100 37.04200
H  32.72800 1.94200 36.45100
H  41.90500 1.54700 31.64700
H  41.60400 -0.15600 31.46900
H  40.67600 0.72600 32.67300
H  43.22700 0.04600 28.19400
H  42.70800 -0.58400 29.62400
H  42.64400 1.24400 29.45700
H  36.66300 0.38300 25.17300
H  34.70500 2.71100 25.19800
H  36.84900 3.04700 24.02600
H  37.90100 1.53200 23.85600
H  38.09100 2.81300 25.17900
H  33.20100 0.20200 25.38200
H  34.61000 -0.13200 24.28400
H  32.89400 0.60400 22.89500
H  33.99100 1.94500 22.88200
H  32.50100 1.98900 23.87700
H  30.26300 2.11100 27.82500
H  30.75200 3.77200 27.59100
H  29.65700 3.44600 28.98500
H  31.67100 2.58300 33.57500
H  32.52300 6.70000 35.17400
H  31.15700 6.39100 36.09800
H  30.79800 6.84300 34.38200
Mg 42.27100 41.72700 26.34500
C  40.96300 43.93000 28.64900
C  42.90700 39.48100 28.80000
C  43.51400 39.73800 23.99500
C  41.69100 44.24100 23.92300
N  42.08300 41.76300 28.53900
C  41.36000 42.71700 29.23700
C  41.31500 42.37500 30.76400
C  42.02200 40.99000 30.73400
C  42.37300 40.68700 29.27400
C  43.26600 40.77000 31.60100
C  39.90700 42.39400 31.38600
C  39.58000 41.66000 32.63100
H  39.30200 42.50000 33.88500
N  42.92000 39.85400 26.38100
C  43.10200 39.00800 27.44600
C  43.46700 37.67700 27.05800
C  43.60700 37.74100 25.63900
C  43.40800 39.20800 25.29400
C  43.50500 36.45600 27.98100
C  43.70200 36.68400 24.62300
O  43.94900 36.79900 23.43900
C  43.61500 35.22800 25.11200
N  42.48200 41.93800 24.21500
C  43.24200 41.03500 23.51500
C  43.56500 41.52900 22.14300
C  42.68300 42.81500 21.99000
C  42.24500 43.04100 23.46100
C  45.13200 41.67900 21.94200
C  41.51900 42.77200 21.01000
C  40.07300 43.03400 21.42900
N  41.55100 43.62600 26.24800
C  41.36100 44.54100 25.20500
C  40.72900 45.78200 25.64600
C  40.64600 45.59500 27.05300
C  41.08200 44.27800 27.33600
C  40.29700 46.96100 24.88800
C  40.20900 46.22800 28.28700
O  39.74900 47.36200 28.47200
C  40.46700 45.16400 29.37200
C  41.50100 45.74600 30.30500
O  42.68100 45.75400 30.18100
O  40.93600 46.17600 31.47700
C  41.76100 46.50500 32.64600
H  43.29200 38.79100 29.55400
H  44.01300 39.28200 23.13800
H  41.56300 45.03300 23.18200
H  42.03000 43.03200 31.26000
H  41.22600 40.29100 30.99000
H  44.11600 40.75700 30.91900
H  43.16700 39.86800 32.20500
H  43.40100 41.62200 32.26800
H  39.13500 42.09700 30.67600
H  39.66800 43.45400 31.48200
H  40.48400 41.09500 32.85500
H  38.80300 40.91100 32.48000
H  44.45100 36.01500 27.66600
H  42.66000 35.80700 27.75000
H  43.54100 36.72100 29.03800
H  43.54000 34.63700 24.19900
H  42.63700 35.10700 25.57900
H  44.55500 34.94600 25.58500
H  43.18900 40.83500 21.39100
H  43.27800 43.71100 21.81100
H  45.67600 41.42000 22.85100
H  45.31300 42.74500 21.80200
H  45.54500 41.10400 21.11300
H  41.58200 41.84200 20.44500
H  41.75100 43.50700 20.23800
H  39.43900 42.57400 20.67200
H  39.88200 44.08600 21.21800
H  39.74800 42.78100 22.43900
H  39.77900 46.57600 24.00900
H  41.04000 47.72600 24.66400
H  39.72900 47.59600 25.56800
H  39.52700 45.04800 29.91300
H  41.57500 47.50000 33.04900
H  42.81500 46.57100 32.37600
H  41.59300 45.70300 33.36500

