158

Mg -3.33400 16.94900 26.52800
C  -3.57700 14.83900 29.32000
C  -3.85200 19.66200 28.63300
C  -3.03000 18.94400 23.92000
C  -3.52400 14.22800 24.52200
N  -3.79000 17.17300 28.72300
C  -3.67300 16.18700 29.73800
C  -3.73700 16.73400 31.10200
C  -3.96300 18.27500 30.90100
C  -3.90900 18.43600 29.32400
C  -5.26100 18.87700 31.49300
C  -2.57500 16.35900 32.16200
C  -2.35900 17.18900 33.39800
H  -1.73100 16.54500 34.59400
N  -3.42000 18.96400 26.31100
C  -3.50200 19.90300 27.31700
C  -3.41400 21.21800 26.72300
C  -2.96900 21.04800 25.39200
C  -3.16200 19.60700 25.13400
C  -3.63000 22.48700 27.54200
C  -2.40400 22.04200 24.43400
O  -2.09700 21.77800 23.26900
C  -2.02000 23.28700 24.84700
N  -3.32900 16.61300 24.54100
C  -3.06300 17.62800 23.65200
C  -3.13000 17.04500 22.22700
C  -2.98000 15.55100 22.41500
C  -3.28100 15.40200 23.89000
C  -4.36400 17.42800 21.39300
C  -1.63800 14.88300 22.00500
C  -0.45900 15.40600 22.92100
N  -3.60300 14.90300 26.75600
C  -3.55300 13.89500 25.89000
C  -3.75100 12.61100 26.55200
C  -3.68300 12.96900 27.86300
C  -3.61800 14.33500 27.98900
C  -3.89500 11.25400 25.87100
C  -3.74100 12.32400 29.11400
O  -3.77900 11.16100 29.38100
C  -3.65200 13.56500 30.17600
C  -2.42000 13.26900 30.97200
O  -1.26600 13.43100 30.64600
O  -2.87300 12.86700 32.21200
C  -1.68900 12.54600 33.03300
H  -3.91300 20.50700 29.32200
H  -2.92200 19.56000 23.02500
H  -3.45200 13.31900 23.92000
H  -4.64200 16.41800 31.62000
H  -3.13300 18.85800 31.30100
H  -5.52600 18.28400 32.36800
H  -6.10000 19.01300 30.81000
H  -5.00700 19.86400 31.88100
H  -1.65900 16.17400 31.60000
H  -2.96500 15.38000 32.43900
H  -3.25300 17.74500 33.68100
H  -1.66900 17.94000 33.01400
H  -4.38300 22.33400 28.31500
H  -3.96600 23.33900 26.95100
H  -2.71200 22.77100 28.05800
H  -1.64600 23.21800 25.86900
H  -2.91200 23.91100 24.89900
H  -1.26100 23.79600 24.25300
H  -2.25200 17.38200 21.67500
H  -3.85000 15.13700 21.90500
H  -4.62700 18.43300 21.72500
H  -5.24100 16.78800 21.49500
H  -4.13100 17.32500 20.33400
H  -1.29300 15.20100 21.02100
H  -1.78200 13.80500 22.09000
H  -0.05500 14.50200 23.37700
H  -0.80200 16.09700 23.69100
H  0.37100 15.81800 22.34600
H  -3.64900 10.47100 26.58800
H  -3.20300 11.27100 25.02900
H  -4.88100 10.93200 25.53700
H  -4.55600 13.55700 30.78400
H  -1.95300 12.80200 34.05800
H  -0.73900 13.04900 32.85200
H  -1.57800 11.46200 33.01300
Mg 27.08000 50.00900 26.63100
C  25.05400 51.14500 29.23900
C  29.27800 49.11800 28.85000
C  29.30300 49.67000 23.97100
C  24.98900 51.83300 24.33300
N  27.06300 50.13600 28.79600
C  26.15600 50.47700 29.75600
C  26.66500 50.29000 31.17900
C  28.13300 50.01100 30.91000
C  28.16500 49.76800 29.37100
C  29.03200 51.23800 31.27300
C  25.85200 49.25800 32.00100
C  25.11600 49.81300 33.19500
H  25.87400 50.08500 34.52200
N  28.98500 49.32400 26.49100
C  29.70100 48.86300 27.49700
C  30.96500 48.34700 26.99200
C  31.03300 48.57000 25.58100
C  29.75400 49.24300 25.29500
C  31.99700 47.67200 27.85700
C  32.11400 48.06000 24.64300
O  31.97200 48.31700 23.42000
C  33.35200 47.28200 25.18800
N  27.12400 50.64600 24.42000
C  28.09800 50.25900 23.53400
C  27.73600 50.44600 22.03000
C  26.36700 51.18600 22.25400
C  26.09300 51.18400 23.73800
C  28.69700 51.17800 21.13300
C  25.15300 50.68000 21.44100
C  24.37800 49.48800 22.00800
N  25.35000 51.16000 26.71500
C  24.58700 51.77900 25.68100
C  23.45600 52.54800 26.33200
C  23.60100 52.26500 27.68100
C  24.79300 51.47700 27.87500
C  22.42500 53.31100 25.59100
C  22.98400 52.51500 28.95800
O  21.96700 53.07400 29.21300
C  24.01400 51.90100 30.02700
C  24.66600 53.10200 30.66600
O  25.84100 53.46800 30.49400
O  23.90500 53.48000 31.71600
C  24.62200 54.47400 32.59600
H  29.94800 48.70600 29.60700
H  29.98400 49.46300 23.14300
H  24.29500 52.13700 23.54700
H  26.56300 51.23400 31.71300
H  28.52000 49.11300 31.39000
H  29.10300 51.94800 30.44900
H  30.01600 51.03700 31.69600
H  28.52600 51.78700 32.06700
H  26.53000 48.47900 32.35000
H  25.15800 48.73500 31.34300
H  24.32700 49.09900 33.42800
H  24.55100 50.72700 33.01500
H  32.01300 46.65200 27.47300
H  31.79900 47.58800 28.92500
H  32.87000 48.31700 27.76200
H  33.99700 47.20900 24.31300
H  32.93100 46.34600 25.55500
H  33.82400 47.91800 25.93700
H  27.58200 49.44500 21.62700
H  26.37700 52.25700 22.05500
H  28.32000 52.10500 20.70200
H  28.76300 50.59400 20.21500
H  29.60400 51.40100 21.69500
H  25.52600 50.51800 20.43000
H  24.37000 51.42900 21.32000
H  24.96800 48.94800 22.74900
H  24.28600 48.84700 21.13100
H  23.46600 49.86800 22.46800
H  22.28600 54.33700 25.93400
H  21.52700 52.69800 25.66700
H  22.70200 53.36400 24.53800
H  23.46600 51.46400 30.86200
H  25.50100 53.98500 33.01700
H  23.92800 54.85500 33.34500
H  24.93200 55.31700 31.98000

