158

Mg 30.15100 57.63200 40.67800
C  27.57900 55.59800 39.47600
C  32.45900 55.49100 39.26200
C  32.61600 60.00800 41.12700
C  27.85400 60.07100 41.47100
N  30.00800 55.81400 39.61200
C  28.88700 55.07400 39.29800
C  29.24600 53.63800 38.66100
C  30.84300 53.64700 38.89000
C  31.15200 55.09100 39.32400
C  31.43400 52.54800 39.89000
C  28.75400 53.48800 37.19600
C  29.06500 54.42200 36.12600
H  27.95200 55.23800 35.33200
N  32.21800 57.76200 40.28300
C  33.01900 56.74200 39.71500
C  34.42900 57.09100 39.92200
C  34.53000 58.37000 40.52800
C  33.07700 58.78100 40.66100
C  35.45700 55.95800 39.73200
C  35.77600 58.95900 41.11600
O  36.87900 58.51500 40.83100
C  35.69300 60.12800 42.05200
N  30.20800 59.87500 41.00800
C  31.35500 60.54100 41.32100
C  31.04800 61.99200 41.71300
C  29.57500 61.85100 42.18800
C  29.16900 60.53700 41.46600
C  31.94600 62.64900 42.82900
C  28.74200 63.06600 41.66400
C  27.53600 63.64600 42.46300
N  28.13200 57.80100 40.56900
C  27.32000 58.87000 40.91600
C  25.90200 58.47900 40.79600
C  26.03300 57.16000 40.25400
C  27.37900 56.83200 40.03600
C  24.72000 59.21800 41.10200
C  25.24300 56.02600 39.87100
O  24.04000 55.79300 39.95200
C  26.22700 55.01600 39.24400
C  25.89400 53.76000 39.83600
O  26.29100 53.33800 40.93900
O  25.03800 53.05200 39.05700
C  24.48600 51.80900 39.59200
H  33.11400 54.70200 38.88700
H  33.33800 60.82200 41.21700
H  27.11900 60.75700 41.89700
H  28.73100 52.96200 39.34400
H  31.29500 53.52100 37.90600
H  31.15000 51.53600 39.60000
H  31.00200 52.73200 40.87400
H  32.52100 52.57700 39.81400
H  27.67000 53.38000 37.15700
H  29.18100 52.52200 36.92500
H  29.66600 53.89300 35.38700
H  29.56600 55.29900 36.53700
H  36.46700 56.29300 39.49600
H  35.26700 55.22700 38.94700
H  35.53100 55.37000 40.64700
H  35.25000 60.97600 41.53000
H  36.73400 60.21600 42.36400
H  35.03300 59.97000 42.90500
H  31.10000 62.49600 40.74800
H  29.54800 61.87800 43.27700
H  32.73400 62.02900 43.25700
H  31.25500 62.96100 43.61200
H  32.34700 63.53200 42.33200
H  28.29300 62.67300 40.75200
H  29.42200 63.89400 41.46500
H  26.59400 63.50200 41.93400
H  27.65900 64.72200 42.58900
H  27.55200 63.17100 43.44400
H  23.96300 58.46700 41.32600
H  24.37400 59.56700 40.12900
H  24.83400 60.02300 41.82800
H  25.99400 55.04300 38.18000
H  25.25900 51.08200 39.84200
H  23.88100 51.22500 38.89900
H  23.89000 52.10800 40.45500
Mg 0.35600 44.08100 25.59000
C  2.39000 43.70100 28.38400
C  -2.37800 43.19200 27.54200
C  -1.64500 43.76600 22.71200
C  3.07900 44.32100 23.58200
N  0.03500 43.54400 27.70800
C  0.99300 43.57600 28.75000
C  0.43500 43.32400 30.18100
C  -1.05500 42.90500 29.78700
C  -1.18300 43.25100 28.26400
C  -1.41400 41.41200 30.16600
C  0.42600 44.63800 31.07900
C  0.85500 44.44000 32.48500
H  0.72200 43.06600 33.14800
N  -1.73500 43.78500 25.27200
C  -2.67400 43.51000 26.21800
C  -3.97700 43.49300 25.55700
C  -3.75400 43.62800 24.14300
C  -2.31100 43.73400 23.99500
C  -5.26500 43.36000 26.33400
C  -4.77900 43.55500 23.07700
O  -4.51900 43.58800 21.87300
C  -6.29100 43.41000 23.34600
N  0.69300 43.74100 23.40200
C  -0.26700 43.83500 22.43100
C  0.36700 43.94000 21.08700
C  1.81000 44.42700 21.40200
C  1.89700 44.14300 22.85900
C  0.14600 42.68300 20.27300
C  1.92300 45.95200 21.15800
C  3.07200 46.45600 20.40100
N  2.35200 43.97800 25.86500
C  3.36300 44.22300 24.93400
C  4.58600 44.36200 25.65200
C  4.28100 44.06000 27.03500
C  2.89200 43.81700 27.10300
C  5.96600 44.67900 25.04200
C  4.82400 44.06200 28.38500
O  5.98200 44.18600 28.79200
C  3.59800 43.79600 29.28100
C  3.77400 42.60300 30.11100
O  3.45400 41.44300 29.86100
O  4.37900 42.95800 31.26000
C  4.74000 41.99200 32.19900
H  -3.32000 42.98400 28.05300
H  -2.21000 43.67900 21.78200
H  3.91500 44.61000 22.94200
H  1.08300 42.51100 30.51100
H  -1.74700 43.60500 30.25500
H  -2.28300 41.47900 30.82000
H  -0.62800 41.02300 30.81300
H  -1.55700 40.78200 29.28800
H  -0.53200 45.15700 31.05700
H  1.14300 45.30300 30.59600
H  0.08900 45.02400 32.99500
H  1.83800 44.85900 32.69800
H  -6.04500 44.06900 26.05700
H  -5.17500 43.63600 27.38500
H  -5.65200 42.34100 26.30500
H  -6.90700 43.23600 22.46400
H  -6.68100 44.33200 23.77600
H  -6.37800 42.53400 23.98900
H  -0.12300 44.74000 20.53200
H  2.64200 43.92300 20.91000
H  -0.39400 41.94700 20.86800
H  1.13900 42.30200 20.03500
H  -0.46000 42.88100 19.38900
H  1.99300 46.51000 22.09200
H  1.07400 46.44400 20.68200
H  3.64500 47.12800 21.03900
H  2.79200 46.96000 19.47600
H  3.76100 45.69200 20.04100
H  6.39300 45.62600 25.37200
H  5.92100 44.76400 23.95700
H  6.59400 43.84800 25.36500
H  3.53700 44.69000 29.90100
H  4.73700 42.37500 33.21900
H  5.68600 41.49800 31.97700
H  3.90700 41.28900 32.23600

