158

Mg 26.18600 -0.56700 29.82800
C  27.80700 -0.69700 32.98400
C  23.13400 -0.30900 31.57700
C  24.58300 -0.55900 26.87400
C  29.31000 -1.11400 28.29000
N  25.54000 -0.48700 32.05100
C  26.41000 -0.46300 33.18200
C  25.58000 -0.21400 34.46200
C  24.08700 -0.13900 33.95500
C  24.25400 -0.28800 32.45800
C  23.13100 -1.15500 34.63600
C  26.01500 0.98600 35.41800
C  26.00600 0.36300 36.83100
H  26.48700 1.19400 37.96900
N  24.14400 -0.24300 29.30900
C  23.01600 -0.23200 30.13400
C  21.83200 -0.08900 29.36800
C  22.30700 0.02700 28.00000
C  23.72400 -0.27300 27.98400
C  20.43000 0.19100 29.89800
C  21.53400 0.53700 26.80000
O  22.04400 0.50700 25.64600
C  20.08900 1.05600 26.83800
N  26.80000 -0.79900 27.94800
C  25.98000 -0.75500 26.85800
C  26.80000 -1.05800 25.58800
C  28.18200 -0.72100 26.09000
C  28.14400 -0.91900 27.57900
C  26.63700 -2.54300 25.03000
C  28.66300 0.75600 25.78900
C  29.66400 0.80500 24.63100
N  28.12000 -1.19900 30.52000
C  29.32000 -1.29100 29.76000
C  30.41800 -1.53600 30.63700
C  29.89300 -1.19300 31.92700
C  28.48700 -1.02500 31.77700
C  31.76500 -1.89100 30.18800
C  30.23500 -1.18200 33.32300
O  31.31000 -1.35800 33.92900
C  28.92200 -0.81400 34.04100
C  28.51600 -1.84500 34.99500
O  27.72800 -2.75500 34.80000
O  29.11300 -1.59200 36.18600
C  29.06700 -2.74000 37.09100
H  22.17400 -0.32800 32.09800
H  24.17100 -0.64000 25.86600
H  30.25800 -1.08800 27.74700
H  25.76800 -1.11100 35.05200
H  23.65000 0.82600 34.21000
H  22.41900 -0.56800 35.21600
H  23.64900 -1.81700 35.33000
H  22.56800 -1.72800 33.90000
H  25.24900 1.76100 35.42000
H  26.97800 1.45300 35.21200
H  26.67400 -0.49100 36.93800
H  25.02700 0.00600 37.14900
H  20.42800 1.19300 30.32700
H  20.16600 -0.52600 30.67600
H  19.76500 -0.05900 29.07200
H  19.64400 1.33000 25.88100
H  19.95100 1.86500 27.55500
H  19.43100 0.23500 27.12500
H  26.30700 -0.50900 24.78600
H  28.87100 -1.47200 25.70500
H  26.09300 -3.16400 25.74100
H  27.61100 -3.01900 24.91700
H  26.12700 -2.56300 24.06700
H  29.16900 1.10900 26.68800
H  27.85900 1.47600 25.63900
H  29.99500 -0.20500 24.39100
H  30.47300 1.50300 24.84500
H  29.23300 1.21600 23.71800
H  32.17200 -2.41900 31.05100
H  32.45200 -1.12800 29.82300
H  31.68800 -2.59400 29.35800
H  29.01700 0.13700 34.56500
H  29.78600 -3.47200 36.72400
H  28.09900 -3.23700 37.16100
H  29.35100 -2.53000 38.12200
Mg 6.22800 54.55000 41.33000
C  5.89700 51.10700 41.10200
C  9.31200 54.23100 39.99900
C  6.19900 57.76200 40.98400
C  2.81500 54.62800 42.51600
N  7.38900 52.77000 40.40500
C  7.07500 51.48500 40.43700
C  8.17000 50.69100 39.68600
C  9.38600 51.65400 39.91000
C  8.69900 52.99900 40.13500
C  10.24300 51.36600 41.16800
C  7.86000 50.28900 38.28200
C  6.91700 51.33100 37.54000
H  6.20300 50.91100 36.27800
N  7.55000 55.82000 40.63700
C  8.86000 55.54300 40.17500
C  9.67200 56.71400 40.06400
C  8.78700 57.82100 40.45100
C  7.46400 57.16700 40.70800
C  11.10200 56.77000 39.69900
C  9.13700 59.28500 40.51100
O  10.25600 59.65700 40.16300
C  8.28900 60.40200 41.09100
N  4.66400 55.98100 41.57400
C  5.02100 57.28800 41.55000
C  3.86900 58.16500 42.09600
C  2.79900 57.22100 42.55600
C  3.38100 55.86500 42.14900
C  4.33000 59.24300 43.17900
C  1.39400 57.51000 41.90000
C  1.21800 57.06000 40.45300
N  4.66600 53.24200 41.76200
C  3.44100 53.38300 42.36400
C  2.92500 52.13600 42.72500
C  3.88800 51.17900 42.28600
C  4.89500 51.89400 41.70100
C  1.53900 51.96000 43.28600
C  4.24200 49.81500 42.24000
O  3.61700 48.85200 42.73600
C  5.53700 49.73300 41.40400
C  5.12900 48.95700 40.23500
O  4.41900 49.36500 39.30300
O  5.72400 47.65700 40.37800
C  5.45800 46.71300 39.23900
H  10.33000 54.19100 39.60600
H  6.24500 58.84800 41.09800
H  1.80200 54.70600 42.91700
H  8.23300 49.75600 40.24200
H  10.06500 51.71000 39.05900
H  10.24200 52.15600 41.91900
H  11.30500 51.37200 40.92000
H  10.08900 50.37600 41.59900
H  7.42700 49.29000 38.33100
H  8.74200 50.30700 37.64200
H  7.50000 52.24800 37.45300
H  6.15600 51.74400 38.20200
H  11.42000 57.76300 39.38300
H  11.31600 56.05000 38.90900
H  11.72700 56.41200 40.51700
H  7.36700 60.66700 40.57300
H  8.90500 61.30100 41.11800
H  7.96900 60.10000 42.08800
H  3.47600 58.76100 41.27200
H  2.69700 57.29400 43.63900
H  3.97000 59.03600 44.18700
H  4.02200 60.24000 42.86600
H  5.39600 59.03100 43.25800
H  1.30900 58.59700 41.86900
H  0.61600 57.06000 42.51600
H  2.20300 57.00100 39.99000
H  0.62200 57.81100 39.93500
H  0.78700 56.06000 40.49900
H  1.57400 52.01900 44.37400
H  1.13300 50.97400 43.06500
H  0.85700 52.68300 42.83900
H  6.24700 49.17600 42.01500
H  5.88900 47.18400 38.35600
H  4.38700 46.51500 39.27800
H  5.98200 45.77600 39.43100

