158

Mg 25.66900 -0.42600 29.45500
C  27.43900 -0.18800 32.60100
C  22.75700 0.04200 31.18400
C  24.24900 -0.92100 26.56600
C  28.91100 -0.63300 27.99000
N  25.20200 0.06200 31.60400
C  26.06700 0.15700 32.68700
C  25.22700 0.46800 33.99500
C  23.75300 0.37400 33.55800
C  23.91300 0.09700 32.01600
C  22.82200 -0.51900 34.36300
C  25.60700 1.85500 34.60200
C  26.37200 1.83700 35.98100
H  25.83800 2.83400 36.94700
N  23.82900 -0.33400 28.93400
C  22.70100 -0.29500 29.77400
C  21.51700 -0.35800 28.93200
C  21.97400 -0.62800 27.63100
C  23.40500 -0.64100 27.68900
C  20.06800 -0.04400 29.43800
C  21.18100 -0.80500 26.31100
O  21.68700 -0.87200 25.18400
C  19.69800 -1.09400 26.41000
N  26.45700 -0.73500 27.58600
C  25.67700 -0.86500 26.57400
C  26.48500 -1.01300 25.25400
C  27.91700 -0.61400 25.68500
C  27.78800 -0.73000 27.16800
C  26.45700 -2.38200 24.51700
C  28.22600 0.81600 25.30900
C  27.28800 1.84200 25.95600
N  27.77200 -0.57400 30.16400
C  28.95600 -0.57600 29.42400
C  30.05400 -0.63200 30.34200
C  29.56000 -0.44600 31.66900
C  28.14100 -0.39700 31.46200
C  31.52100 -0.66500 29.93800
C  29.88400 -0.31800 33.00100
O  30.92600 -0.27400 33.61800
C  28.49500 -0.09800 33.62500
C  28.22800 -1.03700 34.72300
O  27.62000 -2.13600 34.65500
O  28.78700 -0.61900 35.95600
C  28.79900 -1.32000 37.19800
H  21.80100 0.22700 31.67700
H  23.90500 -1.09600 25.54400
H  29.86500 -0.73900 27.47000
H  25.51300 -0.32700 34.68300
H  23.39800 1.40200 33.62900
H  21.93800 0.06800 34.61400
H  23.30000 -0.85500 35.28300
H  22.47200 -1.35200 33.75300
H  24.76300 2.53800 34.70500
H  26.30700 2.32800 33.91300
H  27.40600 2.15900 35.86000
H  26.38300 0.80800 36.34200
H  19.54000 -0.99500 29.36200
H  19.65200 0.72300 28.78500
H  20.08500 0.30200 30.47200
H  19.51200 -1.90600 27.11300
H  19.24200 -1.40300 25.46900
H  19.12500 -0.21800 26.71300
H  26.13700 -0.21800 24.59500
H  28.67600 -1.32800 25.36500
H  26.80300 -3.22300 25.11700
H  27.30400 -2.41700 23.83100
H  25.52800 -2.57000 23.97900
H  28.19500 0.93200 24.22600
H  29.23900 1.07000 25.62000
H  27.66500 2.11900 26.94100
H  26.28900 1.41000 26.01500
H  27.28800 2.71500 25.30300
H  32.10500 -0.06400 30.63500
H  31.66400 -0.32900 28.91100
H  31.70300 -1.73100 30.07600
H  28.48000 0.90400 34.05200
H  29.50700 -2.11700 36.97000
H  27.81100 -1.77300 37.28100
H  29.08200 -0.57200 37.93900
Mg 16.14600 51.16400 26.04900
C  18.36600 50.33600 28.61600
C  13.49200 51.24900 28.23900
C  13.96700 51.16000 23.32500
C  18.72200 50.35800 23.76300
N  15.93600 50.82100 28.12900
C  17.02700 50.69500 28.96300
C  16.67000 51.04800 30.38800
C  15.11400 50.90900 30.31600
C  14.79700 51.04900 28.81000
C  14.61300 49.64800 31.07800
C  17.21200 52.41400 30.95200
C  17.42900 52.48100 32.52600
H  16.56900 51.51900 33.43500
N  14.09200 51.37200 25.82300
C  13.18900 51.41100 26.91100
C  11.84700 51.42500 26.30400
C  11.95000 51.42200 24.86600
C  13.34900 51.34300 24.64500
C  10.65800 51.52200 27.22200
C  10.79300 51.35200 23.87900
O  11.00200 51.35900 22.64000
C  9.39200 51.13000 24.38700
N  16.32700 50.70300 23.85000
C  15.28900 50.97400 22.96800
C  15.82000 50.99200 21.55400
C  17.37300 50.94600 21.73600
C  17.48600 50.56600 23.17300
C  15.18500 49.79900 20.62800
C  18.18400 52.23100 21.32400
C  19.21400 52.08400 20.17100
N  18.14500 50.54800 26.15700
C  19.10100 50.33300 25.16600
C  20.35600 49.90600 25.80400
C  20.09300 49.97100 27.17800
C  18.74900 50.34900 27.31000
C  21.55000 49.57200 25.12500
C  20.72900 49.74100 28.48400
O  21.86400 49.32700 28.84200
C  19.57900 50.15100 29.55400
C  19.46000 48.98300 30.42900
O  19.26800 47.85400 30.06100
O  19.54700 49.37800 31.71000
C  19.37300 48.31700 32.65000
H  12.75000 51.21600 29.04000
H  13.35300 51.30900 22.43400
H  19.49200 50.22100 23.00100
H  17.10200 50.29500 31.04700
H  14.69800 51.70800 30.92900
H  13.81400 49.96600 31.74800
H  15.43300 49.19700 31.63700
H  14.22900 49.05100 30.25100
H  16.62400 53.27300 30.62800
H  18.16100 52.61700 30.45600
H  17.24300 53.53200 32.75000
H  18.51200 52.38200 32.60800
H  10.05200 50.61800 27.16000
H  9.98800 52.36100 27.03200
H  10.87700 51.63000 28.28400
H  8.93200 51.93900 24.95500
H  9.44500 50.21100 24.97100
H  8.82100 50.83300 23.50700
H  15.43800 51.93300 21.15900
H  17.81700 50.13500 21.16000
H  14.46600 49.20700 21.19500
H  16.02300 49.21900 20.24200
H  14.73300 50.25700 19.74800
H  18.56800 52.86500 22.12300
H  17.54800 52.94900 20.80600
H  18.68700 52.41100 19.27400
H  19.54400 51.04500 20.16500
H  20.05600 52.77000 20.25500
H  21.39400 48.60100 24.65500
H  22.50700 49.58400 25.64800
H  21.76800 50.23200 24.28600
H  19.75600 51.06400 30.12200
H  20.26700 47.70400 32.54000
H  18.44000 47.75400 32.69500
H  19.51100 48.84700 33.59200

