158

Mg 24.02100 -4.74600 45.91700
C  26.22200 -2.44400 44.42200
C  21.60200 -3.78200 43.73500
C  22.27200 -7.64600 46.72700
C  26.91000 -6.21700 47.49500
N  24.00600 -3.36800 44.23400
C  24.99700 -2.43200 43.79800
C  24.42600 -1.40100 42.77900
C  22.91500 -1.61600 42.93400
C  22.83100 -3.04600 43.72200
C  22.17700 -0.51000 43.62100
C  24.98700 -1.68300 41.37600
C  25.45200 -0.47700 40.63500
H  25.33100 -0.54900 39.07100
N  22.11000 -5.48200 45.47900
C  21.28300 -4.90100 44.54200
C  20.02900 -5.68600 44.56800
C  20.21200 -6.78600 45.48800
C  21.58900 -6.69400 45.92500
C  18.81800 -5.27500 43.78300
C  19.22300 -7.89000 45.80700
O  18.12500 -7.82200 45.25400
C  19.42600 -9.01900 46.82200
N  24.55100 -6.68900 47.05000
C  23.60000 -7.65500 47.21300
C  24.21300 -8.81200 47.95700
C  25.71000 -8.46900 48.11200
C  25.77100 -6.99300 47.55700
C  23.48800 -9.19800 49.30000
C  26.71300 -9.46900 47.46800
C  26.93500 -10.70000 48.23100
N  26.12000 -4.37000 46.08400
C  27.12400 -4.90900 46.87900
C  28.31000 -4.09600 46.70700
C  28.00100 -3.15700 45.71900
C  26.65200 -3.37200 45.35200
C  29.63600 -4.28800 47.43200
C  28.58700 -2.09700 44.95400
O  29.72900 -1.63200 44.95000
C  27.45400 -1.63600 44.03800
C  27.15600 -0.19200 44.43700
O  26.48800 0.14000 45.35400
O  27.86700 0.69800 43.61400
C  27.69100 2.15000 43.87900
H  20.77900 -3.44600 43.10100
H  21.79900 -8.54200 47.13300
H  27.75600 -6.72800 47.95900
H  24.71100 -0.38000 43.02900
H  22.35500 -1.89200 42.04100
H  22.92100 0.10900 44.12200
H  21.45600 -0.82200 44.37600
H  21.78400 0.15900 42.85600
H  24.18200 -2.05200 40.74000
H  25.75700 -2.44400 41.50300
H  26.49400 -0.25800 40.86800
H  24.92300 0.44100 40.89000
H  18.48300 -6.08200 43.13100
H  19.00500 -4.49700 43.04300
H  18.01900 -5.05900 44.49300
H  18.46600 -9.50700 46.99100
H  19.83900 -8.76800 47.79900
H  19.95900 -9.85700 46.37300
H  24.25200 -9.69200 47.31500
H  25.98400 -8.43600 49.16600
H  23.99900 -8.83900 50.19400
H  23.46400 -10.28800 49.30700
H  22.51300 -8.71300 49.27800
H  27.65600 -8.92600 47.41000
H  26.24400 -9.69800 46.51100
H  26.55200 -11.52800 47.63500
H  26.49300 -10.61700 49.22400
H  27.99400 -10.89000 48.40300
H  29.75400 -5.37200 47.40100
H  29.55100 -3.82000 48.41300
H  30.45600 -3.88800 46.83600
H  27.78000 -1.60300 42.99900
H  27.61900 2.67600 42.92800
H  28.61800 2.52500 44.31300
H  26.77000 2.47700 44.36300
Mg 35.76300 3.01300 30.76200
C  33.41400 4.30800 33.03000
C  38.11400 2.94000 33.31400
C  38.03800 2.20200 28.45300
C  33.43300 3.60300 28.21800
N  35.82600 3.76600 32.91000
C  34.65500 3.97700 33.64000
C  34.92600 3.88500 35.19800
C  36.48900 3.61400 35.22400
C  36.87500 3.46300 33.72400
C  37.23600 4.79600 35.85500
C  34.08800 2.69000 35.73000
C  33.35300 3.01200 37.10200
H  33.99200 4.14800 37.93900
N  37.70300 2.45200 30.89000
C  38.50300 2.51200 32.02400
C  39.80900 1.99600 31.73300
C  39.78700 1.65200 30.30300
C  38.48300 2.14800 29.80800
C  40.88300 1.67800 32.82400
C  40.79200 0.96400 29.43600
O  40.53500 0.67900 28.24500
C  42.16500 0.55200 30.05100
N  35.69500 2.82800 28.59700
C  36.73700 2.41500 27.88400
C  36.41900 2.45200 26.45900
C  34.85200 2.40400 26.34500
C  34.65200 3.05000 27.78600
C  37.04300 3.71100 25.83800
C  34.21500 0.98000 26.16100
C  33.47300 0.80700 24.87800
N  33.86500 3.91900 30.62200
C  33.04100 3.99200 29.51100
C  31.78500 4.56700 29.86500
C  31.82900 4.70400 31.26300
C  33.13500 4.30900 31.67800
C  30.63300 4.83000 28.85400
C  31.14900 5.13000 32.44400
O  30.06600 5.61900 32.42400
C  32.13400 4.81600 33.65900
C  32.23700 6.02200 34.55300
O  33.04500 6.97400 34.39400
O  31.36800 5.88900 35.54800
C  31.38300 6.80300 36.66800
H  38.70100 2.88400 34.23300
H  38.75600 1.99900 27.65500
H  32.63700 3.56700 27.47100
H  34.58400 4.80900 35.66700
H  36.77900 2.71400 35.76400
H  38.01500 5.10900 35.16000
H  37.84500 4.48100 36.70200
H  36.69200 5.69800 36.13300
H  34.75800 1.83300 35.80300
H  33.30900 2.32000 35.06200
H  33.49300 2.07000 37.63100
H  32.28000 3.12100 36.94500
H  41.90700 2.02800 32.69800
H  40.99400 0.60100 32.95200
H  40.59300 2.14100 33.76700
H  42.50800 -0.21800 29.35900
H  41.87600 0.11800 31.00800
H  42.90700 1.34100 30.17400
H  36.81600 1.48500 26.15000
H  34.55800 3.08800 25.54900
H  37.38600 4.44500 26.56700
H  36.38700 4.28000 25.17900
H  37.92800 3.35600 25.31000
H  33.72700 0.75600 27.11000
H  35.01700 0.24400 26.10900
H  33.61900 1.62400 24.17100
H  32.39900 0.73000 25.04600
H  33.85300 -0.12600 24.46300
H  30.01500 5.66300 29.18900
H  30.03300 3.94300 29.05800
H  30.83300 4.95700 27.79000
H  31.69300 4.02000 34.26000
H  30.75000 7.67900 36.52300
H  32.37000 7.12800 36.99700
H  31.01700 6.10200 37.41900

