158

Mg 44.95900 3.65500 46.62700
C  42.86500 6.31700 46.55100
C  42.30300 1.53300 46.39900
C  47.10700 1.06400 46.08100
C  47.73300 5.80200 46.26500
N  42.78400 3.94500 46.55900
C  42.13800 5.11600 46.61800
C  40.57900 4.89800 46.49000
C  40.46400 3.33000 46.51400
C  41.93500 2.84400 46.58800
C  39.63400 2.78300 47.75200
C  39.84100 5.57000 45.32300
C  40.52700 5.53600 43.90100
H  39.62700 5.70500 42.65900
N  44.66000 1.54000 46.29600
C  43.46100 0.84200 46.28600
C  43.76800 -0.57100 46.22900
C  45.15900 -0.70800 46.02400
C  45.71800 0.64400 46.10900
C  42.73900 -1.71400 46.34000
C  45.80500 -1.96700 45.86500
O  45.21600 -3.06400 45.82300
C  47.30200 -2.11100 45.78000
N  47.11700 3.51000 46.09100
C  47.71100 2.31400 46.14300
C  49.20300 2.49500 46.29100
C  49.43100 3.97000 46.03900
C  48.03800 4.46100 46.13300
C  49.74200 1.92100 47.63200
C  50.23700 4.41200 44.72800
C  49.43300 4.43500 43.45100
N  45.30000 5.65300 46.28500
C  46.44600 6.39800 46.24600
C  46.08600 7.78500 46.13000
C  44.69100 7.79800 46.21900
C  44.23700 6.47500 46.37100
C  47.06200 8.89500 46.13900
C  43.53600 8.63800 46.34200
O  43.39200 9.84200 46.23300
C  42.27400 7.67400 46.38200
C  41.33300 7.99500 47.39700
O  41.45900 7.61400 48.53200
O  40.29800 8.86600 46.94400
C  39.33900 9.25000 47.92300
H  41.41100 0.90800 46.32400
H  47.78300 0.21200 46.18300
H  48.50800 6.57100 46.24600
H  40.10900 5.18200 47.43100
H  39.96300 3.09800 45.57500
H  39.05800 3.48400 48.35600
H  40.35500 2.25500 48.37600
H  38.95100 1.97400 47.49400
H  39.71000 6.62900 45.54400
H  38.82100 5.18800 45.28700
H  41.12400 4.65000 43.68600
H  41.17700 6.40200 43.77500
H  41.98900 -1.43900 47.08200
H  43.10400 -2.70900 46.59500
H  42.20800 -1.63400 45.39200
H  47.77600 -1.89400 46.73700
H  47.58700 -1.45600 44.95700
H  47.64400 -3.10700 45.50100
H  49.72200 1.92000 45.52400
H  49.94200 4.38600 46.90700
H  50.19900 0.96600 47.37400
H  48.95700 1.64100 48.33500
H  50.54000 2.57900 47.97700
H  51.00000 3.64000 44.62000
H  50.77500 5.34100 44.91600
H  48.37400 4.39200 43.70600
H  49.67100 3.49500 42.95300
H  49.52300 5.34200 42.85400
H  47.78000 8.74000 45.33400
H  47.73200 8.90700 46.99900
H  46.49400 9.79300 45.89600
H  41.77800 7.70200 45.41200
H  38.37800 8.80100 47.67500
H  39.25300 10.33600 47.93900
H  39.64400 8.98800 48.93600
Mg 30.67200 58.54300 40.58300
C  28.06300 56.49100 39.42800
C  32.99800 55.98600 39.81200
C  33.20700 60.80900 40.68700
C  28.37400 61.16500 40.71200
N  30.47400 56.43600 39.81800
C  29.32600 55.83000 39.32000
C  29.65300 54.44600 38.78800
C  31.17200 54.29200 39.36200
C  31.57000 55.68500 39.73900
C  31.32200 53.23400 40.49100
C  29.48200 54.27700 37.22100
C  28.34000 53.39400 36.69100
H  27.46100 54.02800 35.58900
N  32.86400 58.36700 40.35200
C  33.62000 57.20400 40.14100
C  34.96400 57.52500 40.20900
C  35.09900 58.95500 40.38600
C  33.67100 59.46500 40.50600
C  36.03200 56.50700 39.90300
C  36.37500 59.75400 40.34000
O  37.45300 59.20600 40.28100
C  36.31800 61.26000 40.35700
N  30.75200 60.59800 40.82500
C  31.88400 61.29100 40.95300
C  31.64600 62.86000 41.12400
C  30.11200 62.90400 41.15100
C  29.70300 61.45600 40.85900
C  32.22000 63.44600 42.47200
C  29.49800 63.92600 40.20100
C  28.31300 64.76900 40.78900
N  28.62300 58.82300 40.27700
C  27.81500 59.92500 40.36400
C  26.42900 59.54300 40.13000
C  26.51500 58.26200 39.80600
C  27.89300 57.82900 39.75300
C  25.23000 60.56400 40.16200
C  25.68900 57.12800 39.39900
O  24.46100 57.04500 39.37500
C  26.69100 55.94600 39.18100
C  26.20100 54.79600 40.03800
O  26.73800 54.31000 41.01900
O  25.01600 54.35400 39.56000
C  24.45900 53.12400 40.18800
H  33.62500 55.10900 39.63500
H  33.97400 61.58600 40.71900
H  27.73600 62.02500 40.93000
H  28.96100 53.79700 39.32300
H  31.85000 54.06500 38.54000
H  32.04400 52.55000 40.04500
H  30.47200 52.56900 40.64400
H  31.61800 53.64900 41.45500
H  30.36100 53.85400 36.73400
H  29.27000 55.21100 36.70100
H  27.62600 53.19500 37.49000
H  28.79900 52.46700 36.34700
H  35.64500 55.56100 39.52500
H  36.51000 56.24000 40.84600
H  36.81700 56.85700 39.23200
H  35.71100 61.71500 39.57400
H  37.33300 61.62200 40.19100
H  35.97200 61.41600 41.37800
H  31.92500 63.40800 40.22400
H  29.72600 63.15100 42.14000
H  33.16000 62.98200 42.77000
H  31.50300 63.24800 43.26900
H  32.54200 64.46300 42.24900
H  29.16700 63.34300 39.34100
H  30.21900 64.67200 39.86300
H  28.71200 65.70700 41.17500
H  27.81600 64.27000 41.62100
H  27.56900 64.93300 40.01000
H  24.34000 60.06800 39.77500
H  25.44900 61.37300 39.46400
H  25.08800 60.81300 41.21300
H  26.58600 55.72400 38.11900
H  23.91300 53.53700 41.03600
H  25.25900 52.47200 40.54200
H  23.78200 52.55900 39.54800

