158

Mg 35.79200 2.66300 30.66300
C  33.20700 3.70300 32.67100
C  37.91100 2.65000 33.46600
C  38.39200 1.68200 28.66800
C  33.68000 2.55900 28.04400
N  35.51900 3.10700 32.79300
C  34.41800 3.59600 33.37100
C  34.74100 3.61700 34.95600
C  36.26400 3.74600 35.03200
C  36.62700 3.07300 33.66300
C  36.74200 5.20700 35.16300
C  34.00100 2.36800 35.53100
C  33.95100 2.27600 37.09400
H  34.07400 3.55400 37.86000
N  37.89200 2.21400 31.03400
C  38.53600 2.24800 32.22300
C  39.92500 1.80700 32.06300
C  40.08500 1.62800 30.64800
C  38.78600 1.79800 30.04300
C  40.89800 1.64400 33.20000
C  41.32400 1.24800 29.87600
O  41.33100 1.16100 28.64200
C  42.68800 1.03700 30.50500
N  36.10000 2.41200 28.63100
C  37.20100 1.91400 28.01400
C  36.92100 1.69800 26.46800
C  35.38900 1.67300 26.39000
C  35.00000 2.24500 27.79200
C  37.56400 2.86900 25.66300
C  34.62900 0.31700 26.03700
C  33.53900 0.54200 24.94000
N  33.80900 3.22200 30.32100
C  33.10700 3.13100 29.18900
C  31.68600 3.51600 29.39800
C  31.64300 3.72100 30.79300
C  32.97000 3.50200 31.27900
C  30.66100 3.62700 28.29400
C  30.83400 4.03400 31.94400
O  29.68000 4.27100 32.08200
C  31.85700 3.96800 33.20500
C  31.76600 5.22200 33.98100
O  31.90800 6.35400 33.54000
O  31.53000 4.93700 35.35700
C  31.33400 6.19200 36.13200
H  38.43500 2.67600 34.42400
H  39.05600 1.22500 27.93200
H  33.03400 2.70600 27.17600
H  34.24500 4.48400 35.39300
H  36.65400 3.20100 35.89200
H  37.32000 5.41800 34.26300
H  37.37100 5.27400 36.05000
H  35.96600 5.96900 35.24600
H  34.64300 1.52200 35.28700
H  33.00900 2.26600 35.09200
H  34.58300 1.55900 37.61800
H  32.96100 1.88200 37.32400
H  41.49600 0.73300 33.15800
H  40.40800 1.64800 34.17400
H  41.58500 2.48800 33.13000
H  43.47200 1.15300 29.75600
H  42.62100 0.00800 30.85800
H  42.81400 1.73700 31.33100
H  37.41400 0.78400 26.13600
H  35.06700 2.48800 25.74200
H  36.92000 3.22100 24.85700
H  38.50900 2.47700 25.28600
H  37.92200 3.61800 26.36900
H  34.16300 -0.14800 26.90500
H  35.34400 -0.41400 25.65800
H  33.76500 0.03400 24.00200
H  33.37100 1.59600 24.71800
H  32.61900 0.08100 25.29900
H  29.88400 2.89100 28.49900
H  31.12100 3.66200 27.30600
H  30.07600 4.54700 28.30200
H  31.60500 3.14500 33.87400
H  32.23200 6.79100 36.28200
H  30.93600 5.85900 37.09100
H  30.53700 6.83100 35.75300
Mg 55.50500 23.01100 44.56000
C  53.18000 25.44800 43.11100
C  53.21700 20.65300 43.49600
C  57.90700 20.85000 44.95800
C  57.75000 25.68500 45.05300
N  53.39200 23.05900 43.42900
C  52.66400 24.15200 43.02300
C  51.24500 23.72400 42.47500
C  51.09900 22.28200 42.98400
C  52.57400 21.92300 43.34400
C  50.24700 22.18400 44.15000
C  51.03300 23.81700 40.93800
C  49.71800 24.53400 40.45900
H  49.19200 24.13400 39.07700
N  55.53500 20.98000 44.41500
C  54.50300 20.18700 43.92600
C  55.01200 18.80400 43.92800
C  56.32600 18.78900 44.43900
C  56.66500 20.22500 44.62200
C  54.11800 17.72500 43.52600
C  57.26200 17.51400 44.74700
O  56.83500 16.40500 44.49800
C  58.64500 17.64300 45.24100
N  57.57400 23.21800 44.60200
C  58.38900 22.16100 45.01900
C  59.73600 22.52600 45.68300
C  59.54000 24.10000 45.78600
C  58.14000 24.34500 45.14600
C  60.09000 21.81000 47.02000
C  60.75700 24.93300 45.14600
C  61.16200 26.17500 45.96700
N  55.55100 25.16300 44.11800
C  56.50400 26.09600 44.47900
C  55.95100 27.43000 44.23700
C  54.69600 27.18500 43.60100
C  54.49400 25.81400 43.56400
C  56.55000 28.70600 44.67500
C  53.57500 27.85700 43.01400
O  53.36300 29.09200 42.88500
C  52.50200 26.77500 42.64200
C  52.48500 26.78800 41.14500
O  53.45400 26.41300 40.45800
O  51.36500 27.44100 40.65000
C  51.42000 27.49600 39.20900
H  52.54500 19.81500 43.29800
H  58.74400 20.22200 45.27100
H  58.34400 26.50700 45.45600
H  50.47800 24.34100 42.94300
H  50.66500 21.62400 42.23100
H  49.26800 21.75100 43.94400
H  50.00000 23.11800 44.65400
H  50.79700 21.51200 44.80900
H  50.93500 22.80500 40.54700
H  51.84000 24.35000 40.43500
H  49.80700 25.62100 40.48400
H  48.92200 24.28400 41.16000
H  53.80800 17.92000 42.50000
H  53.20200 17.68500 44.11500
H  54.60700 16.76100 43.38500
H  59.25400 18.24200 44.56400
H  59.17000 16.69000 45.28800
H  58.64500 18.02100 46.26300
H  60.38900 22.14800 44.89700
H  59.31400 24.42500 46.80200
H  59.24100 21.26500 47.43200
H  60.31000 22.60100 47.73700
H  60.98500 21.18700 47.02300
H  60.56900 25.27700 44.12900
H  61.59600 24.24000 45.08300
H  60.27100 26.50700 46.50000
H  61.41600 26.96300 45.25800
H  62.04900 26.05600 46.58900
H  56.71000 28.83800 45.74500
H  55.95900 29.60000 44.47300
H  57.50900 28.77900 44.16400
H  51.51400 26.99000 43.04800
H  51.94300 28.44000 39.05500
H  50.42300 27.59100 38.78000
H  51.85600 26.68400 38.62800

