158

Mg 2.15500 -2.40400 44.50700
C  5.29100 -1.22400 43.57700
C  0.79600 -0.01000 42.14100
C  -0.88900 -3.77400 44.69000
C  3.68300 -5.06100 46.26500
N  2.99100 -0.90000 42.95600
C  4.26900 -0.61700 42.78900
C  4.53900 0.52900 41.77200
C  3.11700 1.11900 41.63000
C  2.18600 0.00500 42.22900
C  2.84100 2.44900 42.33700
C  5.10700 -0.09500 40.48500
C  6.65600 0.19300 40.36000
H  7.23200 0.53300 39.01400
N  0.24400 -1.79100 43.81500
C  -0.06500 -0.81100 42.85000
C  -1.52600 -0.74600 42.68400
C  -2.08300 -1.80300 43.47400
C  -0.91700 -2.53100 44.01100
C  -2.18400 0.34500 41.82900
C  -3.54700 -1.93200 43.82800
O  -4.37200 -1.21600 43.29400
C  -4.05800 -2.88200 44.87800
N  1.56200 -4.24600 45.17500
C  0.20300 -4.57800 45.15400
C  0.04400 -5.83500 46.04800
C  1.47800 -6.18500 46.61500
C  2.28100 -5.05800 46.08800
C  -1.04000 -5.65100 47.13300
C  2.02200 -7.61400 46.22300
C  2.39500 -8.51000 47.47600
N  4.02100 -3.03900 44.84800
C  4.47900 -4.05700 45.67200
C  5.94600 -3.87700 45.90400
C  6.21000 -2.75700 45.05500
C  5.05800 -2.31700 44.40900
C  6.74600 -4.60100 46.89800
C  7.33600 -1.81600 44.76800
O  8.52800 -1.82300 45.17300
C  6.76600 -0.78600 43.69600
C  6.82800 0.52500 44.33900
O  6.24900 0.86500 45.36900
O  7.73800 1.35000 43.69500
C  8.02700 2.60600 44.41200
H  0.33300 0.76700 41.52900
H  -1.85100 -4.28800 44.64100
H  4.13200 -5.80500 46.92600
H  5.12000 1.32000 42.24600
H  2.88200 1.35300 40.59100
H  3.79900 2.78800 42.73100
H  2.26400 2.29700 43.24900
H  2.42000 3.24400 41.72100
H  4.68600 0.36800 39.59300
H  4.92400 -1.16900 40.48000
H  7.01400 -0.78800 40.67000
H  7.12700 0.86200 41.08000
H  -2.04700 0.05600 40.78700
H  -1.70700 1.30000 42.05100
H  -3.25500 0.49400 41.96600
H  -4.25300 -3.78300 44.29800
H  -5.00500 -2.55100 45.30500
H  -3.28300 -3.04300 45.62700
H  -0.30600 -6.71200 45.50400
H  1.42800 -6.08500 47.69900
H  -0.62200 -5.74800 48.13500
H  -1.87900 -6.33900 47.02600
H  -1.45300 -4.64300 47.13900
H  2.83100 -7.51400 45.49800
H  1.23500 -8.17500 45.72000
H  3.32900 -9.07100 47.44200
H  1.65600 -9.31200 47.48700
H  2.34600 -7.85600 48.34700
H  6.53500 -5.67000 46.86700
H  6.42800 -4.24900 47.87900
H  7.82600 -4.69500 46.78100
H  7.38500 -0.89600 42.80500
H  8.81800 3.15600 43.90200
H  8.30000 2.39100 45.44500
H  7.20800 3.32300 44.36600
Mg 16.38000 -2.67000 28.01000
C  15.41800 -0.55500 30.57700
C  18.37800 -4.39300 30.02600
C  17.78800 -3.97800 25.21700
C  14.64800 -0.43000 25.79500
N  16.92800 -2.36500 29.98900
C  16.32900 -1.55400 30.92400
C  16.89200 -1.81800 32.36100
C  18.02300 -2.90900 32.11700
C  17.75100 -3.27700 30.64400
C  19.41500 -2.33000 32.27100
C  15.71400 -2.34100 33.25900
C  15.85300 -2.14800 34.80200
H  17.17300 -1.66400 35.39000
N  17.75100 -4.12300 27.68500
C  18.38800 -4.80100 28.68600
C  19.13600 -5.84400 28.03200
C  19.01000 -5.71400 26.63100
C  18.16400 -4.53400 26.47200
C  20.07100 -6.81900 28.83300
C  19.74300 -6.39900 25.49600
O  19.55900 -6.21600 24.30400
C  20.68200 -7.51600 25.84900
N  16.45100 -2.11400 25.73200
C  17.09000 -2.89400 24.82400
C  16.58600 -2.63000 23.40600
C  15.46200 -1.60800 23.68100
C  15.52900 -1.31900 25.16000
C  17.76900 -2.12600 22.50600
C  14.03900 -1.93800 23.17300
C  13.01100 -0.84500 22.88200
N  15.28600 -0.89300 28.10700
C  14.60500 -0.18700 27.16400
C  13.74800 0.83000 27.84600
C  14.15200 0.76100 29.17900
C  14.99300 -0.32100 29.26600
C  12.72500 1.77800 27.28500
C  13.96500 1.45400 30.49100
O  13.31900 2.47800 30.82000
C  14.82000 0.55700 31.50800
C  15.68700 1.49900 32.13600
O  16.65800 2.09500 31.62200
O  15.19800 1.69100 33.44000
C  15.88400 2.74700 34.11400
H  19.08600 -4.97400 30.62100
H  18.15200 -4.49500 24.32600
H  14.04900 0.26200 25.19800
H  17.32000 -0.85800 32.65000
H  17.83400 -3.75700 32.77600
H  19.92000 -2.98900 32.97700
H  19.34500 -1.32400 32.68500
H  19.78800 -2.27700 31.24800
H  15.69400 -3.42800 33.18000
H  14.80100 -1.87800 32.88500
H  15.49400 -3.05400 35.29100
H  15.16000 -1.35700 35.09000
H  19.98900 -6.71400 29.91500
H  21.12400 -6.70800 28.57700
H  19.73400 -7.83800 28.64200
H  21.47000 -6.87800 26.25000
H  21.00000 -7.97800 24.91400
H  20.38900 -8.34200 26.49800
H  16.21300 -3.56400 22.98700
H  15.72400 -0.60400 23.34500
H  17.76200 -1.06000 22.27800
H  17.80600 -2.72300 21.59500
H  18.66900 -2.23000 23.11200
H  13.52800 -2.56300 23.90400
H  14.13000 -2.49700 22.24100
H  12.24300 -1.07800 23.62000
H  12.69300 -0.73300 21.84500
H  13.40400 0.13100 23.16800
H  13.20900 2.11000 26.36600
H  12.54100 2.63600 27.93100
H  11.76200 1.31900 27.06100
H  14.13100 0.14000 32.24200
H  15.69300 3.77900 33.82200
H  16.94200 2.50200 34.02800
H  15.72100 2.73600 35.19200

