158

Mg 24.32300 -5.37100 45.74600
C  26.60900 -3.20900 44.14200
C  21.80400 -4.09900 43.68800
C  22.38200 -8.02800 46.29900
C  26.86800 -6.76600 47.59800
N  24.28300 -3.94300 44.10200
C  25.28700 -3.12200 43.64100
C  24.77800 -2.30900 42.41400
C  23.25100 -2.40700 42.57000
C  23.07800 -3.51800 43.54300
C  22.48000 -1.03800 43.00800
C  25.23200 -2.81600 41.01200
C  26.25700 -1.90800 40.28300
H  26.06200 -1.60500 38.80500
N  22.27800 -5.92100 45.16600
C  21.40400 -5.23000 44.37100
C  20.18200 -5.91000 44.28200
C  20.34200 -7.11100 44.99300
C  21.72200 -7.01100 45.53800
C  18.99200 -5.29500 43.47800
C  19.23100 -8.02800 45.29000
O  18.12100 -7.69100 44.92200
C  19.35100 -9.30600 46.04900
N  24.69700 -7.24500 46.56800
C  23.71800 -8.21300 46.71500
C  24.18300 -9.44200 47.51900
C  25.59300 -8.92300 48.08500
C  25.74000 -7.58700 47.36700
C  23.27200 -9.94300 48.70100
C  26.80000 -9.87700 47.99300
C  27.65300 -10.13700 49.26000
N  26.38800 -5.06100 45.93900
C  27.30700 -5.66800 46.77500
C  28.59300 -5.04000 46.54200
C  28.40900 -4.08900 45.56600
C  27.03600 -4.13800 45.25200
C  29.90700 -5.29000 47.35600
C  28.98900 -3.15000 44.69400
O  30.14400 -2.76400 44.80200
C  27.86700 -2.45000 43.71600
C  27.74800 -0.98200 43.91900
O  26.95300 -0.38600 44.62200
O  28.57400 -0.34900 43.06600
C  28.71400 1.09400 43.25900
H  21.01700 -3.65300 43.07600
H  21.80300 -8.94300 46.44200
H  27.71700 -7.09900 48.19900
H  25.14700 -1.30600 42.62800
H  22.68700 -2.68700 41.68000
H  23.13600 -0.17200 42.91300
H  22.09900 -1.20400 44.01500
H  21.67300 -1.04700 42.27500
H  24.38300 -2.92000 40.33700
H  25.67800 -3.77600 41.27300
H  27.29300 -2.21500 40.42900
H  26.22500 -1.01600 40.90800
H  18.48700 -6.01900 42.84000
H  19.20900 -4.36600 42.95000
H  18.28400 -5.05000 44.27000
H  18.38700 -9.80900 46.11400
H  19.64900 -9.01300 47.05600
H  20.17900 -9.78600 45.52700
H  24.37400 -10.29100 46.86100
H  25.46500 -8.64400 49.13100
H  23.83600 -9.98600 49.63300
H  22.94000 -10.96000 48.49200
H  22.42000 -9.29600 48.90700
H  27.32100 -9.59800 47.07700
H  26.51000 -10.90700 47.78400
H  27.48100 -11.17500 49.54700
H  27.28700 -9.44900 50.02200
H  28.72900 -10.00700 49.14900
H  30.78700 -5.34400 46.71500
H  29.82600 -6.20300 47.94600
H  30.06200 -4.38700 47.94600
H  28.21400 -2.67300 42.70700
H  28.37400 1.55600 44.18700
H  28.25300 1.63500 42.43200
H  29.77400 1.33800 43.19500
Mg -11.86400 38.80700 41.90300
C  -9.50900 36.22200 41.26700
C  -9.78900 40.83400 40.25600
C  -14.34100 40.97100 41.91100
C  -14.11000 36.21900 42.78200
N  -10.05200 38.45600 40.54700
C  -9.23600 37.37000 40.55100
C  -8.07400 37.59600 39.56900
C  -8.08400 39.12700 39.34000
C  -9.43000 39.51800 40.02800
C  -6.91100 39.96900 40.02400
C  -8.27300 36.70700 38.28200
C  -6.97800 36.06100 37.77100
H  -6.19900 36.79200 36.73400
N  -11.95100 40.70400 41.27300
C  -10.93200 41.42200 40.75600
C  -11.22200 42.79500 40.68400
C  -12.60900 42.82000 41.02900
C  -13.05700 41.42700 41.45900
C  -10.34900 43.99100 40.22200
C  -13.51000 44.02900 40.96300
O  -13.01500 45.09700 40.64300
C  -14.95500 44.09800 41.38600
N  -13.92100 38.57400 42.20800
C  -14.68100 39.69400 42.24800
C  -16.13800 39.35400 42.55700
C  -16.09100 37.84500 42.78900
C  -14.64200 37.48200 42.58700
C  -16.70300 40.30600 43.67900
C  -17.03600 36.96600 41.89500
C  -17.56800 35.56700 42.50700
N  -11.83700 36.62300 42.07400
C  -12.78400 35.76500 42.53800
C  -12.25900 34.45900 42.73900
C  -10.89900 34.58300 42.29100
C  -10.76600 35.87000 41.77900
C  -13.01500 33.26500 43.52100
C  -9.60200 33.94000 42.20600
O  -9.27300 32.81200 42.46900
C  -8.64700 34.89900 41.36900
C  -7.38800 34.98900 42.11300
O  -6.61400 34.01200 42.14600
O  -7.18400 36.27200 42.59000
C  -6.05200 36.45100 43.50600
H  -9.12600 41.60600 39.85900
H  -15.10000 41.74100 42.06500
H  -14.73400 35.35500 43.01800
H  -7.20900 37.43100 40.21200
H  -8.20000 39.47100 38.31300
H  -7.10900 40.36000 41.02200
H  -6.71500 40.75100 39.29100
H  -5.98200 39.40000 40.02400
H  -8.60900 37.34100 37.46200
H  -8.90500 35.83400 38.44600
H  -7.24300 35.03100 37.53000
H  -6.27600 35.98000 38.60100
H  -10.76000 44.57100 39.39500
H  -9.36100 43.63200 39.93200
H  -10.00900 44.68400 40.99100
H  -15.30200 45.12300 41.25900
H  -15.00900 43.81900 42.43800
H  -15.49400 43.35100 40.80200
H  -16.58300 39.63500 41.60200
H  -16.47500 37.54200 43.76300
H  -17.20800 41.21900 43.36300
H  -15.88800 40.56300 44.35500
H  -17.36800 39.69400 44.28800
H  -16.34800 36.80200 41.06600
H  -17.81300 37.59800 41.46400
H  -18.65000 35.50000 42.39500
H  -17.27600 35.39900 43.54400
H  -17.30100 34.74400 41.84400
H  -12.35100 32.51100 43.94300
H  -13.74500 32.81500 42.84800
H  -13.45600 33.72800 44.40300
H  -8.48600 34.46700 40.38200
H  -5.26600 36.90300 42.90100
H  -5.63000 35.49100 43.80200
H  -6.30800 37.08000 44.35800

