158

Mg 7.88900 3.20500 27.84500
C  9.41300 1.62300 30.64400
C  6.31900 5.38900 30.17300
C  6.33400 4.76800 25.28400
C  8.95000 0.63200 25.85200
N  7.85200 3.44000 30.15400
C  8.61300 2.70500 31.01500
C  8.41200 3.26200 32.49800
C  7.36300 4.37600 32.32700
C  7.12600 4.40100 30.81600
C  6.06200 4.27900 33.13100
C  9.77800 3.71100 33.14300
C  9.92200 3.49800 34.69000
H  10.49700 4.61200 35.55300
N  6.58800 4.84300 27.75800
C  6.13100 5.59100 28.79500
C  5.38200 6.68400 28.22100
C  5.23200 6.46200 26.83000
C  6.02900 5.25600 26.59000
C  4.84000 7.78700 29.11000
C  4.65000 7.35900 25.72600
O  4.72200 7.11500 24.52100
C  4.01900 8.61600 26.07100
N  7.53500 2.64600 25.90400
C  7.07500 3.50800 24.96900
C  7.38200 3.20100 23.48600
C  8.02200 1.72500 23.75200
C  8.23600 1.65300 25.25400
C  6.05100 3.31100 22.67100
C  9.32500 1.60900 22.89800
C  10.55200 2.43400 23.39100
N  8.92000 1.42400 28.14100
C  9.18400 0.41100 27.29800
C  9.87400 -0.65500 27.99500
C  10.07400 -0.11200 29.27200
C  9.40800 1.05800 29.30900
C  10.57300 -1.83600 27.51700
C  10.75000 -0.36100 30.52700
O  11.48800 -1.25100 30.89700
C  10.25900 0.71700 31.43600
C  9.47600 0.13700 32.52000
O  8.49400 -0.55800 32.34300
O  10.15300 0.32400 33.73200
C  9.35300 -0.18400 34.86700
H  5.85900 6.13500 30.82400
H  6.06100 5.48100 24.50300
H  9.29400 -0.22900 25.27500
H  7.96300 2.44100 33.05800
H  7.79700 5.31700 32.66900
H  5.23900 3.86700 32.54600
H  5.77200 5.28100 33.44700
H  6.11700 3.64300 34.01500
H  9.89000 4.77300 32.92800
H  10.53400 3.10000 32.65000
H  10.64800 2.70300 34.86300
H  8.94800 3.24500 35.11000
H  5.40600 7.96800 30.02400
H  3.77200 7.67000 29.29700
H  4.90600 8.72700 28.56200
H  3.32000 8.44600 26.89000
H  3.54900 8.81800 25.10800
H  4.82400 9.29500 26.35400
H  8.11700 3.84700 23.00700
H  7.37800 0.88000 23.50800
H  5.16600 3.50300 23.27800
H  5.94400 2.34700 22.17500
H  6.04100 4.03200 21.85400
H  9.10100 1.95400 21.88900
H  9.54300 0.54200 22.84300
H  11.13200 1.80500 24.06700
H  10.25100 3.33800 23.92000
H  11.10900 2.78100 22.52000
H  11.59000 -1.69200 27.15300
H  9.97100 -2.36400 26.77800
H  10.67300 -2.56400 28.32200
H  11.13800 1.20800 31.85300
H  9.24600 -1.26800 34.91200
H  8.35700 0.23700 34.99900
H  9.80800 0.09500 35.81700
Mg 34.89400 3.30800 29.15800
C  32.79200 4.19400 31.82500
C  37.46300 3.05400 31.41800
C  36.83500 2.76900 26.54100
C  32.12500 3.77100 26.96800
N  35.01900 3.53200 31.36700
C  34.04700 3.82200 32.28800
C  34.56700 3.90900 33.72400
C  36.09000 3.74500 33.49200
C  36.21300 3.44400 31.98900
C  36.98500 4.96800 33.86600
C  33.98700 2.83800 34.69900
C  34.75000 2.62600 36.03800
H  35.54300 3.70200 36.71800
N  36.88800 2.97100 29.03800
C  37.76400 2.89400 30.03700
C  39.03500 2.46200 29.49000
C  38.85100 2.31600 28.08800
C  37.49400 2.79000 27.81300
C  40.25200 2.17600 30.34300
C  39.85900 1.81700 27.06700
O  39.65600 1.98900 25.88400
C  41.17800 1.22500 27.50800
N  34.46800 3.35500 27.01600
C  35.45600 3.02400 26.17700
C  34.97100 3.14800 24.72000
C  33.41400 3.12600 24.95500
C  33.29300 3.47600 26.39200
C  35.58700 4.52900 24.19000
C  32.74100 1.76400 24.59400
C  31.45500 1.73400 23.83400
N  32.84700 3.81800 29.29500
C  31.89400 3.93300 28.36900
C  30.66500 4.29500 28.94600
C  30.94100 4.42400 30.33700
C  32.29900 4.12200 30.48800
C  29.43200 4.52500 28.22500
C  30.41300 4.76900 31.61500
O  29.31300 5.18500 31.88300
C  31.53100 4.48300 32.68500
C  31.66900 5.53600 33.64500
O  32.27200 6.57300 33.48500
O  30.96600 5.19700 34.80300
C  30.84300 6.16300 35.91800
H  38.23700 2.95500 32.18100
H  37.49700 2.54600 25.70100
H  31.21300 3.89100 26.38000
H  34.30300 4.92900 34.00200
H  36.38400 2.86100 34.05700
H  36.47000 5.64000 34.55200
H  37.22400 5.56700 32.98800
H  37.92700 4.63800 34.30500
H  34.00500 1.91000 34.12600
H  32.97200 3.20600 34.84700
H  35.33600 1.72000 35.88600
H  34.01700 2.28200 36.76700
H  40.33100 1.08900 30.31500
H  40.12800 2.48700 31.38100
H  41.14600 2.73200 30.05900
H  41.84900 1.18500 26.65100
H  40.93200 0.25000 27.93000
H  41.70600 1.78500 28.28000
H  35.27600 2.33400 24.06200
H  32.98200 3.85600 24.26900
H  35.77300 5.22200 25.01000
H  34.97600 5.00600 23.42400
H  36.55900 4.31100 23.74800
H  32.59000 1.13300 25.46900
H  33.40300 1.29600 23.86500
H  30.81100 2.57900 24.07800
H  30.99000 0.78700 24.10700
H  31.56500 1.67100 22.75200
H  29.35300 5.45800 27.66600
H  28.65000 4.52400 28.98500
H  29.25500 3.67000 27.57200
H  31.26500 3.63600 33.31800
H  31.11200 7.16500 35.58400
H  31.55300 5.97600 36.72400
H  29.78600 6.23200 36.17200

