158

Mg 1.28000 -1.54000 44.39600
C  4.61200 -0.24900 44.00000
C  0.21500 1.27500 42.74300
C  -1.73600 -3.00900 43.94600
C  2.51500 -4.23900 45.90200
N  2.33700 0.15000 43.20800
C  3.68000 0.52300 43.30500
C  3.98900 1.88300 42.75700
C  2.57200 2.54000 42.83700
C  1.62100 1.27500 42.90900
C  2.38900 3.50100 44.02800
C  4.55500 1.80500 41.33100
C  6.01400 2.12900 40.90500
H  6.15800 2.99200 39.60900
N  -0.66800 -0.83400 43.59300
C  -0.85800 0.35400 42.97500
C  -2.19900 0.53600 42.58000
C  -2.77800 -0.78300 42.86600
C  -1.70000 -1.61200 43.47000
C  -2.72000 1.81200 41.91300
C  -4.19300 -1.17600 42.56500
O  -4.91700 -0.42300 41.92300
C  -4.73800 -2.43200 43.06200
N  0.57500 -3.40000 44.78300
C  -0.72100 -3.69500 44.61500
C  -1.00100 -5.00800 45.34500
C  0.30700 -5.49600 45.90500
C  1.17100 -4.30800 45.48800
C  -2.06600 -4.81000 46.40900
C  0.80700 -6.89300 45.32000
C  1.13900 -7.88900 46.43100
N  3.14200 -2.21500 44.78400
C  3.52400 -3.34200 45.45000
C  4.86100 -3.29200 45.83500
C  5.36000 -2.11800 45.27200
C  4.27300 -1.48300 44.60500
C  5.64000 -4.27600 46.70600
C  6.50600 -1.25300 45.24600
O  7.62200 -1.29000 45.76600
C  6.12800 -0.07800 44.27700
C  6.38500 1.12600 45.04900
O  5.61000 1.60200 45.90700
O  7.59000 1.64000 44.65300
C  8.09600 2.71700 45.36900
H  -0.05100 2.29200 42.44800
H  -2.59300 -3.68600 43.97600
H  2.95200 -5.05100 46.48700
H  4.61200 2.44800 43.45000
H  2.35200 3.21200 42.00800
H  3.27000 3.83000 44.57900
H  1.69000 3.03600 44.72300
H  1.95600 4.44700 43.70300
H  3.98900 2.44400 40.65300
H  4.32500 0.90000 40.76800
H  6.35900 1.12300 40.66900
H  6.54400 2.56500 41.75300
H  -2.85500 1.56100 40.86100
H  -2.11900 2.72000 41.86500
H  -3.71500 2.03000 42.30200
H  -5.78900 -2.62300 42.84300
H  -4.53900 -2.31100 44.12700
H  -4.12700 -3.16600 42.53700
H  -1.31500 -5.71900 44.58000
H  0.19400 -5.47000 46.98900
H  -1.46100 -4.39700 47.21600
H  -2.48200 -5.78600 46.66100
H  -2.90300 -4.22400 46.03100
H  1.76000 -6.65100 44.85100
H  0.16100 -7.41500 44.61400
H  2.09000 -7.57900 46.86400
H  1.11700 -8.90800 46.04400
H  0.37000 -7.98100 47.19700
H  5.97500 -5.01300 45.97600
H  4.98600 -4.80100 47.40200
H  6.44600 -3.63900 47.07100
H  6.81900 0.00500 43.43800
H  9.12900 2.91700 45.08600
H  8.10800 2.44800 46.42500
H  7.50400 3.59300 45.10400
Mg 9.38000 47.35100 25.05500
C  7.11400 47.83900 27.58500
C  11.85300 48.51100 27.13700
C  11.59800 47.20800 22.37900
C  6.80900 46.67700 22.80500
N  9.45900 48.06100 27.16900
C  8.41800 48.13100 28.07100
C  8.93700 48.45300 29.46300
C  10.34200 49.06100 29.20000
C  10.59100 48.43900 27.80100
C  10.51000 50.56300 29.28000
C  9.04400 47.21000 30.38700
C  8.59300 47.57600 31.80800
H  8.91200 46.59900 32.96500
N  11.46400 47.61800 24.84000
C  12.27100 48.02900 25.83800
C  13.66900 48.05400 25.34600
C  13.62600 47.69400 23.98100
C  12.14100 47.53900 23.67600
C  14.88500 48.30400 26.22500
C  14.81500 47.37800 23.01800
O  14.66300 46.82700 21.94200
C  16.23600 47.79100 23.44200
N  9.24100 46.95300 22.96700
C  10.25500 46.94000 22.10500
C  9.87500 46.64500 20.59100
C  8.37700 46.36000 20.80600
C  8.06800 46.56000 22.31100
C  10.32800 47.63000 19.49800
C  8.05100 44.90000 20.43700
C  8.56700 43.78800 21.34700
N  7.35000 47.29700 25.12900
C  6.40400 46.96400 24.12500
C  5.07200 47.02900 24.70100
C  5.30700 47.35400 26.04500
C  6.70400 47.49700 26.26100
C  3.84200 46.80700 24.00000
C  4.68400 47.58700 27.26700
O  3.48500 47.48400 27.54400
C  5.83800 47.96500 28.29600
C  5.70500 46.87700 29.31300
O  5.98200 45.69800 29.17700
O  5.14100 47.43600 30.43800
C  4.64000 46.45600 31.36000
H  12.65400 48.94600 27.73800
H  12.17900 47.08400 21.46300
H  6.10300 46.47600 21.99700
H  8.37100 49.32300 29.79500
H  11.18300 48.60900 29.72600
H  10.24900 50.92600 28.28600
H  11.56100 50.71300 29.52900
H  9.76000 50.94900 29.97100
H  10.02400 46.74900 30.50600
H  8.45600 46.35000 30.06800
H  7.51000 47.61700 31.69200
H  8.84600 48.62700 31.94200
H  14.51300 48.43400 27.24100
H  15.42200 49.21200 25.95200
H  15.60200 47.50400 26.03700
H  16.79100 47.08700 24.06100
H  16.22700 48.78800 23.88400
H  16.84700 47.88100 22.54400
H  10.39800 45.70200 20.42900
H  7.78400 47.02800 20.18200
H  10.95800 48.31300 20.06800
H  9.47300 48.16800 19.08900
H  10.77500 47.01900 18.71400
H  8.34800 44.72500 19.40300
H  6.97400 44.74000 20.38500
H  9.32700 44.06300 22.07800
H  8.91300 43.01100 20.66500
H  7.75000 43.29400 21.87300
H  4.03600 45.96600 23.33500
H  3.43100 47.72700 23.58500
H  3.02500 46.37200 24.57700
H  5.59300 48.95600 28.67700
H  4.56600 46.88900 32.35800
H  5.23900 45.54600 31.38700
H  3.61200 46.22900 31.07800

