158

Mg 46.78900 25.15300 28.40700
C  47.72500 27.32000 30.92600
C  46.17700 22.74000 30.84600
C  46.16500 22.85400 25.95200
C  48.00700 27.27800 26.03200
N  46.98100 25.07600 30.63400
C  47.26500 26.13300 31.44100
C  47.06600 25.79200 32.98500
C  46.70400 24.21900 32.90900
C  46.61800 23.97400 31.38800
C  47.54400 23.27400 33.80800
C  46.07700 26.71200 33.71500
C  45.38000 26.19500 34.97400
H  45.35900 27.09200 36.23600
N  46.17600 23.08800 28.42700
C  45.94100 22.28100 29.53300
C  45.43500 20.97200 29.07000
C  45.58700 20.96600 27.68300
C  45.95900 22.35000 27.27900
C  44.90300 19.85500 29.99900
C  45.33600 19.78000 26.80600
O  45.39200 19.81600 25.56200
C  44.84400 18.48200 27.40200
N  46.95900 25.15600 26.21600
C  46.56200 24.16100 25.43300
C  46.90600 24.40900 23.94800
C  47.24000 25.88400 23.99100
C  47.42900 26.11900 25.46800
C  48.00900 23.47400 23.40900
C  46.08500 26.78900 23.44400
C  46.44600 27.96000 22.52500
N  47.74900 26.86500 28.44000
C  48.19100 27.64200 27.38800
C  48.67900 28.84500 27.91200
C  48.58000 28.80000 29.29800
C  48.00000 27.54200 29.60100
C  49.34800 29.94600 27.14700
C  48.70800 29.56700 30.52000
O  49.15700 30.67400 30.73800
C  47.99200 28.66100 31.57500
C  48.98600 28.76000 32.78400
O  49.88300 27.98000 33.02900
O  48.53200 29.71000 33.71000
C  48.94000 29.70200 35.12600
H  46.08000 22.03600 31.67500
H  45.80800 22.16600 25.18300
H  48.44900 27.87900 25.23400
H  47.99300 26.14400 33.43700
H  45.65700 24.18000 33.20900
H  48.31900 22.69900 33.30100
H  46.85200 22.72700 34.44800
H  48.02900 24.05800 34.39000
H  45.27200 27.03700 33.05600
H  46.54500 27.69600 33.76400
H  45.84000 25.24400 35.24200
H  44.31600 26.08300 34.76800
H  44.86800 20.25600 31.01200
H  45.52200 18.96000 30.06000
H  43.87500 19.64200 29.70600
H  44.46600 17.79200 26.64700
H  43.82700 18.57600 27.78200
H  45.57800 18.01400 28.05800
H  45.99900 24.22600 23.37200
H  48.13800 25.98400 23.38100
H  48.08200 22.61000 24.06900
H  48.93500 24.04600 23.35000
H  47.67300 23.18700 22.41300
H  45.44600 27.11900 24.26400
H  45.44400 26.24900 22.74700
H  45.98400 27.85300 21.54400
H  47.51900 28.13100 22.43600
H  46.10400 28.93300 22.87600
H  48.79400 30.14300 26.22900
H  50.42500 29.79600 27.07400
H  49.36000 30.86500 27.73300
H  47.02500 29.10100 31.81700
H  48.66100 30.58700 35.69700
H  49.98700 29.55100 35.39100
H  48.39100 28.84600 35.51900
Mg 10.64500 47.41200 25.50000
C  8.93400 47.73000 28.45600
C  13.40900 48.59000 27.06800
C  12.18800 47.19800 22.62700
C  7.61600 46.98000 23.85000
N  11.16500 47.87800 27.67000
C  10.30000 48.00300 28.69000
C  11.00500 48.53900 29.97400
C  12.30800 49.17500 29.37000
C  12.31600 48.49200 27.92600
C  12.12600 50.77100 29.26200
C  11.29300 47.55100 31.12200
C  11.14100 47.94500 32.61100
H  10.58700 46.82900 33.57500
N  12.64100 47.67900 24.95800
C  13.60800 48.11900 25.76100
C  14.89500 48.26900 25.04500
C  14.60200 47.84000 23.73600
C  13.09000 47.54700 23.69500
C  16.19600 48.67900 25.68100
C  15.49200 47.74000 22.40200
O  15.02600 47.39600 21.33700
C  16.98800 47.91600 22.48100
N  9.97300 47.45500 23.44700
C  10.79700 47.12800 22.45900
C  10.11200 46.74400 21.06100
C  8.70300 46.49400 21.62600
C  8.72300 47.02400 23.03800
C  10.09000 47.87700 20.00600
C  8.28900 44.98200 21.74000
C  9.30800 44.04600 22.48900
N  8.61600 47.31100 26.00000
C  7.47500 47.11100 25.23300
C  6.34100 46.96300 26.09300
C  6.82500 47.25800 27.37100
C  8.27300 47.44300 27.24600
C  4.95900 46.70100 25.57200
C  6.45900 47.46900 28.76500
O  5.38100 47.59500 29.36500
C  7.84400 47.67400 29.53700
C  7.89100 46.59700 30.58400
O  8.56800 45.57000 30.57500
O  6.90800 46.98300 31.44200
C  6.44000 45.93500 32.38100
H  14.26900 49.10900 27.49600
H  12.67900 46.91500 21.69300
H  6.61700 46.87600 23.41900
H  10.28200 49.28800 30.29600
H  13.14900 48.98000 30.03500
H  11.14200 51.14700 29.54200
H  12.30800 51.13100 28.24900
H  12.84700 51.23900 29.93300
H  12.31000 47.17600 31.00200
H  10.72900 46.62900 30.98000
H  10.53400 48.85000 32.60900
H  12.13800 48.22800 32.94800
H  16.56400 47.81200 26.22900
H  16.03100 49.45200 26.43100
H  16.92900 49.01600 24.94800
H  17.50900 47.51200 21.61300
H  17.38900 47.36300 23.33100
H  17.33400 48.91300 22.75200
H  10.40000 45.78000 20.64100
H  7.88300 46.95600 21.07600
H  11.10000 48.05400 19.63500
H  9.76500 48.72600 20.60700
H  9.38500 47.48900 19.27100
H  8.17600 44.64500 20.70900
H  7.33100 44.88800 22.25100
H  10.20300 44.62300 22.72000
H  9.55800 43.23000 21.81000
H  8.83500 43.65500 23.39000
H  4.96700 47.05200 24.54100
H  4.10400 47.05700 26.14700
H  4.74200 45.63500 25.63400
H  7.84100 48.66000 30.00100
H  5.51800 46.29600 32.83800
H  7.07400 45.76900 33.25200
H  6.23000 45.09400 31.72000

