158

Mg 1.47800 8.42000 27.06200
C  2.20700 10.24300 29.87300
C  1.32100 5.45800 28.91300
C  1.30200 6.57800 24.22100
C  2.19100 11.32000 25.11100
N  1.71800 7.87700 29.12100
C  1.85000 8.85000 30.13700
C  1.77100 8.27400 31.59600
C  1.74900 6.71900 31.24900
C  1.56200 6.65900 29.70500
C  2.99100 5.96100 31.82300
C  0.50500 8.72800 32.34700
C  0.42100 8.55900 33.89600
H  1.74000 7.95300 34.54800
N  1.22200 6.25900 26.59600
C  1.16900 5.24100 27.51400
C  0.89700 3.97600 26.76600
C  0.98700 4.29500 25.36100
C  1.17200 5.73000 25.35500
C  0.76800 2.67100 27.58800
C  1.00000 3.37900 24.16300
O  1.25300 3.83700 23.02300
C  0.69900 1.85700 24.46800
N  1.77400 8.87500 24.94900
C  1.49200 7.92500 24.02200
C  1.78900 8.50200 22.63800
C  1.94400 10.01300 22.85400
C  2.02900 10.06000 24.37300
C  2.98400 7.88400 21.91100
C  0.91700 10.93400 22.19800
C  -0.53600 10.68000 22.52300
N  1.96900 10.40000 27.34200
C  2.29000 11.45400 26.52600
C  2.57500 12.66800 27.27700
C  2.66300 12.19700 28.58700
C  2.21300 10.82400 28.57700
C  2.96000 13.99900 26.72700
C  2.86600 12.64200 29.91900
O  3.24900 13.76600 30.35200
C  2.45100 11.44600 30.90800
C  3.52500 11.27500 31.87700
O  4.60900 10.71000 31.77000
O  3.09900 11.87600 33.00400
C  3.85700 11.70200 34.20900
H  1.24400 4.55000 29.51600
H  1.14400 5.97300 23.32600
H  2.53100 12.09400 24.41900
H  2.69900 8.62600 32.04600
H  0.86700 6.36300 31.78100
H  3.49500 6.56500 32.57700
H  3.70500 5.70300 31.04100
H  2.60800 5.05800 32.29800
H  -0.33400 8.17900 31.92100
H  0.31600 9.78200 32.14200
H  -0.43900 8.00800 34.27400
H  0.33000 9.56800 34.29900
H  1.62100 2.00600 27.45300
H  0.02000 2.09300 27.04500
H  0.45600 2.77400 28.62700
H  -0.21700 1.79500 25.05500
H  1.52200 1.51500 25.09500
H  0.66500 1.46100 23.45300
H  0.95800 8.24300 21.98300
H  2.93200 10.34100 22.53200
H  3.42500 8.64900 21.27200
H  2.69800 7.09900 21.21000
H  3.68800 7.61900 22.70000
H  0.97400 10.83000 21.11500
H  1.17100 11.93100 22.55900
H  -1.04200 10.18000 21.69700
H  -1.03800 11.56400 22.91600
H  -0.60300 10.09100 23.43800
H  2.10800 14.55000 26.32900
H  3.65400 13.84500 25.90100
H  3.38700 14.72100 27.42300
H  1.45700 11.71100 31.26800
H  3.11700 11.37700 34.94000
H  4.31600 12.67900 34.36400
H  4.67700 10.98500 34.18000
Mg 10.14300 47.75900 26.03300
C  7.79600 48.09200 28.75100
C  12.32300 49.39700 27.95000
C  12.07200 47.94200 23.41500
C  7.36600 46.93700 23.88100
N  10.05500 48.42500 28.10900
C  9.10500 48.42400 29.08700
C  9.63300 48.93800 30.48200
C  10.86000 49.74000 29.94500
C  11.09900 49.17900 28.55600
C  10.70600 51.28500 29.91200
C  9.98900 47.80000 31.47400
C  10.01800 48.08800 33.00100
H  9.47500 47.12000 34.07400
N  12.02800 48.34200 25.84000
C  12.83500 48.94000 26.72000
C  14.16400 49.02200 26.21700
C  14.10800 48.60000 24.85800
C  12.67900 48.27600 24.64000
C  15.24900 49.48000 27.16300
C  15.15500 48.50700 23.84700
O  14.90600 48.10900 22.71000
C  16.61500 48.82000 24.14200
N  9.78300 47.63800 23.88200
C  10.78100 47.56600 23.06300
C  10.41600 47.19000 21.59700
C  9.00700 46.60100 21.82900
C  8.71000 47.04300 23.30000
C  10.31400 48.42300 20.68900
C  8.87100 45.01100 21.60200
C  9.24800 44.13000 22.78000
N  8.03300 47.53000 26.24800
C  7.07500 47.10700 25.27700
C  5.78600 47.28400 25.88000
C  6.03500 47.63300 27.24000
C  7.42800 47.79300 27.39200
C  4.51400 47.06200 25.22700
C  5.39400 47.84900 28.47700
O  4.19100 47.73700 28.65400
C  6.51900 48.31400 29.53600
C  6.38600 47.46700 30.71500
O  6.82200 46.34500 30.88400
O  5.66500 48.15300 31.64300
C  5.52000 47.50800 32.95400
H  12.89200 50.10500 28.55700
H  12.71400 47.99300 22.53400
H  6.52100 46.68100 23.23800
H  8.90100 49.58600 30.96300
H  11.67600 49.71900 30.66800
H  9.74500 51.62700 30.29600
H  10.81900 51.65700 28.89400
H  11.58800 51.76700 30.33300
H  10.96700 47.43400 31.16200
H  9.32200 46.95300 31.31200
H  9.52600 49.05700 33.08500
H  11.07700 48.23600 33.20800
H  15.05500 49.35900 28.22900
H  15.43600 50.53200 26.94800
H  16.18500 48.96600 26.94600
H  16.96700 48.09500 24.87600
H  16.56400 49.82600 24.55800
H  17.19100 48.78100 23.21800
H  11.10400 46.47400 21.14800
H  8.28900 47.12900 21.20100
H  11.12400 48.22400 19.98700
H  10.59100 49.25100 21.34200
H  9.42800 48.58100 20.07400
H  9.68200 44.73500 20.92900
H  7.90800 44.88600 21.10500
H  8.83100 44.43600 23.74000
H  10.30700 43.98800 22.99800
H  8.88300 43.13800 22.51200
H  3.95600 47.99400 25.13200
H  3.99000 46.38800 25.90500
H  4.57500 46.52900 24.27900
H  6.39700 49.39000 29.65700
H  5.46700 46.41900 32.95400
H  4.52800 47.75300 33.33300
H  6.32700 47.81700 33.61800

