158

Mg 2.59300 -0.98300 44.19300
C  5.98800 -0.17000 43.40500
C  1.55800 1.60400 42.36200
C  -0.55000 -2.20500 44.41500
C  3.77000 -4.16400 45.17000
N  3.67600 0.47900 42.94700
C  5.04100 0.67400 42.83200
C  5.30700 2.00000 42.08000
C  3.84900 2.61700 41.88200
C  2.95200 1.48600 42.37900
C  3.54700 4.06100 42.38400
C  6.25200 1.77500 40.88200
C  7.10400 2.95400 40.45700
H  6.71300 3.63200 39.09500
N  0.76400 -0.28300 43.59400
C  0.53700 0.79600 42.84700
C  -0.86300 0.96400 42.59200
C  -1.51100 -0.05900 43.25200
C  -0.37900 -0.94400 43.79700
C  -1.44300 2.16200 41.80600
C  -3.04900 -0.23700 43.32700
O  -3.85500 0.54800 42.84800
C  -3.59800 -1.36300 44.11500
N  1.73800 -2.90300 44.75600
C  0.42100 -3.14800 44.82500
C  0.16100 -4.60100 45.15100
C  1.56000 -5.22200 45.27700
C  2.42900 -4.01700 45.09200
C  -0.81800 -4.81500 46.28500
C  1.76200 -6.41500 44.27500
C  1.43200 -7.82400 44.76000
N  4.41900 -1.91700 44.41100
C  4.74600 -3.19600 44.89500
C  6.14400 -3.42700 44.90400
C  6.71700 -2.16300 44.45900
C  5.60700 -1.34200 44.11400
C  6.79200 -4.75000 45.32000
C  8.00100 -1.47300 44.20500
O  9.15300 -1.87500 44.42200
C  7.53300 -0.15100 43.45900
C  8.05900 1.02600 44.34200
O  7.46300 1.40900 45.36400
O  9.14500 1.64500 43.76000
C  9.71600 2.74400 44.59600
H  1.35200 2.54400 41.84700
H  -1.51900 -2.65700 44.63700
H  4.15400 -5.18400 45.23300
H  5.90700 2.60900 42.75700
H  3.73100 2.59900 40.79800
H  3.26000 4.65600 41.51600
H  4.46800 4.42100 42.84200
H  2.67300 4.22300 43.01500
H  5.62300 1.56400 40.01700
H  7.04100 1.03700 41.02600
H  8.14500 2.67100 40.30400
H  7.21400 3.70800 41.23600
H  -1.86300 1.76000 40.88400
H  -0.77900 2.99300 41.56600
H  -2.18100 2.66900 42.42700
H  -4.68400 -1.31000 44.04800
H  -3.24100 -1.23200 45.13700
H  -3.24500 -2.30500 43.69500
H  -0.28500 -4.94000 44.21500
H  1.67100 -5.49000 46.32800
H  -1.41500 -3.90600 46.34800
H  -0.31300 -4.95400 47.24100
H  -1.39000 -5.69900 46.00100
H  2.75000 -6.36400 43.81900
H  1.22100 -6.23500 43.34600
H  0.57700 -8.23100 44.22000
H  1.16700 -7.92600 45.81200
H  2.23600 -8.54500 44.60900
H  6.53800 -5.10000 46.32100
H  7.86700 -4.66200 45.16900
H  6.55200 -5.54600 44.61500
H  8.07200 -0.14700 42.51100
H  10.77000 2.88200 44.35500
H  9.67200 2.47800 45.65200
H  9.12800 3.65000 44.45600
Mg 8.83100 48.28200 26.69700
C  6.74400 47.98800 29.42400
C  11.50500 48.81700 28.85500
C  10.88800 48.46100 23.98800
C  6.11900 47.94400 24.60400
N  9.13700 48.43400 28.95200
C  8.07600 48.24500 29.80600
C  8.66900 48.28500 31.25100
C  10.16900 48.71800 31.08900
C  10.34000 48.60900 29.59100
C  10.60700 50.09700 31.68200
C  8.45500 46.98900 32.17600
C  9.31800 46.65000 33.32400
H  8.70800 45.84100 34.53700
N  10.85400 48.81600 26.47400
C  11.77500 49.00200 27.47400
C  13.07700 49.35800 26.87500
C  12.98500 48.99000 25.51600
C  11.52700 48.76800 25.22600
C  14.24800 49.87300 27.66900
C  14.12800 48.72700 24.56100
O  13.93600 48.37600 23.39100
C  15.53800 48.71800 25.03900
N  8.54800 48.27700 24.59100
C  9.52700 48.33700 23.63300
C  9.08600 47.79800 22.25600
C  7.53000 47.89100 22.43500
C  7.35200 48.00600 23.96900
C  9.71500 48.59300 21.03400
C  6.69900 46.84600 21.67800
C  5.84500 47.37700 20.51900
N  6.77900 48.06500 26.90800
C  5.79500 47.92300 25.98800
C  4.52400 47.80900 26.60700
C  4.85900 47.79600 27.96700
C  6.25500 47.91500 28.09800
C  3.22500 47.83400 25.89700
C  4.25900 47.66500 29.23600
O  3.09600 47.61900 29.60500
C  5.48500 47.64500 30.24300
C  5.55100 46.24200 30.83900
O  6.03400 45.23300 30.29800
O  4.80800 46.28700 31.98300
C  4.58900 44.96200 32.56000
H  12.41800 48.96600 29.43500
H  11.59000 48.40600 23.15300
H  5.30800 47.66800 23.92700
H  8.01800 49.03100 31.70600
H  10.80100 47.98100 31.58500
H  10.65400 50.79400 30.84500
H  11.56700 50.08200 32.19700
H  9.87700 50.46700 32.40200
H  8.54800 46.11200 31.53500
H  7.42600 47.04800 32.53200
H  9.71800 47.60500 33.66400
H  10.13300 46.02200 32.96500
H  14.65900 50.76600 27.19800
H  14.94600 49.09500 27.98000
H  13.86600 50.25600 28.61600
H  16.24400 48.32300 24.30900
H  15.55400 48.00500 25.86400
H  15.82200 49.71400 25.37800
H  9.37800 46.74800 22.28500
H  7.25100 48.91000 22.16800
H  10.58100 49.20900 21.27500
H  8.85200 49.13800 20.65300
H  10.12100 47.82900 20.37100
H  6.13100 46.12900 22.27100
H  7.43800 46.17500 21.24100
H  4.83200 47.20000 20.88100
H  5.99900 46.77500 19.62300
H  5.86100 48.43900 20.27400
H  3.01800 46.78500 25.68400
H  3.19900 48.37100 24.94900
H  2.32400 48.08100 26.45700
H  5.39000 48.36800 31.05300
H  4.97200 44.90900 33.57900
H  5.05200 44.11100 32.06100
H  3.52600 44.73500 32.63800

