158

Mg 41.78900 41.38000 25.80000
C  40.68000 43.69000 28.14600
C  42.69000 39.28100 28.39000
C  42.97500 39.39600 23.41100
C  41.06300 43.80900 23.20300
N  41.40800 41.38300 28.08600
C  41.02600 42.51700 28.74900
C  40.92100 42.14100 30.32600
C  41.82600 40.88900 30.30500
C  41.94100 40.44000 28.85700
C  43.23800 41.18100 30.85900
C  39.52000 41.94700 30.93500
C  39.56600 41.52000 32.46800
H  38.79700 42.39000 33.40900
N  42.55800 39.53700 25.88400
C  42.85900 38.79800 27.01900
C  43.27000 37.52000 26.55100
C  43.42500 37.55400 25.16900
C  43.00200 38.88700 24.76400
C  43.54700 36.32300 27.48400
C  43.92500 36.53300 24.13500
O  43.89800 36.68500 22.92500
C  44.21700 35.24200 24.56100
N  41.90100 41.51400 23.57500
C  42.56900 40.65600 22.84100
C  42.72300 41.07900 21.36600
C  41.68200 42.22200 21.30400
C  41.52000 42.56000 22.78500
C  44.09700 41.45500 20.88900
C  40.30700 41.87500 20.62700
C  39.31100 40.94800 21.48800
N  41.08700 43.31900 25.67000
C  40.88800 44.16000 24.56900
C  40.37000 45.48100 25.01600
C  40.26300 45.28600 26.40200
C  40.75300 44.00500 26.76100
C  39.85600 46.57200 24.11800
C  39.81100 45.94800 27.64600
O  39.22700 47.00900 27.74500
C  40.07600 44.96100 28.79900
C  40.96700 45.56000 29.74400
O  42.09500 46.02900 29.51300
O  40.46200 45.32100 31.00300
C  41.41000 45.40400 32.15400
H  42.93100 38.61400 29.22100
H  43.49800 38.95900 22.55700
H  40.78000 44.48500 22.39400
H  41.36900 42.99500 30.83400
H  41.35400 40.03700 30.79400
H  44.03200 40.97900 30.14100
H  43.56000 40.41500 31.56400
H  43.35000 42.14700 31.35200
H  38.88600 41.43600 30.21000
H  39.05600 42.92600 31.05300
H  40.55100 41.54200 32.93400
H  39.07800 40.54500 32.46700
H  43.47600 36.69600 28.50600
H  44.60000 36.04500 27.46300
H  43.07500 35.35800 27.29200
H  44.96900 35.37800 25.33800
H  44.57600 34.64000 23.72700
H  43.32300 34.80300 25.00400
H  42.36800 40.28700 20.70500
H  42.06100 43.01400 20.65900
H  44.91800 41.30300 21.58900
H  44.25600 42.47300 20.53500
H  44.33300 40.86700 20.00200
H  40.61000 41.25300 19.78400
H  39.72200 42.67400 20.17200
H  39.85900 40.27800 22.15000
H  38.60600 40.47000 20.80800
H  38.66000 41.66700 21.98500
H  39.61900 46.11900 23.15600
H  40.69400 47.20500 23.82500
H  39.07700 47.27800 24.40400
H  39.08400 44.86200 29.23900
H  42.43400 45.74900 32.01000
H  41.34300 44.49200 32.74700
H  40.88400 46.17400 32.71800
Mg 8.48100 47.46600 28.01000
C  6.95500 46.72900 30.99700
C  11.42300 47.72100 29.83100
C  9.86800 48.82000 25.28100
C  5.29400 47.71200 26.41200
N  9.05600 47.43500 30.22300
C  8.31300 46.93400 31.19900
C  8.99800 47.00800 32.57300
C  10.44900 47.52100 32.15700
C  10.30000 47.57300 30.64400
C  11.07000 48.78300 32.75200
C  8.85200 45.70200 33.41900
C  9.92800 45.51800 34.50000
H  9.80200 44.44100 35.59100
N  10.47100 48.06100 27.55600
C  11.49800 48.11800 28.46000
C  12.71500 48.29200 27.66600
C  12.31300 48.61400 26.34000
C  10.82100 48.54200 26.29600
C  14.15900 48.33400 28.26900
C  13.09900 48.94900 25.13300
O  12.50200 49.20700 24.05100
C  14.51900 48.94300 25.17800
N  7.74300 47.93700 26.05900
C  8.50900 48.66200 25.21900
C  7.65400 49.32200 24.10700
C  6.32500 48.49300 24.27400
C  6.43500 47.97400 25.61400
C  7.44600 50.86100 24.26900
C  5.99000 47.49300 23.20700
C  7.02000 46.38500 22.93400
N  6.58100 47.20900 28.51600
C  5.31300 47.33500 27.82400
C  4.21000 47.00300 28.70300
C  4.83700 46.79900 29.88700
C  6.23500 46.87900 29.73300
C  2.78700 47.13200 28.39600
C  4.54100 46.60100 31.30300
O  3.46200 46.52000 31.88200
C  5.85100 46.47900 32.07300
C  5.85900 45.11400 32.71800
O  6.25300 44.06700 32.27200
O  5.52000 45.37200 34.00300
C  5.54800 44.20500 34.84800
H  12.41200 47.63000 30.28500
H  10.14700 49.43400 24.42200
H  4.29600 47.68700 25.96800
H  8.38100 47.77400 33.04300
H  11.13800 46.73900 32.47500
H  12.01900 48.33900 33.05500
H  10.46900 49.07200 33.61400
H  11.29800 49.62900 32.10400
H  8.73400 44.83000 32.77700
H  7.92900 45.83600 33.98300
H  10.15100 46.49600 34.92700
H  10.81800 45.14000 33.99700
H  14.89600 49.07100 27.95000
H  14.62700 47.38800 27.99600
H  14.18100 48.38700 29.35700
H  14.98200 49.59200 25.92100
H  14.91700 49.18200 24.19200
H  14.82700 47.95100 25.50600
H  8.04600 49.16800 23.10100
H  5.46000 49.15200 24.35100
H  6.46500 51.17200 24.62900
H  7.68500 51.33300 23.31600
H  8.06800 51.33600 25.02700
H  5.89800 48.01300 22.25400
H  5.11000 46.91300 23.48500
H  7.39700 46.43900 21.91300
H  6.63000 45.37200 23.03500
H  7.83600 46.55100 23.63700
H  2.33600 47.84700 29.08400
H  2.26600 46.17500 28.42400
H  2.64400 47.42700 27.35600
H  5.90400 47.34000 32.74000
H  4.90900 44.39000 35.71100
H  6.55200 43.98400 35.20900
H  5.04900 43.31600 34.46200

