158

Mg -0.14300 7.36800 26.70200
C  0.36600 9.84500 29.22800
C  -0.19700 5.08800 29.21900
C  -0.03600 5.14600 24.34000
C  0.09000 10.03900 24.27100
N  0.20600 7.44200 28.91000
C  0.29000 8.54200 29.70800
C  0.41800 8.14000 31.22100
C  0.51600 6.58400 31.16500
C  0.04100 6.36300 29.68400
C  2.00300 6.12700 31.49500
C  -0.76800 8.66900 32.12800
C  -0.40500 9.23300 33.51400
H  -0.84800 8.64500 34.85600
N  -0.23100 5.35700 26.74700
C  -0.24400 4.58700 27.87700
C  -0.49700 3.22000 27.46500
C  -0.33800 3.15300 26.07100
C  -0.20300 4.60100 25.66900
C  -0.68900 2.03100 28.50500
C  -0.51800 1.97000 25.06900
O  -0.35500 2.11200 23.88200
C  -0.71900 0.61200 25.52400
N  0.27200 7.54800 24.55900
C  0.12000 6.49100 23.81000
C  0.12400 6.88400 22.36100
C  -0.36800 8.40000 22.34000
C  -0.02600 8.67100 23.79600
C  1.42500 6.62200 21.60400
C  -1.87700 8.60700 22.02200
C  -2.27500 9.90600 21.40600
N  0.16900 9.50800 26.68000
C  0.26000 10.45400 25.63200
C  0.48100 11.82200 26.11600
C  0.40300 11.58900 27.53400
C  0.37500 10.21800 27.83300
C  0.54200 13.15000 25.38900
C  0.54200 12.28800 28.81300
O  0.68300 13.48600 29.09500
C  0.40500 11.16000 29.93100
C  1.57500 11.20600 30.83000
O  2.75000 11.03300 30.67200
O  1.05400 11.50900 32.07400
C  2.10900 11.84500 33.04400
H  -0.34100 4.35100 30.01100
H  -0.08400 4.43700 23.51100
H  0.07200 10.85700 23.54900
H  1.29900 8.69500 31.54100
H  -0.11800 6.17700 31.95300
H  2.42200 5.55700 30.66600
H  2.03400 5.47500 32.36700
H  2.73200 6.88400 31.78400
H  -1.56100 7.92200 32.12000
H  -1.22300 9.51600 31.61300
H  -0.71100 10.27900 33.46900
H  0.68100 9.30300 33.44300
H  -1.38000 1.30700 28.07300
H  -1.04200 2.19100 29.52400
H  0.31400 1.62800 28.64200
H  -1.79000 0.51800 25.70300
H  0.00600 0.33700 26.28900
H  -0.46800 -0.03500 24.68400
H  -0.65700 6.24400 21.95000
H  0.27100 9.01400 21.70600
H  1.92600 5.87300 22.21800
H  2.04300 7.51000 21.47100
H  1.18000 6.16700 20.64400
H  -2.35900 8.55200 22.99700
H  -2.12600 7.81200 21.31900
H  -3.08400 10.31300 22.01300
H  -2.78300 9.71000 20.46200
H  -1.49700 10.63000 21.16900
H  0.78800 14.00400 26.02000
H  -0.26800 13.36900 24.69200
H  1.43000 13.13200 24.75700
H  -0.43000 11.45000 30.56900
H  2.70200 12.68500 32.68200
H  2.67100 10.93200 33.24100
H  1.66100 12.22800 33.96000
Mg 26.87900 49.87100 25.79600
C  25.00200 50.76000 28.62100
C  29.27500 48.69800 28.06000
C  29.10700 49.43800 23.24600
C  24.67600 51.48300 23.76600
N  27.09300 49.77100 28.03900
C  26.09600 50.08700 28.92600
C  26.53300 49.78700 30.38400
C  27.97800 49.39700 30.24000
C  28.11200 49.25600 28.76900
C  29.06400 50.43100 30.77700
C  25.65400 48.70200 31.15900
C  25.26600 49.00200 32.67500
H  26.33500 49.40000 33.76100
N  28.96600 49.03600 25.61600
C  29.62900 48.55500 26.67400
C  30.87600 48.01100 26.18700
C  30.88100 48.27900 24.78900
C  29.60400 48.95700 24.47000
C  31.90400 47.41500 27.03400
C  31.88300 47.81700 23.74700
O  31.81400 48.07600 22.55200
C  33.14300 47.05500 24.23600
N  27.02900 50.52200 23.82400
C  28.00400 50.22900 22.91400
C  27.55800 50.56800 21.47800
C  26.09700 51.21800 21.69400
C  25.88600 51.07000 23.17500
C  28.43900 51.58000 20.75200
C  25.09700 50.37400 20.90200
C  24.84300 48.93300 21.26300
N  25.17500 50.92600 26.02800
C  24.37000 51.60000 25.13200
C  23.23600 52.17300 25.81800
C  23.40300 51.80700 27.15800
C  24.62500 51.05800 27.24200
C  22.06300 52.92000 25.28600
C  22.78700 51.96800 28.44700
O  21.76400 52.60400 28.73900
C  23.84900 51.28200 29.48800
C  24.31500 52.26200 30.45500
O  25.14200 53.14900 30.26200
O  23.64400 51.98600 31.67300
C  23.92600 52.99900 32.71400
H  29.98800 48.22800 28.74000
H  29.79500 49.17200 22.44100
H  24.00700 52.07200 23.13500
H  26.42600 50.70800 30.95800
H  28.17500 48.36700 30.53500
H  29.75200 50.77700 30.00600
H  29.65300 49.81400 31.45500
H  28.80900 51.27400 31.42100
H  26.20200 47.76200 31.10700
H  24.74700 48.61300 30.56200
H  24.73900 48.10600 33.00400
H  24.56100 49.83300 32.66400
H  31.58400 47.18800 28.05100
H  32.70200 48.15600 27.06500
H  32.20900 46.47400 26.57600
H  33.80100 47.11100 23.36900
H  32.85000 46.05500 24.55400
H  33.72400 47.50800 25.03900
H  27.59000 49.63800 20.91000
H  26.11500 52.28800 21.48400
H  27.98600 52.57000 20.69500
H  28.73700 51.21200 19.77000
H  29.36200 51.73000 21.31200
H  25.49300 50.50500 19.89500
H  24.16300 50.93100 20.82400
H  25.13400 48.75000 22.29800
H  25.25400 48.28400 20.49000
H  23.76200 48.82400 21.18000
H  21.12600 52.92000 25.84400
H  21.81200 52.69500 24.25000
H  22.37500 53.95700 25.41500
H  23.52300 50.42300 30.07400
H  24.49800 53.85600 32.35800
H  24.45200 52.56700 33.56600
H  23.00400 53.40400 33.13100

