158

Mg 25.90700 -0.34400 29.22600
C  27.89400 -0.58300 32.04800
C  23.19000 -0.31000 31.45000
C  24.08200 -0.09200 26.53500
C  28.73000 -1.12400 27.32500
N  25.56300 -0.54900 31.53900
C  26.53900 -0.48000 32.43300
C  25.98000 -0.22100 33.84700
C  24.45700 -0.51600 33.68700
C  24.36200 -0.54100 32.12000
C  23.96000 -1.85400 34.27400
C  26.42600 1.26300 34.42800
C  27.05600 1.38200 35.80300
H  26.07300 1.90600 36.88000
N  23.91200 -0.25900 28.98200
C  22.92800 -0.20400 30.02400
C  21.66200 -0.18200 29.36500
C  21.92900 -0.12600 27.94700
C  23.33800 -0.17200 27.75700
C  20.40400 -0.16200 30.19700
C  20.97200 -0.13500 26.86100
O  21.25600 -0.12600 25.64600
C  19.52100 -0.15100 27.22300
N  26.32800 -0.64200 27.23500
C  25.41000 -0.42500 26.29900
C  25.95400 -0.48800 24.87800
C  27.45800 -0.76500 25.15400
C  27.51100 -0.85900 26.65200
C  25.37800 -1.51600 23.88200
C  28.27900 0.41000 24.59900
C  28.24300 1.69900 25.47000
N  27.96900 -0.73700 29.55300
C  28.99700 -1.09200 28.74200
C  30.24500 -1.23300 29.51400
C  29.81400 -0.89100 30.79300
C  28.43600 -0.73900 30.75600
C  31.53600 -1.64600 28.89100
C  30.39100 -0.90200 32.13100
O  31.49300 -1.12800 32.53900
C  29.13700 -0.57100 32.99300
C  29.05800 -1.36300 34.28800
O  28.43100 -2.42000 34.38600
O  29.64000 -0.73200 35.35800
C  29.55200 -1.49300 36.61600
H  22.42500 -0.31700 32.23000
H  23.55600 0.15900 25.61100
H  29.62700 -1.17300 26.70400
H  26.47000 -0.94700 34.49600
H  23.93400 0.23200 34.28300
H  23.19500 -1.58400 35.00200
H  24.79400 -2.30100 34.81600
H  23.65900 -2.52100 33.46700
H  25.54300 1.89800 34.35800
H  27.06200 1.79300 33.71900
H  27.94600 1.99500 35.66000
H  27.45700 0.44900 36.19900
H  19.98800 -1.16800 30.15400
H  19.69600 0.66000 30.09300
H  20.56000 -0.12700 31.27500
H  19.23800 -1.06800 27.74200
H  18.88000 0.08400 26.37400
H  19.32800 0.70000 27.87600
H  25.75000 0.47300 24.40500
H  27.87400 -1.64000 24.65500
H  24.53800 -2.04700 24.33100
H  26.07000 -2.25200 23.47300
H  24.95500 -1.01000 23.01400
H  27.87500 0.69800 23.62900
H  29.30300 0.11800 24.36800
H  27.90800 1.45300 26.47800
H  27.65300 2.52400 25.07200
H  29.26700 2.04100 25.62500
H  31.23700 -2.57100 28.39900
H  32.22900 -1.86000 29.70500
H  31.82400 -0.84400 28.21100
H  29.26000 0.45300 33.34800
H  29.34900 -2.56000 36.52400
H  28.79300 -1.05600 37.26500
H  30.41500 -1.33800 37.26300
Mg 47.22900 34.30300 27.25000
C  45.58400 33.20100 30.14400
C  47.93000 37.27700 29.02100
C  48.27300 35.84900 24.46300
C  45.94500 31.69900 25.60300
N  46.88800 35.08400 29.35700
C  46.27400 34.39500 30.39200
C  46.34300 35.23500 31.70000
C  46.78100 36.61200 31.12400
C  47.19000 36.33300 29.72600
C  45.82200 37.81000 31.29000
C  47.34700 34.56900 32.63400
C  46.90200 34.50500 34.09600
H  47.99200 34.59800 35.18000
N  48.25100 36.18700 26.85100
C  48.47700 37.22400 27.73900
C  49.18100 38.26200 27.03800
C  49.21100 37.88600 25.64700
C  48.61300 36.60800 25.60100
C  49.73100 39.52000 27.67700
C  49.81800 38.55100 24.45800
O  49.97700 37.99300 23.36200
C  50.31700 39.96100 24.67800
N  47.09600 33.90100 25.29800
C  47.75800 34.58800 24.32700
C  47.58700 33.93700 23.03500
C  46.94100 32.52800 23.29200
C  46.62700 32.69400 24.79100
C  46.94500 34.64100 21.86100
C  47.77100 31.28000 22.86100
C  48.88900 30.96500 23.78900
N  46.06900 32.76500 27.77100
C  45.62200 31.71500 26.99100
C  44.95200 30.68900 27.76000
C  44.79500 31.32200 28.99100
C  45.58400 32.50900 28.95700
C  44.35200 29.40700 27.26600
C  44.17800 31.21700 30.24700
O  43.43400 30.36200 30.68800
C  44.55400 32.43300 31.03200
C  45.06400 31.94100 32.33100
O  46.14200 31.49800 32.61000
O  43.95100 31.82100 33.13200
C  44.08100 30.89900 34.28900
H  48.20300 38.17900 29.57300
H  48.71300 36.20100 23.52800
H  45.62000 30.81400 25.05300
H  45.32400 35.27500 32.08300
H  47.68200 36.94600 31.63900
H  45.29800 37.53300 32.20500
H  45.17800 37.92300 30.41800
H  46.30300 38.77900 31.42000
H  48.29900 35.09400 32.71100
H  47.57200 33.58100 32.23200
H  46.40000 33.54100 34.17600
H  46.28400 35.39000 34.25300
H  49.02500 40.29500 27.37600
H  50.75300 39.83200 27.46300
H  49.58100 39.46600 28.75500
H  49.62700 40.59300 25.23700
H  50.41200 40.34600 23.66200
H  51.29100 39.92000 25.16400
H  48.63800 33.77100 22.79700
H  45.94300 32.48000 22.85600
H  46.22300 35.28300 22.36500
H  46.47400 33.89100 21.22700
H  47.51400 35.42100 21.35400
H  48.04900 31.36000 21.81000
H  46.98300 30.52700 22.88700
H  48.94300 31.69500 24.59700
H  49.82600 30.76700 23.26900
H  48.62400 30.08000 24.36800
H  44.11000 28.84400 28.16800
H  44.87300 28.78000 26.54200
H  43.35500 29.62600 26.88300
H  43.66300 33.03100 31.22300
H  43.17700 30.34400 34.54200
H  44.14500 31.60800 35.11400
H  45.01500 30.33700 34.30400

