158

Mg 36.37300 49.74900 24.70000
C  36.22500 48.06700 27.77100
C  35.34900 52.65000 26.23000
C  35.97200 51.23400 21.58400
C  36.99600 46.67800 23.12700
N  35.76400 50.21400 26.71300
C  35.99000 49.42800 27.83400
C  35.74200 50.31700 29.15300
C  35.28000 51.72400 28.58300
C  35.47600 51.55000 27.09600
C  33.98600 52.22500 29.09800
C  37.09800 50.39300 29.95600
C  37.14900 50.51000 31.49300
H  35.93300 50.76600 32.31400
N  35.75300 51.70900 23.99000
C  35.48400 52.74300 24.81000
C  35.17600 53.91100 24.03300
C  35.39100 53.58900 22.65300
C  35.75100 52.11000 22.67700
C  34.74200 55.31700 24.60100
C  35.16900 54.32500 21.34000
O  35.28500 53.76400 20.22000
C  34.66600 55.76900 21.42800
N  36.51100 49.03000 22.66000
C  36.34600 49.87400 21.60700
C  36.77100 49.15200 20.29700
C  37.22300 47.75400 20.82500
C  36.79700 47.76900 22.25000
C  35.70500 49.09900 19.21700
C  38.79900 47.46400 20.69700
C  39.28400 46.04500 20.37900
N  36.60800 47.75800 25.24700
C  36.78300 46.61300 24.52100
C  36.90100 45.51300 25.39400
C  36.71600 45.96700 26.68300
C  36.50400 47.32800 26.57700
C  37.15700 44.11400 24.98100
C  36.60600 45.62700 28.09000
O  36.76900 44.56600 28.65900
C  36.28700 47.03200 28.83500
C  35.07200 46.90500 29.70900
O  33.96300 47.06600 29.35500
O  35.44700 46.41500 30.97300
C  34.32000 46.36400 31.94000
H  35.11700 53.56900 26.77400
H  35.75600 51.61300 20.58300
H  37.36200 45.71700 22.76000
H  34.95300 49.80800 29.70700
H  35.97300 52.50500 28.89200
H  33.80100 51.78500 30.07800
H  33.11700 52.23600 28.44000
H  34.25900 53.26200 29.29300
H  37.67900 51.22700 29.56300
H  37.66700 49.50200 29.69000
H  37.86600 51.30900 31.68000
H  37.68700 49.70400 31.99300
H  35.53800 56.04100 24.42700
H  34.43100 55.24200 25.64300
H  33.86400 55.60400 24.02200
H  35.36600 56.42500 21.94600
H  33.65000 55.78300 21.82200
H  34.58500 56.04900 20.37800
H  37.56600 49.71100 19.80200
H  36.70100 46.93600 20.32800
H  35.85900 49.87400 18.46700
H  34.70300 49.31300 19.58700
H  35.55700 48.11000 18.78500
H  39.32100 47.75400 21.60800
H  39.13800 48.26800 20.04200
H  39.99400 46.18000 19.56300
H  38.45600 45.42500 20.03400
H  39.70100 45.49300 21.22200
H  37.91100 43.98200 24.20400
H  36.20100 43.65900 24.72100
H  37.67200 43.67700 25.83600
H  37.06600 47.21800 29.57500
H  34.56700 46.04700 32.95300
H  33.51200 45.80500 31.46700
H  33.90500 47.36900 32.01900
Mg 16.07500 52.11300 25.17700
C  17.80600 50.97900 28.00300
C  13.33700 52.84000 27.18700
C  14.08100 52.42000 22.46100
C  18.69600 50.82100 23.20900
N  15.57500 51.76700 27.37800
C  16.57300 51.51000 28.37700
C  16.03700 51.82000 29.79000
C  14.53200 52.12700 29.45900
C  14.42700 52.28600 27.93000
C  13.57200 51.19700 30.28000
C  16.81000 52.83200 30.65500
C  17.08900 52.51800 32.06200
H  15.97500 51.84100 32.92300
N  14.03800 52.72900 24.85900
C  13.16100 53.05500 25.78300
C  11.98600 53.58700 25.21700
C  12.12400 53.53000 23.77000
C  13.49300 52.93900 23.61600
C  10.71100 54.07800 25.93800
C  11.26300 54.02000 22.66100
O  11.63100 54.00200 21.49000
C  9.95700 54.65900 22.99800
N  16.37300 51.63900 23.18200
C  15.36200 51.88200 22.27700
C  15.77700 51.29300 21.01300
C  17.33300 51.12900 21.11700
C  17.50800 51.25000 22.61800
C  15.10500 49.90000 20.70000
C  18.14800 52.18600 20.24600
C  19.39600 51.82300 19.33000
N  17.94900 51.26000 25.50900
C  18.90500 50.82900 24.61600
C  19.99900 50.31600 25.34700
C  19.58800 50.31200 26.68500
C  18.35300 50.89500 26.75100
C  21.28800 49.89400 24.71900
C  19.99600 49.93900 28.01100
O  21.06300 49.47300 28.50300
C  18.89900 50.45400 28.89300
C  18.52100 49.43000 29.89500
O  17.79400 48.46300 29.74500
O  19.19600 49.68400 31.11200
C  18.67000 48.97100 32.22400
H  12.57100 53.23400 27.85800
H  13.54700 52.45500 21.50900
H  19.46000 50.29200 22.63600
H  16.10100 50.90600 30.38200
H  14.29300 53.12500 29.82600
H  12.86500 50.84600 29.52700
H  13.07600 51.90200 30.94700
H  13.90400 50.33300 30.85600
H  16.16900 53.71300 30.63800
H  17.76900 53.07600 30.19700
H  17.41300 53.43300 32.55800
H  17.94100 51.84900 31.94100
H  10.75000 55.16700 25.92400
H  10.74800 53.80400 26.99200
H  9.86000 53.64300 25.41500
H  9.22100 53.97700 23.42300
H  9.54200 55.23000 22.16700
H  10.26200 55.36600 23.76900
H  15.51100 51.97600 20.20700
H  17.65100 50.20700 20.63000
H  14.43400 50.04400 19.85300
H  14.39300 49.68100 21.49600
H  15.79900 49.06000 20.66900
H  18.45100 52.99900 20.90400
H  17.36900 52.53500 19.56900
H  19.57500 50.74800 19.30200
H  20.28200 52.36600 19.65700
H  19.16800 52.13600 18.31100
H  21.16800 48.83800 24.48000
H  22.13900 50.00900 25.39100
H  21.51400 50.52000 23.85600
H  19.31100 51.30200 29.44000
H  19.33000 48.11200 32.34600
H  17.59700 48.77600 32.23000
H  18.82300 49.62100 33.08500

