158

Mg 45.10500 4.55200 47.97700
C  43.10900 7.23000 47.44500
C  42.36100 2.45800 47.75100
C  47.25900 1.69800 47.69900
C  47.93200 6.59900 47.67000
N  43.01400 4.80200 47.39800
C  42.40700 6.01800 47.31100
C  40.91500 5.87500 47.05400
C  40.57500 4.36600 47.37700
C  42.03800 3.81400 47.56300
C  39.67200 4.10400 48.59700
C  40.63700 6.29100 45.59100
C  39.27100 6.90400 45.30600
H  38.62500 6.24400 44.05200
N  44.86300 2.31200 47.81600
C  43.64000 1.68000 47.82100
C  43.85800 0.29000 47.80200
C  45.25300 0.03500 47.86300
C  45.85300 1.37400 47.81800
C  42.69800 -0.71700 47.75100
C  45.88600 -1.31200 47.99700
O  45.17200 -2.31100 48.03800
C  47.37100 -1.48200 48.00500
N  47.31600 4.23400 47.80300
C  47.88700 2.97900 47.74700
C  49.43400 3.11600 47.62500
C  49.63900 4.61100 47.90500
C  48.22000 5.23900 47.77900
C  50.40400 2.23000 48.43300
C  50.65000 5.32600 46.92000
C  51.84600 6.11800 47.59800
N  45.53600 6.55700 47.89400
C  46.70000 7.25500 47.67200
C  46.46200 8.68300 47.58300
C  45.06200 8.72600 47.55200
C  44.51300 7.36900 47.61800
C  47.39200 9.86000 47.44500
C  43.88100 9.60800 47.38900
O  43.84900 10.82000 47.07400
C  42.59200 8.67000 47.41800
C  41.79000 8.93700 48.64300
O  42.11700 8.65200 49.79900
O  40.64800 9.60900 48.31800
C  39.70700 9.87900 49.45000
H  41.48400 1.81400 47.65900
H  47.90300 0.84000 47.49300
H  48.73800 7.33100 47.75000
H  40.34400 6.58200 47.65600
H  40.26300 3.73400 46.54600
H  38.82400 3.47000 48.33600
H  39.41900 5.11800 48.90500
H  40.24000 3.56500 49.35600
H  40.57400 5.36500 45.01900
H  41.40200 7.00500 45.28800
H  39.40500 7.98200 45.22500
H  38.55500 6.68300 46.09800
H  42.41500 -1.15200 48.70900
H  43.07200 -1.46800 47.05500
H  41.79200 -0.40400 47.23000
H  47.93000 -1.15800 47.12700
H  47.41900 -2.54900 48.22400
H  47.83600 -1.02200 48.87700
H  49.59600 2.91600 46.56600
H  49.87400 4.76100 48.95900
H  49.81400 1.47300 48.95000
H  51.03500 2.82700 49.09200
H  50.98300 1.72600 47.65900
H  50.07400 5.91300 46.20400
H  51.11100 4.59900 46.25100
H  52.69400 5.50300 47.29800
H  51.71800 6.26700 48.67000
H  51.95100 7.09700 47.13000
H  46.79500 10.71700 47.75700
H  47.69600 9.84100 46.39900
H  48.26600 9.81600 48.09500
H  41.99900 8.90000 46.53300
H  39.81500 10.89100 49.84000
H  39.75200 9.12100 50.23200
H  38.68300 9.86000 49.07700
Mg 17.44300 52.22400 25.80800
C  19.08400 50.70000 28.54500
C  15.09700 53.24500 27.91400
C  15.98600 53.47600 23.10300
C  20.00500 50.75200 23.76900
N  17.18900 52.08800 28.00000
C  18.08000 51.59600 28.87100
C  17.62600 51.84800 30.29300
C  16.19300 52.48800 30.13000
C  16.11400 52.61500 28.56700
C  14.98600 51.73400 30.71500
C  18.61300 52.61600 31.20300
C  18.65300 52.32100 32.69400
H  17.50800 51.66600 33.47700
N  15.78200 53.31600 25.56900
C  14.91100 53.62000 26.58600
C  13.76500 54.33700 25.99600
C  14.03900 54.41300 24.59900
C  15.32300 53.71700 24.34500
C  12.59600 54.91200 26.86000
C  13.18100 55.08400 23.53800
O  13.56400 55.23800 22.36500
C  11.86400 55.56000 23.85600
N  17.93700 52.10900 23.68000
C  17.11300 52.72700 22.78100
C  17.66900 52.57900 21.31300
C  19.05500 51.91300 21.70300
C  19.03200 51.62800 23.18300
C  16.69400 51.72400 20.46300
C  20.32600 52.67400 21.33800
C  21.29600 51.96100 20.48300
N  19.05100 50.75700 26.04100
C  20.02900 50.31300 25.11900
C  21.06200 49.52200 25.81100
C  20.66700 49.61100 27.14800
C  19.48100 50.35100 27.28200
C  22.33000 48.85300 25.12500
C  21.16600 49.20500 28.49000
O  22.02400 48.49500 28.88200
C  20.17300 49.93200 29.40600
C  19.52300 48.88000 30.27700
O  19.06600 47.82600 29.87900
O  19.45100 49.26100 31.61200
C  18.89000 48.27300 32.53800
H  14.39100 53.62900 28.65300
H  15.54800 54.04100 22.27700
H  20.85300 50.34400 23.21400
H  17.38000 50.85500 30.66900
H  16.15400 53.45600 30.63000
H  15.14000 50.78200 31.22300
H  14.41800 51.49500 29.81600
H  14.48500 52.42200 31.39600
H  18.36000 53.67100 31.09200
H  19.57500 52.34100 30.77000
H  18.91600 53.23700 33.22400
H  19.52900 51.71300 32.92000
H  12.63000 55.99100 26.71200
H  12.94800 54.90400 27.89200
H  11.61400 54.45500 26.73600
H  11.86600 56.47800 24.44300
H  11.46400 54.64600 24.29500
H  11.33300 55.64100 22.90700
H  17.82500 53.58100 20.91400
H  19.01500 50.90900 21.28000
H  15.86700 51.49600 21.13500
H  17.11500 50.75400 20.20200
H  16.35700 52.31900 19.61400
H  20.81600 52.94100 22.27500
H  19.98400 53.64500 20.98200
H  21.35400 52.35600 19.46800
H  21.14900 50.88300 20.42100
H  22.27300 52.09300 20.94800
H  22.48200 49.37500 24.18100
H  21.91500 47.84600 25.06600
H  23.12900 48.74500 25.85800
H  20.72100 50.57400 30.09600
H  17.80100 48.22200 32.51300
H  19.23600 48.47600 33.55100
H  19.21300 47.26800 32.26700

