158

Mg 45.28200 2.95500 47.04100
C  43.03700 5.72300 46.56500
C  42.57200 0.83100 46.94900
C  47.43200 0.39800 46.86400
C  47.97700 5.22600 46.59400
N  43.07700 3.30300 46.70400
C  42.39200 4.51600 46.66300
C  40.90200 4.22700 46.91000
C  40.78800 2.75700 47.28800
C  42.25200 2.24500 46.96600
C  40.25400 2.41800 48.66400
C  40.06000 4.58700 45.71600
C  40.58500 4.22200 44.27500
H  40.74800 5.48900 43.34900
N  45.03100 0.85400 46.82700
C  43.86500 0.20500 46.87900
C  44.09100 -1.22500 46.79400
C  45.52500 -1.38800 46.85000
C  46.07700 -0.02600 46.82300
C  43.05900 -2.25900 46.77400
C  46.30700 -2.67900 46.65300
O  45.63900 -3.76100 46.68500
C  47.82600 -2.78900 46.41700
N  47.35400 2.83300 46.64000
C  47.97900 1.66200 46.86600
C  49.48500 1.83700 47.00100
C  49.71500 3.37200 46.74200
C  48.29900 3.85800 46.60200
C  50.05000 1.31300 48.32300
C  50.51700 3.81900 45.43900
C  51.87400 3.01600 45.29800
N  45.56000 5.10500 46.86200
C  46.71100 5.88600 46.64700
C  46.38400 7.24400 46.65700
C  44.95800 7.23300 46.61400
C  44.51400 5.95500 46.75000
C  47.33100 8.36100 46.50300
C  43.78800 8.11500 46.71100
O  43.76300 9.33900 46.94900
C  42.51700 7.17600 46.60900
C  41.63100 7.47000 47.76000
O  41.70500 6.95900 48.89800
O  40.82200 8.50200 47.43700
C  39.80400 8.95600 48.42700
H  41.67700 0.20700 46.98300
H  48.18600 -0.39100 46.89100
H  48.88200 5.83100 46.68400
H  40.60300 4.82500 47.77100
H  40.16000 2.25000 46.55500
H  40.05100 3.29300 49.28000
H  41.06600 1.83900 49.10400
H  39.34700 1.81600 48.60300
H  40.06200 5.67200 45.81100
H  39.02900 4.23700 45.76700
H  39.92300 3.49700 43.80200
H  41.55100 3.76400 44.48700
H  43.38000 -3.06300 46.11200
H  42.04500 -1.90900 46.58300
H  43.05100 -2.67400 47.78200
H  48.14400 -2.12400 45.61500
H  48.04000 -3.82800 46.16800
H  48.39400 -2.59500 47.32700
H  50.05300 1.32700 46.22300
H  50.16300 3.87200 47.60000
H  49.26900 0.90700 48.96700
H  50.59200 2.10100 48.84500
H  50.67700 0.43900 48.14800
H  50.69200 4.85300 45.73900
H  49.85900 3.65800 44.58600
H  52.62700 3.74000 44.98700
H  51.82800 2.27500 44.50000
H  52.13400 2.62300 46.28100
H  48.05000 7.94100 45.79900
H  47.88400 8.55400 47.42200
H  46.86100 9.31300 46.25700
H  41.95400 7.48300 45.72800
H  39.68700 8.40200 49.35900
H  38.83400 8.87000 47.93700
H  39.84700 10.02800 48.61800
Mg -11.45900 17.16700 42.83400
C  -8.10600 17.46700 43.15800
C  -11.72900 20.52600 42.09400
C  -14.83800 16.75600 42.13800
C  -11.03200 13.70100 42.90600
N  -10.09300 18.68800 42.54600
C  -8.74500 18.61100 42.76500
C  -8.03300 19.89200 42.24300
C  -9.18600 20.88900 42.03000
C  -10.43800 20.04900 42.27800
C  -9.16100 22.21600 42.91600
C  -7.10800 19.62000 41.03600
C  -5.63000 20.15700 41.10000
H  -5.15700 21.01000 39.96900
N  -13.04700 18.51200 42.47000
C  -12.96500 19.88400 42.23400
C  -14.25400 20.45600 42.03500
C  -15.15900 19.38700 42.07700
C  -14.34700 18.10900 42.15000
C  -14.46300 21.87500 41.57300
C  -16.69800 19.54100 41.96900
O  -17.28200 20.60500 41.77100
C  -17.70500 18.35700 42.13400
N  -12.79800 15.52100 42.56400
C  -14.13300 15.59900 42.46400
C  -14.77400 14.20500 42.67600
C  -13.50700 13.31600 42.31200
C  -12.34400 14.22200 42.49500
C  -15.27500 14.01100 44.17500
C  -13.38500 12.72400 40.85400
C  -13.58100 11.23200 40.83000
N  -9.86100 15.76200 42.84300
C  -9.86900 14.41700 42.97300
C  -8.55100 13.91100 43.18900
C  -7.80700 15.08300 43.34100
C  -8.65700 16.17400 43.09400
C  -8.01200 12.53600 43.21500
C  -6.46000 15.59200 43.49600
O  -5.42300 14.99100 43.56900
C  -6.59700 17.15400 43.44600
C  -6.21500 17.76100 44.75300
O  -6.66300 17.39400 45.82800
O  -5.30500 18.72000 44.59400
C  -4.92600 19.51400 45.71700
H  -11.78900 21.61100 41.98800
H  -15.89200 16.58000 41.91300
H  -10.83600 12.63100 43.00000
H  -7.42200 20.35000 43.02100
H  -9.29400 21.16800 40.98200
H  -9.64400 22.93200 42.25100
H  -8.16000 22.60000 43.11200
H  -9.71100 22.15200 43.85500
H  -7.62500 19.96000 40.13800
H  -7.00100 18.53900 40.94400
H  -5.04600 19.23700 41.13700
H  -5.59500 20.75100 42.01300
H  -13.57900 22.50100 41.45300
H  -15.16700 22.41700 42.20500
H  -14.92900 21.79600 40.59100
H  -17.77400 17.80000 41.20000
H  -18.69900 18.74200 42.36100
H  -17.27500 17.79600 42.96400
H  -15.52800 14.02700 41.90900
H  -13.48500 12.47600 43.00600
H  -15.37000 15.01400 44.59000
H  -14.65800 13.29900 44.72300
H  -16.24800 13.51900 44.17200
H  -12.42600 12.80400 40.34300
H  -14.17700 13.25700 40.32800
H  -14.01000 10.74200 41.70400
H  -12.62900 10.76500 40.58000
H  -14.33700 11.15700 40.04800
H  -6.92600 12.53700 43.11500
H  -8.44300 12.07400 42.32700
H  -8.30100 12.21500 44.21600
H  -5.85400 17.41800 42.69300
H  -5.63800 20.33800 45.76900
H  -4.05500 20.09200 45.40900
H  -4.74400 19.12500 46.71800

