158

Mg 7.20900 3.12600 27.49800
C  8.32400 1.93400 30.62200
C  5.12400 5.26500 29.21500
C  5.84800 4.13500 24.61800
C  8.96600 0.76900 25.92200
N  6.58000 3.32500 29.71200
C  7.27300 2.83800 30.77900
C  6.68400 3.31000 32.16500
C  5.58100 4.27500 31.59100
C  5.81100 4.37700 30.04700
C  4.05600 3.98800 31.96900
C  7.69600 3.99700 33.13900
C  7.22100 3.88700 34.62700
H  8.17400 3.66100 35.73900
N  5.90900 4.72800 26.96500
C  5.12000 5.43100 27.82000
C  4.29100 6.30900 27.14400
C  4.42100 5.96900 25.81700
C  5.36300 4.87100 25.72600
C  3.22900 7.19700 27.77000
C  3.75300 6.64000 24.59900
O  3.90400 6.26300 23.45500
C  2.88100 7.91700 24.70600
N  7.32700 2.51600 25.52000
C  6.71900 3.11600 24.44400
C  7.22400 2.53700 23.09100
C  8.28700 1.51800 23.57400
C  8.15500 1.55000 25.10700
C  5.98100 1.98000 22.26700
C  9.73000 1.84600 22.98900
C  10.55200 2.87000 23.74000
N  8.31900 1.48300 28.06900
C  9.13600 0.72500 27.32600
C  10.11600 -0.01000 28.16900
C  9.72500 0.38100 29.50200
C  8.72100 1.34500 29.36800
C  11.29100 -0.90100 27.80400
C  10.06900 0.15500 30.83600
O  10.98400 -0.58600 31.28800
C  9.17600 1.19600 31.70500
C  8.38100 0.44400 32.74400
O  7.26600 -0.01500 32.57400
O  8.99400 0.37500 33.99100
C  8.30500 -0.16900 35.12700
H  4.51700 5.96700 29.79100
H  5.37000 4.44600 23.68700
H  9.49700 0.02000 25.33100
H  6.18400 2.48200 32.66700
H  5.68600 5.26200 32.04300
H  3.97800 3.20200 32.72000
H  3.50100 3.84200 31.04100
H  3.59400 4.87300 32.40800
H  7.75600 5.03400 32.80600
H  8.71300 3.63100 32.99600
H  6.41300 3.16200 34.72700
H  6.86200 4.88500 34.87800
H  3.18500 7.25700 28.85800
H  2.19100 7.01800 27.49100
H  3.48000 8.19300 27.40700
H  3.54500 8.63500 25.18700
H  2.08800 7.79900 25.44500
H  2.44300 8.24300 23.76300
H  7.72200 3.28200 22.47000
H  8.02300 0.52200 23.22100
H  5.11300 2.23000 22.87700
H  6.02500 0.89500 22.17200
H  5.88600 2.53300 21.33200
H  9.81200 2.28300 21.99400
H  10.22100 0.88100 22.86400
H  11.40800 2.30500 24.11000
H  9.99600 3.35600 24.54200
H  10.85600 3.70800 23.11400
H  11.85600 -0.53600 26.94600
H  10.87900 -1.88400 27.57600
H  11.97500 -0.90500 28.65300
H  9.84400 1.85700 32.25800
H  8.36800 -1.25000 34.99900
H  7.33900 0.32700 35.22100
H  8.81200 -0.03800 36.08300
Mg 42.79700 42.27300 26.13700
C  41.69300 44.52200 28.64400
C  44.35600 40.46600 28.54100
C  43.99500 40.28700 23.74400
C  41.84300 44.62200 23.76300
N  42.79500 42.39800 28.40900
C  42.27400 43.36800 29.21300
C  42.29700 42.93000 30.67000
C  43.29900 41.63700 30.57300
C  43.57800 41.51900 29.06000
C  44.65500 41.85700 31.40500
C  40.85100 42.64900 31.18500
C  40.69800 41.81100 32.43800
H  40.05900 42.68400 33.54900
N  43.89400 40.55700 26.07200
C  44.40100 39.89900 27.25600
C  45.08000 38.72200 26.81600
C  44.99100 38.64900 25.41400
C  44.30100 39.89100 25.03200
C  45.84900 37.82100 27.77000
C  45.49100 37.53300 24.46700
O  45.36900 37.66300 23.23500
C  46.10500 36.29100 25.10900
N  42.89500 42.50300 24.09900
C  43.38200 41.48800 23.29500
C  43.37900 41.82500 21.81700
C  42.55200 43.11300 21.77600
C  42.48800 43.50400 23.27800
C  44.79100 42.09200 21.12500
C  41.03400 42.99000 21.34600
C  40.40300 41.61500 21.58600
N  41.96900 44.23200 26.15000
C  41.63400 45.06300 25.13600
C  41.18300 46.30700 25.64600
C  41.03500 46.12700 26.98100
C  41.65700 44.86500 27.27800
C  40.90100 47.45900 24.73000
C  40.63800 46.74600 28.29600
O  40.10600 47.81200 28.55000
C  40.99100 45.65500 29.38100
C  41.87900 46.34300 30.38400
O  42.92800 46.82200 30.17500
O  41.33100 46.35200 31.65800
C  42.12000 46.94100 32.75300
H  44.72300 39.83700 29.35400
H  44.28000 39.70800 22.86300
H  41.56000 45.35200 23.00200
H  42.74600 43.74800 31.23400
H  42.81800 40.77200 31.03100
H  44.61500 42.79000 31.96700
H  45.48300 42.00000 30.71100
H  44.83200 41.01000 32.06700
H  40.15800 42.30900 30.41500
H  40.45100 43.64700 31.36300
H  41.71600 41.52800 32.70300
H  40.08200 40.97200 32.11400
H  46.88700 37.76600 27.44100
H  45.44800 36.80800 27.74200
H  45.95400 38.25000 28.76600
H  47.06500 36.60500 25.51800
H  46.26100 35.50800 24.36600
H  45.52000 35.87700 25.93000
H  42.78400 41.12900 21.22500
H  42.99400 43.94000 21.22100
H  44.81400 41.60100 20.15200
H  45.42000 41.48500 21.77600
H  45.08100 43.14100 21.06000
H  40.91700 43.42400 20.35300
H  40.49000 43.73900 21.92100
H  39.32400 41.74900 21.51900
H  40.57400 41.21900 22.58800
H  40.74100 40.97600 20.77000
H  40.27900 47.13900 23.89500
H  41.84200 47.76500 24.27400
H  40.48300 48.26900 25.32800
H  40.07600 45.37300 29.90300
H  41.64200 47.90500 32.92600
H  43.12500 47.26200 32.47900
H  42.03500 46.35700 33.67000

