158

Mg 42.84800 41.63900 26.23400
C  41.74100 43.97100 28.62800
C  43.16800 39.31800 28.74000
C  43.81800 39.53300 23.86700
C  42.21400 44.10500 23.76900
N  42.48700 41.70800 28.49600
C  42.04100 42.77500 29.28300
C  41.99400 42.37200 30.78900
C  42.29600 40.84900 30.76500
C  42.73000 40.56700 29.26900
C  43.39200 40.35400 31.79200
C  40.53200 42.55300 31.29400
C  40.26300 41.99400 32.73100
H  39.54000 42.86300 33.80800
N  43.61200 39.69200 26.24900
C  43.58400 38.89100 27.39600
C  44.02600 37.50200 27.00400
C  44.06800 37.57000 25.52800
C  43.81800 38.94800 25.13700
C  44.18000 36.42000 28.00100
C  44.45900 36.44900 24.58500
O  44.57200 36.65300 23.39800
C  44.62700 35.06700 25.07700
N  42.94200 41.72900 24.18200
C  43.47500 40.78600 23.39700
C  43.46400 41.13500 21.89200
C  42.79000 42.53800 21.90500
C  42.66300 42.83800 23.39800
C  44.86800 41.12100 21.21300
C  41.35100 42.73500 21.14200
C  40.10700 42.10600 21.96000
N  42.17200 43.64300 26.15000
C  42.04300 44.54800 25.09300
C  41.41300 45.74900 25.53800
C  41.30300 45.66700 26.91500
C  41.75600 44.31700 27.22400
C  40.88500 46.83200 24.60200
C  40.85100 46.26900 28.15700
O  40.19500 47.29200 28.27800
C  41.11600 45.24800 29.28800
C  41.95800 45.87700 30.32500
O  43.00500 46.44500 30.12500
O  41.33800 45.75500 31.54300
C  42.15700 46.14100 32.72100
H  42.97800 38.42600 29.34000
H  44.17500 38.82000 23.12000
H  41.87700 44.83300 23.02700
H  42.82200 42.93300 31.22100
H  41.34100 40.34500 30.91000
H  44.20300 39.87800 31.24000
H  43.03500 39.59100 32.48400
H  43.72200 41.20500 32.38800
H  39.91200 42.07700 30.53500
H  40.26300 43.60200 31.42100
H  41.23100 41.83600 33.20600
H  39.76500 41.02500 32.69100
H  43.54300 35.54600 27.86000
H  44.11100 36.67200 29.05900
H  45.21100 36.09500 27.86000
H  43.88400 34.73800 25.80400
H  45.64800 35.05400 25.45800
H  44.54800 34.31100 24.29600
H  42.74600 40.55500 21.31200
H  43.55600 43.25100 21.60100
H  45.31800 42.09800 21.38800
H  44.74100 40.98700 20.13900
H  45.52800 40.37400 21.65600
H  41.54200 42.14300 20.24700
H  41.19300 43.79000 20.91800
H  40.34000 41.41400 22.76900
H  39.38500 41.56800 21.34600
H  39.56700 42.91600 22.44900
H  40.43800 47.59500 25.23900
H  40.18600 46.58900 23.80200
H  41.78000 47.31900 24.21300
H  40.13900 45.05700 29.73300
H  42.38800 47.19900 32.59600
H  43.13700 45.67500 32.82900
H  41.52300 46.08600 33.60600
Mg -1.67600 34.68600 26.62500
C  -3.24700 32.73200 29.11300
C  -0.60900 36.79800 29.07800
C  -0.57600 36.53400 24.27200
C  -3.29100 32.50300 24.19300
N  -1.94200 34.86200 28.84100
C  -2.54900 33.86000 29.67200
C  -2.34100 34.12500 31.15300
C  -1.58200 35.50800 31.13100
C  -1.33400 35.74100 29.59200
C  -2.14100 36.71300 31.90400
C  -1.64300 32.91900 31.92000
C  -2.30300 32.44700 33.20900
H  -1.35000 32.31100 34.32800
N  -0.67000 36.40500 26.69900
C  -0.31800 37.15100 27.76500
C  0.37200 38.35800 27.30200
C  0.41900 38.27100 25.90500
C  -0.30800 37.05900 25.55100
C  0.94200 39.37200 28.31200
C  0.98800 39.26400 24.94400
O  1.07900 39.16000 23.69900
C  1.38600 40.65800 25.53200
N  -1.93900 34.54800 24.51200
C  -1.32200 35.47800 23.78200
C  -1.55200 35.15400 22.22900
C  -2.23500 33.75600 22.28800
C  -2.52000 33.58800 23.78300
C  -2.44700 36.08300 21.41400
C  -1.53800 32.48600 21.75300
C  -0.31100 31.98900 22.60200
N  -2.96100 32.90300 26.55100
C  -3.56600 32.17700 25.53700
C  -4.41600 31.21300 26.17000
C  -4.29000 31.41400 27.56500
C  -3.37400 32.41300 27.70000
C  -5.15800 30.13100 25.44500
C  -4.76000 30.83500 28.79400
O  -5.56400 29.94000 28.98000
C  -4.16000 31.71100 29.88100
C  -5.29300 32.33700 30.69700
O  -6.00000 33.27200 30.32600
O  -5.43000 31.64300 31.86600
C  -6.63100 32.03800 32.59600
H  -0.23400 37.43100 29.88600
H  -0.24300 37.21600 23.48700
H  -3.77900 31.85700 23.46100
H  -3.34800 34.29000 31.53800
H  -0.56000 35.33100 31.46500
H  -1.49000 37.10300 32.68600
H  -3.09600 36.49200 32.38200
H  -2.22900 37.56200 31.22600
H  -0.68600 33.27500 32.30400
H  -1.54900 32.17500 31.12900
H  -2.65500 31.42600 33.05900
H  -3.14700 33.09000 33.45800
H  0.12600 40.08000 28.45300
H  1.87600 39.89100 28.09300
H  1.25900 38.80400 29.18600
H  2.25200 40.50400 26.17700
H  0.48800 41.04300 26.01400
H  1.70300 41.38200 24.78100
H  -0.61700 35.04300 21.68100
H  -3.28600 33.72200 22.00300
H  -3.20500 35.60200 20.79700
H  -1.89100 36.55200 20.60200
H  -2.94900 36.88100 21.96100
H  -1.19500 32.81500 20.77300
H  -2.24200 31.65700 21.67100
H  -0.78400 31.54700 23.47900
H  0.23600 32.87000 22.93700
H  0.40100 31.30500 22.14000
H  -6.07000 30.55900 25.02900
H  -5.48000 29.36200 26.14800
H  -4.63300 29.71300 24.58500
H  -3.61000 31.09600 30.59300
H  -7.47300 32.39900 32.00600
H  -6.41900 32.87800 33.25700
H  -6.88500 31.16600 33.19900

