158

Mg 6.97900 53.33100 41.45500
C  6.32900 49.77200 41.22000
C  10.10100 52.65700 40.36300
C  7.19700 56.61500 40.94100
C  3.52800 53.68600 42.23100
N  7.97300 51.45000 40.70800
C  7.65700 50.12200 40.86600
C  8.95600 49.18500 40.69500
C  10.07400 50.24700 40.59000
C  9.34900 51.54100 40.58500
C  11.09700 50.15300 41.80900
C  8.92600 48.22800 39.38600
C  8.79600 48.94500 38.03000
H  7.61900 48.58200 37.15500
N  8.44300 54.44400 40.69100
C  9.73000 54.04200 40.36600
C  10.50800 55.20300 40.06700
C  9.64700 56.30500 40.19700
C  8.33700 55.80800 40.56400
C  11.95300 55.11600 39.87300
C  10.11000 57.71800 40.05800
O  11.28300 57.93100 39.75700
C  9.28700 58.93100 40.20000
N  5.57300 54.95000 41.43200
C  5.97700 56.25900 41.32500
C  4.75900 57.20000 41.58800
C  3.58200 56.13700 41.71800
C  4.26000 54.79300 41.83300
C  4.96400 58.20000 42.71200
C  2.65900 56.17100 40.37200
C  1.05000 56.19500 40.41300
N  5.30800 52.06900 41.79700
C  3.96100 52.34400 42.12300
C  3.25400 51.14100 42.47600
C  4.16900 50.12500 42.17600
C  5.37300 50.71700 41.66900
C  1.81900 51.03800 42.78800
C  4.25400 48.64600 42.05000
O  3.37600 47.81500 42.20400
C  5.70000 48.37900 41.47600
C  5.39700 47.54800 40.23400
O  5.24000 47.85200 39.08800
O  5.39100 46.26100 40.64700
C  5.32200 45.22500 39.69200
H  11.17500 52.48800 40.25900
H  7.30500 57.69800 40.84600
H  2.53200 53.91400 42.61700
H  9.09700 48.61200 41.61200
H  10.63700 50.07900 39.67200
H  12.03900 49.82100 41.37200
H  10.68000 49.57800 42.63500
H  11.26700 51.15700 42.19800
H  8.11500 47.51700 39.54800
H  9.91000 47.77100 39.27600
H  9.65500 48.83600 37.36900
H  8.71500 50.00500 38.27400
H  12.12400 55.55600 38.89100
H  12.22800 54.06200 39.89200
H  12.58000 55.60500 40.61900
H  8.48300 58.80700 39.47500
H  9.89000 59.79400 39.91900
H  8.96700 59.05400 41.23500
H  4.72500 57.72700 40.63500
H  3.00200 56.17800 42.63900
H  5.20600 59.16800 42.27400
H  5.87600 57.86000 43.20300
H  4.05300 58.23000 43.30900
H  2.89600 55.46100 39.58000
H  2.85800 57.15700 39.95300
H  0.79200 57.21000 40.71400
H  0.71400 55.52700 41.20700
H  0.56900 55.88300 39.48600
H  1.60100 50.35400 43.60800
H  1.40300 50.60700 41.87700
H  1.29700 51.95500 43.06000
H  6.25300 47.83500 42.24200
H  5.87200 44.32000 39.95000
H  5.75100 45.55700 38.74700
H  4.28300 44.90400 39.62100
Mg -12.32600 39.04600 42.25300
C  -10.54600 36.20600 41.34800
C  -9.90800 40.96600 40.83200
C  -14.36200 41.73900 42.84100
C  -15.02100 36.88400 43.10600
N  -10.56900 38.58600 40.92400
C  -10.00600 37.34600 40.81200
C  -8.71100 37.48400 39.96000
C  -8.28900 38.99700 40.15600
C  -9.63400 39.58400 40.59500
C  -7.18000 39.16000 41.23100
C  -8.96700 37.09000 38.38900
C  -7.92900 36.09700 37.78900
H  -6.72000 36.66800 37.14400
N  -12.11700 41.13000 41.97600
C  -11.02000 41.67900 41.43700
C  -11.07400 43.07700 41.67400
C  -12.39700 43.38400 42.08900
C  -13.05200 42.08900 42.31500
C  -9.88600 43.96300 41.31300
C  -12.93900 44.78700 42.25700
O  -12.26300 45.73700 41.86700
C  -14.38400 45.06200 42.83800
N  -14.37000 39.26400 43.02000
C  -14.99900 40.48000 43.02300
C  -16.47100 40.33900 43.51100
C  -16.60700 38.77700 43.78800
C  -15.29500 38.28400 43.23600
C  -16.77600 41.18500 44.76000
C  -17.88200 38.06100 43.19700
C  -18.44000 36.85000 43.95200
N  -12.70100 36.96300 42.34800
C  -13.87800 36.24300 42.67900
C  -13.61300 34.84500 42.53500
C  -12.28600 34.77000 42.16900
C  -11.78700 36.07000 42.01500
C  -14.66100 33.80400 42.76300
C  -11.22500 33.88200 41.79800
O  -11.13700 32.64700 41.85500
C  -10.01200 34.76800 41.22000
C  -8.73100 34.44500 42.07300
O  -8.48000 34.89900 43.21800
O  -7.91100 33.62400 41.40400
C  -6.84200 33.12500 42.18700
H  -8.99400 41.41000 40.43200
H  -15.03100 42.58100 43.02500
H  -15.86500 36.19700 43.20200
H  -7.96700 36.81500 40.39300
H  -8.00700 39.39700 39.18200
H  -7.42300 40.03700 41.83100
H  -6.16200 39.16100 40.84200
H  -7.33100 38.31400 41.90100
H  -8.97800 37.95000 37.71900
H  -9.95200 36.63100 38.29600
H  -8.42000 35.54100 36.99000
H  -7.55400 35.52200 38.63500
H  -10.14900 44.28100 40.30400
H  -8.96000 43.40500 41.17600
H  -9.74700 44.80900 41.98600
H  -14.98800 44.56600 42.07900
H  -14.58400 46.13300 42.86800
H  -14.47400 44.55700 43.80000
H  -17.05300 40.66800 42.65000
H  -16.47900 38.35600 44.78600
H  -16.81500 42.23100 44.45400
H  -15.98400 41.11400 45.50400
H  -17.67200 40.75400 45.20600
H  -17.52800 37.76800 42.20900
H  -18.77600 38.63400 42.95100
H  -19.47400 36.71200 43.63500
H  -18.49000 36.99700 45.03100
H  -17.99700 35.90000 43.65400
H  -14.41900 32.81100 42.38300
H  -15.50500 34.24800 42.23500
H  -14.76300 33.67700 43.84100
H  -9.95900 34.63200 40.13900
H  -7.25100 32.78900 43.14000
H  -5.98300 33.77100 42.37300
H  -6.55000 32.17000 41.75200

