158

Mg -2.46700 17.47500 27.46500
C  -3.04900 15.25800 30.25600
C  -2.76100 20.05400 29.48500
C  -2.37400 19.32400 24.68400
C  -2.75600 14.61400 25.47700
N  -2.72600 17.56500 29.68000
C  -3.05300 16.59400 30.60400
C  -3.15000 17.26300 32.06300
C  -3.09400 18.77700 31.76300
C  -2.89900 18.83400 30.20100
C  -4.32800 19.52800 32.37900
C  -1.97300 16.75100 32.99000
C  -1.55800 17.72500 34.09000
H  -1.25800 17.05800 35.42400
N  -2.44300 19.41600 27.14400
C  -2.60000 20.35200 28.12700
C  -2.42100 21.65300 27.52000
C  -2.24100 21.43400 26.08500
C  -2.37800 20.02900 25.89300
C  -2.31600 22.87700 28.41600
C  -2.02000 22.52600 25.00900
O  -1.90100 22.22500 23.78500
C  -1.93000 23.96000 25.37100
N  -2.69400 17.03700 25.33500
C  -2.47000 18.00500 24.38800
C  -2.25200 17.46100 22.94300
C  -2.32600 15.87000 23.23600
C  -2.66900 15.79200 24.76900
C  -3.25400 18.09600 21.89400
C  -1.11400 15.09300 22.88600
C  -0.01600 15.33500 23.87700
N  -2.71400 15.42600 27.76800
C  -2.82700 14.40600 26.82900
C  -3.04900 13.08900 27.42100
C  -3.04400 13.43400 28.76400
C  -2.91600 14.83100 28.93500
C  -3.15500 11.77900 26.69700
C  -3.12300 12.84800 30.10300
O  -3.15500 11.70500 30.50600
C  -3.17400 14.00100 31.11100
C  -1.92300 13.73500 31.90800
O  -0.80100 14.19800 31.73700
O  -2.32100 13.00600 33.01300
C  -1.48600 12.75600 34.18100
H  -2.80300 20.91300 30.15800
H  -2.15600 19.95300 23.81800
H  -2.76100 13.76500 24.79000
H  -4.09300 16.89600 32.46800
H  -2.14100 19.13400 32.15400
H  -3.94100 20.26400 33.08400
H  -4.98700 18.82100 32.88400
H  -5.06300 19.93000 31.68200
H  -1.13900 16.70600 32.29000
H  -2.30200 15.75200 33.27800
H  -2.15500 18.60000 34.34700
H  -0.54800 18.00100 33.78800
H  -1.39400 23.44900 28.30900
H  -2.48900 22.72800 29.48200
H  -3.18600 23.47800 28.15200
H  -1.95600 24.60100 24.49000
H  -1.01000 24.02800 25.95200
H  -2.82900 24.16300 25.95300
H  -1.21600 17.66800 22.67400
H  -3.05100 15.45400 22.53700
H  -4.01400 17.34300 21.68700
H  -2.70500 18.49700 21.04200
H  -3.70800 19.00200 22.29400
H  -0.80700 15.44100 21.89900
H  -1.40800 14.04500 22.82800
H  0.18600 16.39800 24.00800
H  0.88100 14.82000 23.53300
H  -0.14100 14.89300 24.86600
H  -2.58600 11.13600 27.36700
H  -2.63900 11.76600 25.73600
H  -4.20400 11.48400 26.67100
H  -4.08700 13.87200 31.69100
H  -1.30600 11.68100 34.18300
H  -2.08600 13.07200 35.03400
H  -0.57300 13.34000 34.29600
Mg 0.66600 41.93800 25.48600
C  2.23400 42.42800 28.69300
C  -2.19400 41.01700 27.08600
C  -0.54500 40.96400 22.54700
C  3.83300 42.37100 24.09600
N  0.11600 41.73100 27.66600
C  0.78200 42.20700 28.71900
C  -0.05200 41.94800 29.99500
C  -1.45100 41.56800 29.48600
C  -1.18700 41.44200 27.96800
C  -2.13900 40.24500 30.14300
C  0.06300 43.26200 30.93900
C  0.34700 43.08800 32.36400
H  -0.60500 43.64900 33.42700
N  -1.13500 41.16000 24.92400
C  -2.19500 40.88000 25.69200
C  -3.22100 40.34200 24.88500
C  -2.68000 40.13400 23.56400
C  -1.36800 40.69000 23.63400
C  -4.58900 40.04500 25.51100
C  -3.28100 39.42900 22.27800
O  -2.59100 39.34400 21.23000
C  -4.65000 38.74400 22.37200
N  1.56100 41.58800 23.60100
C  0.86800 41.34000 22.51100
C  1.78000 41.26900 21.27900
C  3.07900 41.98400 21.79600
C  2.84700 41.91100 23.29100
C  1.85900 39.79300 20.83600
C  3.31700 43.42800 21.29200
C  2.31100 44.50300 21.78100
N  2.64200 42.52800 26.13200
C  3.80500 42.61500 25.47500
C  4.88800 42.86300 26.40700
C  4.31400 42.68200 27.64800
C  2.89800 42.55200 27.44200
C  6.40000 43.11700 26.09300
C  4.64900 42.63600 29.09900
O  5.68700 42.61400 29.69300
C  3.25800 42.65100 29.81800
C  3.29600 41.49900 30.76200
O  3.09900 40.34100 30.46100
O  3.55600 41.84200 32.03300
C  3.45300 40.72200 32.97300
H  -3.04900 40.81000 27.73200
H  -1.02500 40.81200 21.57800
H  4.85800 42.60400 23.80000
H  0.41300 41.12600 30.53900
H  -2.17700 42.36700 29.63700
H  -1.56600 39.89100 31.00000
H  -2.02700 39.46100 29.39500
H  -3.16200 40.51500 30.40500
H  -0.90400 43.74000 30.78400
H  0.78100 43.96200 30.51100
H  1.21200 43.74400 32.46700
H  0.70600 42.07300 32.53100
H  -5.39200 40.10200 24.77500
H  -4.71800 40.77500 26.31000
H  -4.49400 39.05200 25.95100
H  -4.75200 38.14500 21.46700
H  -5.42600 39.50900 22.34300
H  -4.61000 38.02600 23.19100
H  1.23000 41.80600 20.50600
H  3.85100 41.22900 21.65000
H  1.56000 39.19200 21.69400
H  2.77200 39.59100 20.27500
H  1.17100 39.71000 19.99500
H  3.34000 43.51500 20.20600
H  4.31500 43.69300 21.64100
H  2.80000 45.03800 22.59500
H  1.40300 44.03100 22.15500
H  2.12100 45.15700 20.93000
H  6.53800 43.09900 25.01200
H  7.10200 42.33600 26.38500
H  6.70300 44.08400 26.49300
H  3.12400 43.62700 30.28400
H  2.54300 40.15500 32.77500
H  3.47200 41.03200 34.01800
H  4.20400 39.98100 32.69900

