158

Mg 42.15300 41.71500 26.48100
C  41.06200 43.95800 28.89100
C  43.38100 39.70000 28.90600
C  43.05400 39.72500 23.96600
C  41.58300 44.27100 23.96300
N  42.15100 41.85500 28.60400
C  41.50600 42.75800 29.41500
C  41.62700 42.41200 30.95600
C  42.46600 41.07900 30.88700
C  42.66500 40.83200 29.37200
C  43.72800 41.03100 31.75100
C  40.31100 42.33200 31.67800
C  40.26800 43.04900 33.06100
H  39.58400 42.25100 34.17700
N  43.14600 39.94800 26.44400
C  43.56900 39.29700 27.56600
C  44.15100 38.02000 27.20300
C  43.91200 37.88300 25.75100
C  43.35200 39.21600 25.30200
C  44.83200 37.00600 28.16500
C  44.17700 36.75500 24.81700
O  43.80200 36.69200 23.63900
C  44.78000 35.45200 25.37400
N  42.44400 42.09400 24.28000
C  42.80600 40.99600 23.51500
C  42.65700 41.24900 22.01000
C  42.43200 42.80200 21.97300
C  42.15900 43.13300 23.48400
C  43.87800 40.78900 21.13200
C  41.37900 43.40100 20.99300
C  42.07400 44.32400 19.95500
N  41.40900 43.63200 26.37900
C  41.25300 44.56000 25.34000
C  40.77700 45.80900 25.89500
C  40.59900 45.55200 27.32200
C  41.01800 44.28000 27.56700
C  40.57600 47.15500 25.21100
C  40.24800 46.23700 28.54800
O  39.94300 47.38800 28.75900
C  40.42500 45.09800 29.67100
C  41.42700 45.61800 30.73100
O  42.63000 45.70200 30.57100
O  40.83500 46.07600 31.88800
C  41.51000 46.80000 32.94200
H  43.83500 38.98400 29.59500
H  43.19100 38.98100 23.17800
H  41.35100 45.03800 23.22200
H  42.20200 43.14400 31.52300
H  41.88100 40.21700 31.20900
H  43.58900 41.76300 32.54700
H  44.71100 41.33200 31.38900
H  43.80500 40.04500 32.20800
H  39.96700 41.30500 31.80200
H  39.55300 42.68300 30.97800
H  39.73500 44.00000 33.05600
H  41.26700 43.21600 33.46300
H  44.11100 36.21700 28.37900
H  45.26700 37.51800 29.02300
H  45.70400 36.59200 27.65800
H  44.26100 35.29400 26.32000
H  45.85500 35.49000 25.55200
H  44.49900 34.59600 24.76100
H  41.77300 40.70500 21.67600
H  43.42400 43.16600 21.70500
H  44.57800 40.24300 21.76400
H  44.39500 41.61900 20.65100
H  43.52700 40.12300 20.34300
H  40.64300 44.02900 21.49500
H  40.73800 42.66400 20.51100
H  42.17200 43.73000 19.04600
H  43.11600 44.50200 20.22100
H  41.54400 45.25300 19.74600
H  40.99300 47.10800 24.20500
H  40.89600 47.97100 25.85800
H  39.51600 47.18200 24.95800
H  39.46800 44.95100 30.17200
H  41.37700 46.30900 33.90600
H  41.06900 47.79700 32.98300
H  42.54300 47.14100 32.87500
Mg 17.40700 51.85900 26.00900
C  19.32800 50.25000 28.45700
C  15.03200 52.57100 28.21300
C  15.67900 53.21800 23.39500
C  19.64200 50.45800 23.62200
N  17.20600 51.40200 28.02000
C  18.18300 50.88800 28.92800
C  17.83000 51.20400 30.35600
C  16.38200 51.71800 30.25300
C  16.24000 52.01900 28.75100
C  15.18500 50.87000 30.69700
C  18.75500 52.24100 31.04700
C  18.76200 52.27000 32.58800
H  17.72800 51.38600 33.35300
N  15.48700 52.61200 25.85800
C  14.67700 52.90500 26.87300
C  13.42900 53.43500 26.44300
C  13.66900 53.64600 24.99800
C  14.99400 53.20500 24.67100
C  12.21500 53.72000 27.26000
C  12.70300 54.32100 24.00400
O  13.01100 54.57300 22.87600
C  11.29300 54.91300 24.43400
N  17.85500 52.08100 23.81800
C  16.84600 52.53000 22.98300
C  17.11900 52.21500 21.50700
C  18.61900 51.64400 21.51400
C  18.79600 51.41800 23.03300
C  16.08400 51.48500 20.80800
C  19.64800 52.41900 20.67100
C  20.90400 53.12400 21.38600
N  19.14400 50.70100 26.01100
C  19.93000 50.23700 25.02500
C  21.02500 49.38700 25.55200
C  20.77400 49.36400 26.89800
C  19.66400 50.21100 27.12100
C  22.01100 48.56200 24.87800
C  21.47600 48.94200 28.08200
O  22.59100 48.50300 28.27700
C  20.50800 49.57900 29.20500
C  19.94700 48.59500 30.11900
O  19.00900 47.86300 29.94900
O  20.58400 48.74400 31.33300
C  20.20700 47.82800 32.39900
H  14.31800 52.90500 28.96900
H  15.11800 53.48400 22.49600
H  20.31600 49.86700 22.99900
H  17.83300 50.32500 31.00100
H  16.24800 52.70100 30.70400
H  14.74900 50.22800 29.93100
H  14.31600 51.39700 31.09000
H  15.54300 50.27600 31.53800
H  18.37600 53.23100 30.79200
H  19.79400 52.11800 30.74300
H  18.69600 53.33700 32.80400
H  19.77000 52.13700 32.98000
H  11.35000 53.29900 26.74800
H  12.22700 54.79200 27.45600
H  12.27000 53.18300 28.20700
H  10.73900 54.01800 24.71500
H  10.79100 55.49900 23.66400
H  11.43600 55.53600 25.31600
H  17.19600 53.20700 21.06300
H  18.58600 50.63700 21.09800
H  15.02800 51.57500 21.06600
H  16.19200 50.40000 20.80700
H  16.06900 51.77100 19.75600
H  19.14400 53.27600 20.22500
H  19.95100 51.79900 19.82700
H  21.79700 52.58700 21.06500
H  20.83100 53.11600 22.47400
H  21.06500 54.13700 21.01700
H  22.95300 49.10200 24.79400
H  21.56600 48.23300 23.93900
H  22.11400 47.75700 25.60600
H  21.05700 50.29600 29.81400
H  20.41200 46.80900 32.07200
H  19.14800 47.96600 32.62000
H  20.83200 48.08300 33.25500

