158

Mg 9.77900 46.94400 26.20700
C  7.73400 47.36200 28.98400
C  12.27400 48.58600 27.90600
C  11.56400 47.08500 23.33900
C  6.79700 46.31800 24.33100
N  9.95100 47.66300 28.22400
C  9.06700 47.68200 29.22000
C  9.69400 48.00600 30.57400
C  10.89600 48.87500 30.06100
C  11.09700 48.37300 28.62900
C  10.66000 50.46000 30.16900
C  10.21700 46.78500 31.41300
C  9.77000 46.65400 32.88100
H  9.99900 45.32500 33.66800
N  11.74700 47.55600 25.75000
C  12.65400 48.20000 26.58800
C  13.84100 48.55100 25.80100
C  13.63900 48.08300 24.49700
C  12.26600 47.57200 24.50100
C  15.03800 49.37600 26.43100
C  14.57400 48.14500 23.20000
O  14.21400 47.96400 22.05000
C  15.96600 48.61700 23.35600
N  9.26600 46.94800 24.11300
C  10.19200 46.77400 23.14000
C  9.56900 46.25700 21.83900
C  8.13900 45.83300 22.27800
C  8.05000 46.41200 23.66100
C  9.74700 47.35100 20.75000
C  7.76600 44.28100 22.13700
C  8.64900 43.31300 22.82300
N  7.75800 46.82700 26.48800
C  6.68700 46.49900 25.70800
C  5.48800 46.50500 26.49900
C  5.90900 46.75000 27.74200
C  7.22500 47.01900 27.72600
C  4.05000 46.20400 26.04200
C  5.41400 46.84200 29.10400
O  4.28600 46.75100 29.53000
C  6.64200 47.19100 30.00300
C  6.96500 45.98700 30.80700
O  7.69900 45.04700 30.54900
O  6.21500 46.02400 31.98100
C  6.42600 44.96600 32.95300
H  13.07700 49.04000 28.49000
H  12.11700 46.80100 22.44100
H  5.91300 45.84500 23.89700
H  8.94900 48.49100 31.20500
H  11.78300 48.71000 30.67300
H  10.78200 50.90500 29.18100
H  11.39400 50.94600 30.81200
H  9.69400 50.76800 30.56800
H  11.30600 46.77300 31.43900
H  10.02100 45.82900 30.92800
H  8.77200 47.07500 33.00200
H  10.45300 47.38600 33.31200
H  15.87300 48.68200 26.33300
H  14.79900 49.69300 27.44600
H  15.36400 50.30300 25.95900
H  16.62700 48.05900 22.69300
H  16.43000 48.34100 24.30300
H  16.00100 49.70500 23.28900
H  10.06800 45.33800 21.53200
H  7.36700 46.43900 21.80400
H  10.70300 47.82600 20.97000
H  8.92700 48.03700 20.96200
H  9.82700 46.83500 19.79300
H  7.77900 44.04900 21.07200
H  6.75600 44.13200 22.52100
H  8.17900 42.68000 23.57500
H  9.43400 43.90100 23.29800
H  9.12000 42.65200 22.09500
H  3.55400 47.13800 25.77600
H  3.46700 45.76200 26.85100
H  4.12400 45.46900 25.24100
H  6.50500 48.17900 30.44300
H  7.19100 44.24900 32.65500
H  5.42800 44.55700 33.11400
H  6.68800 45.34400 33.94100
Mg 0.85900 42.03100 26.24000
C  2.17100 42.13200 29.51300
C  -2.03500 40.78900 27.80900
C  -0.24400 41.35600 23.29700
C  4.05000 42.65500 25.10100
N  0.13700 41.57500 28.45400
C  0.79700 41.94300 29.56100
C  -0.15800 41.78300 30.83400
C  -1.49100 41.21500 30.23200
C  -1.11000 41.21900 28.72500
C  -2.10300 39.91900 30.92500
C  -0.36800 43.09000 31.66400
C  -0.26800 43.02000 33.15300
H  -0.77500 41.72500 33.90000
N  -0.92100 41.21900 25.62400
C  -2.05800 40.89200 26.38500
C  -3.08200 40.48500 25.42400
C  -2.62600 40.67600 24.09500
C  -1.21300 41.07200 24.27900
C  -4.44400 39.95100 25.95200
C  -3.28300 40.53200 22.75700
O  -2.69900 40.68500 21.67500
C  -4.64000 40.01600 22.75000
N  1.77900 41.88700 24.44900
C  1.06700 41.72700 23.37100
C  1.99200 41.90500 22.12100
C  3.30300 42.48500 22.70700
C  3.03700 42.27000 24.16800
C  2.13200 40.62000 21.20000
C  3.61500 43.98700 22.37400
C  4.30400 44.21000 20.92700
N  2.76400 42.44100 27.08200
C  3.99700 42.72800 26.47100
C  4.97700 42.82900 27.45600
C  4.33500 42.56700 28.64900
C  2.96000 42.34300 28.37200
C  6.42800 42.97200 27.31000
C  4.47900 42.48300 30.08200
O  5.50300 42.63200 30.71900
C  3.18300 42.16300 30.71400
C  3.36500 40.82400 31.42100
O  3.44900 39.73300 30.85100
O  3.65600 41.07000 32.77700
C  4.30200 39.95300 33.59000
H  -2.95500 40.39600 28.24600
H  -0.52300 41.08300 22.27800
H  5.01200 42.85600 24.62500
H  0.31300 41.02000 31.45300
H  -2.29100 41.93700 30.40300
H  -3.04400 40.29500 31.32600
H  -1.40200 39.60400 31.69700
H  -2.21200 39.07700 30.24100
H  -1.38500 43.43100 31.46800
H  0.43000 43.75700 31.34000
H  -0.97800 43.74700 33.54800
H  0.74300 43.16800 33.53100
H  -5.33700 40.24000 25.39800
H  -4.55800 40.42500 26.92700
H  -4.45500 38.86600 26.05500
H  -4.87900 40.08400 21.68900
H  -5.33400 40.67300 23.27300
H  -4.61300 39.02300 23.20000
H  1.54500 42.70500 21.53000
H  4.08700 41.81500 22.35400
H  1.55200 40.74800 20.28700
H  1.71200 39.78700 21.76500
H  3.17500 40.39000 20.98500
H  4.19000 44.54000 23.11700
H  2.65500 44.50100 22.42800
H  3.46600 44.51100 20.29900
H  4.70500 43.24400 20.62300
H  4.97600 45.03300 21.17100
H  6.90300 42.02000 27.54900
H  6.81800 43.76700 27.94600
H  6.67300 43.11600 26.25800
H  2.96200 42.90500 31.48100
H  5.35400 40.04100 33.31800
H  3.91100 38.94800 33.43300
H  4.38300 40.21000 34.64600

