158

Mg 36.01500 2.00000 29.93900
C  33.86000 3.14500 32.35100
C  38.56500 1.95300 32.49300
C  38.32200 1.13900 27.61700
C  33.59200 2.47800 27.54500
N  36.16400 2.44800 32.14400
C  35.10700 2.92400 32.88900
C  35.53600 3.05800 34.35700
C  37.07100 3.00500 34.20600
C  37.28400 2.40500 32.87300
C  37.86500 4.37100 34.39100
C  34.86700 2.04700 35.26600
C  34.45200 2.48100 36.65600
H  35.01800 3.77500 37.32100
N  38.08400 1.51500 30.02300
C  38.92200 1.56000 31.14200
C  40.21600 1.12600 30.68600
C  40.21200 0.79700 29.29400
C  38.84800 1.23400 28.91500
C  41.44700 1.20300 31.63400
C  41.29600 0.31400 28.38000
O  41.09500 0.17400 27.20100
C  42.77300 0.12700 28.92400
N  36.00600 2.00300 27.83000
C  37.09200 1.44300 27.10700
C  36.68600 1.15900 25.63300
C  35.18400 1.67000 25.61700
C  34.87700 2.01000 27.10800
C  37.61100 1.75800 24.54600
C  34.14500 0.52700 25.03100
C  33.04500 1.13300 24.12500
N  34.13300 2.69500 29.93800
C  33.23600 2.77900 28.84600
C  31.92300 3.07900 29.31900
C  32.09400 3.28700 30.73700
C  33.44100 2.99700 31.02200
C  30.66400 3.35200 28.38500
C  31.47900 3.77900 32.02600
O  30.42400 4.24100 32.26100
C  32.66100 3.57500 33.08000
C  32.78900 4.81200 33.85400
O  33.24600 5.88600 33.42400
O  32.16500 4.71900 35.08300
C  31.72800 5.96000 35.75700
H  39.29700 1.89600 33.30100
H  38.98500 0.93400 26.77300
H  32.83000 2.66400 26.78500
H  35.31100 4.06700 34.70200
H  37.52300 2.47000 35.04200
H  38.55500 4.22400 35.22200
H  37.31700 5.27700 34.64700
H  38.48700 4.54500 33.51200
H  35.54700 1.19500 35.24900
H  34.01700 1.62100 34.73500
H  34.81900 1.64200 37.24700
H  33.36600 2.40400 36.60800
H  41.96800 0.24600 31.66900
H  41.07100 1.40300 32.63700
H  42.03500 2.05700 31.29700
H  43.49800 -0.11900 28.14800
H  42.84400 -0.82200 29.45600
H  43.11000 1.01400 29.46100
H  36.63100 0.07200 25.58200
H  35.07800 2.57700 25.02200
H  38.40700 1.02800 24.39500
H  38.05100 2.66800 24.95400
H  37.09800 1.92400 23.59900
H  33.67200 -0.03100 25.83900
H  34.74000 -0.10400 24.37100
H  33.17700 0.77300 23.10500
H  33.12400 2.22000 24.15000
H  32.08600 0.79400 24.51700
H  30.35900 2.44800 27.85700
H  30.99000 4.18000 27.75500
H  29.85400 3.73000 29.00900
H  32.44200 2.71400 33.71200
H  30.69800 5.85000 36.09900
H  31.72400 6.88600 35.18200
H  32.31500 6.14700 36.65600
Mg 47.47900 16.01900 27.54600
C  45.52200 15.62600 30.57400
C  49.75000 17.64300 29.31200
C  49.11800 16.41300 24.66300
C  44.88800 14.49500 25.86800
N  47.61500 16.51800 29.77800
C  46.78400 16.25400 30.80300
C  47.23100 16.93200 32.12100
C  48.57700 17.61600 31.65500
C  48.71300 17.27700 30.18700
C  48.56200 19.19700 31.78900
C  47.41800 15.91300 33.20800
C  46.59200 16.09300 34.48700
H  46.38800 17.44300 35.05000
N  49.22300 16.97300 27.06400
C  50.09900 17.53900 27.94800
C  51.37400 17.72900 27.27800
C  51.22900 17.29300 25.91500
C  49.78600 16.84700 25.81200
C  52.58500 18.25600 28.02300
C  52.27800 17.30500 24.79100
O  52.05600 16.75700 23.69800
C  53.60100 17.95800 25.05100
N  47.19200 15.37000 25.59800
C  47.95400 15.70100 24.53900
C  47.35000 15.36600 23.16900
C  46.02900 14.64000 23.54500
C  46.01200 14.80500 25.12900
C  47.10300 16.59900 22.17000
C  45.92600 13.11700 23.18400
C  44.65900 12.70800 22.50200
N  45.66400 15.04300 28.09500
C  44.70500 14.62800 27.26700
C  43.59600 14.11200 28.02900
C  43.88200 14.53700 29.35400
C  45.16400 15.11300 29.34100
C  42.38900 13.39300 27.56700
C  43.35900 14.56700 30.72800
O  42.26200 14.18800 31.17900
C  44.42400 15.35800 31.56200
C  43.80300 16.48700 32.30400
O  43.78500 17.65700 32.10200
O  43.18800 15.90600 33.37500
C  42.29400 16.77400 34.15600
H  50.51200 18.11900 29.93300
H  49.72900 16.59500 23.77600
H  44.09700 14.00900 25.29300
H  46.51900 17.68100 32.46800
H  49.44300 17.34200 32.25900
H  47.73900 19.51100 32.43100
H  48.42900 19.73900 30.85300
H  49.48900 19.40900 32.32300
H  48.44300 15.83900 33.57100
H  47.04500 14.95800 32.83700
H  46.99800 15.47200 35.28600
H  45.55500 15.75800 34.53300
H  53.20800 17.38300 28.21600
H  52.50000 18.72100 29.00500
H  53.16800 18.96400 27.43500
H  53.47500 19.01400 25.29100
H  54.26300 17.93300 24.18500
H  54.00200 17.35400 25.86500
H  48.01800 14.68800 22.63700
H  45.12700 15.11800 23.16300
H  47.87300 16.58800 21.39800
H  47.26900 17.55400 22.66900
H  46.12100 16.60000 21.69600
H  46.10900 12.52700 24.08200
H  46.70400 12.91600 22.44800
H  44.65900 12.79000 21.41500
H  43.87400 13.32600 22.93700
H  44.53500 11.64400 22.70400
H  42.70300 12.43300 27.15600
H  41.98400 13.85900 26.66900
H  41.68900 13.20300 28.38100
H  44.90400 14.70700 32.29300
H  41.75700 17.48100 33.52300
H  42.83400 17.38100 34.88200
H  41.68400 16.03500 34.67500

