158

Mg 40.96300 41.58700 27.13700
C  39.77500 43.78900 29.56700
C  41.41800 39.31700 29.61400
C  42.20500 39.41100 24.82400
C  40.53200 44.05400 24.72000
N  40.58100 41.59100 29.37700
C  40.05000 42.55200 30.12100
C  40.15900 42.18100 31.70500
C  40.64400 40.74400 31.58300
C  40.95300 40.53400 30.11700
C  41.74800 40.17900 32.47400
C  38.82300 42.49600 32.42300
C  38.27400 41.54000 33.45300
H  37.56900 42.31900 34.54200
N  41.76100 39.58100 27.14600
C  41.81900 38.85800 28.32000
C  42.23100 37.50500 28.00800
C  42.37600 37.44800 26.59700
C  42.15400 38.87100 26.07200
C  42.33900 36.36000 29.01800
C  42.87200 36.32300 25.63500
O  42.97500 36.42300 24.38400
C  43.17600 35.07500 26.18000
N  41.39100 41.72100 25.06300
C  41.92000 40.73500 24.36300
C  41.89100 41.03800 22.86700
C  41.32600 42.49600 22.81100
C  41.01700 42.82900 24.25100
C  43.20900 40.73700 21.99500
C  40.13900 42.58300 21.85400
C  38.87100 41.79600 22.22600
N  40.30500 43.46700 27.12900
C  40.19400 44.40800 26.04000
C  39.72100 45.67100 26.46500
C  39.46600 45.46400 27.82500
C  39.88700 44.12000 28.19700
C  39.67700 46.94600 25.67700
C  38.99800 46.10200 29.06500
O  38.58700 47.18500 29.33000
C  39.26200 45.10100 30.22600
C  40.26300 45.76500 31.15200
O  41.44800 45.96900 30.86900
O  39.61900 46.09700 32.28800
C  40.36900 46.72700 33.36900
H  41.24100 38.60100 30.41900
H  42.53700 38.79900 23.98300
H  40.39100 44.94000 24.09900
H  40.98300 42.70900 32.18600
H  39.74600 40.14800 31.74700
H  42.70800 40.18900 31.95900
H  41.39300 39.21100 32.82800
H  41.83700 40.70100 33.42600
H  38.09500 42.52900 31.61300
H  38.85600 43.52800 32.77300
H  39.01600 40.96700 34.00800
H  37.51700 40.86200 33.05800
H  41.81400 36.63600 29.93300
H  43.40400 36.12900 29.02300
H  41.84100 35.44400 28.69900
H  43.89900 35.11900 26.99400
H  43.58000 34.45100 25.38300
H  42.27400 34.58700 26.54900
H  41.11900 40.40800 22.42400
H  42.03200 43.22700 22.41800
H  43.89700 40.64500 22.83500
H  43.24100 41.55600 21.27600
H  43.14100 39.81800 21.41300
H  40.46200 42.12200 20.92100
H  39.84700 43.60700 21.61900
H  38.04400 42.37700 21.81900
H  38.74200 41.59000 23.28900
H  38.84200 40.79500 21.79700
H  40.66600 47.21800 25.31000
H  39.33200 47.71700 26.36600
H  39.00900 46.91600 24.81600
H  38.28700 44.90500 30.67300
H  41.43800 46.84800 33.19500
H  40.20400 46.14300 34.27500
H  39.98700 47.73800 33.51300
Mg 6.70100 56.63600 40.98300
C  5.50400 53.53900 40.96900
C  9.60400 55.59600 39.41100
C  7.54600 59.90700 40.25500
C  3.64700 57.78200 42.39900
N  7.50900 54.79000 40.42500
C  6.81700 53.57600 40.45200
C  7.61600 52.45600 39.86400
C  9.04600 53.06700 39.84900
C  8.73100 54.58200 39.86600
C  10.01700 52.72100 41.14200
C  7.04600 52.09500 38.41900
C  7.43400 50.66100 38.06400
H  7.61600 50.31500 36.52800
N  8.34200 57.61000 39.98600
C  9.48600 56.99700 39.46800
C  10.32900 57.94700 38.85400
C  9.80900 59.25100 39.17400
C  8.49300 58.95200 39.80300
C  11.62300 57.62300 38.19100
C  10.47900 60.63900 39.01500
O  11.53600 60.74400 38.40900
C  9.89500 61.88500 39.52200
N  5.57600 58.50200 41.09100
C  6.27300 59.73500 40.87200
C  5.45300 60.95300 41.27500
C  4.18500 60.25800 41.94900
C  4.46100 58.75400 41.79600
C  6.17700 62.07100 42.10800
C  2.84000 60.79600 41.46300
C  1.76800 60.94900 42.67200
N  4.93600 55.79800 41.71800
C  3.82500 56.37400 42.23400
C  2.89600 55.38300 42.63900
C  3.56600 54.20200 42.24000
C  4.70000 54.54400 41.53700
C  1.50300 55.63300 43.19000
C  3.48200 52.72400 42.11800
O  2.57800 51.94100 42.47000
C  4.68800 52.25100 41.26200
C  4.18700 51.64600 40.04900
O  3.40000 52.18500 39.34200
O  4.64800 50.40300 39.89300
C  4.09700 49.82500 38.68200
H  10.47900 55.11900 38.96400
H  7.77900 60.95500 40.05200
H  2.76800 58.22900 42.86700
H  7.48200 51.53500 40.43100
H  9.53800 52.80700 38.91100
H  9.59000 51.85900 41.65500
H  10.15000 53.58800 41.78800
H  11.00800 52.57600 40.71300
H  7.45600 52.73600 37.63800
H  5.95900 52.17300 38.41000
H  6.64800 49.99400 38.41900
H  8.32200 50.31100 38.59000
H  12.48900 58.16200 38.57500
H  11.55600 58.01400 37.17600
H  11.77200 56.55200 38.06200
H  9.54800 61.79800 40.55100
H  9.07100 62.14900 38.85800
H  10.65300 62.66800 39.48900
H  5.16500 61.40700 40.32700
H  4.36100 60.38600 43.01700
H  7.22800 61.89500 42.33500
H  5.62700 62.24500 43.03400
H  6.10800 63.05800 41.65100
H  2.47000 60.14900 40.66800
H  2.83200 61.80900 41.06000
H  1.42300 61.95500 42.91000
H  2.18200 60.51600 43.58300
H  0.92900 60.27300 42.50600
H  1.00500 56.42500 42.63000
H  1.52100 55.97600 44.22400
H  0.91000 54.71800 43.18200
H  5.35600 51.49600 41.67600
H  4.64300 48.89400 38.52800
H  4.17500 50.43000 37.77900
H  3.05000 49.60000 38.88500

