158

Mg 26.75300 51.13400 27.00600
C  24.40000 52.11300 29.36700
C  28.86600 50.19900 29.46300
C  28.80700 50.14600 24.58100
C  24.58300 52.50100 24.38200
N  26.54100 51.23900 29.16600
C  25.44200 51.44500 29.94100
C  25.74600 51.15600 31.41500
C  27.35000 50.88400 31.41500
C  27.61700 50.68600 29.89800
C  28.13200 52.11300 32.01300
C  24.82900 50.02400 31.95000
C  24.08100 50.37900 33.22600
H  24.80000 51.10500 34.36100
N  28.56700 50.28300 26.98500
C  29.28700 49.96400 28.15200
C  30.53900 49.29000 27.70300
C  30.54800 49.31100 26.32400
C  29.30200 49.94900 25.87100
C  31.68200 48.77000 28.61100
C  31.67500 48.86600 25.43300
O  31.66400 49.15900 24.23300
C  32.83700 48.02500 25.86200
N  26.62200 51.22500 24.69500
C  27.59900 50.73400 24.00800
C  27.25300 50.75000 22.54100
C  25.87700 51.48800 22.41800
C  25.64100 51.74400 23.89400
C  28.43300 51.33500 21.62800
C  24.73700 50.61600 21.77800
C  24.42100 51.10500 20.37200
N  24.93300 52.17900 26.83100
C  24.12400 52.60900 25.77800
C  22.89700 53.24600 26.27300
C  23.02600 53.07100 27.68600
C  24.27400 52.48900 27.98200
C  21.89100 53.93700 25.47600
C  22.27300 53.25500 28.92200
O  21.15700 53.69500 29.14200
C  23.22000 52.65300 30.08200
C  23.61500 53.89000 30.89900
O  24.44400 54.75500 30.60200
O  22.90500 53.86300 32.04200
C  23.22400 54.86300 33.04500
H  29.50200 49.80300 30.25700
H  29.50400 49.73600 23.84700
H  23.99600 52.91300 23.55800
H  25.65000 52.09500 31.96000
H  27.49700 49.98300 32.01000
H  27.70400 52.69000 32.83200
H  28.39000 52.68400 31.12100
H  29.02300 51.72900 32.51100
H  25.27600 49.04900 32.14800
H  24.02000 49.78600 31.25900
H  23.73700 49.41300 33.59500
H  23.25400 51.01800 32.91600
H  31.80400 47.70200 28.42700
H  31.56900 48.98200 29.67400
H  32.57000 49.36000 28.38900
H  33.31000 47.71500 24.93000
H  32.52200 47.18100 26.47600
H  33.53500 48.64300 26.42800
H  27.21000 49.71600 22.20000
H  26.05100 52.49800 22.04700
H  27.93500 51.92900 20.86100
H  28.97800 50.55900 21.09000
H  29.08400 51.87200 22.31800
H  23.86700 50.83800 22.39600
H  24.94800 49.54800 21.72000
H  24.92200 52.03000 20.09000
H  23.37300 51.38100 20.25100
H  24.73400 50.30200 19.70400
H  21.63700 53.33100 24.60700
H  22.13400 54.94000 25.12400
H  21.02700 54.02900 26.13400
H  22.80500 51.83800 30.67400
H  22.81900 55.79000 32.63900
H  24.30000 55.03500 33.06600
H  22.82600 54.57100 34.01700
Mg 0.72800 42.97100 26.44400
C  3.13000 42.45600 28.85600
C  -1.58000 41.78600 28.59000
C  -1.37800 42.71500 23.84700
C  3.38900 43.20200 23.97800
N  0.74800 42.51000 28.55300
C  1.83200 42.37900 29.39400
C  1.40900 42.20000 30.91100
C  -0.16100 41.81200 30.77600
C  -0.34100 41.97600 29.21500
C  -0.48500 40.29600 31.23700
C  1.66200 43.52600 31.64600
C  1.86700 43.52000 33.20200
H  1.45000 42.33000 34.07300
N  -1.32600 42.61900 26.32500
C  -2.09900 42.05900 27.29800
C  -3.42100 41.84900 26.75900
C  -3.40400 42.17700 25.38000
C  -1.97700 42.55500 25.12500
C  -4.58900 41.37300 27.56600
C  -4.50900 42.24500 24.33800
O  -4.31400 42.59700 23.17000
C  -5.90700 41.84200 24.72700
N  0.97800 42.80200 24.16900
C  -0.09600 42.90800 23.39300
C  0.28400 43.07700 21.87900
C  1.78300 43.52700 22.04200
C  2.06500 43.13500 23.50400
C  0.03000 41.85000 21.04100
C  2.16500 45.04200 21.68500
C  2.47400 46.01800 22.77600
N  2.78600 42.93700 26.35800
C  3.74000 43.06200 25.35700
C  5.04300 43.16100 25.89400
C  4.87200 42.85900 27.26700
C  3.48000 42.81600 27.49700
C  6.31000 43.45500 25.13500
C  5.55600 42.65700 28.52600
O  6.75900 42.68300 28.76600
C  4.39600 42.56300 29.62200
C  4.73200 41.41400 30.54700
O  4.78800 40.22500 30.31400
O  5.02300 42.00900 31.79000
C  5.19600 41.09300 32.94200
H  -2.43300 41.41700 29.16400
H  -2.06200 42.80800 23.00000
H  4.25300 43.33900 23.32400
H  2.04000 41.49200 31.44800
H  -0.85300 42.46700 31.30500
H  0.34900 39.83900 31.76900
H  -0.81100 39.74700 30.35300
H  -1.30400 40.50400 31.92600
H  0.79200 44.15800 31.46700
H  2.44600 44.07300 31.12300
H  1.45400 44.42400 33.64900
H  2.94900 43.54600 33.32700
H  -5.27400 42.20300 27.73400
H  -4.28200 41.03500 28.55600
H  -5.13000 40.56700 27.06900
H  -5.98600 40.78600 24.98700
H  -6.46900 42.09400 23.82800
H  -6.19800 42.50600 25.54100
H  -0.39100 43.85000 21.51100
H  2.40200 42.88900 21.41200
H  0.36000 41.09700 21.75600
H  0.65400 41.87400 20.14800
H  -0.99800 41.55600 20.83400
H  1.38100 45.53300 21.10800
H  3.01900 44.98900 21.01000
H  3.46100 46.47000 22.69100
H  2.47800 45.67300 23.81000
H  1.72500 46.80500 22.69300
H  6.58700 44.50900 25.09700
H  6.07500 43.10900 24.12800
H  7.13400 42.90300 25.58700
H  4.32400 43.54200 30.09700
H  6.24500 40.93700 33.19600
H  4.69900 40.13200 32.80300
H  4.86600 41.55900 33.87000

