158

Mg 40.43100 9.36600 29.17200
C  42.06100 10.52500 32.12200
C  38.06000 7.85300 31.12600
C  39.01400 7.86600 26.23600
C  43.05900 10.58600 27.35200
N  40.24900 9.07500 31.42500
C  40.91200 9.80300 32.40700
C  40.13200 9.73800 33.79000
C  38.97800 8.76200 33.45000
C  39.08000 8.46500 31.92800
C  38.99700 7.39200 34.27600
C  39.71900 11.15500 34.34600
C  39.61900 11.22500 35.85700
H  40.64100 12.03200 36.58800
N  38.72400 8.10800 28.73000
C  37.89700 7.65700 29.74700
C  36.86400 6.87000 29.12700
C  37.06700 6.94900 27.67200
C  38.26900 7.71600 27.47000
C  35.90900 6.06200 29.96200
C  36.28000 6.39700 26.56500
O  36.47400 6.70500 25.38200
C  35.18200 5.45100 26.87800
N  40.89300 9.28000 27.17000
C  40.26500 8.56300 26.16800
C  41.11000 8.56500 24.82100
C  42.13200 9.66600 25.19000
C  42.08000 9.91200 26.65800
C  41.68300 7.27100 24.24700
C  42.04600 10.88500 24.32600
C  40.88600 11.90900 24.55100
N  42.25300 10.23200 29.61500
C  43.16600 10.78100 28.74700
C  44.11100 11.55000 29.46700
C  43.72700 11.52600 30.78500
C  42.62200 10.64600 30.82500
C  45.31400 12.19300 28.94700
C  44.03500 11.99700 32.13600
O  44.84700 12.80200 32.60700
C  42.90000 11.33900 33.06500
C  43.64100 10.49300 34.10000
O  44.23100 9.40300 33.91300
O  43.46400 11.03300 35.31300
C  43.77500 10.21900 36.48200
H  37.30800 7.38300 31.76300
H  38.68000 7.49100 25.26700
H  43.81500 10.98100 26.67000
H  40.88800 9.41100 34.50400
H  38.03700 9.29400 33.59000
H  39.80500 7.39300 35.00800
H  39.10000 6.56800 33.57000
H  38.04300 7.20800 34.77000
H  38.70400 11.43500 34.06700
H  40.41200 11.91400 33.98200
H  39.59900 10.22800 36.29600
H  38.66700 11.69300 36.11100
H  36.57100 5.22600 30.19100
H  35.08200 5.69800 29.35200
H  35.49200 6.56700 30.83300
H  34.77900 5.15900 25.90800
H  34.42000 6.07300 27.34700
H  35.40900 4.53500 27.42400
H  40.40000 8.87700 24.05600
H  43.15300 9.28300 25.17200
H  41.55000 6.51000 25.01500
H  42.74600 7.28900 24.00600
H  41.19600 6.92500 23.33500
H  41.93100 10.62500 23.27400
H  43.00900 11.39400 24.34800
H  41.33100 12.89600 24.68600
H  40.44400 11.55900 25.48300
H  40.14200 11.97200 23.75800
H  45.80900 11.32200 28.51900
H  45.87300 12.51600 29.82600
H  45.11300 12.98500 28.22600
H  42.42400 12.10900 33.67200
H  44.85800 10.20500 36.60300
H  43.47800 9.17600 36.37500
H  43.31700 10.56500 37.40800
Mg 7.02900 53.33200 41.18300
C  5.82000 50.04100 40.97100
C  10.09200 52.18500 40.24300
C  7.97600 56.57100 40.46700
C  3.82100 54.48500 41.82600
N  7.78600 51.32800 40.54500
C  7.16000 50.13500 40.65400
C  8.15100 48.91900 40.62400
C  9.57100 49.70900 40.62700
C  9.10000 51.19300 40.48300
C  10.50000 49.55500 41.84100
C  8.02900 47.87000 39.53200
C  8.50800 48.22200 38.09800
H  7.63700 47.65700 36.93400
N  8.82400 54.24700 40.36900
C  10.00500 53.57900 40.10400
C  11.02400 54.54400 39.83100
C  10.41400 55.85500 39.82100
C  8.98600 55.60000 40.23700
C  12.46200 54.15600 39.56400
C  11.13700 57.18400 39.39600
O  12.33300 57.19800 39.00300
C  10.34400 58.40900 39.17300
N  6.06900 55.27300 41.21200
C  6.67800 56.43800 40.87900
C  5.83600 57.68500 41.30000
C  4.49700 56.98100 41.72700
C  4.76800 55.49100 41.53300
C  6.42600 58.64100 42.28300
C  3.16300 57.51700 41.00200
C  2.81300 59.03100 41.10100
N  5.17200 52.50100 41.37400
C  3.91300 53.08800 41.57200
C  2.91600 52.11500 41.55000
C  3.63200 50.90300 41.37400
C  4.99600 51.18600 41.25300
C  1.38100 52.24600 41.82500
C  3.43500 49.48700 41.30500
O  2.43000 48.81900 41.38200
C  4.87100 48.82800 40.99800
C  4.72300 47.93000 39.70700
O  4.57800 48.34200 38.55600
O  4.69800 46.58300 40.00900
C  4.82100 45.64000 38.86100
H  11.10500 51.83000 40.03700
H  8.36400 57.58200 40.32700
H  2.82600 54.74400 42.19400
H  8.06900 48.42900 41.59500
H  10.10100 49.48900 39.70100
H  10.44000 50.46500 42.43700
H  11.51000 49.39400 41.46300
H  10.36200 48.66000 42.44800
H  7.11500 47.28600 39.62900
H  8.67700 47.04100 39.81800
H  9.54700 47.99700 37.85600
H  8.41400 49.30000 37.96700
H  12.55300 53.19800 39.05300
H  13.03200 53.99200 40.47900
H  13.04100 54.88000 38.99100
H  9.48600 58.09900 38.57500
H  10.86100 59.10700 38.51500
H  10.14000 58.94600 40.09900
H  5.77900 58.30700 40.40700
H  4.52600 57.22400 42.79000
H  7.34500 58.19900 42.66800
H  5.73000 58.79700 43.10600
H  6.76800 59.51600 41.73000
H  2.29300 56.90200 41.23300
H  3.35500 57.25300 39.96200
H  3.60500 59.46600 41.71100
H  1.85300 59.20300 41.58700
H  2.72300 59.45300 40.10000
H  0.79300 51.46600 41.34300
H  1.10400 53.23900 41.47300
H  1.23100 52.14400 42.90000
H  5.24100 48.17900 41.79200
H  5.37400 46.07800 38.03000
H  3.85800 45.19100 38.61700
H  5.42600 44.82600 39.26100

