158

Mg 41.79500 41.27300 26.68100
C  40.80600 43.50200 29.22800
C  42.85000 39.14200 29.24100
C  42.31600 39.03200 24.35800
C  41.24000 43.88300 24.22300
N  41.83300 41.38900 29.01100
C  41.29300 42.33900 29.80700
C  41.35800 41.96100 31.26200
C  42.22400 40.64800 31.28200
C  42.42000 40.37600 29.72900
C  43.58700 40.66500 32.14000
C  39.92200 41.76600 31.88600
C  39.72200 42.72100 33.07500
H  39.56400 42.11400 34.42800
N  42.69100 39.47600 26.77900
C  42.96100 38.63900 27.85500
C  43.38400 37.31200 27.43600
C  43.29600 37.25600 26.00100
C  42.74100 38.63900 25.64700
C  43.74300 36.19700 28.43300
C  43.70600 36.10700 24.98200
O  43.74200 36.31100 23.76800
C  44.06700 34.70400 25.50800
N  41.86000 41.49200 24.54600
C  42.06300 40.35100 23.86900
C  41.91600 40.68000 22.35700
C  41.73300 42.21600 22.24800
C  41.65500 42.59600 23.75800
C  43.20000 40.18400 21.59300
C  40.54100 42.76400 21.38800
C  41.02500 43.80200 20.36300
N  41.09300 43.21700 26.70100
C  40.84700 44.11200 25.60200
C  40.27600 45.32100 26.14900
C  40.28300 45.13700 27.54000
C  40.73500 43.82500 27.84600
C  39.94300 46.48400 25.28700
C  39.91400 45.81700 28.76700
O  39.49800 46.91900 28.90500
C  40.25200 44.78400 29.87500
C  41.28600 45.49600 30.69200
O  42.46900 45.58300 30.40400
O  40.72800 45.99900 31.88200
C  41.74100 46.37300 32.86100
H  42.87300 38.43900 30.07600
H  42.42000 38.23500 23.61900
H  41.40800 44.58900 23.40700
H  42.01700 42.70100 31.71600
H  41.65600 39.83700 31.73700
H  44.50600 40.39900 31.61800
H  43.47300 39.95000 32.95500
H  43.65200 41.70100 32.47000
H  39.77500 40.76200 32.28600
H  39.18600 41.97200 31.10900
H  38.81200 43.26700 32.82500
H  40.49500 43.48900 33.06800
H  43.54500 36.59400 29.42800
H  44.77300 35.87700 28.26900
H  43.03700 35.36700 28.47700
H  44.06900 33.97800 24.69500
H  43.33500 34.38700 26.25100
H  45.00300 34.69700 26.06600
H  41.03900 40.12300 22.02600
H  42.64700 42.72100 21.93600
H  43.96000 40.05600 22.36400
H  43.37600 40.92200 20.81100
H  42.99100 39.27900 21.02400
H  39.77100 43.24500 21.99100
H  40.07600 41.88700 20.93900
H  40.43100 44.71100 20.46400
H  40.93000 43.50500 19.31900
H  42.04100 44.12600 20.58500
H  39.50900 46.24900 24.31600
H  40.83600 47.03700 24.99600
H  39.28200 47.02300 25.96600
H  39.32400 44.50400 30.37500
H  41.76800 45.59900 33.62700
H  41.28500 47.18800 33.42400
H  42.75600 46.56200 32.51000
Mg -10.02100 17.06000 40.95000
C  -6.48100 17.05000 41.12000
C  -10.00700 20.45600 40.30700
C  -13.35500 16.93500 40.25400
C  -9.93700 13.54100 40.84000
N  -8.42000 18.60000 40.70100
C  -7.03300 18.39600 40.78000
C  -6.31100 19.71600 40.30700
C  -7.45100 20.81800 40.69500
C  -8.68900 19.93600 40.53300
C  -7.24300 21.51500 42.16600
C  -5.74200 19.71100 38.81100
C  -4.25100 19.17200 38.65300
H  -3.92600 17.86400 37.87700
N  -11.51400 18.50700 40.43800
C  -11.26900 19.83200 40.23800
C  -12.50000 20.50800 40.08400
C  -13.54100 19.50200 39.92000
C  -12.82600 18.25800 40.24000
C  -12.53700 22.02200 39.94400
C  -14.93300 19.74500 39.56600
O  -15.32800 20.83800 39.34100
C  -15.94400 18.71000 39.50400
N  -11.40600 15.50100 40.37400
C  -12.79800 15.66000 40.23700
C  -13.64100 14.34000 40.37100
C  -12.50700 13.31700 40.56400
C  -11.15500 14.09200 40.46200
C  -14.86000 14.37800 41.35700
C  -12.54100 12.00300 39.59700
C  -12.62500 10.63100 40.24100
N  -8.56700 15.58800 41.00100
C  -8.69500 14.21300 41.04700
C  -7.43700 13.62700 41.39200
C  -6.60500 14.71700 41.38800
C  -7.27500 15.84600 41.12900
C  -7.01500 12.20700 41.63100
C  -5.19500 15.05000 41.54200
O  -4.19900 14.34000 41.66300
C  -5.07000 16.58700 41.41300
C  -4.52500 17.11900 42.74900
O  -3.72800 18.00000 42.86500
O  -5.12800 16.43500 43.75900
C  -5.05800 17.08800 45.08200
H  -9.90800 21.54300 40.28200
H  -14.42200 16.71600 40.17700
H  -9.74700 12.46700 40.88600
H  -5.42500 19.94200 40.90000
H  -7.34800 21.65500 40.00400
H  -7.54800 22.56100 42.13000
H  -6.25800 21.32500 42.59200
H  -7.95300 21.05100 42.85000
H  -5.70700 20.69900 38.35300
H  -6.49100 19.17500 38.22800
H  -3.76600 19.15200 39.62900
H  -3.65100 19.93800 38.16200
H  -13.33600 22.28600 39.25100
H  -11.65100 22.44700 39.47200
H  -12.69600 22.39300 40.95700
H  -15.67300 18.10800 38.63700
H  -16.83800 19.22800 39.15800
H  -16.08900 18.12600 40.41400
H  -14.01800 14.11900 39.37300
H  -12.58600 13.10500 41.63000
H  -15.72100 13.93900 40.85300
H  -15.07400 15.35500 41.79000
H  -14.63600 13.66300 42.14800
H  -11.68200 12.25400 38.97500
H  -13.48000 12.05400 39.04500
H  -13.52000 10.06100 39.98900
H  -12.49600 10.79000 41.31200
H  -11.77700 10.11000 39.79700
H  -7.85300 11.52200 41.49800
H  -6.83500 12.06100 42.69600
H  -6.11200 11.93300 41.08600
H  -4.46500 16.88700 40.55800
H  -4.71300 18.12100 45.05600
H  -4.41700 16.37800 45.60500
H  -6.00100 16.84900 45.57300

