158

Mg 47.85000 16.31800 29.23600
C  45.63000 15.88400 32.09900
C  49.68000 18.33900 31.12500
C  49.37100 17.17300 26.41600
C  45.56600 14.39900 27.41700
N  47.67100 16.85400 31.41700
C  46.76900 16.69700 32.37500
C  47.12800 17.29200 33.77000
C  48.22800 18.29800 33.33200
C  48.50600 17.83100 31.83800
C  47.81600 19.83100 33.39900
C  47.61200 16.29900 34.85600
C  47.69400 16.67500 36.34600
H  47.24400 18.10500 36.72200
N  49.39200 17.48100 28.88400
C  50.04400 18.19800 29.79800
C  51.23900 18.74800 29.23200
C  51.14700 18.50500 27.82000
C  49.95000 17.62300 27.64400
C  52.11100 19.69700 30.05900
C  51.99500 18.85300 26.61000
O  51.67500 18.81100 25.41800
C  53.41500 19.48400 26.88100
N  47.37300 15.93900 27.10200
C  48.27200 16.29900 26.18900
C  47.86600 15.81800 24.84100
C  46.74600 14.74800 25.16800
C  46.52800 14.98400 26.64800
C  47.32300 17.06600 24.02700
C  47.18800 13.31600 24.97600
C  46.06900 12.24900 24.90100
N  46.07800 15.31700 29.56900
C  45.34700 14.49200 28.79700
C  44.21400 13.95800 29.54800
C  44.32800 14.49800 30.80700
C  45.44600 15.32100 30.82100
C  43.16300 13.08900 28.95200
C  43.64800 14.51100 32.11900
O  42.77400 13.80700 32.59500
C  44.53900 15.45400 33.02200
C  43.77500 16.59500 33.47200
O  43.05800 17.32800 32.81500
O  43.77200 16.51000 34.86000
C  42.92000 17.47700 35.58700
H  50.26800 18.96700 31.79800
H  49.90800 17.35600 25.48200
H  44.90000 13.76100 26.83300
H  46.26100 17.82400 34.16200
H  49.15300 18.15200 33.89000
H  46.86000 19.92300 33.91500
H  47.73000 20.32600 32.43100
H  48.58400 20.33700 33.98400
H  48.60800 15.95100 34.58100
H  46.93200 15.45200 34.77800
H  48.72800 16.53000 36.65700
H  47.21100 15.83700 36.84900
H  52.53300 19.12200 30.88300
H  51.35000 20.35700 30.47600
H  52.84800 20.21700 29.44700
H  53.29200 20.50800 27.23400
H  53.83100 19.56900 25.87700
H  54.02900 18.80300 27.46900
H  48.67700 15.30700 24.32300
H  45.82900 14.87100 24.59200
H  47.38700 18.03600 24.51900
H  46.27500 16.95000 23.75300
H  47.82900 17.20000 23.07100
H  47.77400 13.06500 25.86000
H  47.88800 13.15000 24.15700
H  46.21200 11.68000 23.98200
H  45.09100 12.73100 24.90500
H  46.11800 11.50200 25.69300
H  42.81500 12.44100 29.75700
H  43.58100 12.50100 28.13400
H  42.30900 13.70700 28.67600
H  44.92300 14.81900 33.82000
H  42.13000 17.01100 36.17600
H  42.67100 18.36500 35.00500
H  43.61900 17.83700 36.34200
Mg -11.68400 39.29400 41.82300
C  -10.38300 36.09500 40.89700
C  -9.09300 40.77200 40.19200
C  -13.36100 42.14400 42.13600
C  -14.61600 37.57100 42.94700
N  -9.95100 38.44000 40.65500
C  -9.61400 37.10600 40.36500
C  -8.33700 37.04500 39.52000
C  -7.89000 38.53400 39.55300
C  -9.02200 39.29700 40.17900
C  -6.65100 38.65500 40.51100
C  -8.63800 36.47800 38.13600
C  -7.66900 35.45100 37.47600
H  -6.94200 35.88100 36.16100
N  -11.30000 41.26900 41.34600
C  -10.18800 41.68100 40.58800
C  -10.27400 43.12100 40.39500
C  -11.46600 43.55900 41.02100
C  -12.13100 42.31600 41.55500
C  -9.20800 44.00700 39.76600
C  -11.88300 44.99900 41.19600
O  -11.14600 45.93000 40.91100
C  -13.27100 45.31800 41.77100
N  -13.87100 39.72700 42.18900
C  -14.11900 41.01600 42.52800
C  -15.62500 41.12100 42.95400
C  -16.08700 39.69700 43.13000
C  -14.83600 38.91400 42.72400
C  -15.77400 42.01400 44.23500
C  -17.27600 39.29900 42.19100
C  -18.49500 40.17300 42.33400
N  -12.39300 37.26700 41.90000
C  -13.53000 36.71500 42.50100
C  -13.39300 35.32300 42.73500
C  -12.20400 35.01800 42.12100
C  -11.62500 36.20200 41.58900
C  -14.36800 34.40900 43.56300
C  -11.30900 33.93800 41.70400
O  -11.34800 32.75200 41.85800
C  -10.21900 34.58200 40.81600
C  -8.91600 34.14600 41.34400
O  -8.44100 33.08400 40.92600
O  -8.27100 35.00300 42.19200
C  -7.05800 34.40100 42.71600
H  -8.30500 41.31500 39.66600
H  -13.97600 43.03900 42.25400
H  -15.45900 37.08700 43.44400
H  -7.72300 36.37600 40.12200
H  -7.61900 38.87400 38.55400
H  -6.08500 37.75500 40.75100
H  -6.88400 39.17500 41.44000
H  -5.91900 39.22000 39.93400
H  -8.64400 37.33000 37.45700
H  -9.63400 36.04400 38.05100
H  -8.08300 34.49300 37.16000
H  -6.87800 35.12400 38.15200
H  -9.72400 44.76100 39.17200
H  -8.53800 43.35700 39.20200
H  -8.59700 44.60600 40.44200
H  -14.06200 44.80200 41.22700
H  -13.35300 46.40300 41.83300
H  -13.23400 45.02600 42.82000
H  -16.28500 41.59500 42.22800
H  -16.43200 39.53600 44.15200
H  -15.58600 43.04200 43.92700
H  -14.96700 41.85200 44.94900
H  -16.74300 42.08500 44.72900
H  -17.51400 38.25700 42.40500
H  -16.96700 39.29600 41.14600
H  -18.32700 40.97100 43.05800
H  -19.31900 39.58900 42.74400
H  -18.87500 40.64400 41.42600
H  -15.36000 34.63900 43.17400
H  -14.31800 34.57500 44.63900
H  -14.30800 33.36500 43.25600
H  -10.33000 34.39400 39.74800
H  -6.89300 35.04300 43.58100
H  -6.23000 34.37800 42.00700
H  -7.19500 33.37600 43.06300

