158

Mg 40.57300 9.22500 29.77600
C  42.56800 10.56200 32.41600
C  38.23300 8.41100 32.15700
C  39.01100 7.42700 27.32600
C  43.20700 9.73800 27.55000
N  40.52400 9.39500 32.06100
C  41.38300 10.06600 32.86600
C  40.86400 10.03400 34.34200
C  39.49000 9.24600 34.24200
C  39.37700 9.01900 32.71500
C  39.35600 7.93400 34.95100
C  40.92300 11.47700 34.94700
C  40.08200 11.66300 36.31300
H  40.85400 12.12200 37.53600
N  38.79300 8.27300 29.71200
C  37.91300 8.03200 30.83200
C  36.65800 7.53100 30.28200
C  36.87200 7.23200 28.88600
C  38.32400 7.58500 28.56200
C  35.38700 7.29000 31.17000
C  35.82200 6.85200 27.82800
O  35.98600 6.80200 26.63500
C  34.45200 6.76300 28.25000
N  41.06400 8.55100 27.75300
C  40.29900 7.82600 26.93100
C  40.78300 7.87900 25.45600
C  41.90300 9.04100 25.52000
C  42.10500 9.08200 27.02100
C  41.24000 6.47700 24.87700
C  41.61500 10.39500 24.88100
C  42.84700 11.24300 24.42200
N  42.50200 10.00700 29.94000
C  43.41000 10.24400 28.90300
C  44.62500 10.88800 29.50900
C  44.29800 11.09900 30.86100
C  43.01100 10.49100 31.06700
C  45.78300 11.29100 28.66500
C  44.74000 11.70100 32.07000
O  45.81300 12.25600 32.32000
C  43.62800 11.24500 33.17600
C  44.33200 10.39100 34.16400
O  44.78500 9.29000 33.92600
O  44.37700 11.05700 35.32400
C  44.94900 10.46000 36.56100
H  37.51900 8.16900 32.94800
H  38.54700 6.82200 26.54400
H  43.98700 9.99900 26.83200
H  41.61000 9.43200 34.86200
H  38.60500 9.80700 34.54200
H  38.47900 8.09700 35.57700
H  40.25200 7.80500 35.55800
H  39.15200 7.00000 34.42700
H  40.36700 12.04400 34.20000
H  41.94100 11.76800 35.20300
H  39.68600 10.68300 36.58200
H  39.19600 12.27100 36.12700
H  34.36200 7.47200 30.84800
H  35.57400 7.97900 31.99300
H  35.51100 6.34100 31.69100
H  33.75700 6.54800 27.43800
H  34.20300 7.73400 28.67700
H  34.28300 6.04700 29.05500
H  39.91800 8.19700 24.87500
H  42.82700 8.64500 25.10000
H  42.23800 6.54400 24.44300
H  40.72300 6.04500 24.02100
H  41.19900 5.84100 25.76100
H  41.12500 11.05300 25.59900
H  41.01800 10.34700 23.97000
H  43.74700 10.62900 24.44500
H  42.89200 12.07200 25.12700
H  42.79700 11.75700 23.46200
H  46.38400 10.41600 28.41800
H  46.37300 11.98900 29.25900
H  45.49700 11.86400 27.78300
H  43.30700 12.17500 33.64600
H  45.87100 10.91400 36.92500
H  44.97300 9.37600 36.67200
H  44.27700 10.82400 37.33800
Mg 50.48900 46.37200 41.53400
C  47.42500 47.62400 40.75700
C  49.58400 43.20300 40.54400
C  53.91000 45.30200 41.71000
C  51.70900 49.69300 42.32300
N  48.61800 45.55700 40.90100
C  47.48900 46.20900 40.52000
C  46.44600 45.21900 39.95600
C  47.10300 43.77600 40.34700
C  48.52300 44.15700 40.68400
C  46.38400 43.03200 41.47800
C  45.91300 45.36400 38.42000
C  44.49100 45.01200 38.02500
H  44.42200 43.98900 36.85200
N  51.59900 44.55200 40.94100
C  50.99100 43.38300 40.58100
C  52.00300 42.40400 40.34700
C  53.24000 43.00900 40.67600
C  52.98000 44.38400 41.13900
C  51.65900 40.95700 39.96500
C  54.55200 42.34000 40.43400
O  54.53900 41.17000 40.07500
C  55.85200 42.91300 40.68900
N  52.63100 47.46500 41.70500
C  53.72100 46.71600 41.95900
C  54.89900 47.52600 42.50900
C  54.15400 48.80800 42.89100
C  52.74000 48.68900 42.27600
C  55.65600 46.88900 43.74100
C  54.90900 50.11900 42.40700
C  55.78000 50.86300 43.41900
N  49.69100 48.24000 41.76500
C  50.29300 49.47200 42.09000
C  49.24100 50.45600 42.01100
C  48.11800 49.72600 41.50900
C  48.43000 48.45700 41.31500
C  49.34700 51.88900 42.34100
C  46.68300 49.88300 41.17400
O  45.83500 50.75700 41.37600
C  46.26900 48.51400 40.52300
C  44.99100 47.93300 41.18500
O  45.03300 47.33800 42.20700
O  43.85800 48.06400 40.43500
C  42.61500 47.68300 41.12300
H  49.20900 42.20800 40.29400
H  54.87600 44.93600 42.06500
H  51.96800 50.67500 42.72200
H  45.55400 45.17800 40.58200
H  47.16400 43.09400 39.49900
H  47.11500 42.72700 42.22600
H  45.97200 42.11200 41.06200
H  45.64600 43.60800 42.03700
H  46.49800 44.70800 37.77500
H  46.09100 46.37500 38.05400
H  44.03700 45.95400 37.71500
H  43.92500 44.53400 38.82400
H  51.87100 40.23800 40.75600
H  52.27400 40.64700 39.12000
H  50.61800 40.98100 39.64300
H  56.02100 42.84600 41.76300
H  55.77600 43.95500 40.38000
H  56.61400 42.52300 40.01400
H  55.66400 47.65300 41.74300
H  53.96500 48.86500 43.96300
H  55.77700 47.66700 44.49400
H  56.60900 46.44600 43.45200
H  55.06500 46.08800 44.18600
H  54.10800 50.73600 42.00200
H  55.55000 50.05600 41.52700
H  55.35100 51.80900 43.74700
H  56.73700 51.02000 42.92000
H  55.90000 50.22400 44.29400
H  49.90500 52.49600 41.62800
H  49.83100 52.09000 43.29700
H  48.34400 52.29300 42.48000
H  46.13400 48.71300 39.46000
H  41.81000 47.73600 40.39000
H  42.35300 48.45200 41.85000
H  42.63200 46.69200 41.57700

