158

Mg 49.10400 47.35900 43.22200
C  45.72800 47.58200 42.00600
C  49.31600 44.35200 41.45600
C  52.38700 47.35900 43.85300
C  48.93200 50.76200 43.88700
N  47.74400 46.20600 41.67000
C  46.37200 46.46400 41.52400
C  45.63000 45.40100 40.76900
C  46.79000 44.30700 40.56400
C  48.04400 44.97300 41.28200
C  46.46200 42.84100 40.95600
C  44.94900 45.89100 39.47400
C  43.49000 45.61800 39.20400
H  43.06400 45.30800 37.76900
N  50.57200 45.96000 42.90000
C  50.47100 44.85100 42.07800
C  51.79500 44.28400 41.98500
C  52.65800 45.02100 42.86200
C  51.91500 46.18700 43.24100
C  52.05000 43.07900 41.06800
C  54.11200 44.71500 43.11600
O  54.60500 43.70600 42.63000
C  54.95500 45.64300 43.94300
N  50.46000 48.82200 43.80300
C  51.73600 48.54800 44.11100
C  52.43900 49.76600 44.77800
C  51.44300 50.92200 44.35000
C  50.19400 50.14000 43.94000
C  52.58600 49.56600 46.34800
C  51.94600 51.69600 43.05600
C  51.68400 53.23200 43.12500
N  47.63200 48.90300 43.24100
C  47.71900 50.23100 43.52400
C  46.49300 50.88100 43.32200
C  45.64900 49.84000 42.87200
C  46.36400 48.63300 42.70600
C  46.25300 52.37900 43.42000
C  44.27400 49.49600 42.48800
O  43.21100 50.11800 42.53700
C  44.29700 48.01500 41.94200
C  43.27800 47.18800 42.67200
O  43.39400 46.79000 43.80600
O  42.25000 46.81900 41.89500
C  41.28600 45.90500 42.50200
H  49.26300 43.31300 41.12400
H  53.37600 47.49800 44.29500
H  48.92200 51.80500 44.20900
H  44.89700 44.93900 41.43100
H  47.10200 44.27600 39.52000
H  45.41400 42.54500 40.91100
H  46.90300 42.69500 41.94200
H  47.03900 42.10300 40.39900
H  45.59600 45.62300 38.63900
H  45.21500 46.94300 39.37000
H  43.05200 46.60200 39.37100
H  43.09300 44.85000 39.86800
H  51.31400 42.89100 40.28600
H  52.11800 42.19200 41.69900
H  52.95200 43.31100 40.50100
H  55.13300 46.56200 43.38500
H  55.91000 45.14300 44.10800
H  54.39300 45.75800 44.87000
H  53.37900 49.75200 44.22600
H  51.30900 51.56000 45.22400
H  52.43800 48.52500 46.63600
H  51.81900 50.10600 46.90400
H  53.52800 49.97800 46.71100
H  51.48300 51.31100 42.14700
H  53.02200 51.73200 42.88800
H  50.97500 53.48400 42.33600
H  52.66200 53.71100 43.15300
H  51.21300 53.51900 44.06500
H  45.19900 52.65200 43.48200
H  46.62100 52.90900 42.54100
H  46.77900 52.81800 44.26800
H  43.89700 48.25300 40.95600
H  41.88700 45.06000 42.83900
H  40.63400 45.38700 41.80000
H  40.59300 46.42900 43.16000
Mg 42.19700 40.73700 26.50600
C  41.40100 43.36600 28.79600
C  42.93200 38.78800 29.21300
C  43.35100 38.50000 24.33600
C  41.93600 43.17100 23.96300
N  42.15400 41.17900 28.77400
C  41.84600 42.28900 29.50000
C  41.77800 42.02900 31.01200
C  42.35500 40.56500 31.08400
C  42.55400 40.12700 29.56100
C  43.43400 40.38100 32.16600
C  40.43500 42.13100 31.67700
C  40.35000 42.80900 33.05000
H  39.65000 41.94600 34.18000
N  42.95800 38.87300 26.70400
C  43.12200 38.19300 27.90900
C  43.56200 36.83900 27.59200
C  43.65800 36.75800 26.22800
C  43.36300 38.04700 25.65400
C  43.73000 35.92400 28.67000
C  43.99300 35.58200 25.39000
O  44.16200 35.59800 24.15400
C  44.25000 34.24300 26.08900
N  42.73400 40.87300 24.48200
C  43.11800 39.80500 23.82700
C  43.14700 40.13700 22.42700
C  42.83100 41.63900 22.24200
C  42.46900 41.97800 23.65000
C  44.54900 39.78500 21.68500
C  41.68800 41.84900 21.24100
C  41.96900 42.82200 20.15800
N  41.63400 42.77200 26.29000
C  41.54300 43.63600 25.21800
C  41.16400 44.96000 25.66900
C  41.09600 44.86100 27.06100
C  41.40500 43.52600 27.43400
C  40.96500 46.15200 24.77900
C  40.67900 45.59900 28.24800
O  40.30600 46.74900 28.41700
C  40.93800 44.67600 29.48600
C  41.97200 45.27200 30.41800
O  43.11400 45.57800 30.13500
O  41.32300 45.64100 31.59000
C  42.11900 46.32300 32.61800
H  43.14300 38.27600 30.15400
H  43.71400 37.79000 23.59100
H  41.74900 43.86200 23.13800
H  42.43500 42.77000 31.46700
H  41.60800 39.90900 31.53000
H  43.95600 41.29700 32.44000
H  44.21100 39.70800 31.80200
H  43.10200 39.87400 33.07200
H  39.95200 41.15700 31.75300
H  39.71300 42.55000 30.97600
H  39.83500 43.76600 32.95900
H  41.34700 43.02900 33.43100
H  44.64700 35.34600 28.55600
H  42.83200 35.30900 28.74100
H  43.90100 36.35100 29.65800
H  43.44200 34.10600 26.80700
H  45.22800 34.07600 26.54100
H  44.32100 33.47800 25.31600
H  42.42700 39.48400 21.93200
H  43.78400 42.12600 22.03600
H  45.27700 39.56800 22.46700
H  44.92900 40.48100 20.93700
H  44.45900 38.86600 21.10600
H  40.86800 42.30500 21.79600
H  41.39200 40.90900 20.77400
H  42.15300 42.26600 19.23900
H  42.86100 43.37600 20.45200
H  41.13700 43.47300 19.89300
H  40.91000 45.92800 23.71300
H  41.75300 46.89400 24.90500
H  40.06000 46.71000 25.02000
H  39.99600 44.61200 30.03000
H  43.17800 46.08000 32.52900
H  41.84800 45.91300 33.59100
H  41.79200 47.36200 32.66300

