158

Mg 47.04900 25.00700 28.92700
C  47.85500 27.44700 31.36100
C  46.02700 22.99900 31.46500
C  46.54200 22.73200 26.62700
C  48.84100 26.99600 26.55100
N  47.03900 25.20700 31.18900
C  47.19600 26.34100 31.90800
C  46.98200 26.14500 33.43000
C  46.49900 24.62500 33.50000
C  46.48300 24.24500 31.92000
C  47.30400 23.67600 34.42100
C  46.01900 27.18700 33.94700
C  46.10300 27.59700 35.44000
H  46.94700 26.79100 36.39900
N  46.24400 23.10600 29.00200
C  45.89600 22.45700 30.14400
C  45.36100 21.20600 29.72600
C  45.54800 21.15700 28.34700
C  46.08500 22.37700 27.91800
C  44.86900 20.15600 30.70800
C  45.27800 19.98700 27.39300
O  45.54000 20.03100 26.21300
C  44.83300 18.68800 28.04700
N  47.53300 25.00000 26.84800
C  47.20500 23.85900 26.13300
C  47.52400 24.13800 24.66300
C  48.27300 25.50700 24.58900
C  48.17200 25.88600 26.08800
C  48.28000 22.97200 23.85500
C  47.37500 26.40500 23.64400
C  46.20200 27.20800 24.26600
N  48.08000 26.83100 28.86500
C  48.69600 27.52500 27.85000
C  49.12300 28.78200 28.32900
C  48.83800 28.79600 29.70100
C  48.22900 27.60000 29.98800
C  49.57600 29.87600 27.36600
C  48.94400 29.64700 30.83600
O  49.41100 30.80500 30.85300
C  48.33400 28.78400 32.01600
C  49.33200 28.62300 33.08200
O  50.30800 27.85500 33.06800
O  49.01800 29.54400 34.00400
C  49.98600 29.46800 35.15200
H  45.43500 22.46300 32.21000
H  46.35200 22.01300 25.82800
H  49.34200 27.55200 25.75700
H  47.98400 26.14700 33.86000
H  45.43600 24.67300 33.73500
H  48.07900 24.29400 34.87400
H  47.64900 22.84500 33.80600
H  46.66700 23.42200 35.26700
H  45.06900 26.65200 33.94400
H  45.90900 28.07200 33.32000
H  45.04600 27.63500 35.70100
H  46.48300 28.61600 35.51800
H  45.50400 19.27300 30.79100
H  43.89600 19.77000 30.40500
H  44.82800 20.57700 31.71300
H  45.56800 18.04100 28.52700
H  44.65800 18.08500 27.15600
H  43.87600 19.01500 28.45200
H  46.53300 24.16400 24.20900
H  49.32800 25.52900 24.31600
H  49.21500 23.38400 23.47600
H  47.64600 22.71400 23.00700
H  48.39000 22.14600 24.55800
H  46.92000 25.74400 22.90600
H  48.03700 27.03300 23.04700
H  46.08000 27.17500 25.34800
H  45.26900 26.84500 23.83500
H  46.43900 28.21900 23.93500
H  49.42700 29.74000 26.29500
H  50.63400 30.06300 27.54900
H  48.95700 30.74100 27.60700
H  47.46700 29.37000 32.32400
H  50.97300 29.01100 35.08600
H  49.30300 29.04700 35.88900
H  50.21400 30.48800 35.46400
Mg 49.26500 45.46400 42.97500
C  45.81300 44.94200 42.88700
C  49.63400 42.01400 43.12800
C  52.70500 45.86500 42.40300
C  48.79500 48.92100 42.31000
N  47.88000 43.67100 42.95300
C  46.49500 43.71400 42.96700
C  45.92800 42.29300 43.01200
C  47.17700 41.43600 43.28800
C  48.29800 42.45200 43.21000
C  47.21300 40.56800 44.63300
C  44.97600 41.86800 41.82400
C  45.36800 42.23300 40.41500
H  46.01400 41.11900 39.51100
N  50.89500 44.16800 42.80500
C  50.83600 42.82700 42.98500
C  52.14100 42.30600 42.95600
C  53.06900 43.39300 42.68400
C  52.24000 44.58100 42.62000
C  52.31100 40.77500 42.98700
C  54.56700 43.27300 42.45800
O  55.12700 42.17000 42.56500
C  55.40200 44.38800 41.93800
N  50.51500 47.12200 42.34100
C  51.89600 47.04200 42.30600
C  52.46400 48.43400 42.66100
C  51.34900 49.33600 42.04000
C  50.10800 48.40300 42.23100
C  52.58000 48.59200 44.17100
C  51.55200 49.54500 40.47900
C  51.01600 50.86500 39.93600
N  47.64300 46.80200 42.69800
C  47.57500 48.17000 42.46300
C  46.12800 48.46900 42.54300
C  45.42500 47.25800 42.72400
C  46.37300 46.26400 42.77900
C  45.42700 49.86300 42.38900
C  44.10400 46.70200 42.74800
O  42.94400 47.20000 42.55900
C  44.33300 45.17800 42.95300
C  43.57700 44.70500 44.12800
O  42.73400 43.88400 44.12400
O  44.04700 45.37600 45.22900
C  43.79000 44.79200 46.55500
H  49.72700 40.93800 43.29400
H  53.77300 46.07600 42.31500
H  48.69200 49.99800 42.16200
H  45.38900 42.37500 43.95600
H  47.24400 40.70100 42.48600
H  47.86600 39.74000 44.36000
H  46.21600 40.29700 44.97800
H  47.76000 41.00500 45.46900
H  43.96200 42.20800 42.03400
H  44.99000 40.77800 41.82400
H  46.21300 42.92000 40.46800
H  44.42200 42.66200 40.08500
H  52.57400 40.49400 41.96700
H  51.46700 40.17700 43.33200
H  53.16200 40.41500 43.56500
H  54.99000 44.87200 41.05300
H  56.37600 44.04200 41.59200
H  55.59500 45.07000 42.76600
H  53.43100 48.49700 42.16100
H  51.14000 50.18400 42.69300
H  52.40000 47.58600 44.55000
H  51.72500 49.16900 44.52300
H  53.49000 49.02800 44.58300
H  50.88100 48.81800 40.02100
H  52.60800 49.34900 40.29500
H  50.62600 50.60500 38.95200
H  51.83200 51.56500 39.75400
H  50.30900 51.21800 40.68700
H  44.45300 49.78100 42.87200
H  45.24800 50.02700 41.32600
H  45.96400 50.66800 42.89100
H  43.89800 44.77700 42.03700
H  44.67700 44.81400 47.18700
H  43.53500 43.74800 46.37500
H  42.88900 45.22400 46.98900

