158

Mg 8.99200 3.32100 27.37200
C  10.31900 1.97400 30.35200
C  6.76300 5.31600 29.33600
C  7.49100 4.35000 24.50200
C  10.90900 0.98000 25.65100
N  8.58300 3.53200 29.57400
C  9.41900 3.00800 30.60700
C  9.17900 3.75200 31.90500
C  7.90700 4.58900 31.65000
C  7.64300 4.45800 30.11800
C  6.66200 4.32300 32.59400
C  10.35800 4.59700 32.43800
C  10.10800 5.22700 33.84700
H  10.88000 4.58200 35.01600
N  7.38500 4.62900 27.03700
C  6.66200 5.45000 27.97200
C  5.79900 6.31300 27.22400
C  6.02500 6.03800 25.83200
C  6.98500 4.90500 25.74500
C  4.93100 7.40900 27.91100
C  5.36000 6.71800 24.63900
O  5.57500 6.44100 23.43500
C  4.41800 7.83000 24.88200
N  9.09100 2.68200 25.30000
C  8.44600 3.32700 24.29300
C  8.89300 2.84500 22.99000
C  10.22700 2.05900 23.36600
C  10.13200 1.90000 24.86000
C  7.73000 2.05400 22.24300
C  11.60900 2.61900 22.95500
C  12.06100 3.94200 23.66200
N  10.34700 1.77700 27.88900
C  11.02000 0.92300 27.05500
C  11.88000 0.04600 27.85100
C  11.61000 0.39100 29.19200
C  10.67400 1.46600 29.13700
C  12.88000 -0.96800 27.22900
C  12.01300 0.25500 30.58900
O  12.89100 -0.39100 31.01500
C  11.21000 1.25600 31.41700
C  10.45000 0.53100 32.33200
O  9.27600 0.15800 32.12300
O  11.13700 0.31800 33.42600
C  10.27600 -0.21200 34.57400
H  6.32200 6.15200 29.88200
H  6.90800 4.59500 23.61200
H  11.52300 0.27800 25.08200
H  9.07300 2.91800 32.59900
H  8.05800 5.64800 31.86000
H  5.84200 3.82500 32.07700
H  6.40300 5.33800 32.89500
H  7.07900 3.80200 33.45500
H  10.55800 5.40200 31.73100
H  11.29700 4.04300 32.44600
H  9.07600 5.01400 34.12500
H  10.30400 6.29900 33.84400
H  5.45600 8.35700 27.79800
H  4.76000 7.22000 28.97100
H  3.94500 7.38400 27.44600
H  3.37800 7.54300 25.03800
H  4.56800 8.51000 24.04400
H  4.75200 8.47800 25.69300
H  9.25500 3.70900 22.43200
H  10.21900 1.04700 22.96000
H  6.76900 2.01500 22.75400
H  8.11200 1.05800 22.01700
H  7.49000 2.47400 21.26600
H  11.58300 2.60300 21.86600
H  12.38400 1.87300 23.13100
H  11.83200 4.03000 24.72400
H  11.65800 4.84000 23.19500
H  13.15000 4.00300 23.66500
H  13.66200 -0.96200 27.98800
H  13.11900 -0.65200 26.21300
H  12.47200 -1.97800 27.19200
H  11.90300 1.87800 31.98300
H  9.80700 -1.18400 34.42000
H  9.51600 0.50700 34.87900
H  10.99500 -0.42800 35.36400
Mg 10.21900 48.76500 25.18600
C  8.25400 48.78000 28.04200
C  12.84700 50.08200 26.94500
C  12.04700 48.32100 22.51100
C  7.30600 48.19700 23.34400
N  10.41300 49.30200 27.24500
C  9.57700 49.02400 28.30500
C  10.20300 49.56200 29.59500
C  11.49300 50.37100 29.10600
C  11.63000 49.87500 27.67900
C  11.39600 51.95400 29.06000
C  10.46300 48.35900 30.65900
C  9.77200 48.56500 31.98300
H  9.68600 47.28800 32.92800
N  12.14700 49.10600 24.82700
C  13.09800 49.62400 25.62100
C  14.40500 49.56300 24.98900
C  14.23300 48.99200 23.69800
C  12.77800 48.84300 23.63900
C  15.76000 49.88300 25.72000
C  15.24400 48.70200 22.61400
O  14.88000 48.35800 21.48800
C  16.69300 48.88000 22.79200
N  9.76500 48.57600 23.08200
C  10.71200 48.29100 22.17000
C  10.07700 47.81600 20.84400
C  8.56400 47.69400 21.17900
C  8.52400 48.24200 22.63300
C  10.43200 48.64600 19.57300
C  8.00900 46.19100 21.03300
C  7.97400 45.26900 22.28800
N  8.20100 48.58800 25.50200
C  7.15200 48.31800 24.71900
C  5.97100 48.14800 25.47200
C  6.39900 48.27100 26.80000
C  7.76100 48.54000 26.75600
C  4.58400 47.85800 24.98400
C  5.86200 48.32900 28.14200
O  4.70800 48.13600 28.56500
C  7.09800 48.58000 28.95500
C  7.32500 47.42000 29.85200
O  7.84400 46.37500 29.48300
O  6.75100 47.67300 31.11100
C  6.49300 46.46800 31.96700
H  13.64400 50.55300 27.52500
H  12.61100 48.18600 21.58600
H  6.37700 47.93200 22.83400
H  9.46300 50.21800 30.05300
H  12.43400 50.10200 29.58600
H  12.10700 52.34900 28.33400
H  11.56100 52.24400 30.09800
H  10.37400 52.21700 28.78500
H  11.53600 48.32300 30.84500
H  10.16900 47.36500 30.32300
H  8.78000 48.96500 31.77600
H  10.32200 49.38000 32.45500
H  15.72200 49.91800 26.80800
H  16.21600 50.81600 25.38800
H  16.35900 49.01400 25.44500
H  16.91500 49.93500 22.95300
H  17.07300 48.59700 21.81000
H  17.19700 48.27900 23.54800
H  10.42700 46.81200 20.60300
H  7.92400 48.33700 20.57400
H  11.22600 49.35100 19.82000
H  9.56700 49.21700 19.23400
H  10.74700 47.91400 18.83100
H  8.58900 45.72500 20.23500
H  6.99600 46.36500 20.67000
H  8.25700 44.27100 21.95400
H  6.94000 45.03800 22.54700
H  8.53600 45.68800 23.12300
H  3.81900 47.71000 25.74500
H  4.68400 47.11200 24.19400
H  4.33200 48.81400 24.52400
H  6.94900 49.43400 29.61500
H  5.44200 46.21900 31.82300
H  6.52200 46.81400 33.00000
H  7.09400 45.56100 32.03500

