158

Mg 36.44800 0.51000 30.16000
C  34.59400 1.85100 32.71000
C  39.13800 0.33100 32.11200
C  38.12400 -0.55600 27.35300
C  33.54200 0.78300 28.09100
N  36.71300 0.99400 32.15400
C  35.85100 1.42700 33.04000
C  36.50300 1.69900 34.37900
C  38.08400 1.71600 34.00800
C  37.98100 0.92900 32.72200
C  38.80500 3.04800 34.10100
C  36.08400 0.51900 35.36200
C  35.37900 0.90100 36.68700
H  35.83900 2.09900 37.45200
N  38.29400 -0.17100 29.83400
C  39.22000 -0.30900 30.83800
C  40.37600 -0.98100 30.31800
C  40.15300 -1.06400 28.90900
C  38.79400 -0.61300 28.61500
C  41.54700 -1.33900 31.23000
C  41.19000 -1.57300 27.92500
O  41.02200 -1.55600 26.66700
C  42.54400 -2.00400 28.23800
N  35.89700 0.33900 28.00700
C  36.83100 -0.02500 27.09700
C  36.23800 -0.19200 25.68100
C  34.70600 0.08000 26.00800
C  34.69800 0.48000 27.45900
C  36.89600 0.75800 24.65200
C  33.82000 -1.17400 25.77900
C  33.78600 -1.94400 24.41800
N  34.50000 1.38600 30.23700
C  33.43900 1.40400 29.37400
C  32.37300 2.12200 29.98400
C  32.72400 2.23200 31.31900
C  34.06700 1.79100 31.38600
C  31.03800 2.39800 29.34000
C  32.35400 2.66100 32.56800
O  31.28900 3.19700 32.92300
C  33.45100 2.37400 33.53600
C  33.76500 3.69900 34.19300
O  34.29200 4.71200 33.71400
O  33.04300 3.67000 35.40100
C  33.02300 4.98800 36.04500
H  39.99000 0.21900 32.78600
H  38.68900 -1.02400 26.54400
H  32.60700 0.66600 27.53900
H  36.16700 2.63100 34.83400
H  38.64000 1.16300 34.76500
H  39.66700 3.00200 34.76800
H  38.14000 3.76800 34.57800
H  38.96500 3.41500 33.08700
H  36.88600 -0.21000 35.47200
H  35.28400 -0.09200 34.94500
H  35.51400 -0.00100 37.28300
H  34.30100 1.02000 36.57500
H  41.86300 -2.38300 31.22300
H  41.56900 -0.92300 32.23700
H  42.37400 -0.87100 30.69600
H  42.51900 -2.88400 28.88000
H  42.97100 -1.16800 28.79100
H  43.22500 -2.26700 27.42800
H  36.41400 -1.23100 25.40400
H  34.36400 0.92300 25.40800
H  37.94100 0.97300 24.87400
H  36.38000 1.71500 24.57100
H  36.80400 0.21200 23.71300
H  32.80100 -0.79500 25.85900
H  33.96900 -1.87900 26.59700
H  33.98700 -2.97000 24.72600
H  34.39300 -1.43200 23.67100
H  32.77600 -2.06700 24.02800
H  30.90200 1.89400 28.38300
H  31.01300 3.47000 29.14600
H  30.25000 2.10700 30.03500
H  33.17700 1.74900 34.38600
H  32.43700 5.67100 35.43000
H  34.06300 5.31400 36.07700
H  32.72800 4.98100 37.09500
Mg 0.00300 43.84200 25.88500
C  2.17300 44.10300 28.71100
C  -2.47600 43.06000 28.03400
C  -1.49100 42.90900 23.27600
C  2.96200 44.46300 23.92700
N  -0.22100 43.71400 28.13100
C  0.81200 43.93500 29.02100
C  0.20000 43.92500 30.49000
C  -1.26000 43.45500 30.27900
C  -1.34400 43.42400 28.76300
C  -1.59800 42.06600 30.96300
C  0.33500 45.29100 31.17000
C  0.43400 45.21200 32.67500
H  -0.12500 44.01500 33.44300
N  -1.75300 43.10300 25.73200
C  -2.72300 42.79400 26.64600
C  -3.79600 42.17600 26.06300
C  -3.58600 42.27400 24.65700
C  -2.23300 42.76900 24.46100
C  -4.95800 41.73200 26.86500
C  -4.61800 41.95100 23.44500
O  -4.37100 41.87200 22.24500
C  -6.06400 41.75300 23.88300
N  0.62300 43.89000 23.87000
C  -0.28800 43.43300 22.99200
C  0.29000 43.42600 21.55400
C  1.62300 44.13400 21.77100
C  1.74800 44.31400 23.25900
C  0.39200 42.01800 20.91000
C  1.71400 45.56100 21.14000
C  0.79200 46.62800 21.82200
N  2.17800 44.37900 26.21100
C  3.16000 44.48700 25.31000
C  4.45400 44.50800 26.02700
C  4.09900 44.42100 27.36300
C  2.71600 44.29000 27.41800
C  5.73800 44.63500 25.40900
C  4.60200 44.16300 28.75400
O  5.76700 44.01900 29.11800
C  3.34400 44.14600 29.62800
C  3.37600 43.01700 30.52100
O  2.97000 41.92700 30.20100
O  3.84000 43.36900 31.82500
C  3.99600 42.31400 32.79400
H  -3.30000 42.77100 28.69000
H  -2.08400 42.46700 22.47200
H  3.81200 44.50900 23.24200
H  0.78900 43.24300 31.10200
H  -2.01900 44.16700 30.60100
H  -0.78600 41.53900 31.46400
H  -1.92200 41.32100 30.23700
H  -2.42500 42.30300 31.63300
H  -0.48600 45.95500 30.90200
H  1.16700 45.85200 30.74500
H  -0.03800 46.09300 33.10900
H  1.51200 45.13900 32.82400
H  -5.78500 42.43200 26.74200
H  -4.70700 41.64300 27.92200
H  -5.37100 40.80900 26.45800
H  -6.85100 42.00800 23.17300
H  -6.32500 42.36200 24.74900
H  -6.21700 40.70200 24.12900
H  -0.24400 44.15200 20.94100
H  2.49000 43.54900 21.46400
H  0.11700 41.24400 21.62700
H  1.30900 41.72200 20.40000
H  -0.30900 41.92200 20.08200
H  1.42000 45.51300 20.09200
H  2.72200 45.97300 21.20000
H  -0.19500 46.28100 22.12900
H  0.47200 47.27500 21.00500
H  1.40800 47.21900 22.50000
H  6.02100 45.66900 25.60600
H  5.69300 44.32500 24.36500
H  6.45800 43.95700 25.86800
H  3.43400 45.07200 30.19600
H  5.08000 42.20800 32.83300
H  3.48700 41.43800 32.39300
H  3.63800 42.55800 33.79400

