158

Mg 50.07600 45.64300 42.72200
C  46.85600 46.13500 41.18500
C  49.67700 42.25700 41.97200
C  53.31600 45.22800 43.29200
C  50.37600 49.01000 43.16100
N  48.38700 44.44500 41.66800
C  47.22600 44.83000 41.18100
C  46.51300 43.65400 40.50300
C  47.18500 42.42700 41.23200
C  48.53600 43.05000 41.67300
C  46.49400 41.70500 42.41800
C  46.60200 43.64300 38.98100
C  45.45300 43.08400 38.18200
H  45.85100 42.17300 36.96400
N  51.32600 43.94800 42.76200
C  50.98900 42.65600 42.34100
C  52.14400 41.81200 42.44100
C  53.25400 42.64000 42.91200
C  52.67300 43.98200 43.02200
C  52.22800 40.37600 42.10400
C  54.65200 42.20300 43.32900
O  54.93800 41.03100 43.19800
C  55.68800 43.17700 43.97300
N  51.67200 46.92900 43.02000
C  52.89300 46.52900 43.35600
C  53.82500 47.68800 43.53300
C  52.90300 48.93900 43.61500
C  51.55700 48.23700 43.25200
C  54.77100 47.57900 44.69500
C  53.23200 50.10200 42.59100
C  53.12900 51.50600 43.00000
N  48.82000 47.25400 42.43100
C  49.12900 48.55200 42.65000
C  47.95400 49.39600 42.18000
C  47.07500 48.46100 41.65400
C  47.67300 47.22600 41.79000
C  47.76900 50.99100 42.42500
C  45.75500 48.31900 41.05300
O  44.89700 49.21600 40.87100
C  45.65900 46.80100 40.62700
C  44.33900 46.21500 41.03400
O  43.58100 45.71100 40.19700
O  43.98800 46.50900 42.30300
C  42.69100 46.06300 42.73400
H  49.55400 41.19400 41.75500
H  54.38800 45.01800 43.32000
H  50.41700 50.08000 43.37600
H  45.45300 43.70000 40.75400
H  47.37500 41.62100 40.52200
H  47.13800 41.73000 43.29600
H  46.18500 40.68400 42.19300
H  45.61800 42.29900 42.68000
H  47.50600 43.12900 38.65200
H  46.71700 44.67300 38.64300
H  44.84800 43.79200 37.61600
H  44.74700 42.55900 38.82600
H  53.08800 40.36700 41.43400
H  51.42000 40.04100 41.45400
H  52.29300 39.72400 42.97600
H  56.10200 43.89200 43.26200
H  56.55100 42.57800 44.26500
H  55.43500 43.79600 44.83400
H  54.39000 47.70300 42.60100
H  52.85400 49.36300 44.61800
H  54.55800 46.71900 45.33000
H  54.91000 48.41600 45.38000
H  55.75400 47.43600 44.24800
H  52.47600 49.88200 41.83700
H  54.15400 49.97800 42.02300
H  52.58700 52.10300 42.26700
H  54.04800 52.08100 43.11600
H  52.56600 51.52700 43.93400
H  46.77100 51.19300 42.03500
H  48.59600 51.55700 41.99600
H  47.81600 51.17900 43.49800
H  45.71500 46.66800 39.54700
H  42.57300 45.00300 42.51000
H  41.84200 46.62600 42.34700
H  42.72800 46.20500 43.81500
Mg 31.11900 58.27300 39.65500
C  28.02400 56.41800 39.09300
C  32.80800 55.35400 38.83200
C  33.80900 60.06000 39.22100
C  29.13400 61.18400 39.80200
N  30.41400 56.15000 38.91400
C  29.15000 55.67500 38.85200
C  29.26300 54.28700 38.27000
C  30.70500 53.79900 38.81300
C  31.40400 55.20700 38.70300
C  30.70300 53.30800 40.33600
C  29.22100 54.44900 36.67100
C  28.11000 53.66200 35.92900
H  27.37200 54.28600 34.73900
N  33.13200 57.76400 39.16600
C  33.63100 56.53700 38.85900
C  34.94400 56.68500 38.44000
C  35.31200 58.04800 38.57900
C  34.05900 58.70300 39.04900
C  35.78700 55.56700 37.92200
C  36.69200 58.70100 38.27100
O  37.70100 58.02800 38.13800
C  36.86300 60.21600 38.13700
N  31.41700 60.28200 39.57700
C  32.67100 60.73800 39.55500
C  32.66000 62.21000 39.78100
C  31.11300 62.61200 40.09800
C  30.53100 61.22600 39.80800
C  33.63600 62.69700 40.83400
C  30.60000 63.77500 39.19800
C  29.73900 64.78800 39.89600
N  29.01800 58.69300 39.52700
C  28.38200 59.92800 39.72400
C  26.92300 59.67300 39.85700
C  26.77100 58.31000 39.59300
C  28.02300 57.83000 39.32800
C  25.84400 60.73800 39.97900
C  25.71700 57.29700 39.53600
O  24.51400 57.40700 39.74800
C  26.46100 56.07200 39.06800
C  26.10100 54.91200 39.93400
O  26.57600 54.69800 41.06900
O  25.20400 54.08700 39.30300
C  24.88600 52.87400 40.06000
H  33.32300 54.40100 38.69700
H  34.67600 60.72000 39.29500
H  28.53200 62.07700 39.98300
H  28.50900 53.61500 38.67900
H  31.13300 53.06700 38.12800
H  31.20000 53.92700 41.08300
H  31.17900 52.32800 40.30000
H  29.63500 53.25500 40.55000
H  30.16900 54.31500 36.15000
H  29.00700 55.50100 36.48700
H  27.33500 53.44100 36.66200
H  28.64300 52.78000 35.57400
H  35.17400 54.67800 37.77800
H  36.49500 55.47100 38.74500
H  36.17700 56.02300 37.01100
H  36.85700 60.53400 39.18000
H  36.11000 60.61500 37.45800
H  37.80800 60.49100 37.66900
H  32.86600 62.62000 38.79200
H  31.11600 62.93500 41.13900
H  34.55800 63.08600 40.40100
H  33.91600 61.84200 41.45000
H  33.20300 63.49400 41.43800
H  30.10500 63.37900 38.31200
H  31.35500 64.41100 38.73600
H  30.31500 65.62400 40.29500
H  29.14800 64.22900 40.62200
H  28.99600 65.23100 39.23300
H  26.13700 61.52600 39.28500
H  25.91000 61.12600 40.99500
H  24.82800 60.41300 39.75700
H  26.11800 55.78300 38.07500
H  24.48600 53.10600 41.04700
H  25.79800 52.27900 40.11800
H  24.26800 52.23500 39.42900

