158

Mg 24.32700 -5.58900 46.16000
C  26.90600 -3.53800 44.80800
C  22.06700 -4.07000 44.02600
C  22.18600 -8.13100 46.68600
C  26.81900 -7.47300 47.79600
N  24.58100 -4.09000 44.51900
C  25.68100 -3.36100 44.17900
C  25.31100 -2.42500 42.94200
C  23.71600 -2.36800 42.95100
C  23.40500 -3.60500 43.96200
C  23.18900 -0.94200 43.30200
C  25.90100 -2.96700 41.68200
C  26.96400 -2.14400 40.82300
H  26.93000 -2.30300 39.36300
N  22.31600 -5.89900 45.61100
C  21.56800 -5.16300 44.69600
C  20.23400 -5.70800 44.64600
C  20.26900 -6.89400 45.46400
C  21.66700 -7.03000 45.92400
C  19.05700 -5.15200 43.86700
C  19.04000 -7.70700 45.76900
O  17.93400 -7.34100 45.30000
C  19.05200 -8.95200 46.64500
N  24.47900 -7.55400 47.08700
C  23.40700 -8.37900 47.23400
C  23.73900 -9.72300 48.04100
C  25.22600 -9.37900 48.39300
C  25.54300 -8.05600 47.73200
C  22.82700 -9.95200 49.22900
C  26.13700 -10.52100 47.87900
C  26.81400 -11.30700 48.95200
N  26.43300 -5.55400 46.35200
C  27.24200 -6.24000 47.19200
C  28.53300 -5.63200 47.23500
C  28.41100 -4.54000 46.33100
C  27.14900 -4.57900 45.77100
C  29.70000 -6.04300 48.08500
C  29.17700 -3.44600 45.71900
O  30.27400 -3.01400 45.86000
C  28.18000 -2.71000 44.66500
C  27.81900 -1.35500 45.09800
O  28.04200 -0.31800 44.41800
O  27.14100 -1.37800 46.25800
C  26.24100 -0.17200 46.59100
H  21.31600 -3.48500 43.49000
H  21.46100 -8.81200 47.13800
H  27.62700 -7.97600 48.33200
H  25.70100 -1.41700 43.07700
H  23.26600 -2.48700 41.96500
H  22.23300 -1.01200 42.78400
H  23.70100 -0.18300 42.71000
H  23.24500 -0.74400 44.37200
H  25.07200 -3.15400 41.00000
H  26.35900 -3.94400 41.83900
H  27.94900 -2.25900 41.27500
H  26.69900 -1.12800 41.11300
H  19.34000 -4.34000 43.19700
H  18.26300 -4.80500 44.52800
H  18.69100 -5.98000 43.25900
H  19.46500 -9.80800 46.11200
H  17.98200 -9.00000 46.84800
H  19.56800 -8.70300 47.57200
H  23.64200 -10.49600 47.27800
H  25.36400 -9.16300 49.45200
H  21.78700 -9.80400 48.93700
H  23.11400 -9.27400 50.03200
H  22.83500 -10.99500 49.54700
H  26.97000 -10.12500 47.29700
H  25.71500 -11.30400 47.24800
H  26.19700 -12.17600 49.17900
H  26.81700 -10.73200 49.87800
H  27.82000 -11.51700 48.58900
H  29.58200 -6.02400 49.16900
H  30.54400 -5.37200 47.92800
H  30.03800 -7.01300 47.72000
H  28.56500 -2.64100 43.64800
H  25.41000 0.02200 45.91300
H  26.77800 0.77500 46.63600
H  25.69400 -0.38600 47.50900
Mg 41.49300 7.85900 29.10300
C  43.53300 9.32200 31.41500
C  39.59800 6.45200 31.64000
C  39.46400 6.41300 26.77100
C  43.70700 8.95300 26.50400
N  41.61000 7.86700 31.29000
C  42.47900 8.67900 32.02900
C  42.15600 8.63200 33.54500
C  40.90600 7.64900 33.59200
C  40.67200 7.27900 32.06900
C  41.00700 6.36500 34.49800
C  41.76200 10.11300 33.95800
C  40.82700 10.31300 35.24300
H  41.22000 11.47700 36.18300
N  39.70200 6.61300 29.22600
C  39.06600 6.15800 30.33800
C  37.87500 5.43400 29.93300
C  37.83400 5.48700 28.49000
C  39.04300 6.19500 28.09500
C  37.06900 4.67400 30.95200
C  36.72500 4.98300 27.53500
O  36.79000 5.12700 26.33700
C  35.54000 4.24700 28.07900
N  41.68900 7.60600 26.93800
C  40.64300 7.03400 26.23700
C  40.86200 7.23600 24.68500
C  42.14200 8.19800 24.62500
C  42.44000 8.38500 26.11300
C  41.11800 5.88200 23.92100
C  41.84700 9.48600 23.80500
C  41.18700 10.58600 24.49100
N  43.28300 8.98600 28.95700
C  44.11400 9.20100 27.85600
C  45.36000 9.80100 28.34500
C  45.10300 9.97800 29.75800
C  43.83200 9.42000 30.03100
C  46.65300 10.17700 27.61000
C  45.65700 10.45800 30.94400
O  46.74200 10.97100 31.27600
C  44.69100 10.10300 32.06200
C  45.36900 9.19500 33.06200
O  45.81500 8.06800 32.87600
O  45.42300 9.83500 34.30100
C  46.05400 9.03600 35.42000
H  39.03800 6.11800 32.51600
H  38.82400 6.14700 25.92600
H  44.47700 9.23800 25.78500
H  42.97200 8.24900 34.15800
H  39.97100 8.10000 33.92300
H  41.32600 5.51100 33.90200
H  40.01400 6.17900 34.90900
H  41.65100 6.47300 35.37100
H  41.25600 10.61400 33.13200
H  42.68400 10.63200 34.21800
H  40.86700 9.37800 35.80200
H  39.79100 10.36000 34.90800
H  37.43000 4.96100 31.94000
H  36.91300 3.60800 30.78300
H  36.04500 5.04400 30.92000
H  35.35400 4.63200 29.08200
H  35.80900 3.19400 28.15500
H  34.74700 4.22500 27.33200
H  39.95800 7.68900 24.27700
H  42.88100 7.70300 23.99400
H  40.45900 5.92900 23.05400
H  40.93000 5.01800 24.55800
H  42.12400 5.68300 23.55300
H  41.24100 9.18400 22.95100
H  42.81200 9.80800 23.41200
H  41.82600 11.46900 24.50700
H  40.99900 10.32900 25.53400
H  40.20200 10.77300 24.06300
H  46.55700 10.01600 26.53600
H  47.61300 9.74700 27.89600
H  46.76000 11.25600 27.72000
H  44.35700 11.00200 32.58000
H  47.12500 9.23900 35.39200
H  45.83200 7.97200 35.34500
H  45.83200 9.39900 36.42300

