158

Mg 24.15600 -5.38100 45.25100
C  26.16700 -2.84500 43.79200
C  21.61400 -4.29800 43.11600
C  22.51900 -8.12000 46.00600
C  27.12600 -6.64300 46.63400
N  24.04200 -3.81600 43.55200
C  24.97400 -2.89800 43.14200
C  24.45900 -1.98200 42.10700
C  22.89800 -2.28100 42.15100
C  22.81400 -3.57600 42.93100
C  22.12300 -1.07400 42.74900
C  25.16600 -2.23800 40.74300
C  25.58700 -0.94900 39.86100
H  25.42600 -1.01700 38.28200
N  22.22300 -6.01600 44.73300
C  21.38900 -5.46000 43.85300
C  20.16200 -6.22700 43.92200
C  20.38300 -7.35300 44.71000
C  21.74400 -7.19200 45.22400
C  18.95000 -5.92500 43.05100
C  19.37600 -8.39700 45.14000
O  18.25800 -8.32500 44.66100
C  19.62700 -9.46900 46.30100
N  24.80800 -7.19600 46.10200
C  23.88800 -8.14200 46.39800
C  24.57700 -9.39000 47.05700
C  25.99300 -8.83300 47.42300
C  25.99900 -7.44500 46.74000
C  23.67600 -10.06000 48.21000
C  27.14300 -9.84500 47.02000
C  28.23500 -10.04500 48.07000
N  26.18100 -4.72800 45.44900
C  27.21400 -5.40400 46.00000
C  28.41100 -4.57900 45.95400
C  28.09300 -3.54800 45.12700
C  26.70000 -3.70700 44.76700
C  29.83800 -4.71000 46.59200
C  28.54100 -2.34300 44.49200
O  29.54800 -1.76000 44.56200
C  27.31100 -1.89100 43.51700
C  26.99600 -0.45600 43.85300
O  26.62200 -0.08200 44.92100
O  27.25900 0.41900 42.85800
C  27.13200 1.81200 43.22100
H  20.70300 -4.00600 42.59000
H  22.11000 -9.12300 46.14400
H  28.07300 -7.03600 47.01200
H  24.62100 -0.94500 42.40200
H  22.47900 -2.42600 41.15500
H  21.19600 -1.49600 43.13700
H  21.99200 -0.30400 41.98900
H  22.67800 -0.55900 43.53300
H  24.45400 -2.76600 40.10900
H  25.96700 -2.94100 40.96800
H  26.64200 -0.88900 40.12900
H  25.08400 -0.06200 40.24600
H  19.10200 -6.66000 42.26200
H  18.90900 -4.91600 42.64200
H  18.07900 -6.07000 43.69100
H  19.78100 -8.98700 47.26600
H  20.43900 -10.10500 45.95100
H  18.71800 -10.06700 46.23000
H  24.69000 -10.13300 46.26800
H  25.94400 -8.67700 48.50100
H  22.83000 -9.45800 48.54100
H  24.36200 -10.29900 49.02300
H  23.23700 -10.99300 47.85800
H  27.68600 -9.59600 46.10800
H  26.69600 -10.83000 46.89300
H  29.19300 -9.94700 47.55900
H  28.16700 -11.07600 48.41800
H  28.13000 -9.28600 48.84500
H  29.82500 -4.94400 47.65700
H  30.26500 -3.71300 46.47900
H  30.44600 -5.54200 46.23900
H  27.64800 -1.97400 42.48400
H  27.83600 2.43700 42.67200
H  27.38500 2.00100 44.26400
H  26.12900 2.14700 42.95500
Mg 34.85600 2.45300 29.45900
C  32.80000 3.58000 32.00700
C  37.58300 2.40900 31.56500
C  36.81300 1.82400 26.81500
C  32.05600 3.02900 27.39000
N  35.16400 3.04000 31.53500
C  34.20400 3.37700 32.40000
C  34.75400 3.55200 33.80400
C  36.33200 3.38600 33.62200
C  36.42200 2.93000 32.15800
C  37.15400 4.69400 33.79500
C  34.18200 2.53800 34.76300
C  33.88700 3.05500 36.26600
H  34.90900 3.99800 36.93300
N  36.85600 2.02800 29.21500
C  37.78700 2.07000 30.21400
C  39.05900 1.56700 29.63000
C  38.94700 1.61600 28.21900
C  37.52200 1.88400 28.03500
C  40.17600 1.18100 30.59400
C  40.01800 1.48200 27.22400
O  39.73700 1.67500 26.02500
C  41.42600 1.14900 27.51900
N  34.54600 2.47600 27.40800
C  35.50500 2.09600 26.53200
C  34.92900 1.87500 25.11300
C  33.46200 2.26200 25.30800
C  33.31000 2.58100 26.81500
C  35.65500 2.48600 23.92700
C  32.49100 1.18600 24.64900
C  32.59000 -0.15700 25.31600
N  32.81000 3.25000 29.54000
C  31.83500 3.37600 28.66400
C  30.62800 3.82800 29.30600
C  31.00200 4.00500 30.64900
C  32.31200 3.57900 30.71000
C  29.32800 4.12200 28.59900
C  30.49600 4.47000 31.94000
O  29.36000 4.89500 32.22000
C  31.62400 4.09200 32.93300
C  31.95400 5.38900 33.74700
O  32.79900 6.22600 33.39700
O  31.31900 5.40100 34.98400
C  31.78500 6.37000 35.99600
H  38.45400 2.30400 32.21600
H  37.27700 1.55400 25.86400
H  31.20800 3.02400 26.70200
H  34.61000 4.57100 34.16400
H  36.74400 2.62400 34.28400
H  37.59600 5.05700 32.86700
H  37.85100 4.38100 34.57300
H  36.65000 5.58300 34.17500
H  34.88800 1.70900 34.71300
H  33.29500 1.99700 34.43400
H  33.93300 2.23100 36.97800
H  32.87100 3.45000 36.27400
H  41.01400 0.68800 30.10000
H  39.73000 0.57000 31.37900
H  40.47100 2.15600 30.98100
H  41.97600 1.03400 26.58500
H  41.46900 0.13400 27.91300
H  41.85200 1.86200 28.22500
H  35.00400 0.79400 24.98800
H  33.34900 3.25200 24.86600
H  35.89600 1.59900 23.34000
H  36.55500 3.07000 24.12100
H  34.97900 3.09200 23.32500
H  32.61200 1.19100 23.56500
H  31.49500 1.54600 24.90900
H  31.65900 -0.50200 25.76600
H  33.37000 -0.18000 26.07600
H  32.87300 -0.90100 24.57100
H  28.62900 3.30600 28.78200
H  29.48200 4.12400 27.51900
H  28.82600 5.03900 28.90600
H  31.20300 3.37100 33.63400
H  32.86500 6.26000 36.09500
H  31.38500 6.12200 36.97900
H  31.58700 7.41900 35.77500

