158

Mg 17.06800 -1.93100 28.17400
C  16.30900 0.00900 31.05600
C  19.04600 -3.91900 30.34700
C  18.52400 -3.30300 25.53400
C  15.48100 0.36600 26.24100
N  17.51400 -2.02600 30.42000
C  17.07300 -1.14000 31.39100
C  17.45300 -1.58300 32.79300
C  18.53500 -2.71100 32.57000
C  18.34800 -2.91900 31.00100
C  19.93500 -2.48900 33.17100
C  16.20100 -1.96100 33.77400
C  16.34600 -1.58600 35.29100
H  17.84800 -1.49100 35.95500
N  18.37300 -3.63700 27.96800
C  19.07600 -4.32000 28.95600
C  19.84600 -5.36700 28.36100
C  19.58300 -5.30600 26.95900
C  18.82400 -4.04400 26.70700
C  20.75000 -6.34000 29.11000
C  20.06200 -6.16100 25.88000
O  19.60500 -6.07900 24.75500
C  21.00600 -7.37200 26.25100
N  17.04000 -1.49600 26.17200
C  17.78400 -2.21400 25.22400
C  17.45500 -1.77100 23.76200
C  16.35200 -0.70500 24.04800
C  16.23200 -0.57600 25.56300
C  18.71900 -1.38900 22.88500
C  15.05100 -0.80200 23.21700
C  13.76400 -1.34400 23.85700
N  16.04300 -0.17400 28.48900
C  15.43500 0.64300 27.64700
C  14.73500 1.66300 28.30300
C  15.06700 1.45300 29.62000
C  15.88600 0.32000 29.71600
C  13.84900 2.64200 27.64300
C  14.90900 2.00400 30.98700
O  14.32400 2.95500 31.41500
C  15.71200 1.08400 31.95900
C  16.80500 1.96900 32.67700
O  17.90100 2.27900 32.17400
O  16.23200 2.50100 33.77700
C  17.05400 3.53200 34.45300
H  19.70500 -4.44100 31.04400
H  18.94500 -3.74600 24.62900
H  14.91900 1.05500 25.60800
H  18.03900 -0.79900 33.27300
H  18.31600 -3.66100 33.05900
H  20.16900 -3.31800 33.83900
H  19.95000 -1.55000 33.72400
H  20.67300 -2.47000 32.36900
H  16.10800 -3.04600 33.74600
H  15.27300 -1.59500 33.33600
H  15.88900 -2.35200 35.91800
H  15.81300 -0.64400 35.41500
H  21.79100 -6.51200 28.83700
H  20.23700 -7.30200 29.13800
H  20.82200 -6.18500 30.18700
H  22.00800 -7.08700 26.57200
H  21.13100 -7.86300 25.28600
H  20.49700 -7.95100 27.02100
H  16.92600 -2.61900 23.32800
H  16.87700 0.20800 23.76600
H  19.61500 -1.61800 23.46100
H  18.70000 -0.31600 22.68900
H  18.52500 -1.91800 21.95200
H  15.36900 -1.53000 22.47000
H  14.96100 0.19500 22.78400
H  13.06200 -1.78000 23.14600
H  13.16500 -0.56000 24.32100
H  14.03900 -2.17800 24.50100
H  14.20800 2.72900 26.61700
H  14.00000 3.56100 28.20800
H  12.84000 2.23200 27.70300
H  15.09900 0.60700 32.72400
H  18.08600 3.19100 34.52300
H  16.72100 3.77400 35.46300
H  16.83400 4.47000 33.94300
Mg 47.33300 15.91300 28.27700
C  45.18400 15.78400 30.96100
C  49.63300 17.41800 30.38800
C  49.06800 16.58400 25.56200
C  44.79600 14.57500 26.25100
N  47.32000 16.71900 30.39900
C  46.33000 16.41600 31.31600
C  46.70000 16.99900 32.67500
C  48.05900 17.72700 32.37100
C  48.40200 17.25900 30.97000
C  47.90600 19.31300 32.38800
C  46.91100 15.89100 33.71000
C  46.66400 16.32000 35.23900
H  46.28100 17.71300 35.56200
N  49.11300 16.74300 28.08200
C  49.95500 17.19100 29.08000
C  51.22300 17.55700 28.40200
C  51.06500 17.40400 26.98100
C  49.75000 16.85700 26.82000
C  52.39900 18.04600 29.23100
C  52.04500 17.76700 25.81700
O  51.81000 17.56500 24.66400
C  53.39100 18.41500 26.07600
N  46.86600 15.78300 26.09600
C  47.80400 16.07100 25.22900
C  47.42200 15.70400 23.79500
C  46.01600 15.01900 24.03500
C  45.88400 15.10400 25.54600
C  47.38400 16.88900 22.83300
C  45.93700 13.54000 23.53100
C  44.96900 13.46200 22.38600
N  45.45100 15.24300 28.53600
C  44.51200 14.71900 27.62400
C  43.29300 14.27700 28.27400
C  43.50700 14.66000 29.63700
C  44.82100 15.26700 29.70900
C  41.99000 13.83100 27.58500
C  42.95300 14.73000 30.96400
O  41.86200 14.35900 31.42600
C  43.99300 15.42000 31.87400
C  43.23300 16.55800 32.44200
O  43.06100 17.62900 31.86400
O  42.67200 16.33800 33.65600
C  41.84600 17.43900 34.23200
H  50.43100 17.82900 31.01000
H  49.68700 16.69300 24.67000
H  44.06900 13.99700 25.67700
H  45.81600 17.59800 32.89400
H  48.76100 17.44500 33.15700
H  48.79300 19.89500 32.63900
H  47.18000 19.71400 33.09500
H  47.63700 19.61100 31.37500
H  47.96900 15.64700 33.61600
H  46.31000 14.98400 33.64100
H  47.65500 16.09100 35.62900
H  46.00700 15.58400 35.70100
H  52.82100 18.89600 28.69500
H  53.04500 17.16900 29.18800
H  52.22900 18.39900 30.24900
H  53.29100 19.49700 25.98600
H  54.13700 18.19200 25.31400
H  53.89200 18.17600 27.01400
H  48.08600 14.89900 23.47900
H  45.17600 15.61700 23.68300
H  47.39500 17.83100 23.38200
H  46.42900 16.83900 22.31100
H  48.24800 16.91400 22.16900
H  45.70800 12.81700 24.31400
H  46.90000 13.20600 23.14500
H  45.58600 12.94000 21.65500
H  44.59000 14.42300 22.03900
H  44.05700 12.90700 22.60700
H  41.96500 12.78800 27.26900
H  41.94000 14.44600 26.68600
H  41.12600 13.97400 28.23400
H  44.20100 14.67800 32.64400
H  42.04000 18.47900 33.96900
H  41.91400 17.27300 35.30700
H  40.79000 17.40300 33.96300

