158

Mg 46.26100 3.67400 48.22400
C  44.57500 6.62900 47.18000
C  43.37900 1.92000 47.62800
C  48.09200 0.94600 48.35300
C  49.22300 5.74100 48.31000
N  44.26400 4.23600 47.44100
C  43.78900 5.51500 47.05000
C  42.31200 5.47100 46.64700
C  41.95700 3.98800 46.99500
C  43.26500 3.32900 47.39500
C  40.73400 3.85700 47.94800
C  41.94900 5.99500 45.22500
C  40.59800 6.86500 45.21500
H  39.66100 6.77900 44.07800
N  45.79600 1.64700 48.05400
C  44.60200 1.14000 47.78800
C  44.67200 -0.27100 47.70100
C  46.05800 -0.64500 47.84000
C  46.76000 0.66800 48.13500
C  43.40400 -1.11800 47.27000
C  46.57900 -2.03000 47.54400
O  45.88300 -2.93100 47.12100
C  48.02300 -2.29200 47.88200
N  48.42200 3.47500 48.33300
C  48.83900 2.20000 48.38200
C  50.37800 2.19900 48.68600
C  50.78900 3.70800 48.44500
C  49.39900 4.37200 48.38700
C  50.67800 1.64500 50.10900
C  51.40500 4.05400 47.01300
C  52.92200 4.08600 46.96300
N  46.79200 5.73900 48.01800
C  48.04400 6.44700 48.03600
C  47.78300 7.90000 47.87600
C  46.43700 7.91800 47.47200
C  45.91900 6.64500 47.56800
C  48.88300 8.86500 47.75200
C  45.42300 8.86200 46.98400
O  45.52100 10.03800 46.71100
C  44.22900 8.02400 46.85000
C  43.16600 8.52800 47.73700
O  43.07600 8.35800 48.97500
O  42.20100 9.22000 47.02700
C  41.21500 10.02200 47.74000
H  42.45300 1.41800 47.34200
H  48.74600 0.07800 48.45300
H  50.08600 6.40300 48.40500
H  41.88300 6.01800 47.48700
H  41.73700 3.36000 46.13200
H  40.24800 4.83000 48.02100
H  40.99600 3.43400 48.91800
H  40.07800 3.18700 47.39200
H  41.65900 5.23200 44.50300
H  42.77800 6.53000 44.76300
H  40.89400 7.90900 45.31300
H  40.05900 6.64900 46.13800
H  43.82100 -1.90100 46.63600
H  42.66200 -0.59700 46.66400
H  42.94900 -1.63600 48.11300
H  48.66600 -1.66100 47.26800
H  48.27400 -3.34300 47.73600
H  48.20900 -2.10000 48.93900
H  50.90300 1.58200 47.95700
H  51.25000 4.24200 49.27500
H  49.79000 1.32900 50.65500
H  51.35100 2.28900 50.67600
H  51.34000 0.79400 49.94600
H  51.05200 4.97800 46.55600
H  51.10700 3.25000 46.33800
H  53.13200 3.49000 46.07500
H  53.32300 3.52800 47.81000
H  53.24900 5.12500 46.98800
H  49.47100 8.62800 46.86600
H  49.57300 8.61600 48.55900
H  48.49600 9.88000 47.84400
H  43.76100 8.15200 45.87400
H  40.43200 9.38200 48.14800
H  40.95000 10.69400 46.92400
H  41.72900 10.54600 48.54500
Mg 48.44900 34.60200 26.65100
C  46.59500 32.94500 29.15500
C  49.09600 37.08700 28.75300
C  49.92000 36.16700 24.04300
C  47.68000 31.85300 24.56100
N  47.84200 34.95500 28.69200
C  47.13000 34.19200 29.52800
C  47.31500 34.62200 30.86600
C  47.79500 36.10100 30.70200
C  48.32200 36.03600 29.28400
C  46.82300 37.27000 30.83600
C  48.41200 33.76700 31.56700
C  48.32500 33.85600 33.15000
H  47.52300 34.92100 33.88600
N  49.48800 36.38100 26.43700
C  49.62200 37.28200 27.45600
C  50.39800 38.39900 26.98600
C  50.61600 38.19800 25.54600
C  50.00300 36.87200 25.25300
C  50.74200 39.59500 27.91500
C  51.11500 39.15400 24.42900
O  50.91200 38.96100 23.23500
C  51.63700 40.61900 24.84200
N  48.71100 34.14500 24.53900
C  49.47900 34.86400 23.74600
C  49.53800 34.22700 22.31000
C  48.87800 32.82500 22.44300
C  48.43200 32.90400 23.96400
C  48.93000 35.09200 21.11700
C  49.85400 31.61500 22.25000
C  49.14700 30.31700 21.79300
N  47.47100 32.78000 26.80500
C  47.24100 31.77800 25.84700
C  46.45400 30.70400 26.41900
C  46.16900 31.16200 27.69900
C  46.78800 32.39800 27.87600
C  45.97100 29.51900 25.70200
C  45.35200 30.81300 28.88500
O  44.58300 29.86100 29.12900
C  45.51000 32.03700 29.81400
C  45.74800 31.60100 31.20300
O  46.58100 30.82100 31.59800
O  44.73600 32.05900 31.92800
C  44.68000 31.64500 33.35900
H  49.26900 37.83800 29.52600
H  50.35100 36.63700 23.15700
H  47.58200 30.93600 23.97600
H  46.34200 34.57300 31.35400
H  48.70200 36.34700 31.25400
H  45.97000 37.00500 31.46000
H  46.48400 37.63000 29.86400
H  47.34000 38.01800 31.43700
H  49.39600 34.21800 31.44000
H  48.32700 32.69000 31.42000
H  49.38200 33.83700 33.41600
H  47.83300 32.93000 33.44600
H  51.80500 39.82300 27.84000
H  50.47500 39.37000 28.94800
H  50.24400 40.47200 27.50100
H  51.38600 41.36200 24.08500
H  52.70000 40.56300 25.07700
H  51.21200 40.96000 25.78500
H  50.60200 34.08900 22.11800
H  48.01800 32.63500 21.80000
H  49.65600 35.27400 20.32400
H  48.47400 35.98500 21.54200
H  48.10600 34.50100 20.71800
H  50.35500 31.41900 23.19800
H  50.54500 31.96200 21.48200
H  49.41100 30.03300 20.77400
H  48.06300 30.42000 21.76300
H  49.33700 29.54100 22.53500
H  46.30900 28.58900 26.15900
H  46.16400 29.56200 24.63000
H  44.88700 29.53500 25.82000
H  44.63700 32.68800 29.79000
H  45.22100 32.46200 33.83700
H  45.20200 30.73200 33.65000
H  43.62400 31.58700 33.62100

