158

Mg 8.53300 3.31000 27.77300
C  10.08500 2.03100 30.44700
C  6.61900 5.42900 29.87900
C  6.89000 4.58700 25.08000
C  10.01600 0.94200 25.75300
N  8.25800 3.61300 29.98100
C  9.11500 2.95100 30.91300
C  8.93600 3.54300 32.26900
C  7.68600 4.59900 32.01500
C  7.44000 4.51700 30.54000
C  6.46700 4.36800 32.84100
C  10.19700 4.28000 32.88600
C  9.98800 4.64300 34.33900
H  10.83900 3.93900 35.41100
N  6.94600 4.76900 27.56700
C  6.34300 5.55400 28.55000
C  5.42800 6.47500 27.94800
C  5.45400 6.14100 26.55800
C  6.45400 5.13400 26.34100
C  4.63500 7.42200 28.74300
C  4.54600 6.62800 25.41300
O  4.79700 6.36000 24.23900
C  3.39200 7.60300 25.65900
N  8.48600 2.82900 25.79800
C  7.88500 3.59100 24.86200
C  8.12500 3.09600 23.45800
C  8.96400 1.81200 23.67200
C  9.12500 1.85400 25.15900
C  6.82500 2.85900 22.53700
C  10.30600 1.76400 22.85500
C  10.41400 0.62200 21.84900
N  9.77500 1.69900 28.02600
C  10.41400 0.86800 27.10800
C  11.29200 -0.09100 27.81700
C  11.26900 0.41400 29.10300
C  10.27600 1.50000 29.20900
C  12.14300 -1.16400 27.23700
C  11.70100 0.13100 30.46100
O  12.53300 -0.69700 30.90800
C  10.96100 1.15100 31.36400
C  10.13100 0.50200 32.42700
O  9.17300 -0.18400 32.24500
O  10.67100 0.74800 33.66600
C  9.95800 0.24800 34.89400
H  6.24400 6.05700 30.69000
H  6.36200 4.90200 24.17800
H  10.53500 0.27600 25.06000
H  8.65300 2.79100 33.00600
H  8.09900 5.60100 32.12800
H  6.45800 5.01700 33.71600
H  6.56800 3.28900 32.96200
H  5.53400 4.56200 32.31200
H  10.38200 5.17700 32.29600
H  11.07900 3.71500 32.58600
H  8.96700 4.33900 34.56900
H  10.16800 5.71100 34.46700
H  4.87600 7.40500 29.80600
H  3.58900 7.11600 28.71600
H  4.72200 8.42800 28.33300
H  2.55800 7.06200 26.10700
H  3.09400 7.91400 24.65700
H  3.61900 8.38600 26.38200
H  8.69000 3.82000 22.87000
H  8.37200 0.95900 23.33800
H  5.97400 2.94800 23.21100
H  6.94100 1.93100 21.97700
H  6.71100 3.68600 21.83700
H  11.15400 1.73000 23.53900
H  10.40200 2.70000 22.30600
H  11.23300 -0.03600 22.13800
H  10.76700 1.03800 20.90600
H  9.53900 0.02000 21.60400
H  13.09600 -0.72100 26.94700
H  11.69200 -1.44300 26.28500
H  12.16500 -2.07300 27.84000
H  11.75200 1.70400 31.86900
H  9.38800 -0.67100 34.75900
H  9.25300 1.05800 35.07900
H  10.64000 0.18200 35.74100
Mg 48.71800 35.15700 27.18700
C  46.99200 33.66900 29.93100
C  48.99900 37.92200 29.01000
C  50.29100 36.56900 24.55800
C  47.98600 32.35100 25.15300
N  48.23200 35.57800 29.41500
C  47.62900 34.84300 30.35500
C  47.66500 35.62400 31.66500
C  47.84800 37.10500 31.15600
C  48.31300 36.87400 29.73700
C  46.47000 37.86700 31.03000
C  48.71300 35.10800 32.64500
C  48.49500 35.30700 34.17300
H  47.52500 36.45700 34.47800
N  49.61700 37.02600 26.87000
C  49.62600 38.04900 27.76400
C  50.37700 39.12700 27.20400
C  50.82900 38.73500 25.86000
C  50.23000 37.36700 25.68500
C  50.65800 40.37100 27.95800
C  51.67100 39.50800 24.83200
O  52.08900 38.92400 23.83100
C  51.98800 41.00300 25.22100
N  49.01400 34.59900 25.04500
C  49.81600 35.27700 24.24300
C  49.81300 34.67600 22.86100
C  49.22800 33.23500 23.05600
C  48.67200 33.37800 24.49900
C  49.11100 35.61700 21.81900
C  50.23900 32.11300 22.89400
C  50.39300 31.49400 21.53800
N  47.73200 33.38900 27.40900
C  47.48900 32.32600 26.53600
C  46.68600 31.37500 27.25400
C  46.45000 31.86600 28.54700
C  47.09100 33.09900 28.61200
C  46.15200 30.13800 26.63600
C  45.72600 31.53300 29.78100
O  44.89700 30.67000 30.02900
C  45.97700 32.84100 30.68000
C  46.36900 32.36800 32.08700
O  47.42100 31.82900 32.43500
O  45.30800 32.62700 32.95200
C  45.68600 32.16400 34.35200
H  48.98500 38.86800 29.55500
H  50.74500 36.91900 23.62900
H  47.89800 31.44200 24.55500
H  46.66700 35.49100 32.08400
H  48.48900 37.68500 31.82100
H  45.60400 37.28300 31.34400
H  46.18300 38.10500 30.00600
H  46.62300 38.81300 31.54900
H  49.64100 35.56600 32.30200
H  48.99200 34.08000 32.41300
H  49.49500 35.50100 34.56200
H  48.09300 34.34500 34.48900
H  49.90900 40.48800 28.74200
H  50.55400 41.18500 27.24100
H  51.66800 40.37400 28.36800
H  52.61000 41.12100 26.10900
H  51.06700 41.58300 25.25100
H  52.60500 41.47200 24.45500
H  50.85500 34.66100 22.54100
H  48.44300 32.87400 22.39000
H  48.28400 35.04800 21.39500
H  49.82900 35.83300 21.02800
H  48.76500 36.53800 22.28800
H  50.07400 31.25800 23.54900
H  51.24000 32.51200 23.06100
H  49.55100 31.80300 20.91900
H  50.30400 30.40900 21.47300
H  51.35700 31.72600 21.08500
H  46.99900 29.49800 26.38700
H  45.58000 30.46800 25.76900
H  45.51000 29.70700 27.40400
H  45.04500 33.39800 30.77500
H  44.75000 31.87700 34.83200
H  46.16800 32.96400 34.91300
H  46.24500 31.23400 34.45600

