158

Mg 54.50800 24.77400 44.00800
C  51.42300 26.75400 43.36300
C  52.72600 22.06400 42.84900
C  57.36800 23.10200 43.89400
C  56.07800 27.70800 44.91900
N  52.23400 24.47600 43.22100
C  51.20100 25.36500 43.06400
C  49.97700 24.68500 42.37000
C  50.35700 23.19000 42.60700
C  51.88300 23.24100 42.85300
C  49.70000 22.50700 43.85800
C  50.00500 24.97800 40.84500
C  51.34300 25.22700 40.12300
H  51.37700 26.01400 38.76300
N  54.96900 22.82300 43.45200
C  54.06700 21.88200 43.08300
C  54.75700 20.63800 42.99800
C  56.16600 20.84700 43.22600
C  56.23200 22.29200 43.54100
C  54.14500 19.27800 42.65300
C  57.22600 19.82200 43.20300
O  57.02900 18.65100 42.89300
C  58.69300 20.28600 43.30600
N  56.47300 25.36800 44.21700
C  57.49400 24.46200 44.27700
C  58.87300 25.14500 44.46200
C  58.42600 26.66600 44.79200
C  56.86800 26.57800 44.61900
C  59.66900 24.62000 45.59900
C  59.05300 27.73100 43.81100
C  59.41300 29.11300 44.42100
N  53.91100 26.75300 44.21200
C  54.68000 27.80400 44.68500
C  53.75200 28.96300 44.84500
C  52.54000 28.55000 44.30600
C  52.63000 27.23200 43.92600
C  54.04100 30.26600 45.51000
C  51.14400 29.04300 44.02800
O  50.69900 30.16000 44.18900
C  50.39700 27.81200 43.45900
C  49.73300 28.14100 42.15800
O  50.36400 28.52500 41.19900
O  48.37700 28.07400 42.30000
C  47.63600 28.42800 41.05800
H  52.22700 21.15800 42.49900
H  58.33900 22.61100 43.98200
H  56.58900 28.62000 45.23500
H  49.02000 24.93800 42.82500
H  50.17000 22.58100 41.72200
H  50.19900 21.54600 43.97600
H  48.63700 22.36900 43.65500
H  49.86800 23.03500 44.79600
H  49.46100 25.91300 40.71100
H  49.52900 24.23200 40.20900
H  51.67500 24.21500 39.89200
H  52.03100 25.77600 40.76500
H  54.17500 18.96900 41.60900
H  53.06700 19.29400 42.81700
H  54.43800 18.50100 43.35800
H  59.18200 20.42100 44.27000
H  58.74500 21.22000 42.74600
H  59.26400 19.52200 42.78000
H  59.21600 25.04300 43.43200
H  58.63400 27.03400 45.79600
H  59.81200 25.34200 46.40300
H  60.68000 24.41700 45.24700
H  59.18900 23.74000 46.02700
H  58.34400 27.92600 43.00700
H  59.93900 27.32100 43.32400
H  59.59000 28.87500 45.47000
H  58.43300 29.58800 44.38900
H  60.09900 29.77400 43.89100
H  53.33000 30.46800 46.31200
H  54.08700 31.03200 44.73600
H  55.00800 30.15500 46.00200
H  49.66700 27.60000 44.23900
H  47.80400 29.48100 40.83000
H  46.58500 28.14100 41.09500
H  48.10100 27.88100 40.23800
Mg 41.68900 41.50500 26.98500
C  41.12200 43.80600 29.65800
C  42.37500 39.19500 29.52200
C  42.31700 39.29600 24.59700
C  40.87000 43.97500 24.73500
N  41.73200 41.56500 29.37700
C  41.34700 42.58000 30.17500
C  41.34700 42.19000 31.63100
C  41.98100 40.70500 31.58800
C  42.02500 40.45900 30.00900
C  43.45500 40.54300 32.17900
C  39.91500 42.23200 32.27000
C  39.69300 43.02800 33.57900
H  39.03200 42.41100 34.79800
N  42.41300 39.56400 27.09300
C  42.63000 38.77000 28.13700
C  43.22900 37.59000 27.71000
C  43.15500 37.53200 26.28100
C  42.58900 38.82600 25.92800
C  43.63500 36.48300 28.63400
C  43.53600 36.37400 25.33600
O  43.43500 36.41200 24.12200
C  44.36700 35.20900 25.84800
N  41.59000 41.58200 24.98000
C  41.89800 40.52900 24.18800
C  41.78900 40.96200 22.66900
C  41.12500 42.36000 22.71000
C  41.14000 42.69100 24.20300
C  43.20300 40.94100 22.00900
C  39.68300 42.38100 22.08700
C  38.54000 41.49700 22.81300
N  41.27300 43.43500 27.06200
C  41.01100 44.38400 26.06200
C  40.83200 45.68800 26.60700
C  40.82100 45.47600 28.00800
C  41.15000 44.14000 28.23800
C  40.66600 46.91000 25.86300
C  40.57600 46.18000 29.24400
O  40.20200 47.31900 29.41000
C  40.73500 45.09400 30.37400
C  41.69500 45.61300 31.47500
O  42.93100 45.63200 31.33400
O  41.01800 46.15600 32.55100
C  41.84800 46.62100 33.60600
H  42.60300 38.41900 30.25600
H  42.51400 38.47200 23.90900
H  40.70500 44.82400 24.06900
H  41.90900 43.01800 32.06500
H  41.36200 39.96400 32.09500
H  43.59300 41.33000 32.92000
H  44.25700 40.64800 31.44800
H  43.53000 39.56200 32.64900
H  39.70000 41.21700 32.60600
H  39.21500 42.44400 31.46200
H  39.07700 43.86200 33.24100
H  40.67500 43.39300 33.88100
H  44.54800 35.94900 28.36900
H  42.92000 35.66900 28.75800
H  43.92100 36.88900 29.60400
H  45.30500 35.61800 26.22100
H  44.54000 34.45900 25.07500
H  43.80800 34.81700 26.69800
H  41.10800 40.23100 22.23400
H  41.78700 42.98600 22.11200
H  43.65300 41.91700 21.82500
H  43.06800 40.49900 21.02200
H  43.95900 40.36000 22.53700
H  39.72300 42.07500 21.04200
H  39.37900 43.42800 22.07100
H  38.03700 40.88800 22.06200
H  37.79100 42.20100 23.17500
H  38.90600 40.80900 23.57500
H  41.31100 46.76000 24.99700
H  40.82400 47.83800 26.41200
H  39.60200 46.82400 25.64300
H  39.78100 45.10100 30.90200
H  42.86800 46.85800 33.30100
H  41.85200 46.06800 34.54500
H  41.38100 47.59600 33.74200

