158

Mg 24.43500 -5.20500 45.88400
C  26.87800 -3.42000 44.27800
C  22.12500 -3.99800 43.84800
C  22.29200 -7.69800 46.89600
C  27.01500 -6.96700 47.65200
N  24.56400 -3.96700 44.25100
C  25.61500 -3.21800 43.79800
C  25.15600 -2.29000 42.70000
C  23.60400 -2.26200 42.84700
C  23.42600 -3.48300 43.69200
C  22.87000 -1.13400 43.55600
C  25.69400 -2.69000 41.31500
C  26.18100 -1.50400 40.50500
H  27.01200 -1.75300 39.14800
N  22.45000 -5.77200 45.45300
C  21.62400 -5.04400 44.62400
C  20.30200 -5.65900 44.64600
C  20.34900 -6.84900 45.48200
C  21.76100 -6.78200 46.04000
C  19.17100 -5.11900 43.72800
C  19.21400 -7.72800 45.77400
O  18.09300 -7.48800 45.26200
C  19.23100 -8.70300 46.86400
N  24.67700 -7.01000 47.26000
C  23.63900 -7.87300 47.40400
C  24.13100 -9.14600 48.09100
C  25.42000 -8.62400 48.77400
C  25.72100 -7.45500 47.88500
C  23.22900 -9.90300 49.05300
C  26.52700 -9.78600 48.86300
C  27.06300 -10.03400 50.32100
N  26.57900 -5.24400 45.97000
C  27.47200 -5.92600 46.78800
C  28.79000 -5.36400 46.65800
C  28.70800 -4.43400 45.57600
C  27.31800 -4.37100 45.26900
C  30.03600 -5.63400 47.34300
C  29.41900 -3.49100 44.82500
O  30.61500 -3.17300 44.92200
C  28.31300 -2.72400 43.90200
C  28.28300 -1.28600 44.39800
O  28.16400 -0.93000 45.56500
O  28.36000 -0.42500 43.37200
C  28.11400 1.01600 43.80400
H  21.32800 -3.40700 43.39100
H  21.66100 -8.58200 47.01200
H  27.92900 -7.44300 48.01300
H  25.54000 -1.28300 42.86200
H  23.04300 -2.43600 41.92900
H  23.54500 -0.41800 44.02400
H  22.22000 -1.54200 44.33000
H  22.22900 -0.64200 42.82500
H  24.90100 -3.24900 40.81900
H  26.51100 -3.40000 41.43700
H  26.73700 -0.76300 41.07900
H  25.24100 -1.08700 40.14500
H  18.40400 -4.63100 44.32900
H  18.68600 -5.87300 43.10900
H  19.46600 -4.39600 42.96700
H  18.21400 -8.92600 47.18700
H  19.67900 -8.18300 47.71100
H  19.85100 -9.55300 46.57800
H  24.36500 -9.78500 47.23900
H  25.31100 -8.16700 49.75800
H  22.37700 -9.25000 49.24000
H  23.93200 -9.99800 49.88100
H  22.89300 -10.83900 48.60700
H  27.42600 -9.44900 48.34700
H  26.15900 -10.71600 48.42900
H  26.67000 -9.27200 50.99400
H  28.15200 -10.00500 50.37300
H  26.72800 -11.03300 50.59800
H  29.79700 -5.61000 48.40700
H  30.75700 -4.95600 46.88700
H  30.45400 -6.63900 47.30100
H  28.42600 -2.75200 42.81800
H  27.75600 1.56400 42.93300
H  28.94500 1.48700 44.32800
H  27.17500 1.10900 44.35000
Mg 34.57700 48.98600 26.25700
C  35.02000 46.62200 28.85000
C  33.85600 51.25300 28.62300
C  33.86600 50.96500 23.80000
C  34.89000 46.23500 24.01200
N  34.65500 48.99000 28.52700
C  34.78700 47.90700 29.31400
C  34.76800 48.36400 30.81200
C  34.20400 49.79100 30.77300
C  34.25900 50.05200 29.19900
C  32.78800 49.93700 31.27100
C  36.17700 48.27200 31.43100
C  36.15000 47.78800 32.89000
H  36.06800 48.87300 33.94300
N  34.00500 50.89700 26.18200
C  33.83000 51.71900 27.24000
C  33.61800 53.09500 26.83400
C  33.58000 53.02800 25.36900
C  33.83500 51.59100 25.06000
C  33.36400 54.28600 27.74400
C  33.20400 54.08800 24.40800
O  33.22100 53.85800 23.21100
C  32.81500 55.45000 24.82000
N  34.27100 48.57600 24.24500
C  34.09300 49.62400 23.42200
C  33.89600 49.16100 21.97800
C  34.31000 47.65900 22.04500
C  34.59000 47.50500 23.52000
C  32.43800 49.27600 21.38100
C  35.55500 47.41500 21.18000
C  36.98100 48.09300 21.41500
N  34.93200 46.89500 26.36000
C  35.00800 45.94200 25.34000
C  35.39200 44.66700 25.90500
C  35.40300 44.90500 27.34500
C  35.10300 46.25400 27.58400
C  35.59100 43.49300 25.03800
C  35.57500 44.24100 28.57500
O  35.77600 43.04700 28.91400
C  35.40900 45.41300 29.63000
C  34.37600 45.07100 30.65600
O  33.16900 45.01300 30.49700
O  35.00000 44.68000 31.84800
C  34.01300 44.28200 32.84300
H  33.78000 52.10100 29.30600
H  33.70200 51.63900 22.95700
H  34.95500 45.36900 23.35100
H  34.04700 47.73100 31.33000
H  34.97800 50.37900 31.26600
H  32.47600 49.06800 31.84900
H  31.97500 50.05800 30.55500
H  32.63800 50.81800 31.89600
H  36.60000 49.27500 31.38100
H  36.86000 47.61900 30.88900
H  37.10700 47.28700 33.03900
H  35.35100 47.07600 33.09800
H  32.38000 54.68900 27.50100
H  34.03600 55.11300 27.51000
H  33.26900 54.12900 28.81800
H  31.91200 55.58700 25.41500
H  32.65200 56.03700 23.91600
H  33.67100 55.84200 25.36900
H  34.64800 49.76500 21.47100
H  33.46100 47.00200 21.85500
H  32.07500 48.27500 21.14600
H  32.52400 49.87300 20.47400
H  31.79700 49.73900 22.13100
H  35.32400 47.60100 20.13100
H  35.76900 46.35300 21.29200
H  37.36700 48.46700 20.46700
H  37.62500 47.27600 21.74200
H  36.96100 48.82500 22.22200
H  34.74500 43.22700 24.40500
H  35.75100 42.69700 25.76500
H  36.56300 43.60800 24.55700
H  36.40800 45.49600 30.05900
H  33.62700 45.13900 33.39500
H  34.35600 43.61200 33.63100
H  33.21500 43.67200 32.41800

