158

Mg 25.76200 0.04500 28.99100
C  27.65600 -0.51200 32.00600
C  23.15800 0.89500 31.03200
C  23.92400 0.24300 26.33700
C  28.53800 -0.90000 27.15400
N  25.43600 0.05000 31.31400
C  26.37600 -0.09800 32.23300
C  25.83800 0.20800 33.58100
C  24.30700 0.41600 33.32400
C  24.27600 0.49200 31.80000
C  23.30900 -0.70200 33.89000
C  26.53900 1.49200 34.28700
C  27.01500 1.26700 35.71400
H  26.70100 2.39600 36.70100
N  23.78400 0.51800 28.76700
C  22.85600 0.83000 29.68300
C  21.55000 1.04600 29.04200
C  21.78100 0.78400 27.65900
C  23.26800 0.54100 27.53100
C  20.30600 1.35600 29.86300
C  20.75400 0.89300 26.49600
O  21.06900 0.78900 25.28000
C  19.30500 0.97300 26.90100
N  26.17400 -0.45300 27.03400
C  25.26600 -0.10600 26.07200
C  25.82400 -0.25100 24.63100
C  27.32200 -0.50800 24.86200
C  27.34600 -0.66100 26.44300
C  25.09000 -1.32300 23.81100
C  28.34200 0.48900 24.31300
C  28.64400 1.66700 25.25200
N  27.69300 -0.56700 29.41500
C  28.70900 -0.97500 28.55800
C  29.89400 -1.26100 29.34700
C  29.48000 -1.11200 30.67300
C  28.15100 -0.68700 30.71900
C  31.21600 -1.67400 28.83300
C  30.01400 -1.19500 32.03300
O  31.11000 -1.57300 32.47200
C  28.83700 -0.67600 32.95000
C  28.58900 -1.80400 33.84300
O  28.01400 -2.82900 33.62500
O  29.20600 -1.47100 35.04300
C  28.98700 -2.44400 36.19100
H  22.36700 1.40200 31.58700
H  23.38500 0.49200 25.42000
H  29.48500 -1.09000 26.64400
H  25.99000 -0.57900 34.31900
H  23.92500 1.33600 33.76600
H  22.77300 -1.16400 33.06100
H  22.65200 -0.18300 34.58800
H  23.82600 -1.46100 34.47700
H  25.84100 2.32600 34.21400
H  27.38500 1.70800 33.63400
H  28.09700 1.13600 35.71800
H  26.61900 0.28700 35.97800
H  19.63100 0.50600 29.76100
H  19.75300 2.22200 29.49800
H  20.43000 1.57700 30.92300
H  18.96900 1.91100 27.34300
H  19.16000 0.10700 27.54800
H  18.69700 0.70000 26.03900
H  25.88500 0.68100 24.06800
H  27.64600 -1.42200 24.36500
H  25.81700 -1.96500 23.31300
H  24.52600 -0.82500 23.02200
H  24.44600 -1.89400 24.48000
H  27.91600 0.81300 23.36400
H  29.24000 -0.02400 23.96800
H  27.96100 1.65900 26.10100
H  28.46900 2.60800 24.73100
H  29.66800 1.63700 25.62500
H  31.55200 -0.87800 28.17000
H  31.09100 -2.55400 28.20300
H  31.91800 -1.91500 29.63200
H  29.10400 0.23600 33.48500
H  28.18200 -2.19700 36.88300
H  29.90800 -2.30800 36.75800
H  28.82500 -3.46400 35.84200
Mg -1.98100 34.33200 26.32400
C  -3.16400 32.41900 29.06900
C  -0.70800 36.49200 28.56400
C  -1.47200 36.18000 23.62900
C  -3.42400 31.90100 24.24700
N  -2.04200 34.47500 28.61900
C  -2.45900 33.47500 29.48500
C  -2.15000 33.89500 30.97700
C  -1.31400 35.22100 30.72600
C  -1.42800 35.47000 29.18500
C  -1.81900 36.49500 31.50700
C  -1.39100 32.74900 31.78200
C  -2.17000 32.12900 32.99500
H  -1.42200 32.36600 34.40000
N  -1.20900 36.02000 26.11700
C  -0.69200 36.85400 27.15000
C  -0.07700 37.99500 26.58800
C  -0.25700 37.90100 25.15400
C  -1.05400 36.66900 24.90600
C  0.59300 39.09700 27.29800
C  0.28700 38.81000 24.06800
O  0.22000 38.57600 22.86600
C  1.12500 39.99200 24.42700
N  -2.40500 34.09400 24.28400
C  -2.07200 34.98100 23.28200
C  -2.58800 34.62500 21.92400
C  -3.06700 33.22200 22.14600
C  -2.91400 33.03000 23.67800
C  -3.53100 35.49000 21.10500
C  -2.27600 32.14400 21.33400
C  -0.81300 31.83500 21.68900
N  -3.07600 32.51500 26.52500
C  -3.65500 31.68600 25.61900
C  -4.43600 30.64800 26.26500
C  -4.20600 30.85700 27.60300
C  -3.38800 32.02500 27.73000
C  -5.24700 29.58500 25.59000
C  -4.62500 30.39800 28.85300
O  -5.43000 29.53000 29.16200
C  -4.00800 31.42600 29.85600
C  -5.02500 32.20200 30.51900
O  -5.47500 33.24900 30.23000
O  -5.30000 31.56100 31.66500
C  -5.98800 32.37600 32.69500
H  -0.22600 37.17300 29.26900
H  -1.43800 36.83600 22.75700
H  -3.93100 31.20500 23.57600
H  -3.12100 34.22900 31.34500
H  -0.28700 35.06700 31.05600
H  -1.03900 36.99800 32.07900
H  -2.55500 36.14300 32.23000
H  -2.45700 37.11200 30.87500
H  -0.41000 33.10000 32.10200
H  -1.07700 31.89500 31.18200
H  -2.24500 31.05200 32.84700
H  -3.16800 32.56700 32.97600
H  0.65600 38.99800 28.38100
H  0.08500 40.05200 27.15900
H  1.61800 39.14000 26.93100
H  2.10700 39.63100 24.73300
H  0.77500 40.66500 25.21000
H  1.27300 40.64300 23.56600
H  -1.67100 34.58700 21.33500
H  -4.12100 33.17800 21.87000
H  -4.26900 34.83200 20.64400
H  -3.03100 36.01700 20.29200
H  -4.00700 36.24000 21.73700
H  -2.27000 32.44800 20.28800
H  -2.86900 31.23000 21.33300
H  -0.35800 32.31800 22.55300
H  -0.25800 31.96200 20.75900
H  -0.88300 30.76400 21.87900
H  -5.43800 28.71400 26.21600
H  -4.72200 29.25600 24.69300
H  -6.26100 29.93800 25.40400
H  -3.37700 30.86600 30.54500
H  -6.89500 32.74700 32.21600
H  -5.39400 33.21700 33.05300
H  -6.25600 31.73000 33.53100

