158

Mg 44.99100 4.60600 47.18700
C  43.25400 7.63900 46.72200
C  42.00800 3.00500 46.41900
C  46.78700 1.80300 46.85800
C  47.93400 6.54300 47.06400
N  42.85400 5.30000 46.55200
C  42.38600 6.55700 46.61400
C  40.88400 6.60700 46.32100
C  40.50400 5.09400 46.33600
C  41.84500 4.40100 46.43200
C  39.54900 4.58200 47.40900
C  40.41700 7.54900 45.18900
C  41.13500 7.70200 43.84800
H  40.30300 7.32800 42.60100
N  44.44200 2.68800 46.78500
C  43.15800 2.18000 46.55800
C  43.20800 0.78300 46.31400
C  44.61500 0.44500 46.47100
C  45.30900 1.69800 46.74400
C  42.07600 -0.04600 45.73300
C  45.15200 -0.97500 46.21900
O  44.39900 -1.89700 46.02700
C  46.67500 -1.29600 46.24700
N  47.09400 4.25700 46.85400
C  47.55300 2.94300 47.05500
C  49.10200 2.88600 47.09300
C  49.43100 4.35800 47.02700
C  48.06600 5.12100 46.93100
C  49.58400 2.08100 48.38500
C  50.38500 4.86800 45.86600
C  51.56800 5.89600 46.17300
N  45.53900 6.70300 47.08700
C  46.75200 7.31000 47.12300
C  46.59400 8.79400 47.21100
C  45.22100 8.95300 47.08000
C  44.62000 7.63400 46.91800
C  47.72900 9.84500 47.23600
C  44.16900 9.92200 46.91300
O  44.23900 11.15600 46.99800
C  42.92200 9.09900 46.67700
C  41.96400 9.39300 47.76600
O  41.72400 8.68200 48.75000
O  41.33700 10.51200 47.47800
C  39.94400 10.41100 47.96100
H  41.07800 2.47000 46.22200
H  47.41600 0.91500 46.94300
H  48.83400 7.14800 47.19100
H  40.43600 7.12000 47.17200
H  40.17500 4.80100 45.33900
H  38.81500 5.27500 47.81900
H  40.16900 4.30600 48.26200
H  38.92800 3.73000 47.13400
H  40.22400 8.56800 45.52200
H  39.44700 7.20700 44.82900
H  42.07200 7.14600 43.79900
H  41.29500 8.77400 43.73100
H  42.38300 -0.50900 44.79500
H  41.20300 0.58900 45.58700
H  41.96900 -0.89200 46.41200
H  46.72700 -2.37600 46.11100
H  47.02600 -1.01600 47.24000
H  47.30000 -0.75100 45.53900
H  49.31300 2.42300 46.12900
H  49.86300 4.74900 47.94800
H  49.37300 1.01200 48.39900
H  49.14200 2.57800 49.24900
H  50.65200 2.26100 48.50500
H  49.83600 5.22200 44.99400
H  50.90900 3.98100 45.51100
H  51.38800 6.75100 45.52200
H  52.52700 5.48700 45.85600
H  51.50400 6.30400 47.18200
H  48.12500 10.19500 46.28300
H  48.46000 9.16000 47.66700
H  47.70600 10.64700 47.97300
H  42.41300 9.41600 45.76700
H  39.37900 11.25300 47.56000
H  39.84100 10.32100 49.04300
H  39.40300 9.56100 47.54600
Mg -1.76800 34.45100 27.24100
C  -3.39600 32.42400 29.58400
C  -0.30000 36.21000 29.78800
C  -0.61600 36.60100 25.04700
C  -3.61700 32.76900 24.74300
N  -2.02600 34.46600 29.34800
C  -2.69100 33.55100 30.13500
C  -2.54600 33.84500 31.61100
C  -1.71400 35.16400 31.68800
C  -1.36600 35.34100 30.21900
C  -2.54400 36.34500 32.26600
C  -1.80200 32.58900 32.32200
C  -2.57500 31.99600 33.53300
H  -1.80400 31.81900 34.75300
N  -0.58500 36.20700 27.33000
C  -0.04900 36.76700 28.51300
C  0.89500 37.79400 28.14100
C  0.80100 37.95000 26.70400
C  -0.10900 36.89900 26.32200
C  1.86500 38.47700 29.04200
C  1.64400 38.74500 25.79700
O  1.61400 38.65800 24.54200
C  2.62100 39.68900 26.36900
N  -2.21300 34.73400 25.23300
C  -1.58400 35.68700 24.49600
C  -2.00100 35.73700 23.00400
C  -2.78200 34.34400 22.90900
C  -2.91200 33.90100 24.38100
C  -2.84500 37.04300 22.68900
C  -2.01200 33.26000 22.04800
C  -2.81200 32.40500 21.08400
N  -3.16700 32.86800 27.02300
C  -3.78000 32.25100 25.97100
C  -4.52500 31.11100 26.40100
C  -4.40500 31.15200 27.82600
C  -3.59300 32.24700 28.13100
C  -5.15100 30.00000 25.56300
C  -4.75500 30.50300 29.04200
O  -5.36500 29.43300 29.24200
C  -4.19600 31.38300 30.25500
C  -5.28300 31.90800 31.13800
O  -5.95200 32.89600 30.95400
O  -5.47100 31.06100 32.20800
C  -6.32400 31.55000 33.22800
H  0.31800 36.75300 30.50600
H  -0.09200 37.31500 24.40900
H  -4.18500 32.18000 24.01900
H  -3.55400 33.89900 32.02200
H  -0.78200 34.96300 32.21500
H  -2.09600 36.53500 33.24100
H  -3.57500 36.08700 32.51200
H  -2.44100 37.21800 31.62200
H  -0.83000 32.93000 32.67600
H  -1.73900 31.80800 31.56400
H  -2.81900 30.98500 33.20500
H  -3.49700 32.57100 33.62400
H  2.90900 38.41500 28.73300
H  1.65500 38.19200 30.07300
H  1.65600 39.54600 29.00600
H  2.72400 40.53100 25.68500
H  3.55900 39.21400 26.65800
H  2.26700 40.28400 27.21100
H  -1.18900 35.74300 22.27600
H  -3.76800 34.49500 22.46900
H  -2.30400 37.72500 22.03300
H  -3.05600 37.42600 23.68700
H  -3.81900 36.81700 22.25600
H  -1.43200 32.67400 22.76100
H  -1.28200 33.71900 21.38200
H  -2.31200 32.28500 20.12300
H  -3.78100 32.88800 20.95900
H  -2.93800 31.41400 21.52000
H  -6.02300 30.24900 24.95800
H  -5.47400 29.20100 26.23100
H  -4.32000 29.52200 25.04500
H  -3.59800 30.66100 30.81100
H  -6.30600 32.61000 33.48100
H  -6.13600 30.87000 34.05800
H  -7.33100 31.37500 32.85000

