158

Mg 9.43300 3.90100 27.92100
C  10.90200 2.40600 30.73600
C  7.36100 5.64100 30.05800
C  7.75300 5.08100 25.32000
C  11.16000 1.78000 25.82000
N  9.17400 3.92300 30.20000
C  9.87600 3.31700 31.09100
C  9.59700 3.88200 32.45800
C  8.22100 4.65600 32.25200
C  8.20100 4.72400 30.72100
C  6.94700 4.14200 32.99400
C  10.78700 4.74900 33.15500
C  11.33900 4.10500 34.41400
H  11.64500 5.04000 35.61000
N  7.95600 5.31000 27.75300
C  7.22300 5.92000 28.73000
C  6.32500 6.86100 28.13900
C  6.51100 6.84700 26.76000
C  7.46100 5.69200 26.57200
C  5.46900 7.75100 28.94800
C  5.87300 7.70400 25.65700
O  6.11200 7.44400 24.45400
C  4.98900 8.86000 25.91400
N  9.40300 3.38200 25.76400
C  8.61800 4.06700 24.88900
C  8.79800 3.58900 23.41000
C  9.93900 2.55300 23.61200
C  10.20000 2.58200 25.10600
C  7.47400 2.93400 22.82500
C  11.18300 2.73400 22.69400
C  11.91900 1.45500 22.12500
N  10.80000 2.33500 28.18500
C  11.52100 1.60200 27.20600
C  12.38900 0.73700 27.87700
C  12.23800 1.07200 29.28400
C  11.20300 2.03500 29.39700
C  13.20800 -0.34700 27.16600
C  12.75300 0.75600 30.58300
O  13.53500 -0.06300 30.95500
C  11.92000 1.70100 31.57900
C  11.26000 0.79600 32.58000
O  10.16500 0.30100 32.37500
O  11.98700 0.67400 33.71700
C  11.43100 -0.06400 34.85500
H  6.72200 6.24800 30.70300
H  7.26800 5.53800 24.45500
H  11.82500 1.12300 25.25600
H  9.36800 3.00200 33.05800
H  8.28700 5.63600 32.72500
H  6.16500 3.76100 32.33800
H  6.43000 5.00100 33.42200
H  7.09700 3.32600 33.70100
H  10.38700 5.73500 33.39400
H  11.55200 4.68900 32.38100
H  12.28100 3.60100 34.19600
H  10.78200 3.25500 34.80700
H  5.40800 7.51900 30.01200
H  4.51300 7.70600 28.42600
H  5.93400 8.73500 28.87400
H  5.40700 9.55300 26.64300
H  4.11800 8.44000 26.41600
H  4.61900 9.34400 25.01000
H  9.13400 4.40600 22.77100
H  9.63800 1.52300 23.42100
H  6.60400 3.40300 23.28500
H  7.55900 1.85100 22.90700
H  7.33700 3.32500 21.81600
H  11.91600 3.22200 23.33600
H  10.88300 3.30000 21.81200
H  11.29200 1.00700 21.35400
H  12.03400 0.64600 22.84700
H  12.86200 1.82200 21.72000
H  12.53600 -1.19400 27.02600
H  14.15700 -0.65200 27.60500
H  13.47200 0.12800 26.22100
H  12.61100 2.40900 32.03800
H  11.05400 0.64600 35.59100
H  12.28900 -0.54700 35.32200
H  10.71200 -0.87600 34.75200
Mg 40.85200 9.02200 28.74800
C  42.12300 9.99300 31.87300
C  38.50000 7.07700 30.50400
C  39.79000 7.65700 25.76900
C  43.51900 10.50200 27.20200
N  40.29700 8.68100 30.93500
C  40.97800 9.20000 32.00400
C  40.31400 8.78700 33.35600
C  39.18200 7.74000 32.95200
C  39.17100 7.90700 31.34000
C  39.32200 6.28700 33.47700
C  39.76800 9.95200 34.20400
C  40.25900 9.98700 35.68300
H  40.51600 11.33400 36.37700
N  39.24900 7.62700 28.23400
C  38.41500 7.01100 29.07100
C  37.50800 6.17200 28.27500
C  37.90400 6.31100 26.89000
C  39.03700 7.18500 26.90900
C  36.39400 5.30100 28.89800
C  37.24600 5.75500 25.68000
O  37.69100 5.95000 24.51700
C  36.06400 4.79100 25.72800
N  41.56500 9.00800 26.85000
C  40.90300 8.45500 25.73700
C  41.56800 8.91400 24.40800
C  42.69100 9.85300 24.87000
C  42.55600 9.84100 26.40000
C  42.07200 7.66900 23.60000
C  42.65400 11.26900 24.26200
C  41.30900 11.99700 24.20800
N  42.50800 10.07700 29.29400
C  43.54800 10.56000 28.59000
C  44.48500 11.21100 29.48900
C  43.97100 11.05700 30.77400
C  42.80100 10.32300 30.65400
C  45.72100 11.85200 29.07200
C  44.10600 11.35600 32.10300
O  45.02200 12.02700 32.57800
C  42.98700 10.66600 32.94400
C  43.81500 9.73800 33.84200
O  44.21000 8.64800 33.48400
O  44.03900 10.31300 35.08600
C  45.01000 9.59600 35.95400
H  37.69600 6.56300 31.03400
H  39.35400 7.36400 24.81200
H  44.30200 11.07700 26.70300
H  41.04800 8.17200 33.87600
H  38.22500 8.12700 33.30200
H  38.93400 5.59000 32.73400
H  38.61500 6.27000 34.30600
H  40.38000 6.16800 33.71300
H  38.68100 9.88500 34.19200
H  39.92900 10.90600 33.70200
H  41.06000 9.27200 35.86900
H  39.50100 9.48700 36.28700
H  35.41500 5.61400 28.53600
H  36.41800 5.32600 29.98700
H  36.48700 4.25700 28.59800
H  36.25200 3.94900 26.39300
H  35.85000 4.54900 24.68800
H  35.19800 5.35100 26.08200
H  40.69300 9.17100 23.81100
H  43.62400 9.32700 24.66300
H  42.87500 7.98200 22.93200
H  41.33400 7.16000 22.98000
H  42.34700 6.90300 24.32500
H  43.15600 11.20200 23.29700
H  43.24400 11.85500 24.96800
H  40.57300 11.62700 24.92100
H  40.83000 11.92200 23.23200
H  41.46400 13.05700 24.41000
H  45.59600 12.37500 28.12400
H  46.55400 11.15500 28.97100
H  45.92500 12.56000 29.87500
H  42.43700 11.40200 33.53000
H  44.67600 8.62000 36.30700
H  45.30900 10.26200 36.76300
H  45.86500 9.29100 35.35000

