158

Mg -9.78000 17.10500 41.57800
C  -6.28700 17.02900 41.27900
C  -9.65400 20.50600 40.79800
C  -13.07600 16.91600 40.95700
C  -9.70900 13.60500 41.84700
N  -8.04900 18.56400 41.08300
C  -6.67600 18.32500 41.05700
C  -5.93900 19.61600 40.55800
C  -7.05200 20.68300 40.90600
C  -8.37000 19.90900 40.88300
C  -6.77200 21.42600 42.22400
C  -5.72600 19.44800 38.95900
C  -4.30600 19.44800 38.50600
H  -3.78800 18.10000 37.97600
N  -11.21800 18.57800 40.99000
C  -11.00700 19.91300 40.72900
C  -12.30400 20.49600 40.45800
C  -13.27700 19.47400 40.25300
C  -12.55700 18.21500 40.72200
C  -12.42600 21.93000 40.33100
C  -14.79200 19.69000 39.88300
O  -15.14500 20.83500 39.61100
C  -15.87500 18.56400 39.87600
N  -11.23700 15.52100 41.34500
C  -12.54700 15.68100 41.22800
C  -13.27500 14.43100 41.53600
C  -12.20200 13.30600 41.27400
C  -10.96700 14.16600 41.56300
C  -13.84600 14.43200 42.95500
C  -12.21800 12.60200 39.86400
C  -12.76900 13.42700 38.64800
N  -8.30300 15.56000 41.59800
C  -8.40500 14.16000 41.79300
C  -7.12000 13.62700 42.00400
C  -6.21600 14.71400 41.77000
C  -7.03000 15.86000 41.55000
C  -6.84500 12.11600 42.15400
C  -4.83100 15.03200 41.61000
O  -3.78500 14.35900 41.63300
C  -4.91900 16.54300 41.45800
C  -4.16000 17.23800 42.50400
O  -4.65100 18.06600 43.28100
O  -2.81400 16.88100 42.43900
C  -2.09500 17.61800 43.49400
H  -9.53100 21.58000 40.64100
H  -14.16300 16.81900 40.92700
H  -9.64800 12.52000 41.95700
H  -5.03500 19.77000 41.14800
H  -7.10400 21.37200 40.06400
H  -7.15600 21.01500 43.15800
H  -7.16200 22.43700 42.11000
H  -5.69100 21.45100 42.36100
H  -6.26200 20.17900 38.35500
H  -6.27200 18.53200 38.73000
H  -3.71800 19.85900 39.32600
H  -4.22000 20.20700 37.72900
H  -13.28100 22.23900 39.73100
H  -11.52900 22.40500 39.93400
H  -12.70100 22.39300 41.27900
H  -16.78100 19.09700 39.58800
H  -15.97500 18.12200 40.86700
H  -15.66400 17.80900 39.11800
H  -14.12900 14.33800 40.86600
H  -12.24300 12.57300 42.07900
H  -13.55400 15.34900 43.46700
H  -13.62100 13.53200 43.52700
H  -14.92900 14.38300 42.84300
H  -12.74600 11.65300 39.95900
H  -11.15500 12.44600 39.67900
H  -13.50300 14.21200 38.82600
H  -13.31800 12.72600 38.01900
H  -11.92600 13.86800 38.11600
H  -7.75300 11.55200 41.94200
H  -6.56800 11.85500 43.17600
H  -6.06200 11.77200 41.47800
H  -4.29400 16.75100 40.59000
H  -1.88200 18.64600 43.20200
H  -1.12500 17.12300 43.53900
H  -2.56800 17.61900 44.47500
Mg -5.27700 25.79700 26.41700
C  -3.94000 27.48200 29.26000
C  -7.30200 23.93100 28.46700
C  -5.95400 24.10300 23.70000
C  -2.96700 27.68000 24.34900
N  -5.59800 25.67300 28.62600
C  -4.96300 26.49600 29.61700
C  -5.54700 26.14900 31.05000
C  -6.54800 24.97700 30.74100
C  -6.47700 24.86900 29.22700
C  -6.31700 23.62300 31.50100
C  -6.12900 27.42800 31.66700
C  -5.72400 27.77000 33.08000
H  -5.55800 26.59700 33.94900
N  -6.46800 24.28400 26.11900
C  -7.22200 23.64800 27.08300
C  -7.95100 22.59300 26.46100
C  -7.51200 22.54200 25.11100
C  -6.57400 23.65600 24.90200
C  -8.80600 21.63500 27.26400
C  -7.73900 21.56000 23.99100
O  -7.18800 21.58300 22.92600
C  -8.64800 20.41300 24.18900
N  -4.76100 26.17000 24.24500
C  -5.20200 25.20700 23.33100
C  -4.59900 25.47300 21.89100
C  -3.74300 26.73300 22.17500
C  -3.85200 26.90700 23.67000
C  -3.64000 24.30300 21.38200
C  -4.31200 28.12800 21.60100
C  -3.51500 28.57300 20.43300
N  -3.80900 27.27700 26.69900
C  -3.01500 27.90800 25.76000
C  -2.16100 28.82900 26.46200
C  -2.47300 28.77300 27.89200
C  -3.46500 27.72900 27.96200
C  -1.17300 29.69500 25.83900
C  -2.18400 29.18800 29.18100
O  -1.39500 30.07400 29.53100
C  -3.06800 28.39200 30.12200
C  -2.14100 27.61500 30.98700
O  -1.33700 26.76000 30.63700
O  -2.39300 27.84200 32.32900
C  -1.56000 27.32300 33.38900
H  -7.91900 23.32800 29.13500
H  -6.25200 23.52000 22.82600
H  -2.14300 28.16700 23.82300
H  -4.71000 25.65600 31.54500
H  -7.55200 25.34600 30.94800
H  -6.15400 22.90400 30.69800
H  -7.17200 23.33100 32.11100
H  -5.55700 23.61800 32.28300
H  -7.21800 27.42000 31.69100
H  -5.87900 28.26200 31.01200
H  -6.51500 28.45800 33.38000
H  -4.88600 28.46500 33.13500
H  -8.32800 21.11100 28.09200
H  -9.30700 20.88900 26.64700
H  -9.54400 22.26500 27.75900
H  -8.53200 19.91300 23.22700
H  -9.66500 20.78400 24.31700
H  -8.32500 19.69200 24.94000
H  -5.38400 25.68300 21.16500
H  -2.71000 26.57800 21.86500
H  -2.71400 24.57800 20.87600
H  -4.31300 23.78300 20.70100
H  -3.40500 23.65200 22.22400
H  -4.17000 28.86100 22.39500
H  -5.35300 28.09000 21.28100
H  -4.01400 28.35300 19.49000
H  -2.54400 28.07800 20.41800
H  -3.50600 29.64900 20.60200
H  -0.51700 29.11700 25.18900
H  -0.62300 30.23400 26.61000
H  -1.74000 30.40800 25.24100
H  -3.58500 29.11000 30.75900
H  -0.54500 27.38900 32.99500
H  -1.84600 26.27700 33.49700
H  -1.59100 27.91900 34.30200

