158

Mg 30.56300 58.58900 41.31000
C  27.96400 56.59300 40.25400
C  32.80000 56.11800 40.31700
C  33.25300 60.76800 41.54600
C  28.33400 61.27300 41.40500
N  30.40500 56.64700 40.37900
C  29.23300 56.04700 40.16800
C  29.42200 54.75100 39.42100
C  30.84900 54.39100 39.91300
C  31.46000 55.78700 40.10000
C  31.13000 53.40000 41.12300
C  29.30200 54.76700 37.81800
C  28.24100 53.84800 37.07500
H  27.44600 54.58400 35.95700
N  32.75300 58.42200 41.08500
C  33.40500 57.27500 40.74200
C  34.83500 57.52500 40.77700
C  35.03100 58.87300 41.15600
C  33.66300 59.43600 41.23800
C  35.85300 56.47500 40.36500
C  36.25700 59.65500 41.29700
O  37.33100 59.06200 41.12000
C  36.43000 61.05500 41.74900
N  30.78500 60.71200 41.37200
C  31.95800 61.32800 41.49900
C  31.74600 62.90700 41.73000
C  30.21900 63.01100 41.79000
C  29.73700 61.54400 41.54900
C  32.37000 63.43600 43.07200
C  29.67900 63.92200 40.65300
C  30.21200 65.34100 40.55000
N  28.50900 58.92300 41.04200
C  27.72600 60.03400 41.10200
C  26.35900 59.61600 40.95400
C  26.40700 58.28600 40.60900
C  27.74900 57.90600 40.62300
C  25.05600 60.41600 41.02500
C  25.62000 57.15100 40.27600
O  24.42600 57.08200 40.09200
C  26.58100 56.01900 40.06000
C  26.39500 54.81300 40.86900
O  26.63100 54.70100 42.06000
O  25.88400 53.78600 40.12600
C  25.56000 52.54100 40.87900
H  33.41100 55.25400 40.04800
H  33.98800 61.57300 41.60600
H  27.61800 62.05300 41.67000
H  28.69500 54.03900 39.81300
H  31.40300 53.96800 39.07500
H  31.70900 53.83800 41.93600
H  31.64600 52.57200 40.63600
H  30.17700 53.07500 41.54200
H  30.24800 54.49800 37.34800
H  29.05200 55.78400 37.51600
H  27.50100 53.56200 37.82300
H  28.88000 53.07900 36.64100
H  36.07800 56.58600 39.30400
H  35.59600 55.43100 40.54400
H  36.74800 56.65700 40.96100
H  35.80900 61.11200 42.64300
H  36.15000 61.75900 40.96600
H  37.41800 61.28200 42.15100
H  32.23400 63.29000 40.83400
H  29.77100 63.46800 42.67300
H  32.71400 62.58200 43.65600
H  31.75200 64.09400 43.68200
H  33.24000 64.07300 42.91400
H  28.59800 63.93700 40.79000
H  29.86600 63.58400 39.63400
H  30.73000 65.55100 39.61400
H  30.88100 65.45400 41.40300
H  29.41000 66.06900 40.67900
H  24.39100 60.02900 40.25300
H  25.23900 61.43000 40.66900
H  24.55900 60.34800 41.99200
H  26.58700 55.78700 38.99500
H  26.40800 51.85700 40.83400
H  24.67800 52.04300 40.47800
H  25.23400 52.69800 41.90700
Mg 16.54700 52.55600 26.80700
C  18.39100 50.71400 29.27200
C  14.34700 53.44100 29.19800
C  14.47900 53.43800 24.37100
C  18.83100 51.24200 24.38000
N  16.27300 51.81400 29.00800
C  17.24500 51.31100 29.79300
C  17.04400 51.64800 31.34300
C  15.60000 52.29200 31.22000
C  15.39500 52.56900 29.72700
C  14.51300 51.36300 31.84300
C  18.15400 52.49700 31.89800
C  18.82000 52.11500 33.22700
H  18.27200 52.64800 34.60700
N  14.70100 53.37900 26.74100
C  13.98300 53.76100 27.83100
C  12.77500 54.39100 27.35900
C  12.79000 54.44600 25.95100
C  14.04700 53.73900 25.61700
C  11.70500 54.90700 28.30300
C  11.80400 54.94300 24.93900
O  11.85600 54.65200 23.72000
C  10.62200 55.63400 25.41100
N  16.58600 52.23200 24.69700
C  15.66900 52.79700 23.88600
C  16.12000 52.89500 22.43700
C  17.55400 52.25300 22.50200
C  17.70200 51.84800 23.91400
C  15.10800 52.26600 21.40500
C  18.73400 53.19800 22.02100
C  19.17800 54.33400 23.00300
N  18.23900 51.17100 26.75600
C  19.03700 50.82400 25.72300
C  20.21900 50.16000 26.26400
C  20.01200 50.07500 27.66400
C  18.76700 50.65200 27.88600
C  21.41300 49.63600 25.44100
C  20.53900 49.63800 28.93600
O  21.63100 49.08500 29.12500
C  19.46800 50.13300 30.00100
C  18.90400 48.95500 30.76600
O  18.02000 48.20400 30.30800
O  19.47800 48.86300 31.93800
C  18.77400 48.02900 32.93000
H  13.76800 53.77900 30.06000
H  14.00400 54.02300 23.58100
H  19.71800 51.13700 23.75000
H  16.92000 50.75700 31.95800
H  15.60100 53.19500 31.83100
H  14.17400 51.90500 32.72600
H  14.77400 50.38200 32.24200
H  13.72700 51.23500 31.09900
H  17.79600 53.51100 32.07300
H  18.90500 52.60100 31.11400
H  19.87700 52.34800 33.09900
H  18.81100 51.03200 33.35400
H  11.53300 55.98100 28.23000
H  11.83500 54.60700 29.34300
H  10.71000 54.55900 28.02500
H  10.11000 54.88800 26.02000
H  10.01000 55.95300 24.56800
H  11.08800 56.42600 25.99600
H  16.38400 53.92300 22.18900
H  17.54100 51.28100 22.00800
H  15.11300 51.18200 21.51500
H  15.37500 52.68600 20.43500
H  14.18200 52.65500 21.82900
H  18.32000 53.70400 21.14900
H  19.61500 52.59000 21.81500
H  18.40700 55.10400 22.98500
H  20.08900 54.81200 22.64400
H  19.26100 53.90000 23.99900
H  22.16700 49.22900 26.11400
H  21.89000 50.40100 24.82900
H  21.12400 48.83100 24.76500
H  20.01000 50.74100 30.72500
H  18.66800 48.48700 33.91400
H  19.29700 47.09300 33.12400
H  17.71600 47.78600 32.83000

