158

Mg 35.49200 1.54900 29.58900
C  33.57700 3.03600 32.09400
C  38.24400 2.02000 31.63800
C  37.43400 0.75200 26.98600
C  32.74700 1.95000 27.47900
N  35.79300 2.22900 31.68900
C  34.82000 2.65500 32.56600
C  35.34900 2.88700 34.00500
C  36.90300 2.50800 33.80800
C  37.01500 2.29100 32.27100
C  37.93300 3.58900 34.34000
C  34.60800 1.99400 35.09900
C  34.06900 2.73400 36.30800
H  34.85500 3.97100 36.73700
N  37.50900 1.17800 29.36900
C  38.45500 1.45000 30.35800
C  39.80800 1.11500 29.79700
C  39.59000 0.68000 28.45200
C  38.15400 0.96700 28.22900
C  41.16000 1.13700 30.49300
C  40.58800 0.00400 27.44900
O  40.13900 -0.38900 26.31000
C  42.12500 -0.01000 27.65200
N  35.17000 1.42400 27.51200
C  36.08500 0.86400 26.66300
C  35.51300 0.76300 25.25300
C  33.93700 0.86300 25.52100
C  33.95400 1.39600 26.92400
C  35.98800 1.88100 24.17000
C  33.20400 -0.53700 25.39400
C  32.17000 -0.73500 24.23000
N  33.60800 2.42600 29.61600
C  32.61300 2.51600 28.71500
C  31.38400 3.18300 29.15200
C  31.76200 3.33900 30.50900
C  33.07000 2.90000 30.74700
C  30.13200 3.49300 28.34800
C  31.24900 3.92300 31.69900
O  30.17300 4.42100 31.86900
C  32.30500 3.60000 32.77000
C  32.54200 4.90200 33.47500
O  33.39000 5.66800 33.22300
O  31.52200 5.12600 34.35300
C  31.51400 6.39600 35.09600
H  39.14100 2.07900 32.25800
H  37.97300 0.27100 26.16700
H  31.92000 1.85600 26.77100
H  35.31000 3.95100 34.23900
H  37.18500 1.57100 34.28900
H  37.29600 4.37500 34.74600
H  38.52000 4.00200 33.52000
H  38.58000 3.09400 35.06400
H  35.16100 1.12500 35.45700
H  33.70600 1.58100 34.64800
H  33.90000 2.05400 37.14300
H  33.13300 3.17600 35.96700
H  41.80000 2.01000 30.36800
H  41.62900 0.17100 30.30400
H  41.04100 1.08700 31.57500
H  42.69900 0.33500 26.79200
H  42.47400 -0.97700 28.01400
H  42.42700 0.78500 28.33500
H  35.76400 -0.23300 24.88900
H  33.45200 1.58100 24.86000
H  35.24400 2.60600 23.84100
H  36.34000 1.37500 23.27200
H  36.85200 2.35200 24.63800
H  32.71400 -0.70500 26.35400
H  34.01300 -1.24900 25.23300
H  32.43200 -1.52700 23.52900
H  31.99900 0.13200 23.59100
H  31.19800 -0.97400 24.66100
H  30.39700 4.23200 27.59300
H  29.23600 3.72000 28.92500
H  29.86600 2.64700 27.71400
H  31.73200 2.91200 33.39100
H  32.35100 7.04400 34.83600
H  31.70800 6.23300 36.15600
H  30.63600 7.03500 35.00800
Mg 6.88200 53.17800 41.53200
C  6.05400 49.84400 41.14800
C  10.18300 52.35100 41.39500
C  7.85500 56.52000 41.44600
C  3.54400 54.13800 41.71800
N  7.95200 51.21900 41.12000
C  7.40100 49.98200 41.11500
C  8.59000 48.91200 41.13300
C  9.81800 49.76400 41.38000
C  9.33500 51.21800 41.31900
C  10.63600 49.50900 42.69300
C  8.76000 47.99900 39.86300
C  8.90500 48.71400 38.50700
H  7.85000 48.28500 37.45800
N  8.74500 54.30300 41.22400
C  9.94700 53.70800 41.20300
C  10.95100 54.76100 41.10400
C  10.30000 56.02900 41.23200
C  8.87300 55.64200 41.17800
C  12.40100 54.40200 41.02900
C  10.97500 57.37100 41.22300
O  12.19800 57.40000 41.16000
C  10.25100 58.59800 41.23000
N  5.84700 55.13400 41.43700
C  6.49700 56.34000 41.65600
C  5.48900 57.37200 41.99700
C  4.15800 56.58700 41.93200
C  4.52900 55.10700 41.64800
C  5.71400 58.09900 43.38000
C  3.06000 57.09200 40.92000
C  1.71400 57.41200 41.60800
N  5.11600 52.23900 41.60200
C  3.86900 52.75700 41.65300
C  2.96700 51.62400 41.71100
C  3.77200 50.48600 41.47200
C  5.11100 50.86300 41.37100
C  1.47300 51.58300 41.91900
C  3.66200 49.05000 41.26200
O  2.60900 48.42000 41.13200
C  5.12700 48.50900 41.16300
C  5.33100 47.71500 39.97400
O  5.26900 48.04600 38.79500
O  5.46700 46.44400 40.44200
C  5.65200 45.38100 39.42900
H  11.24600 52.10000 41.40800
H  8.05900 57.55900 41.71400
H  2.47300 54.34700 41.75700
H  8.35800 48.22600 41.94800
H  10.49300 49.73800 40.52400
H  10.51800 50.33100 43.39900
H  11.70100 49.52200 42.46300
H  10.43200 48.55200 43.17500
H  7.87900 47.35800 39.87800
H  9.67700 47.45300 40.08300
H  9.86900 48.47000 38.06000
H  8.86600 49.79200 38.65800
H  12.95600 55.11700 40.42200
H  12.54100 53.43300 40.54900
H  12.84700 54.21100 42.00500
H  9.56200 58.46900 40.39500
H  10.77900 59.54200 41.09500
H  9.82800 58.58200 42.23400
H  5.46000 58.03900 41.13600
H  3.68400 56.60100 42.91400
H  4.90600 57.94900 44.09700
H  5.71000 59.17700 43.21800
H  6.72500 57.86000 43.70800
H  2.87900 56.34300 40.14900
H  3.28300 58.00000 40.35900
H  1.55700 57.12500 42.64800
H  0.99400 56.84000 41.02300
H  1.49800 58.47800 41.53100
H  1.01800 51.32500 40.96300
H  1.08600 52.54500 42.25700
H  1.14400 50.86400 42.66900
H  5.34700 47.90400 42.04300
H  5.27700 45.46800 38.40900
H  5.18200 44.50100 39.86700
H  6.73800 45.28100 39.41300

