158

Mg 48.66100 35.01700 26.89700
C  46.79300 33.73600 29.53900
C  49.04000 37.92000 28.53300
C  49.70000 36.33900 23.92800
C  47.74600 32.04100 24.96300
N  48.01100 35.65000 28.88900
C  47.37600 34.96300 29.89900
C  47.33200 35.77200 31.23200
C  47.77600 37.23700 30.70300
C  48.40900 36.88300 29.33300
C  46.63900 38.31600 30.61300
C  48.49300 35.25700 32.19900
C  48.07900 35.20200 33.67800
H  48.43700 36.42100 34.55100
N  49.52400 36.77600 26.40200
C  49.61200 37.90800 27.25600
C  50.23400 39.00200 26.57700
C  50.47100 38.53300 25.22200
C  49.91600 37.14400 25.09400
C  50.60300 40.31400 27.25300
C  51.06400 39.32100 24.07900
O  51.20400 38.89700 22.92500
C  51.58100 40.76800 24.40000
N  48.82700 34.18600 24.79000
C  49.31600 34.96200 23.75200
C  49.27500 34.21700 22.37100
C  48.88100 32.77800 22.78000
C  48.50000 32.99500 24.27600
C  48.28800 34.94300 21.47200
C  50.03100 31.75000 22.57700
C  49.63700 30.60300 21.59700
N  47.48000 33.28800 27.11500
C  47.25700 32.11800 26.31800
C  46.59100 31.13800 27.11300
C  46.29700 31.85000 28.26000
C  46.90400 33.11500 28.30400
C  46.12700 29.77900 26.73900
C  45.64900 31.58600 29.50500
O  45.06400 30.58700 29.84100
C  45.83700 32.84700 30.42400
C  46.26500 32.50400 31.74300
O  47.38800 32.07600 31.98900
O  45.19600 32.56200 32.65100
C  45.50800 32.38400 34.07200
H  49.15800 38.81000 29.15400
H  49.93700 36.82000 22.97700
H  47.43300 31.17900 24.36900
H  46.36300 35.80300 31.73100
H  48.64900 37.64800 31.21100
H  47.03700 39.23700 31.03900
H  45.75700 38.08800 31.21100
H  46.35600 38.53500 29.58300
H  49.35500 35.91900 32.11400
H  48.96100 34.34100 31.83700
H  48.52800 34.36400 34.21200
H  47.03100 34.93000 33.79900
H  51.68900 40.33500 27.16800
H  50.48100 40.31600 28.33600
H  50.23200 41.22400 26.78000
H  52.13700 41.17300 23.55500
H  52.25900 40.61500 25.24000
H  50.68000 41.31200 24.68500
H  50.22700 34.27400 21.84300
H  47.99400 32.50000 22.21100
H  47.35800 35.23600 21.95900
H  48.05400 34.30800 20.61800
H  48.81400 35.84100 21.14600
H  50.31600 31.32100 23.53700
H  50.90400 32.21600 22.11900
H  49.94400 29.61900 21.95200
H  50.34800 30.67400 20.77500
H  48.61000 30.68000 21.23900
H  46.89400 29.06600 27.04100
H  45.88000 29.74500 25.67800
H  45.23400 29.56900 27.32800
H  44.90300 33.40600 30.47600
H  44.85500 31.62400 34.50100
H  45.24700 33.30800 34.58800
H  46.52900 32.14900 34.37200
Mg 42.64100 41.13500 25.32100
C  41.66600 43.58400 27.81800
C  43.72300 39.09900 27.86300
C  43.70300 39.07300 22.98600
C  41.77500 43.47400 22.87900
N  42.74900 41.45900 27.62700
C  42.16700 42.43300 28.41500
C  42.14000 42.01100 29.84400
C  42.67400 40.51100 29.77100
C  43.13100 40.33500 28.34900
C  43.79700 40.22100 30.81900
C  40.68200 42.01800 30.48200
C  40.48800 41.32000 31.82200
H  39.78600 42.08400 32.96500
N  43.54100 39.35400 25.43100
C  43.95200 38.67200 26.54000
C  44.67400 37.47500 26.18800
C  44.60200 37.36500 24.76700
C  43.90300 38.61000 24.34800
C  45.21900 36.49400 27.15400
C  45.11800 36.28000 23.79600
O  45.01500 36.24800 22.57100
C  45.62000 35.00800 24.48500
N  42.69100 41.17800 23.31000
C  43.13800 40.23600 22.51900
C  42.97600 40.49400 21.02000
C  42.37500 41.95900 20.97300
C  42.19800 42.21400 22.44700
C  44.32200 40.35600 20.26400
C  41.10100 42.24300 20.17800
C  41.09000 43.39300 19.17000
N  41.86100 43.08700 25.26200
C  41.49800 43.88300 24.23400
C  41.11100 45.19700 24.70000
C  41.05700 45.13600 26.06800
C  41.54800 43.82100 26.38100
C  40.77600 46.42900 23.84400
C  40.73200 45.84900 27.32000
O  40.33700 46.97200 27.50600
C  40.99800 44.76400 28.44400
C  41.85300 45.44400 29.46700
O  43.05600 45.65000 29.30100
O  41.04400 45.83600 30.53000
C  41.82600 46.11900 31.74500
H  43.86300 38.42700 28.71200
H  44.09700 38.43500 22.19200
H  41.54000 44.18800 22.08700
H  42.83800 42.60100 30.43900
H  41.87800 39.78400 29.93200
H  43.60000 40.85500 31.68300
H  44.72700 40.38100 30.27200
H  43.64300 39.14900 30.94200
H  40.00000 41.52700 29.78700
H  40.33400 43.05100 30.46200
H  41.47500 41.07900 32.21700
H  39.95400 40.38100 31.67800
H  45.02400 36.82400 28.17500
H  46.29500 36.44000 26.99000
H  44.82100 35.50200 26.94400
H  44.74800 34.59300 24.98900
H  46.41800 35.15500 25.21300
H  45.94700 34.33000 23.69600
H  42.28900 39.83400 20.49000
H  43.06700 42.71100 20.59500
H  45.15900 40.16500 20.93500
H  44.51900 41.27000 19.70300
H  44.22500 39.47700 19.62800
H  40.35300 42.48300 20.93500
H  40.84900 41.30900 19.67600
H  42.12500 43.71800 19.05900
H  40.51800 44.22700 19.57700
H  40.72600 42.95000 18.24400
H  40.52000 46.19400 22.81100
H  41.58700 47.15400 23.78000
H  39.97200 46.94700 24.36700
H  40.01500 44.47300 28.81400
H  41.31800 45.64800 32.58700
H  41.83200 47.17500 32.01600
H  42.86700 45.80100 31.79100

