158

Mg 23.80700 -6.47700 46.62200
C  26.50000 -4.42100 45.68200
C  22.02500 -4.91500 44.18000
C  21.45400 -8.65400 47.35700
C  26.06300 -8.25700 48.57800
N  24.30600 -4.94700 44.99500
C  25.38000 -4.10800 44.94100
C  25.29300 -3.00900 43.78000
C  23.78800 -3.16200 43.34200
C  23.31700 -4.41000 44.21900
C  22.90400 -1.89400 43.48100
C  26.27400 -3.17800 42.59800
C  26.97700 -1.84500 42.23300
H  27.03200 -1.34700 40.73600
N  21.99100 -6.78900 45.80600
C  21.36100 -5.96400 44.88300
C  19.96800 -6.40800 44.76900
C  19.72100 -7.39800 45.71500
C  21.08300 -7.70800 46.36600
C  18.99300 -5.81600 43.75000
C  18.45800 -8.04900 45.96100
O  17.43200 -7.73400 45.32700
C  18.24300 -9.12700 47.01100
N  23.82700 -8.19200 47.73500
C  22.67100 -8.84000 47.93000
C  22.91300 -10.12200 48.81700
C  24.34300 -9.98400 49.29000
C  24.80400 -8.76700 48.47000
C  21.89800 -10.11000 50.00300
C  25.20500 -11.23500 49.04100
C  25.72600 -11.63800 47.69200
N  25.87500 -6.21200 47.25900
C  26.67900 -7.13100 48.00100
C  28.01800 -6.55300 48.15700
C  28.00300 -5.42400 47.34500
C  26.67800 -5.35800 46.73400
C  29.22800 -7.25000 48.85000
C  28.78600 -4.36500 46.74600
O  30.02700 -4.19100 46.81700
C  27.86500 -3.72900 45.65100
C  27.91100 -2.28900 45.80500
O  28.65200 -1.51300 45.26400
O  26.88500 -1.87900 46.55100
C  26.66700 -0.44000 46.69800
H  21.47800 -4.25000 43.50800
H  20.69100 -9.36400 47.68100
H  26.71000 -8.82500 49.25000
H  25.52500 -2.08500 44.30800
H  23.85600 -3.46700 42.29800
H  22.53700 -1.51900 42.52500
H  23.37100 -1.00000 43.89400
H  22.06400 -2.17300 44.11700
H  25.86900 -3.63200 41.69300
H  27.05800 -3.86700 42.90900
H  27.99200 -1.99300 42.60100
H  26.54100 -1.04100 42.82500
H  18.84300 -6.46200 42.88500
H  19.30500 -4.81100 43.46900
H  18.02800 -5.74100 44.25100
H  17.19000 -9.39500 47.09800
H  18.61400 -8.74600 47.96300
H  18.78000 -10.03800 46.74700
H  22.82500 -10.95300 48.11800
H  24.36500 -9.75300 50.35500
H  22.18900 -10.23800 51.04600
H  21.22200 -10.95600 49.87600
H  21.42600 -9.12900 49.95200
H  24.66700 -12.09200 49.44400
H  25.97300 -11.12900 49.80700
H  26.73500 -12.02600 47.83200
H  25.88900 -10.68700 47.18500
H  25.12000 -12.38500 47.17800
H  28.98900 -8.31300 48.80800
H  29.29500 -6.92300 49.88700
H  30.18700 -7.01200 48.38900
H  28.42400 -3.77600 44.71600
H  27.42400 0.08300 47.28200
H  25.78800 -0.20900 47.30000
H  26.53300 0.06400 45.74100
Mg 36.32300 49.49600 25.76700
C  36.34200 47.70100 28.73300
C  34.67000 52.09700 27.45700
C  35.70200 51.07900 22.73400
C  37.23100 46.64200 24.07500
N  35.57900 49.81200 27.88900
C  35.85600 49.00200 28.97500
C  35.87300 49.82800 30.28200
C  35.06700 51.03400 29.85900
C  35.07900 51.03000 28.27500
C  33.65700 51.18400 30.38600
C  37.33900 50.02000 30.74500
C  37.64500 49.73700 32.20500
H  36.42200 49.80000 33.30100
N  35.48400 51.42800 25.23500
C  34.76900 52.22400 26.03400
C  34.18800 53.30700 25.28500
C  34.45800 53.08000 23.91500
C  35.27700 51.85000 23.89900
C  33.50900 54.49700 25.92300
C  33.98800 53.89300 22.64100
O  34.22900 53.55800 21.49200
C  33.07700 55.14300 22.82800
N  36.31000 48.97600 23.64200
C  36.25000 49.80700 22.59000
C  36.58400 49.18800 21.28600
C  37.21000 47.84700 21.78400
C  36.93000 47.83200 23.29500
C  35.40600 49.09000 20.29700
C  38.75200 47.76800 21.54000
C  39.31100 46.43300 20.91200
N  36.66700 47.57200 26.19900
C  37.16200 46.55300 25.47700
C  37.35600 45.35700 26.30000
C  37.05100 45.75200 27.60000
C  36.63800 47.08800 27.47700
C  37.98400 44.10500 25.72300
C  37.05900 45.35000 28.93400
O  37.19600 44.27200 29.47300
C  36.65700 46.65800 29.75100
C  35.63500 46.32700 30.78300
O  34.46300 46.37400 30.64600
O  36.30200 46.05200 31.95200
C  35.58000 45.40200 33.08400
H  34.20300 52.89600 28.03600
H  35.66500 51.63800 21.79600
H  37.50900 45.72400 23.55200
H  35.30300 49.29700 31.04600
H  35.56400 51.96800 30.12100
H  33.47400 52.22100 30.66800
H  33.50200 50.54100 31.25200
H  32.89200 50.94200 29.64700
H  37.72500 50.98800 30.42400
H  37.88900 49.23200 30.23300
H  38.27000 50.55700 32.55900
H  38.21300 48.80700 32.19900
H  33.78000 55.37200 25.33200
H  33.69800 54.61100 26.99000
H  32.44700 54.34500 25.72500
H  33.53600 56.10100 23.07600
H  32.41300 54.84300 23.63800
H  32.56600 55.26000 21.87200
H  37.35500 49.89900 20.99000
H  36.73100 46.98400 21.32200
H  34.54600 49.01000 20.96200
H  35.52200 48.18200 19.70600
H  35.25200 49.99300 19.70500
H  39.26400 47.87800 22.49600
H  39.01000 48.55500 20.83100
H  38.74700 45.53100 21.14900
H  40.36800 46.27000 21.12300
H  39.18500 46.78800 19.88900
H  37.60600 43.75600 24.76200
H  38.01900 43.27200 26.42500
H  39.06400 44.20800 25.61400
H  37.59100 46.88900 30.26500
H  34.56800 45.14400 32.77300
H  35.47600 46.16700 33.85300
H  36.25500 44.63100 33.45700

