158

Mg 35.58100 1.94600 29.38700
C  33.68300 3.04200 31.90000
C  38.31700 1.91100 31.69800
C  37.76500 1.20200 26.90300
C  33.22700 2.86800 27.13400
N  36.02300 2.60400 31.50700
C  34.99900 2.85300 32.35000
C  35.49700 2.92700 33.82200
C  36.99500 2.78700 33.77500
C  37.12900 2.43900 32.21300
C  37.85400 4.07800 34.11000
C  34.76200 1.88100 34.68900
C  34.34100 2.24800 36.15100
H  34.73800 3.63000 36.70200
N  37.71100 1.49600 29.32300
C  38.59700 1.48500 30.34000
C  39.83100 0.93200 29.80100
C  39.67000 0.55000 28.47000
C  38.35000 1.07000 28.15900
C  41.08000 0.79200 30.66000
C  40.71500 -0.11400 27.43700
O  40.35100 -0.37100 26.28600
C  42.14900 -0.44700 27.93700
N  35.47000 2.02500 27.30600
C  36.51000 1.61800 26.49800
C  36.22900 1.95400 25.02700
C  34.69600 2.34300 25.08900
C  34.40800 2.41600 26.60300
C  37.14600 3.12100 24.47800
C  33.79800 1.33800 24.34700
C  33.57800 -0.04700 25.03100
N  33.79500 2.91800 29.43000
C  32.83000 3.09000 28.42700
C  31.61800 3.63900 29.01300
C  31.86600 3.54000 30.41600
C  33.27000 3.16400 30.55000
C  30.30400 3.98100 28.37100
C  31.22900 3.64700 31.70800
O  30.07300 3.87500 32.10000
C  32.47700 3.51800 32.70800
C  32.73100 4.87100 33.39500
O  33.57500 5.77300 33.07600
O  31.79600 5.08100 34.34900
C  31.75800 6.31500 35.04300
H  39.09400 1.72200 32.44100
H  38.47900 1.03300 26.09400
H  32.48200 3.19300 26.40400
H  35.34500 3.93800 34.20200
H  37.38600 1.98600 34.40300
H  38.38100 4.27700 33.17700
H  38.57500 3.89900 34.90700
H  37.27500 4.96100 34.38400
H  35.43700 1.02500 34.68900
H  33.90000 1.46100 34.17000
H  34.66200 1.51300 36.88900
H  33.25900 2.12100 36.19200
H  41.33100 -0.23100 30.94000
H  40.88100 1.22400 31.64000
H  41.95700 1.35100 30.33400
H  42.67900 -0.97300 27.14300
H  42.03600 -1.11700 28.79000
H  42.59200 0.51700 28.18600
H  36.52700 1.02600 24.54000
H  34.42100 3.29100 24.62700
H  36.57300 3.99900 24.18000
H  37.72100 2.75400 23.62800
H  37.82800 3.35500 25.29600
H  34.17000 1.14400 23.34100
H  32.80700 1.77400 24.22200
H  33.22900 -0.79000 24.31400
H  32.95300 0.05400 25.91800
H  34.55400 -0.35000 25.41100
H  30.26600 3.45400 27.41800
H  30.34600 5.04400 28.13500
H  29.45600 3.76700 29.02200
H  32.30100 2.76400 33.47600
H  32.76800 6.60000 35.33700
H  31.21900 6.13400 35.97200
H  31.27900 7.09000 34.44400
Mg 47.03400 24.99800 28.47200
C  48.02700 27.35700 30.82100
C  46.56900 22.71600 31.07600
C  46.15000 22.61100 26.16100
C  48.37500 27.02200 25.96500
N  47.28200 25.10600 30.69900
C  47.48700 26.22900 31.39300
C  47.40900 25.98800 32.90800
C  47.18100 24.41800 32.94300
C  46.94700 24.00400 31.47900
C  48.25200 23.63900 33.71000
C  46.22400 26.75200 33.56900
C  45.56800 26.25800 34.84800
H  45.34100 27.17800 36.03600
N  46.32500 23.00000 28.61500
C  46.15600 22.21400 29.80700
C  45.68500 20.89900 29.48300
C  45.55600 20.83800 28.04200
C  45.97200 22.17600 27.56400
C  45.62800 19.67600 30.48100
C  45.18800 19.60000 27.14600
O  45.26200 19.74600 25.97100
C  44.78200 18.29500 27.72900
N  47.29500 24.84500 26.41000
C  46.74600 23.77800 25.68700
C  46.90200 24.07400 24.19700
C  47.29600 25.55000 24.15900
C  47.73700 25.82100 25.62300
C  47.75900 23.02400 23.53300
C  46.29300 26.65400 23.58400
C  46.77400 27.50900 22.38700
N  47.96300 26.76500 28.33100
C  48.54900 27.44900 27.27200
C  49.13000 28.66600 27.72100
C  48.93000 28.65300 29.07700
C  48.21000 27.53400 29.42400
C  49.77900 29.68500 26.94000
C  49.17500 29.38600 30.21700
O  49.75800 30.39300 30.37700
C  48.48800 28.62400 31.43600
C  49.48900 28.40200 32.52200
O  50.52000 27.77200 32.42800
O  49.18900 29.24800 33.59300
C  50.11800 29.21900 34.75900
H  46.46600 21.98900 31.88500
H  45.84500 21.97500 25.32700
H  48.60800 27.73900 25.17500
H  48.36100 26.17600 33.40600
H  46.26000 24.22100 33.49300
H  49.15100 24.25500 33.73300
H  48.49000 22.75600 33.11800
H  47.97900 23.31300 34.71400
H  45.40900 26.87500 32.85600
H  46.43500 27.81000 33.72800
H  46.16500 25.44900 35.26800
H  44.61300 25.77700 34.63300
H  44.67400 19.15200 30.55200
H  46.00500 20.03000 31.44000
H  46.34600 19.01900 29.99000
H  43.93000 18.38600 28.40300
H  45.62500 17.89000 28.28900
H  44.62900 17.54500 26.95300
H  45.92100 24.01100 23.72700
H  48.19100 25.78100 23.58200
H  48.57000 23.55700 23.03600
H  47.21800 22.42900 22.79800
H  48.16700 22.34100 24.27800
H  45.93200 27.35200 24.34000
H  45.47000 26.10900 23.12100
H  46.08400 27.34500 21.55900
H  47.76000 27.21300 22.02700
H  46.68700 28.53100 22.75500
H  50.50600 29.30400 26.22300
H  50.22900 30.46900 27.54800
H  49.03800 30.22700 26.35100
H  47.64400 29.15500 31.87700
H  49.78400 28.58100 35.57700
H  50.01000 30.18300 35.25400
H  51.14400 29.06800 34.42100

