158

Mg 41.22500 9.41300 30.02000
C  42.61100 10.32800 33.15300
C  38.51200 8.30500 31.69300
C  40.13600 8.29700 27.05100
C  44.08900 10.73800 28.42200
N  40.67900 9.26800 32.13400
C  41.33800 9.74000 33.22800
C  40.50400 9.60800 34.49300
C  39.39200 8.57300 34.04500
C  39.54200 8.74000 32.55700
C  39.59200 7.07300 34.62000
C  39.89200 10.95200 34.98500
C  39.42600 10.92000 36.49400
H  40.52600 11.53000 37.43700
N  39.50600 8.46300 29.42400
C  38.47900 8.08200 30.24900
C  37.38300 7.54800 29.49400
C  37.91300 7.48300 28.09500
C  39.26900 8.07600 28.15800
C  36.09200 7.28400 30.09000
C  37.20400 6.99100 26.85300
O  37.73400 7.05100 25.75400
C  35.80100 6.39400 26.94400
N  41.90400 9.59500 27.97600
C  41.35600 8.90800 26.94800
C  42.22900 9.11200 25.68700
C  43.21500 10.22900 26.11100
C  43.04700 10.23900 27.63500
C  42.99400 7.95700 25.04100
C  42.69700 11.59200 25.54600
C  41.30300 12.18600 26.10000
N  43.04500 10.33800 30.65700
C  44.07900 10.85700 29.88800
C  45.16300 11.41100 30.86100
C  44.58400 11.23900 32.12600
C  43.34500 10.60100 31.93500
C  46.41300 12.04800 30.47000
C  44.84100 11.41400 33.52100
O  45.72800 11.97900 34.19500
C  43.59800 10.80600 34.20000
C  43.98800 9.74500 35.12900
O  43.73100 8.56200 35.03100
O  44.77300 10.32300 36.13400
C  45.20700 9.37800 37.23500
H  37.71200 7.82900 32.26500
H  39.75000 8.08200 26.05200
H  45.05500 11.05500 28.02400
H  41.21000 9.17400 35.20100
H  38.43200 8.97700 34.36600
H  40.52400 6.98600 35.17900
H  39.51100 6.30300 33.85300
H  38.90900 6.73100 35.39700
H  39.01600 11.18900 34.38200
H  40.48700 11.84800 34.81100
H  39.20800 9.89700 36.80100
H  38.44600 11.38200 36.61700
H  35.97900 6.20500 29.97800
H  35.35500 7.76200 29.44500
H  36.00500 7.55900 31.14100
H  35.75300 5.78100 27.84400
H  35.72700 5.63100 26.16900
H  35.09700 7.22200 26.85200
H  41.57400 9.43800 24.87900
H  44.26200 10.13800 25.82300
H  42.89800 7.98100 23.95600
H  42.57600 7.01500 25.39500
H  44.06100 8.00400 25.25800
H  42.67900 11.60000 24.45600
H  43.50000 12.31000 25.71700
H  41.17100 12.04400 27.17200
H  40.49700 11.62500 25.62900
H  41.27100 13.23400 25.79900
H  47.07600 11.19900 30.30700
H  46.73900 12.75300 31.23400
H  46.36700 12.52000 29.48800
H  43.11500 11.51800 34.87000
H  45.96100 9.73700 37.93500
H  45.52000 8.37900 36.93300
H  44.32800 9.25600 37.86700
Mg -5.43100 25.58200 26.51600
C  -3.78000 26.77900 29.51700
C  -7.03700 23.22500 28.48500
C  -6.54900 24.08400 23.73900
C  -3.08500 27.18500 24.72800
N  -5.34400 25.11900 28.71300
C  -4.77800 25.84900 29.78100
C  -5.39200 25.37900 31.12500
C  -6.04500 24.05000 30.71700
C  -6.22300 24.16600 29.18300
C  -5.31800 22.76900 31.18000
C  -6.37100 26.43300 31.69300
C  -6.39300 26.63200 33.25500
H  -5.80000 25.54700 34.13700
N  -6.75400 23.94700 26.15800
C  -7.35400 23.14600 27.09600
C  -8.22900 22.15100 26.38300
C  -8.09800 22.38000 24.95600
C  -7.17000 23.58000 24.92400
C  -9.10800 21.16400 27.17400
C  -8.74300 21.61600 23.79400
O  -8.57600 21.81400 22.58800
C  -9.59700 20.43500 24.04700
N  -4.77000 25.50700 24.54800
C  -5.45600 24.87500 23.58500
C  -4.95100 25.19600 22.16100
C  -3.94200 26.35700 22.47300
C  -3.92000 26.38400 23.99500
C  -4.43900 23.95700 21.36600
C  -4.16900 27.78800 21.91300
C  -3.12300 28.48500 21.03100
N  -3.83900 26.85900 26.97000
C  -3.04900 27.44800 26.11400
C  -2.11700 28.31400 26.79200
C  -2.44900 28.13300 28.14200
C  -3.42000 27.18600 28.20200
C  -1.08800 29.23600 26.18500
C  -2.10200 28.52900 29.50300
O  -1.29200 29.39600 29.83200
C  -3.08900 27.80700 30.43400
C  -2.25200 27.08900 31.48200
O  -1.17900 26.54900 31.33800
O  -2.86400 27.15800 32.69400
C  -2.02000 26.79000 33.83900
H  -7.54600 22.53800 29.16400
H  -6.90900 23.65100 22.80400
H  -2.33400 27.81200 24.24300
H  -4.62100 25.05200 31.82200
H  -7.02400 24.00900 31.19500
H  -4.92000 22.24600 30.31000
H  -5.92300 22.13100 31.82300
H  -4.38900 22.93600 31.72600
H  -7.39800 26.27300 31.36700
H  -6.13600 27.40800 31.26700
H  -7.46100 26.63300 33.46900
H  -5.98700 27.59500 33.56900
H  -9.04500 20.14200 26.79900
H  -10.15700 21.45600 27.11600
H  -8.82500 21.04100 28.21900
H  -10.30500 20.63800 24.85200
H  -8.88000 19.68000 24.36900
H  -10.15100 20.20700 23.13600
H  -5.76100 25.61800 21.56700
H  -2.96000 26.00800 22.15300
H  -4.43300 23.04800 21.96900
H  -3.49000 24.16900 20.87300
H  -4.93900 23.89600 20.39900
H  -4.32200 28.45300 22.76400
H  -5.03900 27.65400 21.27100
H  -3.06300 29.55600 21.22200
H  -3.29600 28.41600 19.95700
H  -2.11400 28.09300 21.16500
H  -0.34800 28.62200 25.67200
H  -0.59700 29.82700 26.95800
H  -1.57400 29.90300 25.47200
H  -3.87800 28.34900 30.95500
H  -0.98700 27.12900 33.75400
H  -2.04300 25.71900 34.04200
H  -2.39100 27.43400 34.63600

