158

Mg 41.13100 40.63900 26.78800
C  40.45300 43.33000 28.75400
C  41.89900 38.66700 29.41600
C  42.05200 38.32800 24.54500
C  40.92000 42.89200 23.89700
N  41.27500 40.99500 28.78900
C  40.83800 42.15500 29.41400
C  40.88200 42.00100 30.94000
C  41.24700 40.48900 31.16800
C  41.50600 40.02000 29.73100
C  42.49100 40.40900 32.10800
C  39.54900 42.41700 31.57900
C  39.01400 41.66600 32.88600
H  38.63900 42.53300 34.12100
N  41.86800 38.72300 26.94700
C  42.10200 38.05700 28.12500
C  42.55500 36.79100 27.84000
C  42.61700 36.57600 26.38800
C  42.18700 37.91400 25.90500
C  43.05800 35.83800 28.90400
C  43.15000 35.41800 25.55600
O  43.15400 35.56500 24.34900
C  43.61900 34.08000 26.09500
N  41.68700 40.67300 24.52700
C  41.92300 39.50500 23.83800
C  41.76200 39.72000 22.30500
C  41.03800 41.04300 22.24400
C  41.16700 41.56900 23.62200
C  43.10300 39.59200 21.59200
C  39.60100 40.87500 21.81000
C  38.56500 40.22900 22.79800
N  40.71200 42.70200 26.36800
C  40.72400 43.45100 25.19500
C  40.35700 44.80700 25.52600
C  40.24500 44.80400 26.91000
C  40.59500 43.54100 27.39800
C  39.98200 45.90600 24.57900
C  39.94400 45.69300 28.05400
O  39.52400 46.88900 28.17000
C  40.10400 44.71400 29.26500
C  41.15200 45.24100 30.08700
O  42.30600 44.95400 30.07000
O  40.58300 46.01100 31.06300
C  41.60900 46.34300 32.08700
H  42.05200 38.03200 30.29200
H  42.08700 37.57300 23.75700
H  40.68700 43.52900 23.04100
H  41.64500 42.67900 31.32300
H  40.40800 39.93400 31.58700
H  43.16300 41.26200 32.01200
H  43.07400 39.51500 31.88500
H  42.11400 40.42800 33.13000
H  38.82200 42.30100 30.77600
H  39.59800 43.50000 31.69500
H  39.88300 41.11100 33.23800
H  38.24500 40.93300 32.64300
H  43.19600 34.80300 28.58900
H  42.34000 35.87200 29.72300
H  44.02200 36.28000 29.15700
H  43.91400 33.42400 25.27600
H  42.82300 33.60800 26.67100
H  44.43100 34.21000 26.80900
H  41.08800 38.96800 21.89400
H  41.56600 41.72800 21.58200
H  43.84500 40.05800 22.24000
H  43.03200 40.18300 20.67900
H  43.25300 38.53200 21.38700
H  39.46700 40.40500 20.83600
H  39.26100 41.90200 21.67100
H  39.17300 39.76700 23.57600
H  37.82600 39.57400 22.33700
H  37.98100 40.94100 23.38200
H  39.32600 46.67700 24.98200
H  39.66000 45.70200 23.55800
H  40.92800 46.43200 24.45400
H  39.16900 44.69900 29.82500
H  42.02800 45.38400 32.39100
H  41.19700 46.84200 32.96500
H  42.41500 46.94300 31.66500
Mg 9.36600 47.17200 28.01600
C  7.46100 46.99300 31.02300
C  12.13100 47.50100 29.90900
C  10.92600 47.88600 25.23900
C  6.17100 47.45000 26.22300
N  9.71000 47.44500 30.27900
C  8.84000 47.15900 31.20100
C  9.55200 47.32500 32.59500
C  10.95800 47.51600 32.18700
C  10.97000 47.44800 30.67600
C  11.49400 48.95100 32.61300
C  9.20900 46.05600 33.42400
C  10.22200 45.52700 34.49000
H  9.68300 44.75700 35.72900
N  11.24900 47.44900 27.64500
C  12.26200 47.57500 28.51900
C  13.52400 47.79600 27.76500
C  13.21000 47.68200 26.35500
C  11.76700 47.57500 26.34900
C  14.86200 47.88600 28.42700
C  14.11200 47.69400 25.05200
O  13.60700 47.68400 23.94400
C  15.52800 47.62600 25.06500
N  8.63800 47.53700 25.91200
C  9.56100 47.86800 25.02300
C  8.88200 48.29600 23.76200
C  7.36100 48.21400 23.95600
C  7.35600 47.66900 25.44800
C  9.33400 49.67700 23.14600
C  6.49600 47.27300 22.93900
C  6.58900 47.79100 21.48500
N  7.26800 47.28200 28.47000
C  6.16400 47.26200 27.65100
C  4.95100 47.20700 28.45100
C  5.40400 47.02800 29.73900
C  6.82200 47.06400 29.71800
C  3.55500 47.36500 27.99100
C  4.99400 46.82200 31.09800
O  3.87900 46.59900 31.56100
C  6.29800 46.80800 32.00600
C  6.18800 45.40500 32.62100
O  6.34800 44.39400 31.96900
O  5.66800 45.50600 33.88400
C  5.69300 44.24400 34.59300
H  13.03500 47.58100 30.51600
H  11.45400 48.27100 24.36300
H  5.18100 47.32100 25.78000
H  9.13900 48.17600 33.13500
H  11.59700 46.77300 32.66400
H  10.73700 49.45800 33.21100
H  11.77900 49.55400 31.75100
H  12.39100 48.82800 33.22000
H  9.13900 45.14900 32.82400
H  8.23800 46.13000 33.91400
H  10.67900 46.42000 34.91600
H  11.14400 45.07200 34.12800
H  15.33500 46.90700 28.50700
H  14.72100 48.32300 29.41600
H  15.52800 48.44100 27.76700
H  15.80500 47.09800 25.97800
H  16.14200 48.52600 25.09800
H  15.90200 47.05400 24.21500
H  9.07400 47.47200 23.07400
H  6.88700 49.19600 23.94500
H  10.18800 50.06800 23.70000
H  8.59000 50.47100 23.22000
H  9.60000 49.59300 22.09200
H  5.48000 47.20500 23.32900
H  6.84000 46.24100 22.87700
H  7.21100 48.68000 21.38400
H  5.60300 48.12600 21.16200
H  6.99900 47.01900 20.83400
H  3.42800 48.07300 27.17100
H  3.10500 47.89300 28.83200
H  3.16400 46.35500 27.87500
H  6.31500 47.60400 32.75100
H  5.37900 44.31400 35.63500
H  6.67800 43.77800 34.57800
H  5.09400 43.48600 34.08800

