158

Mg 1.12600 7.91400 24.99500
C  1.76000 10.02600 27.95200
C  1.41400 5.28100 26.84600
C  0.87200 6.26000 22.21800
C  1.52200 10.97300 23.16900
N  1.52700 7.68000 27.22600
C  1.55600 8.63200 28.27800
C  1.58800 7.94200 29.63000
C  1.62000 6.41000 29.25900
C  1.56300 6.42400 27.65300
C  2.77700 5.56000 29.92600
C  0.36900 8.57200 30.41000
C  0.19500 8.06500 31.79700
H  1.46500 7.79700 32.60000
N  0.98900 6.02400 24.53900
C  1.06800 5.01100 25.46900
C  1.03500 3.72900 24.79200
C  0.92400 3.98200 23.44900
C  0.92600 5.45400 23.37400
C  1.06400 2.49200 25.64300
C  0.91600 2.96400 22.27400
O  0.97400 3.30800 21.09000
C  0.81200 1.46700 22.56400
N  1.21300 8.49100 23.01900
C  1.12200 7.63400 21.99200
C  1.10900 8.29200 20.58000
C  0.72500 9.76800 20.98300
C  1.18400 9.80300 22.42800
C  2.35600 8.03600 19.64500
C  -0.76000 10.08000 20.78700
C  -1.06400 11.19000 19.84500
N  1.50800 10.09700 25.39000
C  1.63600 11.14800 24.57600
C  1.97300 12.35800 25.34300
C  1.97500 11.88900 26.60100
C  1.75900 10.53100 26.60900
C  2.19700 13.71700 24.73800
C  2.25100 12.38900 27.95200
O  2.57300 13.49500 28.41900
C  2.13400 11.13100 28.81800
C  3.31300 10.84200 29.58500
O  4.41800 10.53400 29.09400
O  3.13100 11.36700 30.84400
C  4.27700 11.10800 31.74100
H  1.53000 4.44400 27.53800
H  0.85400 5.71200 21.27400
H  1.64900 11.90700 22.61800
H  2.55300 8.20700 30.06300
H  0.64100 6.13100 29.64800
H  3.31300 4.92100 29.22500
H  2.39200 4.87900 30.68500
H  3.48600 6.12800 30.52700
H  -0.57000 8.53700 29.85800
H  0.42300 9.66100 30.39300
H  -0.34700 7.12200 31.73200
H  -0.38900 8.85000 32.27800
H  2.05500 2.04300 25.57500
H  0.19900 1.92500 25.30000
H  0.99900 2.64200 26.72000
H  -0.00900 1.30800 23.26300
H  1.74100 1.21000 23.07400
H  0.65700 0.89700 21.64900
H  0.22200 7.80400 20.17600
H  1.29600 10.48300 20.39000
H  2.95200 8.93300 19.47400
H  1.94900 7.76400 18.67100
H  2.89500 7.18800 20.06700
H  -1.12100 10.19300 21.81000
H  -1.31700 9.20700 20.44800
H  -1.75900 11.90000 20.29200
H  -1.55700 10.76800 18.96900
H  -0.20800 11.81500 19.58900
H  1.38300 13.99000 24.06700
H  3.16300 13.63800 24.23800
H  2.57400 14.46500 25.43500
H  1.30900 11.34300 29.49900
H  3.94900 11.40600 32.73700
H  5.11000 11.74800 31.44800
H  4.47600 10.03700 31.77700
Mg -10.41600 40.21000 42.42500
C  -9.45400 36.98400 41.51100
C  -7.60600 41.34700 40.56700
C  -11.58000 43.35700 42.47100
C  -13.50100 38.94500 43.30400
N  -8.85700 39.26200 40.92200
C  -8.59500 37.89900 40.95100
C  -7.28700 37.57100 40.18400
C  -6.53300 39.00900 40.19200
C  -7.75900 39.92600 40.61300
C  -5.29300 39.20400 41.15100
C  -7.59000 37.04100 38.76800
C  -6.82800 35.84000 38.15000
H  -5.75400 36.13300 37.13900
N  -9.61500 42.06400 41.74800
C  -8.48100 42.29400 41.02300
C  -8.24500 43.77700 41.02000
C  -9.35000 44.40400 41.66900
C  -10.23900 43.27600 41.97800
C  -7.10900 44.40200 40.26800
C  -9.53300 45.93100 41.84500
O  -8.81700 46.80400 41.35100
C  -10.62400 46.41900 42.63100
N  -12.34400 41.06900 42.83500
C  -12.58100 42.33000 42.86600
C  -14.09000 42.55500 43.16500
C  -14.53400 41.16500 43.73200
C  -13.41400 40.32400 43.20800
C  -14.49600 43.80600 44.09800
C  -16.01200 40.76500 43.32600
C  -16.90000 40.27200 44.48500
N  -11.32200 38.29500 42.53900
C  -12.55000 37.93400 42.97800
C  -12.65100 36.50600 42.97600
C  -11.53800 36.04600 42.35800
C  -10.70200 37.22600 42.13900
C  -13.78100 35.64300 43.49900
C  -10.76400 34.93200 41.78400
O  -11.06100 33.73500 41.72700
C  -9.38400 35.49100 41.21800
C  -8.25900 34.78300 41.91100
O  -7.77400 35.09800 42.98400
O  -7.84000 33.72400 41.20100
C  -6.77600 32.86300 41.71600
H  -6.73500 41.66900 39.99200
H  -12.10300 44.31500 42.47300
H  -14.45800 38.46700 43.52500
H  -6.57700 36.93200 40.71000
H  -6.23300 39.25600 39.17300
H  -4.58300 38.45200 40.80300
H  -5.61300 38.96700 42.16500
H  -5.02800 40.25900 41.08000
H  -7.45200 37.88600 38.09300
H  -8.65600 36.81800 38.72100
H  -7.54300 35.19300 37.64100
H  -6.35200 35.36200 39.00600
H  -7.25600 44.48700 39.19100
H  -6.19800 43.81200 40.37000
H  -6.85200 45.37200 40.69400
H  -10.72800 45.80500 43.52500
H  -11.55900 46.32700 42.07800
H  -10.45000 47.45000 42.93800
H  -14.52200 42.59500 42.16500
H  -14.33900 41.12300 44.80400
H  -13.64400 44.47300 44.23200
H  -14.72300 43.55400 45.13400
H  -15.31700 44.29600 43.57600
H  -15.98600 40.03200 42.52000
H  -16.59100 41.63900 43.02700
H  -16.29400 40.01600 45.35400
H  -17.36400 39.35000 44.13400
H  -17.67100 41.02600 44.64900
H  -14.20600 35.96400 44.45000
H  -13.42900 34.61400 43.56800
H  -14.57300 35.69100 42.75200
H  -9.49400 35.20900 40.17100
H  -7.09800 32.15100 42.47600
H  -6.03500 33.46200 42.24600
H  -6.20400 32.42900 40.89700

