158

Mg 48.31000 15.80600 28.75600
C  46.42900 15.14000 31.67300
C  50.37700 17.65400 30.59400
C  50.08000 16.37700 25.91200
C  45.94000 14.10200 26.90900
N  48.34800 16.39300 30.85600
C  47.56200 15.87000 31.94400
C  48.14800 16.28800 33.26700
C  49.25400 17.32600 32.97800
C  49.36500 17.18300 31.40000
C  49.03800 18.77100 33.43000
C  48.42000 15.08200 34.25100
C  48.21000 15.40900 35.72000
H  47.89000 16.76100 36.31000
N  50.01700 16.83100 28.31200
C  50.74000 17.54400 29.18300
C  51.91900 18.16000 28.52200
C  51.96700 17.65000 27.19200
C  50.68100 16.84000 27.08200
C  52.94000 18.98900 29.21800
C  52.85500 17.92600 26.04000
O  52.58700 17.47400 24.89900
C  53.93600 18.96900 26.14600
N  47.95500 15.39000 26.71600
C  48.85300 15.70900 25.79300
C  48.41000 15.20100 24.42400
C  47.40100 14.07400 24.83600
C  46.99500 14.57200 26.21800
C  47.80100 16.21900 23.47200
C  48.05600 12.58500 25.04700
C  47.82000 11.58700 23.86400
N  46.55500 14.91400 29.11400
C  45.69700 14.17800 28.29800
C  44.56700 13.68300 29.09300
C  44.80800 14.08100 30.40500
C  46.06500 14.73400 30.40500
C  43.34500 13.04500 28.62800
C  44.34200 13.96500 31.76700
O  43.35600 13.41700 32.28000
C  45.34100 14.63600 32.65000
C  44.64600 15.85600 33.13300
O  44.31600 16.84200 32.50900
O  44.61600 15.74000 34.55700
C  43.94500 16.83900 35.23700
H  51.07100 18.26700 31.17300
H  50.57300 16.58100 24.95900
H  45.18000 13.60100 26.30600
H  47.26500 16.82600 33.61100
H  50.19100 17.05200 33.46300
H  48.03700 19.08800 33.72300
H  49.19400 19.41900 32.56700
H  49.78200 19.10100 34.15500
H  49.46700 14.85400 34.05000
H  47.91500 14.18000 33.90400
H  49.14400 15.05100 36.15100
H  47.38800 14.71900 35.91100
H  53.87000 18.44800 29.39300
H  52.51900 19.43100 30.12100
H  53.19400 19.87100 28.63100
H  53.55100 19.98700 26.09700
H  54.61800 18.79800 25.31300
H  54.62700 18.76700 26.96500
H  49.19300 14.63000 23.92500
H  46.50300 14.00600 24.22200
H  47.65300 15.76100 22.49400
H  48.44200 17.10000 23.42500
H  46.84700 16.56700 23.86800
H  47.71000 12.07800 25.94900
H  49.14500 12.61700 25.07800
H  48.00100 12.02000 22.88000
H  46.84400 11.11400 23.97500
H  48.50300 10.73900 23.90800
H  43.10600 13.51200 27.67200
H  42.54400 13.24300 29.34000
H  43.42000 11.97000 28.46600
H  45.64200 13.98500 33.47000
H  42.86100 16.81500 35.11800
H  44.19700 17.87700 35.02200
H  44.08300 16.67400 36.30600
Mg 16.62200 51.76900 25.35900
C  18.26100 50.65700 28.23300
C  13.94400 52.73600 27.36000
C  15.01400 52.80100 22.55700
C  19.26000 50.32300 23.41300
N  16.13300 51.64300 27.48300
C  17.01400 51.23800 28.50500
C  16.36200 51.35600 29.92200
C  14.86500 51.76700 29.59800
C  14.92600 52.08800 28.05200
C  13.70200 50.84000 30.06900
C  17.04700 52.32300 30.86700
C  17.38900 51.73300 32.26500
H  16.33200 51.91000 33.49200
N  14.75300 52.66200 25.00600
C  13.86300 53.11000 26.00100
C  12.76500 53.83400 25.32600
C  12.96900 53.71000 23.93000
C  14.27500 52.98600 23.75600
C  11.63400 54.55500 26.01000
C  12.11300 54.24700 22.78400
O  12.46800 54.11100 21.63200
C  10.83200 54.89400 23.07800
N  17.12100 51.77200 23.34800
C  16.24900 52.20800 22.33300
C  16.89100 52.02600 20.94000
C  18.33000 51.47000 21.29100
C  18.24400 51.18700 22.79000
C  16.16300 51.06100 20.02000
C  19.58500 52.29600 20.86000
C  20.76900 51.56700 20.22900
N  18.38500 50.53400 25.66100
C  19.30900 50.04100 24.80300
C  20.29500 49.29300 25.55500
C  20.02300 49.63300 26.94000
C  18.79900 50.37100 26.95000
C  21.49500 48.56600 25.02000
C  20.43100 49.44300 28.27800
O  21.42100 48.83300 28.74500
C  19.34500 50.07000 29.20900
C  18.98600 49.03900 30.20500
O  18.36200 48.04700 29.89000
O  19.44600 49.26700 31.47000
C  19.18500 48.27500 32.54900
H  13.10500 53.07200 27.97300
H  14.44600 53.19500 21.71200
H  20.10900 50.08100 22.77000
H  16.30700 50.32800 30.28100
H  14.66200 52.75500 30.01100
H  13.97100 49.85100 30.43800
H  13.18000 50.81700 29.11200
H  13.08000 51.33900 30.81200
H  16.37300 53.16700 31.01700
H  17.89900 52.77500 30.35900
H  18.33400 52.16700 32.59300
H  17.53100 50.65900 32.14600
H  10.66000 54.11000 25.80400
H  11.70500 55.63300 25.86200
H  11.92600 54.30900 27.03000
H  10.17400 54.23400 23.64300
H  10.40700 55.11200 22.09900
H  10.86200 55.85400 23.59500
H  16.90000 53.03500 20.52900
H  18.55500 50.51300 20.81900
H  15.91400 50.14100 20.54900
H  16.90300 50.65900 19.32800
H  15.32400 51.53900 19.51500
H  19.85700 52.67800 21.84400
H  19.42900 53.18100 20.24200
H  20.82800 52.02100 19.24000
H  20.68700 50.48200 20.17400
H  21.67800 51.75600 20.80100
H  21.61800 48.60300 23.93800
H  21.52800 47.49400 25.21500
H  22.39700 49.00900 25.44400
H  19.75100 50.89900 29.78800
H  18.87400 48.78800 33.45900
H  20.14200 47.78600 32.73400
H  18.43100 47.51400 32.35200

