158

Mg 24.44000 -6.84300 46.73100
C  26.74000 -4.63400 45.15900
C  22.07400 -5.56200 44.60700
C  22.60200 -9.64900 47.33300
C  27.18800 -8.43000 48.27000
N  24.45200 -5.28500 45.06700
C  25.51500 -4.56600 44.55000
C  25.01700 -3.46600 43.59200
C  23.44100 -3.52700 43.67300
C  23.27600 -4.81400 44.56500
C  22.64700 -2.36500 44.28500
C  25.65300 -3.68500 42.12700
C  26.15900 -2.42200 41.50600
H  26.16100 -2.27700 39.95400
N  22.60000 -7.44200 46.18500
C  21.76000 -6.66100 45.38700
C  20.40700 -7.28400 45.36700
C  20.52300 -8.51900 46.13400
C  21.89700 -8.53700 46.64700
C  19.25500 -6.66100 44.68400
C  19.29900 -9.51700 46.25000
O  18.19800 -9.29600 45.72800
C  19.41500 -10.88600 46.93900
N  24.86100 -8.73800 47.70000
C  23.88000 -9.65000 47.90300
C  24.34200 -10.83700 48.73500
C  25.85400 -10.48700 48.97600
C  26.02900 -9.10500 48.24600
C  23.58300 -11.09200 50.02100
C  26.82800 -11.61400 48.67300
C  27.63400 -11.61000 47.38300
N  26.53300 -6.50400 46.86800
C  27.50400 -7.24600 47.55000
C  28.77600 -6.53400 47.34900
C  28.51700 -5.48300 46.48300
C  27.13300 -5.56100 46.13400
C  30.13200 -7.07000 47.82900
C  29.13600 -4.37600 45.74800
O  30.28700 -4.01900 45.76500
C  27.98100 -3.69800 44.91300
C  27.73600 -2.29400 45.26600
O  27.80700 -1.38900 44.41100
O  27.43300 -2.08100 46.57000
C  27.14700 -0.77300 47.09100
H  21.25800 -5.22900 43.96200
H  22.15400 -10.63400 47.47700
H  28.00600 -8.95500 48.76800
H  25.38400 -2.55800 44.07100
H  23.02900 -3.79000 42.69900
H  22.27800 -1.77000 43.45000
H  23.25400 -1.78300 44.97800
H  21.71600 -2.68000 44.75700
H  24.82600 -4.10700 41.55500
H  26.45900 -4.41800 42.12300
H  27.18900 -2.24200 41.81300
H  25.59800 -1.59300 41.93800
H  19.46700 -6.59000 43.61700
H  19.17400 -5.70500 45.20200
H  18.33200 -7.24100 44.67000
H  20.02400 -11.54500 46.32000
H  18.51900 -11.47400 47.13500
H  19.87600 -10.74400 47.91600
H  24.34000 -11.75700 48.15000
H  26.00000 -10.33400 50.04600
H  23.27200 -12.13100 50.13300
H  22.68200 -10.48400 49.93500
H  24.10400 -10.81100 50.93700
H  26.22900 -12.52500 48.67900
H  27.51400 -11.76200 49.50700
H  28.70000 -11.45900 47.55500
H  27.13400 -10.85100 46.78000
H  27.48200 -12.53000 46.81800
H  30.30500 -7.97700 47.25000
H  30.06500 -7.45000 48.84900
H  30.93500 -6.33900 47.73400
H  28.30200 -3.74600 43.87300
H  26.31100 -0.80700 47.79000
H  26.98200 0.04000 46.38400
H  27.97800 -0.46700 47.72600
Mg 9.36600 47.17200 28.01600
C  7.46100 46.99300 31.02300
C  12.13100 47.50100 29.90900
C  10.92600 47.88600 25.23900
C  6.17100 47.45000 26.22300
N  9.71000 47.44500 30.27900
C  8.84000 47.15900 31.20100
C  9.55200 47.32500 32.59500
C  10.95800 47.51600 32.18700
C  10.97000 47.44800 30.67600
C  11.49400 48.95100 32.61300
C  9.20900 46.05600 33.42400
C  10.22200 45.52700 34.49000
H  9.68300 44.75700 35.72900
N  11.24900 47.44900 27.64500
C  12.26200 47.57500 28.51900
C  13.52400 47.79600 27.76500
C  13.21000 47.68200 26.35500
C  11.76700 47.57500 26.34900
C  14.86200 47.88600 28.42700
C  14.11200 47.69400 25.05200
O  13.60700 47.68400 23.94400
C  15.52800 47.62600 25.06500
N  8.63800 47.53700 25.91200
C  9.56100 47.86800 25.02300
C  8.88200 48.29600 23.76200
C  7.36100 48.21400 23.95600
C  7.35600 47.66900 25.44800
C  9.33400 49.67700 23.14600
C  6.49600 47.27300 22.93900
C  6.58900 47.79100 21.48500
N  7.26800 47.28200 28.47000
C  6.16400 47.26200 27.65100
C  4.95100 47.20700 28.45100
C  5.40400 47.02800 29.73900
C  6.82200 47.06400 29.71800
C  3.55500 47.36500 27.99100
C  4.99400 46.82200 31.09800
O  3.87900 46.59900 31.56100
C  6.29800 46.80800 32.00600
C  6.18800 45.40500 32.62100
O  6.34800 44.39400 31.96900
O  5.66800 45.50600 33.88400
C  5.69300 44.24400 34.59300
H  13.03500 47.58100 30.51600
H  11.45400 48.27100 24.36300
H  5.18100 47.32100 25.78000
H  9.13900 48.17600 33.13500
H  11.59700 46.77300 32.66400
H  10.73700 49.45800 33.21100
H  11.77900 49.55400 31.75100
H  12.39100 48.82800 33.22000
H  9.13900 45.14900 32.82400
H  8.23800 46.13000 33.91400
H  10.67900 46.42000 34.91600
H  11.14400 45.07200 34.12800
H  15.33500 46.90700 28.50700
H  14.72100 48.32300 29.41600
H  15.52800 48.44100 27.76700
H  15.80500 47.09800 25.97800
H  16.14200 48.52600 25.09800
H  15.90200 47.05400 24.21500
H  9.07400 47.47200 23.07400
H  6.88700 49.19600 23.94500
H  10.18800 50.06800 23.70000
H  8.59000 50.47100 23.22000
H  9.60000 49.59300 22.09200
H  5.48000 47.20500 23.32900
H  6.84000 46.24100 22.87700
H  7.21100 48.68000 21.38400
H  5.60300 48.12600 21.16200
H  6.99900 47.01900 20.83400
H  3.42800 48.07300 27.17100
H  3.10500 47.89300 28.83200
H  3.16400 46.35500 27.87500
H  6.31500 47.60400 32.75100
H  5.37900 44.31400 35.63500
H  6.67800 43.77800 34.57800
H  5.09400 43.48600 34.08800

