158

Mg 30.92000 58.23400 40.06000
C  28.15800 56.52400 38.87400
C  32.90700 55.59700 39.13500
C  33.52300 60.24200 40.47300
C  28.86100 61.19600 40.24800
N  30.59500 56.28900 38.97400
C  29.38100 55.74800 38.78200
C  29.48600 54.18300 38.45600
C  31.05700 53.87200 38.74500
C  31.61500 55.36400 38.96800
C  31.15300 52.92200 39.91500
C  29.00600 53.75300 37.01100
C  29.73100 54.53500 35.82700
H  28.75600 55.36300 34.96000
N  32.92400 57.93200 39.89900
C  33.53100 56.81900 39.52200
C  34.96200 57.03800 39.51200
C  35.20700 58.35900 39.87300
C  33.89300 58.90100 40.16600
C  36.05000 56.01800 39.29800
C  36.60300 59.01100 39.97900
O  37.58500 58.34000 39.67100
C  36.82900 60.35700 40.52400
N  31.14300 60.48600 40.37600
C  32.38000 60.99500 40.56500
C  32.31600 62.49900 40.95500
C  30.75900 62.80400 40.75200
C  30.19800 61.40600 40.53200
C  32.93500 62.89900 42.34500
C  30.39500 63.75000 39.58700
C  30.32600 65.26500 39.79300
N  28.88600 58.75300 39.83400
C  28.28700 59.95500 39.88000
C  26.92700 59.75200 39.66600
C  26.77700 58.42500 39.34500
C  28.04700 57.86400 39.28500
C  25.79300 60.78600 39.68400
C  25.86100 57.32500 38.94800
O  24.61600 57.28200 38.78900
C  26.74200 56.05800 38.77100
C  26.51800 54.94700 39.76000
O  27.17500 54.71200 40.79600
O  25.56100 54.06400 39.27200
C  25.21400 52.98500 40.20700
H  33.47300 54.66700 39.04100
H  34.40200 60.86000 40.66600
H  28.18600 62.05200 40.30800
H  28.89900 53.66700 39.21500
H  31.61000 53.41400 37.92600
H  30.19300 52.69200 40.37700
H  31.62600 53.49900 40.71000
H  31.67500 52.00100 39.65300
H  27.94100 53.77700 36.78000
H  29.34300 52.72400 36.88700
H  30.22700 53.83700 35.15300
H  30.37100 55.28600 36.29000
H  36.73600 56.35600 38.52100
H  35.72300 54.97900 39.25600
H  36.66700 56.04100 40.19600
H  36.31600 60.55000 41.46600
H  36.60000 61.04600 39.71100
H  37.89900 60.42300 40.72000
H  32.79500 63.16300 40.23600
H  30.38200 63.25200 41.67200
H  32.21400 62.98600 43.15800
H  33.62800 63.73400 42.24800
H  33.59100 62.07000 42.61000
H  29.48100 63.43500 39.08400
H  31.09300 63.53300 38.77900
H  29.50400 65.71200 39.23400
H  31.23600 65.73900 39.42400
H  30.06800 65.44900 40.83600
H  26.20700 61.75300 39.39800
H  25.38300 60.86300 40.69100
H  25.08500 60.45400 38.92500
H  26.55000 55.69300 37.76200
H  24.40600 53.36100 40.83500
H  26.05900 52.63900 40.80300
H  24.94500 52.17500 39.52900
Mg 0.50900 43.19700 26.85000
C  3.17900 43.48300 29.11900
C  -1.47100 42.60200 29.56100
C  -1.89700 42.59000 24.72400
C  2.76900 43.54800 24.28300
N  0.88700 42.87000 29.13300
C  2.00600 43.26100 29.80800
C  1.75500 43.27500 31.27600
C  0.36900 42.49900 31.41700
C  -0.14100 42.68500 29.98900
C  0.44000 41.07700 31.95900
C  1.69900 44.69200 31.68500
C  1.51200 45.02300 33.18300
H  1.37100 43.95100 34.20100
N  -1.46900 42.80800 27.09500
C  -2.15200 42.59000 28.28500
C  -3.48700 42.34000 28.05800
C  -3.66000 42.29900 26.66800
C  -2.32800 42.53300 26.06200
C  -4.51700 42.03300 29.12700
C  -4.88200 42.05900 25.85300
O  -4.87100 41.96900 24.64000
C  -6.27900 41.87500 26.46100
N  0.49300 42.97700 24.84600
C  -0.64300 42.73900 24.15300
C  -0.28800 42.51700 22.67800
C  1.09900 43.14300 22.50900
C  1.51400 43.20800 23.97700
C  -0.53700 40.95100 22.29100
C  1.15200 44.45900 21.63800
C  2.29100 44.40700 20.54900
N  2.51600 43.51200 26.63300
C  3.33700 43.65400 25.50500
C  4.71600 43.64300 25.81800
C  4.65700 43.65700 27.24800
C  3.32900 43.51100 27.63400
C  5.98400 43.79800 24.95600
C  5.50400 43.66800 28.44600
O  6.76800 43.64500 28.63900
C  4.49000 43.83500 29.68400
C  4.99300 43.01400 30.80000
O  5.14300 41.79300 30.76100
O  5.31300 43.83500 31.86500
C  5.85700 43.10000 33.06400
H  -2.22200 42.33900 30.30900
H  -2.70200 42.48400 23.99400
H  3.36600 43.76100 23.39300
H  2.50500 42.60900 31.70400
H  -0.20500 42.97100 32.21500
H  0.22700 41.13800 33.02600
H  1.42200 40.61800 31.84200
H  -0.27200 40.55700 31.31800
H  1.01300 45.28600 31.08100
H  2.63500 45.15900 31.38100
H  0.71700 45.76900 33.19400
H  2.52900 45.38400 33.34000
H  -5.04700 42.89300 29.53900
H  -4.00300 41.51100 29.93300
H  -5.27700 41.31500 28.82000
H  -7.03400 42.14500 25.72200
H  -6.47700 42.61400 27.23700
H  -6.36500 40.87900 26.89500
H  -0.93400 43.16700 22.08800
H  1.67700 42.32400 22.08000
H  -1.19900 40.52700 23.04700
H  0.32800 40.29000 22.33300
H  -0.99400 40.78600 21.31600
H  1.47400 45.18500 22.38500
H  0.20700 44.86100 21.27300
H  1.73200 44.25100 19.62600
H  3.04200 43.64500 20.75500
H  2.75100 45.39500 20.58800
H  6.52000 42.85000 24.89500
H  6.66100 44.53800 25.38300
H  5.61000 43.99800 23.95200
H  4.59800 44.87900 29.97800
H  4.94200 43.03700 33.65400
H  6.61200 43.62800 33.64600
H  6.19200 42.08600 32.84400

