158

Mg 24.40100 -5.30100 46.30200
C  26.51700 -2.98200 44.36800
C  21.81800 -4.49200 44.28700
C  23.03700 -8.15400 47.28700
C  27.47700 -6.28000 47.88600
N  24.27400 -4.09000 44.43100
C  25.16800 -3.07800 44.00800
C  24.53100 -2.34900 42.85800
C  23.02200 -2.47000 43.21000
C  22.99800 -3.73100 44.00800
C  22.37800 -1.28400 44.06300
C  24.93100 -2.82600 41.39500
C  25.57800 -1.72200 40.49100
H  25.43000 -1.83800 38.96500
N  22.59400 -6.07400 45.99300
C  21.62700 -5.62200 45.09900
C  20.52500 -6.58900 45.08100
C  20.82800 -7.61700 46.03700
C  22.17800 -7.30500 46.51000
C  19.41000 -6.59200 44.04500
C  19.98800 -8.84800 46.33300
O  18.87800 -8.97100 45.79100
C  20.35700 -9.91600 47.25900
N  25.17400 -6.96300 47.45900
C  24.36800 -7.99300 47.72600
C  24.98700 -8.94600 48.75600
C  26.33600 -8.22000 49.17000
C  26.33500 -7.07900 48.12300
C  24.05200 -9.53500 49.88000
C  27.58500 -9.20900 49.11200
C  28.58000 -9.08000 50.25700
N  26.53600 -4.67500 46.37200
C  27.57600 -5.17600 47.06800
C  28.77800 -4.36600 46.79700
C  28.38400 -3.53400 45.77400
C  27.05000 -3.77400 45.50900
C  30.13200 -4.56800 47.49900
C  28.74600 -2.41600 44.91100
O  29.76600 -1.78200 44.90500
C  27.64300 -2.11900 43.83900
C  27.39200 -0.67100 43.99800
O  27.17800 -0.03400 45.04000
O  27.49200 -0.07100 42.73600
C  27.27500 1.40900 42.74200
H  20.96700 -4.09400 43.72900
H  22.70000 -9.16200 47.53900
H  28.29700 -6.39200 48.59900
H  24.67000 -1.26800 42.84700
H  22.41700 -2.51200 42.30400
H  23.10400 -0.53200 44.36900
H  21.78700 -1.62800 44.91200
H  21.62900 -0.79400 43.44100
H  24.20700 -3.42300 40.84200
H  25.69100 -3.55100 41.68700
H  26.65100 -1.65800 40.67400
H  25.10900 -0.85200 40.95000
H  19.60100 -7.24900 43.19700
H  19.25100 -5.57300 43.69000
H  18.50100 -7.00300 44.48400
H  19.58800 -10.68700 47.29900
H  20.49800 -9.48900 48.25200
H  21.22700 -10.42300 46.84100
H  25.25300 -9.83800 48.18900
H  26.26500 -7.69200 50.12100
H  24.56600 -9.55100 50.84100
H  23.92300 -10.60600 49.72100
H  23.12600 -8.96100 49.92800
H  28.10100 -9.18000 48.15200
H  27.05000 -10.15500 49.20300
H  28.33300 -9.85800 50.97900
H  28.53200 -8.09600 50.72200
H  29.60000 -9.30600 49.94500
H  30.21000 -4.11200 48.48600
H  30.93200 -4.13700 46.89700
H  30.24800 -5.64500 47.61400
H  28.05300 -2.38800 42.86600
H  26.46100 1.58900 43.44400
H  27.04500 1.77800 41.74200
H  28.21500 1.88900 43.01200
Mg 39.73100 9.47100 28.68100
C  41.86600 10.24000 31.37300
C  37.76300 7.68300 30.95400
C  37.87400 8.59200 26.02400
C  42.16300 10.55600 26.54600
N  39.84900 8.91600 30.96700
C  40.76300 9.49500 31.82000
C  40.25500 9.20700 33.20900
C  39.28400 7.98800 32.96300
C  38.85400 8.24700 31.56300
C  40.02500 6.64700 33.13400
C  39.57400 10.50500 33.79600
C  39.47400 10.72800 35.25200
H  40.03900 11.99300 35.83900
N  38.03700 8.40800 28.48800
C  37.41800 7.69500 29.50600
C  36.35600 6.94800 28.91800
C  36.28900 7.26000 27.56900
C  37.44000 8.07000 27.30400
C  35.43700 6.04400 29.76600
C  35.29800 6.87600 26.50700
O  35.48000 7.10100 25.28100
C  34.00800 6.06000 26.87400
N  39.89900 9.62200 26.60700
C  39.02500 9.19800 25.67700
C  39.44800 9.36500 24.21400
C  40.75700 10.29300 24.48000
C  40.98800 10.11300 25.95800
C  39.68200 8.13600 23.36300
C  40.55700 11.72000 24.05000
C  39.15000 12.42400 24.22500
N  41.63300 10.23000 28.88500
C  42.54400 10.65000 27.92800
C  43.67600 11.38900 28.52500
C  43.34400 11.28400 29.90100
C  42.20300 10.44700 30.03400
C  44.87500 12.00100 27.87700
C  43.82800 11.71500 31.19700
O  44.77800 12.48800 31.43800
C  42.90800 11.01000 32.19100
C  43.63400 10.23000 33.28900
O  44.70900 9.67600 33.20500
O  42.92300 10.28300 34.46400
C  43.46800 9.67000 35.73500
H  37.10200 7.11400 31.61100
H  37.23800 8.34800 25.17000
H  42.89000 11.05200 25.90000
H  41.04400 8.98300 33.92700
H  38.41600 7.99200 33.62200
H  40.91600 6.69300 33.76000
H  40.29700 6.27000 32.14800
H  39.35100 5.89100 33.53700
H  38.57400 10.59200 33.37200
H  40.09900 11.24000 33.18700
H  39.86500 9.93900 35.89400
H  38.39200 10.82200 35.34700
H  35.89800 5.65400 30.67400
H  35.10700 5.09300 29.34600
H  34.54400 6.60300 30.04600
H  34.31100 5.11600 27.32700
H  33.36200 5.92600 26.00700
H  33.55900 6.70700 27.62700
H  38.72300 9.93700 23.63500
H  41.59000 9.92700 23.88000
H  39.35100 7.22200 23.85500
H  40.69100 8.03700 22.96200
H  38.96100 8.26700 22.55500
H  40.62100 11.77300 22.96400
H  41.29500 12.34500 24.55100
H  38.76700 12.51800 23.20900
H  39.20000 13.45800 24.56500
H  38.38300 11.89100 24.78800
H  44.76400 12.25900 26.82400
H  45.66100 11.25500 27.99600
H  45.19700 12.88200 28.43300
H  42.37100 11.72200 32.81800
H  44.19300 8.88000 35.54100
H  42.64700 9.14100 36.21700
H  43.77500 10.51200 36.35500

