158

Mg 2.12300 -0.88300 44.21400
C  5.58400 -0.35000 43.65000
C  1.51400 1.93600 42.26400
C  -1.11900 -1.82900 43.97900
C  2.93900 -4.16000 45.37700
N  3.47200 0.58100 42.98900
C  4.81800 0.58600 43.00400
C  5.34000 1.74500 42.18800
C  4.01700 2.54100 41.87700
C  2.92700 1.70900 42.44600
C  3.91700 3.97400 42.40800
C  6.03000 1.23300 40.90500
C  7.19100 2.08100 40.37300
H  6.73900 2.93600 39.23900
N  0.45000 0.00200 43.35800
C  0.40900 1.14600 42.66100
C  -0.99100 1.51200 42.48800
C  -1.82700 0.46100 42.92100
C  -0.85100 -0.53600 43.45000
C  -1.31400 2.96500 42.00200
C  -3.39800 0.51400 43.08500
O  -3.98200 1.52700 42.80400
C  -4.16800 -0.58500 43.66100
N  1.07900 -2.66200 44.75900
C  -0.28500 -2.75700 44.66600
C  -0.82300 -4.14500 45.13500
C  0.47600 -4.82100 45.57800
C  1.56400 -3.85200 45.18200
C  -1.88500 -4.04200 46.29500
C  0.65600 -6.22000 44.89000
C  1.28300 -7.32200 45.81600
N  3.92900 -1.96500 44.54700
C  4.05500 -3.24400 45.04000
C  5.49500 -3.50600 45.25100
C  6.14200 -2.34900 44.73800
C  5.10700 -1.48200 44.32800
C  5.95300 -4.73000 46.01200
C  7.42000 -1.72600 44.51400
O  8.51900 -2.18700 44.79200
C  7.10200 -0.33500 43.83500
C  7.73400 0.79100 44.67400
O  7.22500 1.20800 45.70300
O  8.80100 1.31500 44.03600
C  9.48700 2.41300 44.70300
H  1.37700 2.85600 41.69100
H  -2.13300 -2.23400 43.95500
H  3.00000 -5.21000 45.67300
H  5.92700 2.46800 42.75400
H  3.85600 2.69400 40.81000
H  3.86100 3.78200 43.47900
H  3.06500 4.54200 42.03200
H  4.80600 4.50900 42.07400
H  5.31800 1.08300 40.09300
H  6.48100 0.28800 41.20900
H  7.95200 1.37500 40.03900
H  7.54700 2.76400 41.14400
H  -2.35500 3.07200 41.69600
H  -0.71700 3.16300 41.11200
H  -1.07600 3.62800 42.83400
H  -5.16300 -0.27700 43.98100
H  -3.71800 -0.83800 44.62100
H  -4.16000 -1.40100 42.93800
H  -1.41200 -4.64600 44.36700
H  0.51900 -4.89100 46.66500
H  -1.74600 -4.82800 47.03700
H  -2.84000 -4.31900 45.84800
H  -2.04900 -3.04000 46.69300
H  1.31000 -6.01500 44.04300
H  -0.32400 -6.57000 44.56600
H  1.61900 -6.88500 46.75600
H  2.19500 -7.73700 45.38800
H  0.42100 -7.97600 45.95500
H  5.27300 -5.06100 46.79600
H  7.00800 -4.60500 46.25500
H  5.93300 -5.62600 45.39100
H  7.60900 -0.26100 42.87300
H  10.37600 2.63900 44.11500
H  9.73300 2.11800 45.72300
H  8.86900 3.30100 44.83100
Mg 36.11400 48.94500 24.65700
C  36.34700 47.04700 27.78000
C  35.13100 51.51000 26.34700
C  35.26200 50.15500 21.65200
C  37.04200 45.91700 23.01400
N  35.77100 49.18000 26.83800
C  36.03500 48.42500 27.91500
C  35.80200 49.20200 29.24600
C  35.39300 50.64900 28.75600
C  35.42100 50.44900 27.19300
C  34.01500 51.20500 29.31900
C  36.83300 49.11200 30.40500
C  36.30000 48.49500 31.72800
H  34.88500 48.75600 32.20100
N  35.29100 50.58400 24.12000
C  34.97100 51.59600 24.93400
C  34.42900 52.62100 24.18500
C  34.46300 52.27500 22.77500
C  35.00700 50.94900 22.77300
C  33.96300 53.90400 24.78900
C  34.12400 53.11400 21.56200
O  34.07700 52.74300 20.35900
C  33.59100 54.47300 21.73800
N  36.03000 48.06700 22.63100
C  35.66900 48.83600 21.55700
C  36.03200 48.15000 20.17400
C  36.71900 46.87500 20.69300
C  36.65200 46.96100 22.23700
C  34.88700 47.92500 19.17700
C  38.18300 46.68900 20.18200
C  39.32900 47.45600 20.96200
N  36.54800 46.76500 25.21300
C  37.01200 45.79400 24.41900
C  37.26100 44.62000 25.19800
C  36.92800 45.03900 26.52900
C  36.61600 46.39400 26.48600
C  37.68400 43.22400 24.73200
C  36.70600 44.55900 27.89100
O  36.60300 43.44600 28.39300
C  36.53900 45.90600 28.80500
C  35.36600 45.67100 29.59700
O  34.18200 45.95900 29.31100
O  35.73300 45.10400 30.78900
C  34.69300 44.54300 31.61200
H  34.82800 52.40300 26.89700
H  35.21600 50.73000 20.72500
H  37.35700 45.07300 22.39800
H  34.92300 48.66800 29.60700
H  36.22200 51.33700 28.91500
H  34.23700 52.25700 29.49800
H  33.74800 50.69600 30.24500
H  33.21100 51.15400 28.58500
H  37.26400 50.09400 30.60100
H  37.62400 48.52300 29.94200
H  36.98300 48.83600 32.50600
H  36.45500 47.42600 31.57500
H  32.99900 54.28400 24.45100
H  34.64200 54.74600 24.65200
H  33.91000 53.83500 25.87600
H  34.35500 54.90300 22.38500
H  32.61500 54.44100 22.22200
H  33.48400 55.06500 20.82900
H  36.74900 48.83600 19.72400
H  36.12900 45.97700 20.51300
H  34.03700 48.54300 19.46800
H  34.59200 46.88200 19.06200
H  35.27900 48.23900 18.20900
H  38.23400 46.95600 19.12600
H  38.38900 45.62300 20.27800
H  38.89600 48.07200 21.75100
H  39.89300 48.14500 20.33300
H  40.09900 46.79800 21.36400
H  37.05800 42.87800 23.90900
H  37.60200 42.50100 25.54300
H  38.74600 43.27500 24.49100
H  37.47000 45.94600 29.37100
H  33.96400 43.94000 31.07100
H  34.03600 45.28400 32.06700
H  35.10200 43.82000 32.31700

