158

Mg 1.38500 42.06000 25.94500
C  2.77700 42.31100 29.14300
C  -1.67200 41.25300 27.42500
C  0.12600 41.32900 22.92200
C  4.47700 42.65600 24.57700
N  0.67100 41.78900 28.11700
C  1.42000 42.01300 29.20000
C  0.41200 41.97000 30.40400
C  -0.95600 41.48200 29.87500
C  -0.64600 41.51200 28.41400
C  -1.37300 40.00900 30.22300
C  0.26500 43.36900 31.12200
C  0.20200 43.44300 32.63700
H  0.01800 42.08700 33.54900
N  -0.53700 41.53800 25.29000
C  -1.62800 41.21600 25.99700
C  -2.72100 40.86600 25.14200
C  -2.25600 40.98600 23.80800
C  -0.83600 41.38700 23.93800
C  -4.07800 40.32100 25.66600
C  -3.03600 40.77300 22.50600
O  -2.52500 40.90200 21.39200
C  -4.54600 40.41400 22.51400
N  2.17400 42.08300 24.05000
C  1.46600 41.62800 22.91300
C  2.29400 41.77500 21.66100
C  3.60100 42.48300 22.16700
C  3.46300 42.41400 23.69800
C  2.44300 40.40400 21.04600
C  3.90900 44.02300 21.73500
C  2.66800 44.93100 21.49500
N  3.31600 42.33500 26.65800
C  4.49600 42.63700 25.98100
C  5.61500 42.65700 26.98200
C  4.97900 42.48800 28.22600
C  3.56500 42.37200 27.97600
C  7.04600 42.78000 26.59200
C  5.13200 42.37900 29.67800
O  6.17600 42.26900 30.33900
C  3.66900 42.31400 30.29800
C  3.60300 41.20300 31.13000
O  3.32500 40.08200 30.79000
O  4.04400 41.58600 32.35200
C  4.24100 40.63700 33.44000
H  -2.65500 41.18900 27.89600
H  -0.22600 41.05700 21.92500
H  5.38200 42.77800 23.97800
H  0.93600 41.24900 31.03200
H  -1.80500 42.12600 30.10600
H  -1.42300 39.40200 29.31900
H  -2.35800 39.94100 30.68600
H  -0.65400 39.60900 30.93800
H  -0.71600 43.71800 30.79900
H  1.01400 44.09700 30.81300
H  -0.62200 44.14100 32.78100
H  1.18700 43.81800 32.91500
H  -4.90100 40.84000 25.17500
H  -4.26700 40.66600 26.68300
H  -4.19200 39.24500 25.53300
H  -4.96400 40.06700 21.56900
H  -5.06800 41.17500 23.09300
H  -4.35700 39.45900 23.00400
H  1.79900 42.45200 20.96500
H  4.43600 41.90400 21.77200
H  3.37700 40.21400 20.51800
H  1.69200 40.26700 20.26800
H  2.27600 39.61400 21.77700
H  4.45400 43.91300 20.79800
H  4.58200 44.51600 22.43600
H  1.71500 44.48100 21.77400
H  2.57600 45.20000 20.44300
H  2.71100 45.89500 22.00100
H  7.20700 42.50700 25.54900
H  7.50700 42.09400 27.30300
H  7.39700 43.79800 26.76100
H  3.48500 43.19900 30.90700
H  5.24000 40.21900 33.57100
H  3.60500 39.78400 33.20300
H  3.91600 41.06800 34.38700
Mg -1.95600 33.80900 26.96300
C  -3.76500 32.06200 29.45500
C  -0.73300 35.90000 29.31700
C  -0.67500 35.54700 24.47100
C  -3.93700 31.97800 24.62000
N  -2.42000 34.12600 29.17400
C  -2.90100 33.11400 29.92300
C  -2.70500 33.45000 31.43500
C  -1.98900 34.79700 31.39200
C  -1.65600 34.95700 29.88200
C  -2.82700 35.92100 31.97900
C  -1.87000 32.28400 32.18300
C  -2.52600 31.89500 33.60600
H  -1.49700 31.95200 34.77700
N  -0.76400 35.37100 26.92700
C  -0.31700 36.07400 27.96200
C  0.69500 37.02100 27.49700
C  0.69200 36.97300 26.10100
C  -0.27400 35.87800 25.75500
C  1.46600 37.91200 28.48600
C  1.47100 37.78600 25.09100
O  1.47800 37.51800 23.92700
C  2.29700 39.04000 25.52300
N  -2.25000 33.72600 24.80100
C  -1.56200 34.52300 23.99500
C  -2.13600 34.44200 22.57100
C  -2.99800 33.13500 22.62200
C  -3.09700 32.89100 24.10500
C  -2.96600 35.66900 22.13700
C  -2.30000 31.99300 21.79800
C  -1.27200 31.04900 22.50200
N  -3.49400 32.36600 26.97600
C  -4.09600 31.64400 25.95900
C  -4.87700 30.53600 26.46600
C  -4.77200 30.63600 27.90800
C  -3.93500 31.76100 28.09600
C  -5.49000 29.42900 25.59400
C  -5.26500 30.18700 29.23200
O  -6.11200 29.37500 29.51300
C  -4.44200 31.00600 30.27100
C  -5.39500 31.54200 31.19300
O  -6.16300 32.45700 30.98900
O  -5.46800 30.74100 32.34100
C  -6.47700 30.90200 33.40000
H  -0.23500 36.55300 30.03700
H  -0.33600 36.28900 23.74400
H  -4.50600 31.57100 23.78200
H  -3.70100 33.63900 31.83300
H  -1.04300 34.89900 31.92500
H  -3.65800 35.57900 32.59500
H  -3.32500 36.41200 31.14300
H  -2.16300 36.60200 32.51100
H  -0.83900 32.63400 32.24900
H  -1.75500 31.36300 31.61100
H  -2.78300 30.83800 33.68300
H  -3.34800 32.57200 33.84000
H  1.31900 38.96600 28.25100
H  2.51600 37.62100 28.46500
H  1.13800 37.70700 29.50500
H  2.89000 39.41800 24.69000
H  2.96000 38.62000 26.28000
H  1.71000 39.83100 25.98800
H  -1.28100 34.32800 21.90400
H  -4.04100 33.31600 22.36300
H  -2.59300 36.12900 21.22300
H  -3.08200 36.47700 22.86000
H  -4.01000 35.45800 21.90200
H  -1.95000 32.42200 20.85900
H  -3.10300 31.38000 21.38800
H  -1.62500 30.82500 23.50800
H  -0.26800 31.47500 22.48600
H  -1.39700 30.09000 21.99900
H  -4.76500 29.23100 24.80400
H  -6.37700 29.86100 25.13000
H  -5.65800 28.47300 26.09100
H  -3.74800 30.31900 30.75500
H  -7.19000 31.71900 33.29200
H  -5.97400 31.12000 34.34200
H  -6.98200 29.96100 33.62200

