158

Mg 25.89700 0.35000 29.73100
C  27.96300 0.22400 32.42100
C  23.18600 0.66500 31.78000
C  23.88100 0.23000 27.00900
C  28.67400 -0.19300 27.63700
N  25.61900 0.29700 31.81200
C  26.59200 0.32400 32.77900
C  26.06800 0.43000 34.28000
C  24.52300 0.39900 33.95200
C  24.43900 0.44300 32.42500
C  23.85700 -0.76100 34.59900
C  26.57600 1.57100 35.10900
C  25.75900 2.21700 36.19900
H  26.69900 2.54900 37.43000
N  23.83900 0.53600 29.42000
C  22.90000 0.69600 30.40500
C  21.61400 0.79300 29.80900
C  21.79200 0.78100 28.44000
C  23.23600 0.51200 28.22400
C  20.29200 0.83000 30.58800
C  20.78100 1.11100 27.29000
O  21.14800 1.10500 26.09200
C  19.31500 1.38300 27.60400
N  26.23500 0.04100 27.73400
C  25.22800 0.00400 26.77600
C  25.72700 -0.20200 25.35900
C  27.23500 -0.35400 25.54400
C  27.46800 -0.05700 27.01400
C  24.99500 -1.42300 24.72600
C  28.07300 0.65900 24.66800
C  28.29200 2.10500 25.21100
N  27.87900 0.15800 29.90700
C  28.91300 -0.13900 29.02600
C  30.21300 -0.26000 29.77200
C  29.91000 -0.10700 31.13200
C  28.48800 0.11700 31.11500
C  31.57600 -0.48500 29.18100
C  30.39600 -0.04800 32.44300
O  31.53600 -0.15400 32.91000
C  29.16800 0.12100 33.29500
C  29.10000 -1.04500 34.22600
O  28.69100 -2.10300 33.92300
O  29.64600 -0.72600 35.39500
C  29.65700 -1.69300 36.46800
H  22.32000 0.83200 32.42400
H  23.29300 0.20000 26.08900
H  29.52700 -0.47700 27.01700
H  26.44900 -0.53800 34.60700
H  23.97700 1.21200 34.43100
H  24.60500 -1.55400 34.59800
H  23.06600 -1.20200 33.99400
H  23.57400 -0.54000 35.62800
H  26.97900 2.36300 34.47800
H  27.35600 1.05400 35.66900
H  24.99600 1.47200 36.42100
H  25.35700 3.15800 35.82300
H  19.66300 -0.00300 30.27200
H  19.79400 1.76700 30.34200
H  20.48900 0.74300 31.65700
H  18.95600 0.53900 28.19300
H  18.74600 1.40500 26.67500
H  19.23400 2.30100 28.18700
H  25.51700 0.68100 24.75500
H  27.57000 -1.36200 25.30200
H  24.34100 -2.02500 25.35500
H  25.57100 -2.18100 24.19600
H  24.35400 -1.04300 23.93000
H  27.50200 0.68500 23.74000
H  29.05100 0.21700 24.47800
H  28.05300 2.39400 26.23400
H  27.65100 2.76800 24.63000
H  29.31700 2.31200 24.90100
H  31.62700 -0.05600 28.18100
H  31.75900 -1.55900 29.16500
H  32.35300 0.02200 29.75500
H  29.30600 1.04600 33.85400
H  28.81000 -1.54300 37.13700
H  30.64100 -1.65800 36.93600
H  29.62000 -2.73500 36.15200
Mg 35.58100 2.40700 30.14900
C  33.04900 3.14800 32.34100
C  37.86200 2.73700 32.65900
C  37.95100 1.83100 27.80300
C  33.22600 2.55600 27.45000
N  35.46600 2.93500 32.22800
C  34.32600 2.96200 32.94300
C  34.50700 2.93100 34.47700
C  36.06700 3.22500 34.49700
C  36.55700 2.94600 33.06500
C  36.39200 4.65600 34.87200
C  33.98400 1.66700 35.26500
C  33.60700 1.89200 36.79800
H  34.40700 2.93300 37.66400
N  37.59200 2.24900 30.29500
C  38.35100 2.45400 31.43300
C  39.77100 2.21300 31.06200
C  39.79200 1.80900 29.70900
C  38.40200 1.96100 29.22900
C  40.91400 2.19000 32.06900
C  40.94300 1.43700 28.74200
O  40.77400 0.90800 27.59400
C  42.38100 1.49200 29.18400
N  35.62400 2.39500 27.86700
C  36.76600 1.99800 27.23000
C  36.44900 1.69000 25.74700
C  34.96400 2.01700 25.65300
C  34.53800 2.42600 27.06300
C  37.35600 2.38300 24.74300
C  34.08500 0.88900 24.96500
C  33.58700 -0.27400 25.83600
N  33.50000 2.67900 29.91100
C  32.70100 2.73700 28.72600
C  31.31500 3.01600 29.15800
C  31.39800 3.25500 30.56100
C  32.73600 2.98800 30.94800
C  30.09400 3.23000 28.29700
C  30.73100 3.64800 31.79300
O  29.58100 4.06800 31.95200
C  31.74900 3.38400 33.01700
C  31.73500 4.62200 33.84700
O  32.35800 5.70900 33.69600
O  30.85100 4.40400 34.87200
C  31.06400 5.15900 36.13700
H  38.65900 2.93100 33.37900
H  38.67600 1.61300 27.01600
H  32.44400 2.48500 26.69100
H  33.98600 3.79800 34.88300
H  36.70500 2.61100 35.13300
H  37.16500 4.80900 35.62500
H  35.49600 5.17000 35.22100
H  36.61600 5.26000 33.99300
H  34.73000 0.87500 35.32500
H  33.14200 1.28300 34.68800
H  33.83300 0.94700 37.29300
H  32.53600 2.09500 36.79600
H  40.53400 2.17400 33.09100
H  41.57900 3.04100 31.92200
H  41.63100 1.37200 32.00500
H  42.97100 1.63300 28.27800
H  42.55800 0.52300 29.65100
H  42.55100 2.33800 29.85000
H  36.59300 0.61600 25.63600
H  34.87000 2.95700 25.11000
H  36.83500 2.94100 23.96400
H  37.98800 1.66300 24.22400
H  37.97500 3.03100 25.36300
H  34.67100 0.50100 24.13100
H  33.21000 1.32900 24.48500
H  34.05500 -1.15100 25.39000
H  32.49800 -0.31200 25.84600
H  33.91300 -0.14300 26.86800
H  29.17400 2.76800 28.65500
H  30.18000 2.72800 27.33400
H  30.01200 4.28900 28.05000
H  31.38300 2.59300 33.67200
H  30.82200 6.21900 36.06000
H  32.04400 4.92500 36.55400
H  30.38400 4.76000 36.89000

