158

Mg 16.27100 -2.59900 28.44200
C  15.36500 -0.15800 30.88400
C  17.99500 -4.16200 31.07500
C  17.69100 -4.66700 26.23800
C  15.27400 -0.37700 25.96100
N  16.72800 -2.05700 30.65800
C  16.06700 -1.16800 31.47900
C  16.39300 -1.41900 32.99700
C  17.46500 -2.57300 32.86200
C  17.40600 -2.97300 31.44000
C  18.83800 -2.11600 33.43200
C  15.11300 -1.88800 33.73700
C  14.94500 -1.22800 35.06200
H  16.17200 -0.69300 35.86200
N  17.48800 -4.27600 28.65600
C  18.01100 -4.78700 29.81500
C  18.72700 -6.00000 29.49800
C  18.67100 -6.22200 28.08800
C  17.92600 -5.03400 27.57000
C  19.27300 -6.90200 30.64400
C  19.16700 -7.43900 27.31500
O  18.85100 -7.61600 26.15800
C  20.07500 -8.43900 27.94400
N  16.24200 -2.62400 26.35400
C  17.02900 -3.54000 25.62900
C  16.91500 -3.18000 24.15100
C  16.03800 -1.89300 24.06600
C  15.81200 -1.61200 25.57200
C  18.21500 -3.22000 23.28800
C  14.73200 -2.00600 23.32500
C  14.33800 -0.84000 22.40100
N  15.34300 -0.78200 28.35300
C  15.02600 0.01500 27.34000
C  14.31700 1.19700 27.76700
C  14.44100 1.17800 29.17000
C  15.09500 -0.03200 29.47800
C  13.67000 2.28800 26.98600
C  14.09000 1.89000 30.36200
O  13.42900 2.88100 30.54600
C  14.62700 1.04900 31.60200
C  15.60300 1.85300 32.32100
O  16.58300 2.32700 31.83300
O  15.10300 2.28900 33.56800
C  15.88700 3.32000 34.26400
H  18.45000 -4.74000 31.88200
H  18.18700 -5.34600 25.54100
H  14.79400 0.21000 25.17500
H  16.77000 -0.49700 33.44000
H  17.17800 -3.46900 33.41200
H  18.79000 -2.47800 34.45900
H  18.86800 -1.02700 33.46800
H  19.67900 -2.49600 32.85200
H  15.04300 -2.96000 33.92300
H  14.28300 -1.54700 33.11800
H  14.36000 -1.88400 35.70700
H  14.25800 -0.38600 34.97600
H  19.16600 -7.96900 30.44400
H  18.81600 -6.72400 31.61800
H  20.30800 -6.57300 30.73200
H  19.59800 -9.17600 28.59000
H  20.73300 -7.95200 28.66400
H  20.77100 -8.78400 27.17900
H  16.24700 -3.93100 23.72900
H  16.66700 -1.04200 23.80500
H  18.94500 -3.58200 24.01200
H  18.56700 -2.27000 22.88700
H  18.06100 -3.80400 22.38000
H  13.90300 -2.15700 24.01600
H  14.66500 -2.92200 22.73700
H  13.72600 -1.07400 21.53100
H  15.18000 -0.34800 21.91400
H  13.82600 -0.05700 22.96100
H  13.39100 1.89600 26.00800
H  14.33200 3.14000 26.83100
H  12.74800 2.60900 27.47000
H  13.76300 0.79900 32.21700
H  16.71600 2.73600 34.66400
H  15.29800 3.81300 35.03700
H  16.17200 4.05400 33.51100
Mg 35.90300 49.57200 25.51700
C  36.00800 48.01500 28.57800
C  34.75700 52.47600 27.05700
C  35.43500 50.95900 22.42100
C  36.69400 46.45800 23.96500
N  35.29100 50.10700 27.51800
C  35.52200 49.32200 28.65000
C  35.33600 50.07100 29.94700
C  34.64000 51.47900 29.38800
C  34.89000 51.37400 27.91300
C  33.19800 51.76100 29.91500
C  36.63500 50.28900 30.78400
C  36.44300 50.25200 32.33700
H  35.00400 50.66100 32.93700
N  35.26300 51.51100 24.81300
C  34.86600 52.52800 25.59900
C  34.74100 53.73300 24.71800
C  35.01300 53.32500 23.34600
C  35.27100 51.88300 23.50000
C  34.46400 55.08600 25.34200
C  35.10900 54.13300 22.07900
O  35.26100 53.66000 21.00100
C  34.62300 55.61200 22.22600
N  36.07600 48.85300 23.47900
C  35.78400 49.58900 22.38300
C  36.01600 48.82700 21.13200
C  36.62600 47.40700 21.67000
C  36.46900 47.58700 23.12800
C  34.68500 48.82900 20.25300
C  38.13200 47.19500 21.22800
C  39.15400 48.27000 21.62100
N  36.29300 47.64100 26.10400
C  36.64600 46.52900 25.37300
C  36.95300 45.43300 26.28300
C  36.69300 45.97100 27.61100
C  36.31400 47.29600 27.39300
C  37.39700 44.14900 25.77800
C  36.69400 45.62900 29.08500
O  37.06900 44.64400 29.69700
C  36.20200 46.98300 29.74500
C  34.90200 46.68800 30.40600
O  33.85300 46.59100 29.78200
O  35.07900 46.66200 31.76300
C  33.91700 46.53700 32.60400
H  34.40000 53.37500 27.56400
H  35.45500 51.28600 21.38000
H  37.06000 45.50500 23.57900
H  34.67400 49.61100 30.68000
H  35.27200 52.28400 29.76200
H  32.83400 50.85900 30.40500
H  32.53000 52.10400 29.12500
H  33.14100 52.58000 30.63200
H  37.05900 51.27500 30.59300
H  37.34900 49.54400 30.43600
H  37.18800 50.97800 32.66300
H  36.74900 49.28300 32.73000
H  35.01500 55.78100 24.70800
H  34.79400 55.27900 26.36300
H  33.37800 55.15800 25.29200
H  35.46400 56.18700 22.61400
H  33.80000 55.71900 22.93200
H  34.31600 55.90200 21.22100
H  36.71100 49.42800 20.54500
H  36.05300 46.61400 21.18900
H  33.83500 49.11700 20.87300
H  34.48100 47.85900 19.80100
H  34.72000 49.62100 19.50500
H  38.18300 47.32800 20.14700
H  38.46900 46.18600 21.46600
H  38.75600 49.07200 22.24300
H  39.69900 48.56400 20.72400
H  39.87400 47.78300 22.27900
H  37.60600 43.54600 26.66200
H  38.31300 44.24000 25.19500
H  36.55800 43.70700 25.24000
H  36.99100 47.34700 30.40400
H  33.08100 47.07000 32.15100
H  34.27100 46.98700 33.53200
H  33.68000 45.49400 32.81400

