158

Mg 1.72000 -2.48900 43.99000
C  5.07900 -1.49900 43.52900
C  0.76300 0.36100 42.31500
C  -1.37700 -3.71100 44.05700
C  2.91000 -5.45500 45.36900
N  2.85200 -0.88700 42.88700
C  4.17900 -0.65200 42.85100
C  4.48600 0.64500 42.04900
C  3.08500 1.36400 42.16100
C  2.16100 0.22100 42.42500
C  2.95600 2.56700 43.07300
C  5.05600 0.49100 40.62000
C  6.33800 1.21200 40.31300
H  6.24100 2.22500 39.21400
N  -0.12600 -1.79100 43.21000
C  -0.31900 -0.58800 42.56300
C  -1.75000 -0.34700 42.36500
C  -2.44300 -1.45400 43.01600
C  -1.36000 -2.39500 43.49800
C  -2.28700 0.74300 41.54200
C  -3.90300 -1.64400 43.15600
O  -4.68900 -0.88300 42.69300
C  -4.57000 -2.80000 43.73700
N  0.84700 -4.40500 44.55100
C  -0.50800 -4.67400 44.53900
C  -0.86000 -5.96500 45.23000
C  0.57200 -6.57700 45.34000
C  1.52600 -5.47200 45.13000
C  -1.70700 -5.77100 46.44800
C  0.92200 -7.67800 44.33100
C  0.12700 -8.99000 44.46200
N  3.57600 -3.25500 44.54800
C  3.90000 -4.45900 45.11100
C  5.30300 -4.50500 45.37600
C  5.83000 -3.32200 44.82300
C  4.74500 -2.62600 44.31700
C  6.08700 -5.60300 46.00700
C  7.04300 -2.59000 44.47500
O  8.18900 -2.89300 44.78600
C  6.52500 -1.32300 43.71600
C  6.90800 -0.10300 44.48600
O  6.99800 0.01000 45.68400
O  7.46700 0.88500 43.69500
C  7.85300 2.17800 44.35700
H  0.50300 1.38700 42.04600
H  -2.43100 -3.94300 44.22400
H  3.29700 -6.32900 45.89600
H  5.20300 1.26600 42.58700
H  2.69800 1.78000 41.23100
H  2.43500 3.28900 42.44400
H  3.94500 2.94200 43.33600
H  2.44200 2.31200 44.00100
H  4.27300 0.92800 40.00000
H  5.07000 -0.59600 40.54500
H  6.99900 0.38700 40.04800
H  6.82200 1.66500 41.17800
H  -1.90100 0.90000 40.53500
H  -2.31000 1.71500 42.03500
H  -3.35900 0.59800 41.41500
H  -5.64200 -2.74300 43.92200
H  -4.11300 -2.89800 44.72200
H  -4.32300 -3.69000 43.15900
H  -1.52600 -6.45500 44.52000
H  0.73600 -6.99100 46.33500
H  -2.71000 -6.19100 46.36900
H  -1.74600 -4.69900 46.64600
H  -1.18500 -6.16300 47.32100
H  2.00200 -7.78000 44.44100
H  0.77100 -7.29500 43.32200
H  -0.52500 -9.10400 43.59600
H  -0.62100 -8.94300 45.25400
H  0.70100 -9.90500 44.31400
H  6.21300 -6.51900 45.43000
H  5.63800 -5.80200 46.98000
H  7.06200 -5.11600 45.98800
H  7.01900 -1.27700 42.74600
H  7.37600 2.54700 45.26500
H  7.65200 2.87400 43.54200
H  8.93800 2.23500 44.44300
Mg 41.02600 9.50900 29.33900
C  43.00500 10.72900 32.09900
C  39.07900 7.94700 31.54300
C  39.57100 7.97600 26.80200
C  43.70300 10.45800 27.20300
N  41.11500 9.24400 31.57900
C  41.87700 9.94500 32.50100
C  41.38900 9.63800 33.96000
C  40.29000 8.60700 33.74500
C  40.12100 8.58700 32.18200
C  40.33400 7.26600 34.55300
C  40.89600 10.93600 34.70800
C  40.09100 10.79200 35.99800
H  40.47700 11.69300 37.22700
N  39.33600 8.28600 29.15700
C  38.66600 7.75500 30.22400
C  37.49200 7.04700 29.79600
C  37.53400 7.12500 28.36400
C  38.81200 7.82500 28.01200
C  36.55900 6.17200 30.63000
C  36.49900 6.75800 27.22200
O  36.81700 6.91700 26.04300
C  35.11700 6.29600 27.68500
N  41.59200 9.16700 27.32900
C  40.74600 8.58400 26.41900
C  41.22900 8.64100 24.93200
C  42.54200 9.50300 25.12200
C  42.62900 9.73700 26.67900
C  41.53200 7.20500 24.27900
C  42.49400 10.84300 24.31300
C  43.59700 11.05400 23.23900
N  42.93400 10.52500 29.53000
C  43.88700 10.76200 28.56500
C  44.87900 11.48000 29.18500
C  44.58700 11.54800 30.54500
C  43.44500 10.87300 30.71300
C  46.17400 11.98200 28.52900
C  45.07000 11.99200 31.85500
O  46.04300 12.67600 32.13800
C  44.04200 11.38700 32.96900
C  44.70000 10.32600 33.78700
O  44.92600 9.20600 33.37000
O  44.89700 10.72800 35.10100
C  45.49600 9.75200 35.96000
H  38.38000 7.43700 32.20900
H  39.17700 7.40200 25.96100
H  44.47400 10.76600 26.49500
H  42.19600 9.26500 34.59000
H  39.35500 9.08600 34.03600
H  41.36700 7.04300 34.81800
H  39.92800 6.46800 33.93200
H  39.74100 7.30500 35.46700
H  40.29000 11.39500 33.92700
H  41.75400 11.54400 34.99400
H  40.15600 9.74800 36.30500
H  39.06600 11.08800 35.77800
H  36.81600 6.36400 31.67200
H  36.65400 5.14300 30.28300
H  35.51800 6.46500 30.49500
H  34.62400 7.08600 28.25100
H  35.16600 5.44700 28.36600
H  34.46700 6.03300 26.85000
H  40.48200 9.08400 24.27400
H  43.43400 9.01900 24.72400
H  41.26800 7.37800 23.23600
H  40.96200 6.42900 24.79000
H  42.61400 7.08300 24.33100
H  42.77400 11.61300 25.03100
H  41.59200 11.05200 23.73800
H  44.31300 11.76800 23.64800
H  43.03300 11.44800 22.39300
H  43.99900 10.07700 22.97100
H  46.16200 12.81200 27.82300
H  46.40700 11.05900 27.99700
H  46.90800 12.15200 29.31700
H  43.69900 12.17600 33.63800
H  44.61500 9.37600 36.47900
H  46.20200 10.14500 36.69100
H  46.01500 8.94700 35.43900

