158

Mg 46.74900 15.36000 27.93800
C  44.96100 15.22500 30.99400
C  48.84500 17.59500 29.52100
C  48.35600 15.69900 25.13300
C  44.33500 13.49400 26.55900
N  46.91700 16.17000 30.07700
C  46.15100 15.93400 31.16000
C  46.61900 16.65900 32.39200
C  47.65500 17.68600 31.86900
C  47.85400 17.17700 30.38600
C  47.30000 19.15900 31.87100
C  47.18900 15.60500 33.38800
C  47.12700 16.02600 34.85700
H  48.43100 15.88500 35.65500
N  48.44400 16.35800 27.46100
C  49.20900 17.14000 28.24500
C  50.34200 17.59100 27.47700
C  50.25200 17.05000 26.19600
C  48.93700 16.40300 26.23200
C  51.38000 18.61300 28.01800
C  51.19800 17.04700 25.01300
O  51.12800 16.23300 24.08500
C  52.37300 17.92200 25.01800
N  46.21300 14.91200 26.04500
C  47.19000 14.95900 25.08100
C  46.79500 14.09400 23.82200
C  45.70900 13.18800 24.41900
C  45.35200 13.87500 25.79800
C  46.50300 14.95400 22.53400
C  46.12400 11.70600 24.53800
C  46.01000 10.97000 23.22300
N  44.90200 14.62700 28.52200
C  43.97200 13.92500 27.80600
C  42.90400 13.60200 28.60800
C  43.19100 14.23300 29.84800
C  44.44600 14.77700 29.82600
C  41.74400 12.73000 28.30300
C  42.65100 14.37300 31.12800
O  41.56200 14.03100 31.61500
C  43.86800 15.01300 31.99600
C  43.18100 16.22000 32.66500
O  42.90800 17.23700 32.03600
O  42.94000 16.07100 34.02300
C  42.53700 17.26900 34.79200
H  49.56700 18.22800 30.04100
H  48.88100 15.82900 24.18500
H  43.67200 12.76300 26.09300
H  45.78400 17.17100 32.87000
H  48.61500 17.54500 32.36600
H  46.75500 19.45800 30.97600
H  48.21400 19.70300 32.11100
H  46.59100 19.32200 32.68200
H  48.20300 15.30500 33.12600
H  46.46900 14.80200 33.22800
H  46.35700 15.44400 35.36300
H  46.76000 17.04400 34.98700
H  52.42500 18.32200 27.90800
H  51.24900 18.78500 29.08600
H  51.13900 19.54600 27.50900
H  52.01600 18.94100 24.86800
H  52.89100 17.52300 24.14600
H  53.11000 17.89000 25.82100
H  47.65000 13.53800 23.43600
H  44.83000 13.25100 23.77800
H  46.94800 14.41800 21.69500
H  46.95600 15.93800 22.65600
H  45.44600 15.14500 22.35400
H  45.56500 11.16900 25.30500
H  47.17800 11.61400 24.80000
H  45.99700 11.69700 22.41000
H  45.02300 10.51100 23.15900
H  46.87300 10.31300 23.11600
H  41.44900 12.13900 29.17000
H  41.94500 12.00500 27.51400
H  40.84100 13.25900 28.00000
H  44.17400 14.30000 32.76200
H  42.61500 16.89500 35.81200
H  41.53500 17.67900 34.66200
H  43.33800 18.00800 34.81700
Mg 36.49100 50.08200 24.97200
C  36.12000 48.52100 28.19800
C  35.83900 53.05900 26.37000
C  36.46400 51.19600 21.97700
C  37.12100 46.72900 23.68000
N  35.95800 50.59200 27.11000
C  35.93700 49.89000 28.29900
C  35.73100 50.79300 29.50000
C  35.42000 52.19000 28.83700
C  35.81300 51.93900 27.34700
C  33.89200 52.63100 29.00900
C  36.92500 50.79100 30.48200
C  36.68000 50.47700 32.01900
H  35.51400 51.10400 32.80900
N  36.16400 51.91400 24.26300
C  36.04900 53.03200 25.00700
C  36.01500 54.17100 24.08300
C  36.15200 53.64500 22.78200
C  36.23300 52.24700 22.94400
C  35.86600 55.58700 24.57200
C  36.18500 54.40200 21.47000
O  36.19100 53.79700 20.39400
C  36.17300 55.87400 21.42400
N  36.66800 49.04900 23.04700
C  36.57800 49.79200 22.00900
C  36.92600 48.99800 20.70800
C  37.26600 47.58400 21.21400
C  37.02800 47.80300 22.71900
C  35.72900 48.94800 19.65400
C  38.75700 47.17200 21.12800
C  39.39600 47.05600 19.68300
N  36.56500 48.08700 25.66600
C  36.86600 46.87500 25.03800
C  36.88600 45.76400 26.02300
C  36.58800 46.38700 27.22600
C  36.36500 47.75800 26.99400
C  37.21100 44.31400 25.85800
C  36.53000 46.10200 28.67300
O  36.66400 45.05200 29.22200
C  36.24400 47.50600 29.26000
C  35.05100 47.26500 30.00300
O  33.90500 47.18900 29.56900
O  35.33500 47.04400 31.31800
C  34.34300 46.44800 32.22300
H  35.71100 54.05400 26.80200
H  36.80400 51.56900 21.00800
H  37.39300 45.78100 23.21300
H  34.82700 50.40100 29.96700
H  36.10000 52.93400 29.25100
H  33.35900 51.83400 29.52900
H  33.47600 52.69800 28.00400
H  33.92900 53.60400 29.49900
H  37.43400 51.74700 30.36100
H  37.68500 50.05100 30.23300
H  37.62200 50.73800 32.50000
H  36.54200 49.40900 32.18900
H  35.02800 56.14700 24.15700
H  36.83800 56.02800 24.34900
H  35.83600 55.67900 25.65800
H  35.19700 56.20600 21.77800
H  36.34400 56.28700 20.43100
H  36.89400 56.33300 22.10000
H  37.81200 49.41900 20.23400
H  36.70300 46.77000 20.75600
H  34.77300 48.93600 20.17800
H  35.79300 48.08000 18.99900
H  35.84600 49.89700 19.13000
H  38.86700 46.22700 21.65900
H  39.35600 47.84100 21.74600
H  39.84700 47.96900 19.29400
H  38.62400 46.65500 19.02700
H  40.13900 46.27000 19.54800
H  37.29800 43.77400 26.80100
H  38.03900 44.22200 25.15500
H  36.31400 43.91600 25.38400
H  37.05500 47.70900 29.95800
H  34.15000 47.21300 32.97500
H  34.86400 45.54200 32.53100
H  33.44300 46.09100 31.72000

