158

Mg 35.49000 0.79400 29.91800
C  33.28100 2.15700 32.18700
C  37.92000 1.15500 32.39100
C  37.78800 -0.36900 27.77100
C  33.16600 0.91300 27.41700
N  35.57800 1.52000 32.03700
C  34.48500 1.92400 32.76500
C  34.82800 2.11800 34.23400
C  36.37000 2.14900 34.14700
C  36.66100 1.65800 32.72100
C  37.04600 3.40000 34.53500
C  34.15700 0.92800 34.89500
C  33.49700 1.30200 36.18500
H  34.24400 2.22100 37.15500
N  37.55400 0.47400 29.97600
C  38.37900 0.67500 31.10000
C  39.67100 0.14700 30.84700
C  39.70000 -0.19600 29.44000
C  38.31600 -0.04500 28.96300
C  40.73100 -0.22200 31.85800
C  40.83100 -0.73800 28.57100
O  40.63500 -1.13400 27.44200
C  42.27800 -0.85900 29.15900
N  35.45200 0.32800 27.89300
C  36.53500 -0.25800 27.22500
C  36.20100 -0.51500 25.76100
C  34.66900 -0.28600 25.71100
C  34.39500 0.30700 27.15200
C  37.06100 0.46800 24.89400
C  33.69500 -1.37300 25.27900
C  33.31300 -2.39900 26.30300
N  33.58200 1.41800 29.70600
C  32.69400 1.34500 28.67200
C  31.50100 1.99500 29.11500
C  31.61400 2.24500 30.53300
C  32.95800 1.93700 30.85200
C  30.31300 2.42800 28.20300
C  30.94800 2.88100 31.66100
O  29.83400 3.47300 31.73500
C  31.99900 2.67300 32.87700
C  32.22600 4.00900 33.54500
O  32.79800 5.00500 33.08200
O  31.50800 4.02600 34.69600
C  31.63800 5.25900 35.46100
H  38.67500 1.29700 33.16700
H  38.49800 -0.64200 26.98700
H  32.43600 0.90800 26.60500
H  34.41300 3.05500 34.60600
H  36.71700 1.32200 34.76700
H  37.75600 3.22200 35.34200
H  36.27400 4.02300 34.98600
H  37.34000 3.90600 33.61500
H  34.86900 0.17100 35.22500
H  33.54200 0.29300 34.25700
H  33.25600 0.33700 36.63200
H  32.50900 1.69700 35.94600
H  40.64700 -1.28800 32.06900
H  40.76800 0.38300 32.76400
H  41.73300 0.01300 31.50000
H  42.53400 0.11100 29.58500
H  42.87200 -1.11100 28.28000
H  42.34300 -1.76900 29.75600
H  36.44300 -1.56900 25.62300
H  34.48600 0.57900 25.07400
H  38.13900 0.45000 25.05500
H  36.67300 1.47900 25.01600
H  36.78000 0.21300 23.87200
H  34.02300 -1.88800 24.37600
H  32.75900 -0.88600 25.00300
H  33.79300 -2.26900 27.27300
H  33.48100 -3.39100 25.88400
H  32.24300 -2.29700 26.48500
H  29.69700 3.12300 28.77400
H  29.86400 1.52100 27.79900
H  30.81900 2.90200 27.36300
H  31.69000 1.93200 33.61500
H  32.68000 5.22700 35.77800
H  30.96200 5.22600 36.31600
H  31.40000 6.11600 34.83100
Mg -0.08100 43.58500 26.20600
C  2.13500 43.41100 28.98700
C  -2.53600 42.55100 28.41700
C  -2.17100 43.56000 23.64300
C  2.57900 44.20300 24.12100
N  -0.09400 42.95400 28.56600
C  0.87900 43.08600 29.47200
C  0.31900 42.94200 30.90400
C  -1.16100 42.46700 30.59900
C  -1.32200 42.76700 29.09300
C  -1.55000 41.00100 31.02400
C  0.40600 44.24700 31.75200
C  0.84500 44.19600 33.24500
H  0.73000 42.91300 33.99600
N  -2.07200 43.12000 26.04700
C  -2.91900 42.77500 27.09600
C  -4.32600 42.67100 26.59400
C  -4.26200 43.07100 25.20100
C  -2.80900 43.33700 24.94100
C  -5.48400 42.21800 27.45100
C  -5.35100 43.17300 24.13300
O  -5.10400 43.43800 22.99000
C  -6.78200 42.87500 24.50500
N  0.19100 43.80700 24.10800
C  -0.84400 43.86700 23.24800
C  -0.40100 44.26300 21.87000
C  1.09200 44.64300 22.13000
C  1.30300 44.23900 23.52700
C  -0.56400 43.08600 20.93100
C  1.44600 46.13700 21.75800
C  1.31600 47.10800 22.98600
N  1.94200 43.66600 26.47000
C  2.89200 43.89000 25.48800
C  4.26800 43.81800 26.13200
C  4.02900 43.67300 27.53100
C  2.56100 43.61300 27.66400
C  5.49200 44.01200 25.32700
C  4.63600 43.47400 28.84400
O  5.77200 43.52100 29.21800
C  3.39300 43.43700 29.77600
C  3.57200 42.24300 30.54100
O  3.28400 41.10900 30.25600
O  4.08800 42.53600 31.77000
C  4.36200 41.36700 32.65700
H  -3.30300 42.21300 29.11700
H  -2.81200 43.62900 22.76200
H  3.36800 44.27600 23.36900
H  0.98300 42.20800 31.36100
H  -1.91100 43.10400 31.06800
H  -2.47200 41.02400 31.60500
H  -0.78900 40.40900 31.53300
H  -1.73000 40.38900 30.14000
H  -0.57600 44.72100 31.74800
H  1.03100 45.00700 31.28500
H  0.12900 44.82700 33.77200
H  1.82200 44.66500 33.35600
H  -6.44000 42.41700 26.96600
H  -5.48100 42.90300 28.29900
H  -5.44800 41.27200 27.99100
H  -7.45800 43.01100 23.66100
H  -7.10500 43.50100 25.33700
H  -6.89600 41.83500 24.80800
H  -1.02300 45.12200 21.61700
H  1.77800 43.98900 21.59200
H  -0.56000 43.38300 19.88300
H  -1.54100 42.64800 21.13600
H  0.14400 42.26800 21.06700
H  0.77700 46.35700 20.92600
H  2.45700 46.28300 21.37700
H  0.92100 48.05900 22.62900
H  2.37300 47.24900 23.21000
H  0.72000 46.73300 23.81900
H  5.46500 44.79700 24.57100
H  5.70400 43.08300 24.79700
H  6.27700 44.31200 26.02100
H  3.51200 44.23100 30.51300
H  4.86800 40.58800 32.08700
H  3.44200 40.97700 33.09300
H  4.91600 41.65000 33.55200

