158

Mg 49.61600 46.17100 41.98100
C  46.17000 46.49400 41.05700
C  49.66400 43.22100 40.19600
C  52.81400 46.09800 42.47800
C  49.45500 49.62500 42.75200
N  48.07600 45.18200 40.61800
C  46.78400 45.38800 40.52400
C  46.14400 44.32500 39.60100
C  47.18000 43.20400 39.54300
C  48.40900 43.93600 40.12600
C  46.71100 42.01200 40.48500
C  45.67100 44.89700 38.22400
C  44.33300 44.32900 37.60700
H  44.42400 43.39800 36.44900
N  51.09800 44.73200 41.53700
C  50.95900 43.55100 40.84600
C  52.19300 42.82200 40.86400
C  53.13000 43.63000 41.58200
C  52.39500 44.90900 41.85100
C  52.25400 41.38000 40.38400
C  54.53600 43.26700 41.94200
O  54.98100 42.19100 41.52600
C  55.34300 44.00600 42.92200
N  50.90300 47.64200 42.67900
C  52.24000 47.33400 42.74900
C  53.05300 48.63300 42.98200
C  51.96900 49.76400 42.89300
C  50.72400 49.01300 42.70300
C  53.77600 48.47000 44.39600
C  52.16300 50.81000 41.70900
C  51.79300 52.30800 41.96400
N  48.16100 47.74600 41.99600
C  48.21200 49.05100 42.43300
C  46.87200 49.69900 42.34000
C  46.05200 48.61700 41.97500
C  46.87600 47.54300 41.63000
C  46.46500 51.16500 42.58300
C  44.64500 48.37700 41.62400
O  43.61700 49.02800 41.68000
C  44.68200 46.94000 40.98200
C  43.73300 46.12600 41.91500
O  44.15800 45.62800 42.97400
O  42.57000 45.91100 41.29100
C  41.51400 45.20800 42.06300
H  49.71900 42.29000 39.62700
H  53.90600 46.12100 42.48600
H  49.32800 50.69300 42.94000
H  45.28500 44.00500 40.19100
H  47.41400 42.84400 38.54200
H  45.71800 41.68000 40.18200
H  46.71600 42.34200 41.52300
H  47.45700 41.21700 40.48100
H  46.48200 44.71900 37.51700
H  45.59400 45.98400 38.26800
H  43.84900 45.27300 37.35700
H  43.89600 43.85700 38.48600
H  52.60600 41.44300 39.35400
H  51.29500 40.91100 40.60400
H  53.01400 40.77500 40.87900
H  54.82800 44.32700 43.82700
H  55.86400 44.81200 42.40500
H  56.00300 43.26900 43.37900
H  53.87900 48.87400 42.31300
H  51.89100 50.12100 43.92000
H  53.35200 49.16300 45.12300
H  54.81400 48.80000 44.36200
H  53.71300 47.50400 44.89800
H  51.52100 50.47900 40.89200
H  53.20800 50.92400 41.42200
H  51.45900 52.30400 43.00200
H  50.88300 52.70200 41.51100
H  52.57200 53.06800 42.01100
H  46.14700 51.57500 41.62500
H  47.33000 51.72200 42.94400
H  45.63200 51.01100 43.26900
H  44.27100 46.95400 39.97200
H  41.96300 44.46300 42.72100
H  40.86600 44.65700 41.38200
H  41.08700 45.99400 42.68500
Mg 35.31000 48.51200 25.77800
C  35.76600 46.53700 28.70600
C  34.43200 51.12600 27.63700
C  34.69400 50.09700 22.87800
C  36.22800 45.64700 23.98500
N  35.15800 48.76300 27.92000
C  35.50200 47.88200 28.97900
C  35.48600 48.60300 30.31400
C  34.71600 50.01100 29.91500
C  34.79500 50.00300 28.39500
C  33.29200 50.04400 30.44900
C  36.90600 48.78600 31.06100
C  36.88200 48.57500 32.65600
H  35.54900 48.77400 33.38300
N  34.66100 50.35600 25.32400
C  34.40800 51.37100 26.25200
C  34.14000 52.64300 25.58200
C  34.23800 52.32500 24.17800
C  34.58900 50.88600 24.09000
C  33.86800 53.99900 26.42100
C  34.05300 53.25900 22.95800
O  34.20600 52.92600 21.78800
C  33.74400 54.64900 23.26600
N  35.09300 47.87800 23.76500
C  34.87500 48.69600 22.69200
C  34.95800 48.00300 21.31800
C  35.45600 46.55800 21.71700
C  35.60000 46.66600 23.22700
C  33.61600 48.02400 20.57100
C  36.82600 46.12500 21.15000
C  38.05200 46.97900 21.60000
N  35.85700 46.49500 26.17000
C  36.27000 45.44200 25.34000
C  36.69900 44.29100 26.11500
C  36.38400 44.64900 27.42200
C  35.93600 46.00200 27.40400
C  37.38100 43.02200 25.54000
C  36.42900 44.12600 28.77300
O  36.73700 43.04600 29.23600
C  36.04000 45.33200 29.62400
C  34.88600 44.97100 30.57000
O  33.74200 44.71700 30.25800
O  35.37800 44.91100 31.82900
C  34.34300 44.52300 32.83900
H  34.35400 51.99600 28.29300
H  34.61300 50.56200 21.89300
H  36.74600 44.85800 23.43600
H  34.79200 48.10700 30.99300
H  35.38900 50.81000 30.22600
H  32.92500 51.06800 30.37000
H  33.35900 49.85300 31.52000
H  32.76500 49.25300 29.91500
H  37.36000 49.74000 30.79100
H  37.56900 48.05900 30.59300
H  37.34300 49.31700 33.30900
H  37.24000 47.59800 32.97700
H  32.91000 54.50900 26.31700
H  34.70000 54.60700 26.06700
H  34.22400 53.86900 27.44300
H  34.55700 55.11600 23.82200
H  32.83900 54.57600 23.86900
H  33.53000 55.33100 22.44300
H  35.73100 48.51900 20.74800
H  34.74300 45.76200 21.50000
H  32.86700 48.48500 21.21400
H  33.28700 47.02800 20.27200
H  33.75600 48.63600 19.68000
H  36.74400 46.15800 20.06400
H  37.06500 45.09800 21.42400
H  38.45000 46.52100 22.50600
H  37.71600 47.98700 21.84500
H  38.76600 47.02700 20.77800
H  37.70700 43.06700 24.50100
H  36.82700 42.12000 25.80000
H  38.28800 42.89900 26.13200
H  36.95500 45.58200 30.16100
H  34.01800 43.49200 32.69700
H  33.45800 45.14000 32.68200
H  34.70000 44.59800 33.86700

