158

Mg 25.66000 0.92700 29.64500
C  27.73900 0.63900 32.42900
C  22.98800 1.25800 31.73100
C  23.78000 0.95200 26.88800
C  28.44300 -0.00400 27.71100
N  25.48600 0.90600 31.82200
C  26.45000 0.91000 32.80300
C  25.87400 1.26600 34.21600
C  24.33000 1.32600 33.92800
C  24.25800 1.15200 32.35900
C  23.44900 0.22400 34.60200
C  26.53000 2.53900 34.92000
C  27.23700 2.48000 36.23300
H  26.73600 3.39700 37.32600
N  23.66600 1.22900 29.32500
C  22.66600 1.30800 30.29700
C  21.39200 1.43800 29.71500
C  21.60100 1.38200 28.32200
C  23.06900 1.22200 28.09400
C  20.14900 1.59000 30.42000
C  20.65500 1.39200 27.13900
O  21.03200 1.22200 25.97900
C  19.18500 1.48300 27.42800
N  26.11700 0.75100 27.47200
C  25.10900 0.71800 26.55200
C  25.71500 0.58600 25.12100
C  27.22900 0.26100 25.45100
C  27.28600 0.38500 26.98500
C  25.09000 -0.41300 24.22700
C  28.28200 1.07500 24.63300
C  29.23100 0.14900 23.75900
N  27.60400 0.34900 30.02500
C  28.62900 0.03700 29.08800
C  29.85700 -0.19200 29.72400
C  29.62300 0.11700 31.09200
C  28.18800 0.38800 31.18900
C  31.10900 -0.50100 29.13100
C  30.16100 0.16300 32.47400
O  31.33900 0.00100 32.89500
C  28.96700 0.46100 33.33000
C  28.83100 -0.59900 34.39600
O  28.21500 -1.63200 34.34700
O  29.45100 -0.17100 35.53900
C  29.32800 -1.05200 36.62800
H  22.14100 1.32700 32.41700
H  23.26500 0.78800 25.93900
H  29.24700 -0.45700 27.12800
H  26.18500 0.49100 34.91600
H  24.05700 2.35100 34.18000
H  23.32500 -0.66000 33.97700
H  22.46700 0.59000 34.90300
H  23.99400 -0.03000 35.51100
H  25.75500 3.29100 35.06700
H  27.23100 2.97500 34.20900
H  28.22300 2.93300 36.12900
H  27.25800 1.42400 36.50000
H  19.72400 2.49000 29.97500
H  20.27200 1.73800 31.49300
H  19.50100 0.71400 30.41300
H  18.99600 0.54800 27.95600
H  18.64600 1.64800 26.49500
H  18.99600 2.35500 28.05500
H  25.62200 1.58400 24.69200
H  27.36000 -0.81400 25.32700
H  24.42100 -1.13200 24.70100
H  25.77400 -0.98300 23.59800
H  24.33000 0.05500 23.60200
H  28.87400 1.74100 25.26100
H  27.79100 1.72400 23.90800
H  30.28000 0.20900 24.05000
H  29.13300 0.40100 22.70300
H  28.85100 -0.86900 23.85100
H  31.43400 0.23900 28.40000
H  31.01400 -1.48500 28.67200
H  31.82100 -0.54500 29.95500
H  29.14100 1.39000 33.87400
H  30.25300 -1.16600 37.19200
H  29.05400 -2.08400 36.40700
H  28.61300 -0.58600 37.30600
Mg -4.38800 25.50100 26.02300
C  -3.48200 27.34900 28.98600
C  -6.32600 23.57200 28.08100
C  -5.01300 23.75800 23.37500
C  -2.23100 27.57000 24.25100
N  -4.78700 25.40900 28.25500
C  -4.32500 26.23900 29.28000
C  -5.03700 25.89300 30.55900
C  -5.75000 24.50000 30.31600
C  -5.54400 24.42100 28.80400
C  -5.08800 23.29700 31.06200
C  -5.89900 27.12700 31.06900
C  -6.51900 26.90600 32.45100
H  -6.02300 25.86500 33.51400
N  -5.56200 23.92100 25.72300
C  -6.35700 23.31100 26.67100
C  -7.15900 22.32700 26.00500
C  -6.71300 22.24900 24.66200
C  -5.70300 23.27700 24.53200
C  -8.17500 21.48100 26.75600
C  -7.26800 21.42400 23.52400
O  -6.85700 21.51000 22.37000
C  -8.40900 20.53500 23.77100
N  -3.66000 25.56400 24.13200
C  -4.10400 24.78200 23.17700
C  -3.35500 25.04800 21.84800
C  -2.77800 26.43600 22.12600
C  -2.87200 26.51700 23.60300
C  -2.31300 23.93700 21.51400
C  -3.63900 27.55000 21.37900
C  -3.04700 27.93300 20.06100
N  -3.15800 27.28300 26.49200
C  -2.24700 27.97100 25.64400
C  -1.61700 29.08200 26.39200
C  -2.04600 28.88300 27.73500
C  -2.91100 27.74700 27.72600
C  -0.71000 30.18300 25.83300
C  -2.00300 29.40200 29.10600
O  -1.42100 30.37700 29.56100
C  -2.89100 28.38500 29.98800
C  -2.02500 27.69200 30.93800
O  -1.02700 27.09200 30.59400
O  -2.54900 27.67400 32.22000
C  -1.87500 26.84000 33.18800
H  -6.92100 22.88100 28.68100
H  -5.28000 23.13600 22.51900
H  -1.64800 28.27000 23.64900
H  -4.24200 25.73400 31.28700
H  -6.81500 24.43900 30.53800
H  -4.32000 22.84500 30.43500
H  -5.80200 22.52200 31.34100
H  -4.67300 23.53600 32.04100
H  -6.69200 27.14700 30.32100
H  -5.25700 28.00300 31.16100
H  -7.58600 26.85400 32.23800
H  -6.32200 27.84400 32.97100
H  -9.10400 21.44600 26.18700
H  -8.45600 21.87500 27.73300
H  -7.76000 20.48300 26.89800
H  -8.31700 19.82400 24.59200
H  -8.41600 19.95800 22.84600
H  -9.34000 21.09600 23.85600
H  -4.10900 25.06500 21.06100
H  -1.74400 26.62900 21.84100
H  -1.24900 24.16400 21.44800
H  -2.71700 23.56100 20.57400
H  -2.36800 23.11500 22.22700
H  -3.76300 28.38600 22.06800
H  -4.60200 27.08300 21.17200
H  -3.73600 27.78400 19.23000
H  -2.27300 27.18500 19.88900
H  -2.70500 28.96700 20.03500
H  -0.24200 29.79200 24.92900
H  0.13300 30.41500 26.48400
H  -1.31400 31.08200 25.71000
H  -3.69400 28.89200 30.52300
H  -2.44000 26.71800 34.11200
H  -0.90900 27.28200 33.43500
H  -1.91500 25.82100 32.80300

