158

Mg 35.46700 2.15300 30.60500
C  32.86300 2.94000 32.72300
C  37.60500 2.17900 33.31900
C  37.83500 1.35900 28.41200
C  33.09900 1.97000 27.99500
N  35.22100 2.55600 32.77700
C  34.05400 2.75400 33.43700
C  34.22200 2.86200 34.91100
C  35.82800 3.00400 34.98400
C  36.28700 2.54800 33.61700
C  36.32000 4.48100 35.40600
C  33.58800 1.60100 35.62200
C  33.23500 1.70200 37.14700
H  33.83400 2.84400 37.98500
N  37.40100 1.78600 30.81100
C  38.11100 1.76000 32.04600
C  39.40900 1.32300 31.76700
C  39.50400 0.94100 30.39300
C  38.22800 1.44800 29.81400
C  40.40600 0.98000 32.93000
C  40.70400 0.28800 29.67300
O  40.62300 -0.01000 28.49900
C  41.95600 -0.14100 30.34800
N  35.51300 1.79100 28.49000
C  36.60200 1.53700 27.78100
C  36.35800 1.26500 26.28000
C  34.80500 1.31400 26.26100
C  34.41900 1.62900 27.69300
C  37.14000 2.31500 25.36100
C  34.07000 -0.06200 25.96500
C  33.56300 -0.49700 24.55200
N  33.39600 2.66000 30.32700
C  32.61600 2.47000 29.22700
C  31.25200 2.96500 29.53700
C  31.31800 3.17700 30.95100
C  32.66500 2.88100 31.36700
C  30.07800 2.96800 28.64800
C  30.50100 3.37600 32.15100
O  29.34400 3.76200 32.23900
C  31.49900 3.34300 33.29300
C  31.42700 4.62900 34.02600
O  31.76100 5.73000 33.59000
O  30.78900 4.45500 35.24100
C  30.18800 5.58700 35.89500
H  38.15700 2.22100 34.26000
H  38.57300 1.17300 27.62900
H  32.32900 1.94900 27.22200
H  33.75000 3.77400 35.27700
H  36.20500 2.30000 35.72600
H  35.61100 4.98500 36.06300
H  36.49300 5.07800 34.51100
H  37.24700 4.31500 35.95600
H  34.25600 0.75300 35.46500
H  32.64700 1.42700 35.09900
H  33.43400 0.73300 37.60600
H  32.14500 1.73600 37.14400
H  41.40000 1.26600 32.58600
H  40.43400 -0.09300 33.12300
H  40.22000 1.57800 33.82200
H  42.61200 -0.68100 29.66500
H  41.66200 -0.88200 31.09200
H  42.54100 0.72800 30.64800
H  36.80000 0.30300 26.02100
H  34.38900 1.97900 25.50300
H  37.91700 1.86000 24.74600
H  37.70300 2.95700 26.04000
H  36.37400 2.85300 24.80100
H  33.30300 -0.36300 26.67900
H  34.81800 -0.82200 26.19200
H  33.72200 0.27500 23.79800
H  32.51800 -0.79300 24.64400
H  34.16600 -1.29800 24.12500
H  30.31200 3.38000 27.66700
H  29.37200 3.63600 29.14100
H  29.66000 1.96300 28.58300
H  31.02800 2.63500 33.97600
H  29.69200 6.09900 35.07000
H  30.85800 6.18800 36.51000
H  29.34200 5.20200 36.46500
Mg 54.35800 24.36700 45.10800
C  51.54100 26.28800 43.96100
C  52.68500 21.50500 43.97700
C  57.17800 22.73100 45.35400
C  55.86600 27.47100 45.81400
N  52.46700 23.97700 43.81400
C  51.46900 24.91900 43.64200
C  50.19400 24.26100 43.03300
C  50.42400 22.79100 43.50400
C  51.94600 22.74300 43.72200
C  49.62200 22.38600 44.77700
C  50.11600 24.36800 41.44300
C  48.75400 24.14200 40.87700
H  48.59300 23.10100 39.73600
N  54.83200 22.37800 44.76600
C  54.02400 21.30800 44.40100
C  54.77300 20.04700 44.62800
C  56.07700 20.37200 45.00200
C  56.04800 21.89200 45.08700
C  54.17500 18.66500 44.53400
C  57.19400 19.39400 45.39900
O  57.08100 18.13000 45.41600
C  58.60900 19.85200 45.68700
N  56.29100 25.03300 45.30800
C  57.28100 24.10800 45.49700
C  58.62200 24.82800 45.86200
C  58.19800 26.33000 45.58800
C  56.65700 26.30400 45.70000
C  59.05900 24.69900 47.35500
C  58.60000 26.77000 44.11900
C  59.26400 28.10400 43.88400
N  53.82600 26.44700 45.09500
C  54.50100 27.52800 45.53400
C  53.62700 28.60000 45.62700
C  52.40000 28.26700 45.01100
C  52.65400 26.89900 44.66300
C  53.96700 29.91600 46.16700
C  51.09200 28.64500 44.54500
O  50.38900 29.62900 44.63700
C  50.50400 27.37400 43.89500
C  50.21800 27.72200 42.50100
O  51.10500 28.02300 41.64400
O  48.90800 27.59800 42.22300
C  48.51200 27.90700 40.84200
H  52.17400 20.54100 44.00300
H  58.09600 22.15400 45.48800
H  56.41900 28.38900 46.02200
H  49.39000 24.74600 43.58500
H  50.24900 22.06400 42.71200
H  48.78500 21.73300 44.53000
H  49.21000 23.25200 45.29400
H  50.30200 21.93000 45.49700
H  50.56600 23.49200 40.97600
H  50.55500 25.29900 41.08300
H  48.37500 25.08100 40.47300
H  48.12900 23.79000 41.69700
H  54.88900 17.84300 44.49400
H  53.45100 18.62100 43.72000
H  53.59700 18.38500 45.41400
H  59.09200 20.27800 44.80800
H  59.16000 18.98800 46.05800
H  58.53100 20.53700 46.53200
H  59.41400 24.48400 45.19700
H  58.62000 27.01600 46.32300
H  60.14500 24.67700 47.43900
H  58.61900 23.79700 47.77900
H  58.72400 25.52700 47.98000
H  57.70400 26.61500 43.51800
H  59.22500 26.03500 43.61200
H  58.66600 28.70400 43.19800
H  60.25100 27.97100 43.44200
H  59.47200 28.61600 44.82400
H  54.55700 29.81000 47.07800
H  52.97700 30.33400 46.35200
H  54.44600 30.52700 45.40300
H  49.62500 27.03800 44.44500
H  47.94300 28.83700 40.82500
H  47.74900 27.17000 40.59100
H  49.25600 28.06000 40.06000

