158

Mg 26.93500 50.46700 25.61200
C  24.86100 51.71300 28.07500
C  29.24100 49.81100 27.94700
C  28.82100 49.30200 23.14400
C  24.63700 51.84400 23.16800
N  27.02500 50.86600 27.78500
C  26.00600 51.19500 28.61100
C  26.30200 50.98000 30.14600
C  27.82700 50.49500 29.95600
C  28.09700 50.44800 28.46000
C  28.82600 51.43000 30.62300
C  25.41300 49.85500 30.61100
C  25.81100 49.30100 32.03200
H  24.96200 49.66500 33.20100
N  28.76900 49.74200 25.62200
C  29.62000 49.49400 26.65900
C  30.83400 48.80200 26.17200
C  30.77100 48.63000 24.78600
C  29.41800 49.21300 24.44100
C  31.93500 48.36800 27.14000
C  31.74800 48.00100 23.79000
O  31.49800 47.93000 22.62200
C  33.04200 47.33800 24.33900
N  26.67400 50.50300 23.50300
C  27.61900 49.91200 22.72500
C  27.02900 49.68600 21.31200
C  26.00400 50.79000 21.21300
C  25.72100 51.13800 22.67500
C  28.02600 49.59400 20.11600
C  24.67200 50.39400 20.50800
C  23.83600 49.37700 21.17900
N  25.14600 51.55800 25.54000
C  24.34200 52.05200 24.54300
C  23.17000 52.71100 25.13500
C  23.35800 52.56900 26.48000
C  24.53200 51.89900 26.72500
C  22.04100 53.41200 24.48100
C  22.78400 52.90100 27.76500
O  21.75300 53.52000 27.97400
C  23.62900 52.28500 28.80800
C  24.07300 53.26000 29.82300
O  24.93000 54.12500 29.64500
O  23.39200 53.02200 31.05600
C  23.70500 53.99100 32.14300
H  29.94000 49.53500 28.73900
H  29.45500 48.87400 22.36400
H  23.90100 52.31200 22.51100
H  26.17500 51.85200 30.78800
H  27.93200 49.46900 30.30700
H  28.41200 52.26000 31.19500
H  29.45100 51.87800 29.85100
H  29.38200 50.73700 31.25500
H  25.50700 49.09100 29.83900
H  24.39100 50.23100 30.65700
H  26.79600 49.67900 32.30800
H  25.90700 48.23000 31.85700
H  31.97000 47.27900 27.11900
H  31.64200 48.69800 28.13700
H  32.95500 48.73700 27.02800
H  33.40800 48.12100 25.00300
H  33.71100 47.08800 23.51500
H  32.72000 46.41900 24.82900
H  26.56600 48.71700 21.50100
H  26.34300 51.68700 20.69600
H  28.38800 48.56700 20.06200
H  28.90100 50.19100 20.37500
H  27.66000 50.01600 19.18000
H  24.97200 50.02100 19.52900
H  24.01200 51.24100 20.32500
H  24.26000 49.06800 22.13500
H  23.81100 48.53900 20.48200
H  22.81600 49.67100 21.43000
H  21.80600 52.86700 23.56700
H  22.26700 54.47600 24.41200
H  21.25500 53.34500 25.23300
H  23.03200 51.58000 29.38800
H  22.92100 54.02800 32.89900
H  23.67200 55.04900 31.88500
H  24.74200 53.82100 32.43300
Mg 6.51700 53.78100 40.71300
C  6.31100 50.30700 40.32900
C  9.83700 53.66500 39.93200
C  6.45200 57.13900 40.45400
C  2.98900 53.88200 41.27500
N  7.85900 52.14500 40.15200
C  7.62300 50.78700 40.05400
C  8.86700 50.03300 39.62800
C  9.96000 51.08700 39.97000
C  9.16100 52.42200 40.00700
C  10.82000 50.85000 41.25000
C  8.72500 49.56700 38.13500
C  8.69900 50.61700 37.03200
H  7.37900 50.82400 36.26500
N  7.96000 55.18400 40.26500
C  9.28500 54.97200 39.98500
C  9.98100 56.24300 39.82100
C  9.04600 57.28300 40.19700
C  7.75000 56.56700 40.36000
C  11.40200 56.46000 39.40400
C  9.31400 58.77400 40.47000
O  10.43600 59.14500 40.24100
C  8.37100 59.74800 41.03200
N  4.90200 55.26100 40.73700
C  5.19200 56.60500 40.68400
C  3.91800 57.38800 40.63900
C  2.81800 56.42300 41.22900
C  3.59200 55.08600 41.00900
C  4.06100 58.70400 41.50300
C  1.35900 56.44700 40.68100
C  0.31300 56.41200 41.73800
N  4.94800 52.43600 40.89000
C  3.64100 52.58500 41.21100
C  3.06400 51.25500 41.51900
C  4.02000 50.33800 41.09200
C  5.18300 51.09500 40.76300
C  1.71100 50.89600 42.17900
C  4.31900 48.93600 40.94300
O  3.66200 47.92500 41.09000
C  5.82700 48.85800 40.53400
C  5.78500 47.91100 39.37200
O  5.33900 48.23500 38.28400
O  6.08300 46.62200 39.74100
C  5.94600 45.60200 38.75500
H  10.91200 53.56800 39.77000
H  6.37400 58.21300 40.27000
H  1.95200 53.77800 41.60100
H  9.01000 49.17900 40.29000
H  10.60200 51.23900 39.10200
H  11.32500 49.90700 41.04200
H  10.20600 51.03500 42.13100
H  11.53000 51.66300 41.40900
H  7.89900 48.86400 38.03000
H  9.59800 48.92100 38.04200
H  9.52800 50.35900 36.37300
H  9.01200 51.63400 37.27100
H  11.56300 57.25200 38.67300
H  11.71700 55.62400 38.78100
H  12.17600 56.51300 40.17000
H  8.98100 60.45600 41.59400
H  7.76900 59.20100 41.75800
H  7.79200 60.26300 40.26600
H  3.73400 57.57600 39.58100
H  2.68200 56.59500 42.29600
H  5.06200 58.81200 41.92100
H  3.38500 58.59200 42.35100
H  3.75800 59.59900 40.96000
H  1.25200 55.52700 40.10600
H  1.22800 57.25000 39.95600
H  0.54900 56.72900 42.75400
H  -0.24000 55.47300 41.73800
H  -0.48900 57.10900 41.49500
H  1.21500 50.11200 41.60600
H  1.00200 51.72400 42.16100
H  1.88800 50.63100 43.22200
H  6.49400 48.36600 41.24200
H  6.07700 44.69400 39.34400
H  6.63300 45.62300 37.90900
H  4.92700 45.60400 38.36900

