158

Mg 30.71100 58.88700 39.94200
C  27.97400 56.80400 39.11100
C  32.74900 56.44500 38.86500
C  33.36400 61.01600 40.45900
C  28.56600 61.49300 40.45800
N  30.36000 56.86900 39.13300
C  29.16100 56.19300 38.80700
C  29.50800 54.74500 38.34100
C  31.02700 54.59400 38.59900
C  31.41600 56.09900 38.74500
C  31.37400 53.79000 39.87500
C  29.11300 54.47400 36.85400
C  27.87500 53.63500 36.51900
H  27.03200 54.12300 35.32100
N  32.76400 58.76400 39.66300
C  33.37500 57.66400 39.21700
C  34.81300 57.93600 39.08200
C  35.10800 59.17700 39.67200
C  33.66900 59.73100 40.02100
C  35.82700 56.94600 38.39100
C  36.50800 59.88400 39.78600
O  37.44800 59.36000 39.18700
C  36.63300 61.27000 40.51000
N  31.01000 61.04600 40.21900
C  32.18700 61.69700 40.52900
C  31.93000 63.12700 41.05300
C  30.32100 63.29400 40.92400
C  29.94400 61.83100 40.55300
C  32.55400 63.57500 42.41300
C  29.84500 64.28600 39.87900
C  29.60500 65.67500 40.45800
N  28.65500 59.10900 39.96900
C  27.95200 60.22000 40.26000
C  26.52900 59.96200 40.13100
C  26.49700 58.63900 39.66400
C  27.84200 58.11200 39.65700
C  25.46500 61.00300 40.23600
C  25.64300 57.54700 39.13200
O  24.37700 57.46900 38.92700
C  26.61900 56.40000 38.79100
C  25.97600 55.34000 39.65100
O  26.15700 55.22700 40.84000
O  25.22800 54.54400 38.84500
C  24.60300 53.30600 39.30800
H  33.33900 55.56700 38.59400
H  34.18200 61.64200 40.82300
H  27.83600 62.27200 40.69100
H  28.83400 54.09800 38.90300
H  31.60700 54.13100 37.80000
H  30.47100 53.18400 39.94600
H  31.40400 54.46200 40.73300
H  32.28800 53.25100 39.62300
H  29.92600 54.01400 36.29300
H  29.06000 55.42100 36.31800
H  27.28100 53.60000 37.43200
H  28.12600 52.66000 36.10200
H  36.35600 57.37000 37.53700
H  35.24700 56.05400 38.15500
H  36.58900 56.69600 39.13000
H  36.29900 61.06100 41.52600
H  35.97800 61.96300 39.98100
H  37.65000 61.65800 40.56200
H  32.48700 63.81700 40.41800
H  29.94900 63.36300 41.94600
H  32.49600 64.66300 42.43600
H  33.51100 63.15800 42.72800
H  31.85900 63.24200 43.18300
H  29.01200 63.95600 39.25800
H  30.63700 64.55500 39.18000
H  30.47200 66.33400 40.49600
H  29.29800 65.52600 41.49400
H  28.78800 66.16300 39.92700
H  24.70400 60.77600 39.48900
H  25.92900 61.97200 40.05000
H  25.10700 61.02100 41.26600
H  26.43300 56.21800 37.73300
H  23.52300 53.44100 39.26000
H  24.88800 53.03500 40.32400
H  24.77700 52.46800 38.63300
Mg 7.25500 53.54200 40.82300
C  6.73100 50.11000 40.51100
C  10.60100 53.09100 40.16600
C  7.64700 56.88200 40.37200
C  3.83300 54.03400 41.16500
N  8.45800 51.74300 40.27700
C  8.07100 50.46700 40.22800
C  9.33000 49.53200 40.16900
C  10.56900 50.52000 40.18500
C  9.84000 51.93100 40.19400
C  11.53400 50.45100 41.33600
C  9.35000 48.57200 38.89400
C  9.22000 49.17100 37.47800
H  8.17300 48.62300 36.58100
N  8.89200 54.83700 40.24600
C  10.18000 54.46500 40.14800
C  10.99000 55.61500 39.79600
C  10.17100 56.75600 39.93400
C  8.88300 56.21100 40.23700
C  12.47600 55.46900 39.50100
C  10.59900 58.18500 39.73400
O  11.72400 58.42100 39.34300
C  9.69000 59.35100 39.91100
N  5.92200 55.17500 40.75200
C  6.38700 56.43100 40.61100
C  5.24700 57.47600 40.87200
C  4.00900 56.53700 40.87600
C  4.60000 55.14500 40.86100
C  5.48600 58.16600 42.22200
C  3.00700 56.86100 39.73000
C  1.49400 56.73600 40.06700
N  5.60100 52.37900 40.91100
C  4.30900 52.70000 41.22000
C  3.57100 51.47000 41.44400
C  4.49700 50.49900 41.24000
C  5.71900 51.05800 40.82800
C  2.14400 51.30700 41.93900
C  4.64300 49.07100 41.27800
O  3.85400 48.20200 41.60500
C  6.14700 48.76600 40.88200
C  6.13500 47.77100 39.79700
O  5.52900 47.99700 38.73500
O  6.65700 46.56100 40.15500
C  6.58500 45.51300 39.07300
H  11.67300 52.89100 40.12100
H  7.65800 57.97100 40.44100
H  2.75900 54.21600 41.24400
H  9.53300 48.78100 40.93400
H  11.14200 50.35100 39.27400
H  12.55300 50.18700 41.05500
H  11.19700 49.74000 42.09100
H  11.53100 51.38700 41.89600
H  8.45500 47.98500 39.10200
H  10.20000 47.89100 38.95300
H  10.09200 49.25700 36.82900
H  9.02600 50.24100 37.55700
H  13.14900 55.89700 40.24400
H  12.69300 55.99400 38.57100
H  12.86300 54.45200 39.42800
H  8.89600 59.37700 39.16400
H  10.24200 60.29000 39.89100
H  9.23700 59.36400 40.90200
H  5.25000 58.21300 40.06800
H  3.53800 56.67800 41.84900
H  4.65700 58.80900 42.51700
H  6.46100 58.64700 42.14600
H  5.59300 57.34500 42.93100
H  3.26200 56.05300 39.04400
H  3.17400 57.83900 39.28000
H  1.03400 57.70000 39.85000
H  1.28400 56.22500 41.00600
H  1.01800 56.05500 39.36000
H  2.00900 52.19700 42.55300
H  2.03300 50.43400 42.58300
H  1.39100 51.32100 41.15100
H  6.58700 48.34600 41.78600
H  7.11200 44.63600 39.44800
H  6.93000 45.92100 38.12200
H  5.53200 45.23800 39.01900

