158

Mg 17.02600 -1.60400 28.49600
C  15.93000 0.36400 31.20400
C  19.06300 -3.20400 30.67000
C  17.87100 -3.53200 25.89900
C  14.87900 0.28800 26.43100
N  17.54900 -1.40000 30.70000
C  16.95200 -0.53900 31.59400
C  17.59800 -0.78300 32.97200
C  18.78600 -1.75500 32.70200
C  18.47000 -2.09700 31.23500
C  20.20900 -1.17200 32.81900
C  16.41100 -1.22000 34.00400
C  16.44700 -0.50200 35.36500
H  17.72100 0.12900 35.89300
N  18.21300 -3.17300 28.29500
C  19.00900 -3.74400 29.34900
C  19.59200 -4.93100 28.81800
C  19.21000 -5.06300 27.42100
C  18.38800 -3.87200 27.12500
C  20.45800 -5.81400 29.65300
C  19.61600 -6.19200 26.43300
O  19.27700 -6.11800 25.25200
C  20.33700 -7.42200 26.92800
N  16.47500 -1.63500 26.38400
C  17.03300 -2.40600 25.51400
C  16.53200 -2.13000 24.08900
C  15.45900 -1.02300 24.34000
C  15.68700 -0.69900 25.78400
C  17.74800 -1.83400 23.08600
C  13.99400 -1.45300 24.14500
C  13.17100 -0.51900 23.28000
N  15.61900 -0.09900 28.71500
C  14.78100 0.52100 27.77500
C  13.95400 1.51000 28.40300
C  14.41900 1.59100 29.69000
C  15.42400 0.54300 29.87600
C  13.00500 2.41100 27.71300
C  14.19400 2.26900 31.03800
O  13.40800 3.21400 31.34800
C  15.17900 1.45500 32.01200
C  16.04700 2.45400 32.70200
O  16.58900 3.33400 32.10600
O  15.85000 2.33600 34.11200
C  16.34700 3.54800 34.77700
H  19.76500 -3.76600 31.28900
H  18.09600 -4.21700 25.08000
H  14.10300 0.78600 25.84600
H  18.07300 0.14900 33.27900
H  18.65700 -2.59600 33.38300
H  20.80600 -1.89900 33.37100
H  20.22700 -0.26700 33.42600
H  20.68700 -0.89800 31.87800
H  16.53200 -2.26400 34.29300
H  15.39200 -0.97600 33.70300
H  16.12700 -1.20100 36.13800
H  15.61900 0.20400 35.41600
H  20.42400 -6.88400 29.44400
H  20.30400 -5.69100 30.72500
H  21.47700 -5.45900 29.49900
H  19.73300 -8.03400 27.59800
H  21.30500 -7.16900 27.36100
H  20.59000 -7.93900 26.00300
H  16.10800 -3.02200 23.62700
H  15.73200 -0.22600 23.64800
H  17.60500 -0.89800 22.54500
H  18.00200 -2.63700 22.39400
H  18.62200 -1.53000 23.66100
H  13.51200 -1.47300 25.12300
H  13.85300 -2.47900 23.80700
H  12.55600 0.02500 23.99700
H  12.41000 -1.06800 22.72500
H  13.62800 0.11300 22.51900
H  12.40800 1.90600 26.95400
H  13.64700 3.11100 27.17800
H  12.29400 2.95700 28.33300
H  14.48800 0.93700 32.67800
H  17.42200 3.69300 34.66700
H  16.08600 3.53300 35.83500
H  15.87700 4.44400 34.37100
Mg 45.18200 4.11100 46.29400
C  43.43000 7.12200 46.28500
C  42.06100 2.50400 45.80200
C  46.69100 1.23600 45.48900
C  48.18000 5.90600 46.06900
N  42.99500 4.74800 45.95700
C  42.56000 6.06600 45.94500
C  41.03900 6.09400 45.81800
C  40.60600 4.60400 46.08900
C  41.92300 3.87600 45.97500
C  40.00000 4.35500 47.51300
C  40.50500 6.48100 44.48300
C  39.76800 7.81400 44.28900
H  40.29000 8.77000 43.22800
N  44.52000 2.15900 45.83700
C  43.19500 1.72100 45.66200
C  43.08000 0.24400 45.38100
C  44.44100 -0.15900 45.38100
C  45.33500 1.06700 45.56200
C  41.81600 -0.55200 45.07300
C  44.96200 -1.48600 45.04000
O  44.22100 -2.40500 44.68000
C  46.40600 -1.85500 44.91700
N  47.12600 3.69400 45.84500
C  47.51000 2.41100 45.65100
C  49.09400 2.29700 45.47200
C  49.55700 3.78900 45.57900
C  48.18300 4.53600 45.79800
C  49.84100 1.36800 46.51000
C  50.36700 4.41200 44.38200
C  51.61600 5.19300 44.75900
N  45.73000 6.12500 46.27100
C  46.98900 6.70700 46.22300
C  46.83600 8.14700 46.36900
C  45.44300 8.36900 46.43400
C  44.81400 7.10800 46.37500
C  47.87600 9.21800 46.41900
C  44.42100 9.40000 46.50400
O  44.47000 10.63100 46.59600
C  43.09500 8.59900 46.38500
C  42.35400 8.85700 47.63800
O  42.27400 8.07800 48.56200
O  41.62500 9.98800 47.45800
C  40.57000 10.31100 48.40700
H  41.11700 1.95600 45.75800
H  47.38400 0.43900 45.20900
H  49.19900 6.29600 46.01100
H  40.60600 6.73700 46.58400
H  39.83900 4.30700 45.37500
H  40.31200 5.17200 48.16300
H  40.30200 3.40600 47.95700
H  38.91300 4.27700 47.49000
H  39.89600 5.76900 43.92600
H  41.39400 6.73700 43.90800
H  39.81000 8.40400 45.20400
H  38.71200 7.57600 44.15900
H  40.95600 0.09500 45.25000
H  41.78200 -1.39200 45.76700
H  41.88300 -0.86800 44.03200
H  46.56500 -1.33600 43.97200
H  46.50800 -2.94000 44.94000
H  47.04700 -1.50300 45.72500
H  49.27800 1.96800 44.44900
H  50.10100 4.03100 46.49200
H  50.36600 0.61600 45.92200
H  49.10400 0.96600 47.20500
H  50.58400 2.00300 46.99300
H  49.65800 5.07300 43.88400
H  50.58500 3.67600 43.60900
H  51.87900 5.26600 45.81500
H  51.37400 6.11200 44.22500
H  52.52600 4.79300 44.31200
H  47.62400 10.21200 46.78800
H  48.38700 9.28100 45.45800
H  48.64000 8.86400 47.11100
H  42.52200 9.00400 45.55100
H  40.60200 9.92000 49.42400
H  39.73300 9.82800 47.90200
H  40.31500 11.35700 48.57100

