158

Mg 53.16500 24.27700 44.83600
C  50.73400 26.55500 43.77800
C  51.08000 21.78300 43.40800
C  55.67900 22.13300 45.09600
C  55.04200 26.83400 46.11400
N  51.19500 24.24400 43.65100
C  50.47900 25.30900 43.29500
C  49.21900 24.91800 42.51000
C  49.19800 23.34300 42.81500
C  50.64900 23.11200 43.22400
C  48.29700 22.89500 44.03300
C  49.28500 25.27700 40.91000
C  50.71700 25.45900 40.29200
H  50.77500 26.07200 38.90900
N  53.40800 22.23900 44.35000
C  52.32100 21.34300 43.90200
C  52.81000 20.02800 44.03200
C  54.15600 20.09000 44.48000
C  54.52100 21.47000 44.60800
C  52.09300 18.82800 43.44800
C  54.98200 18.86700 44.77700
O  54.54300 17.75400 44.57200
C  56.42100 18.92100 45.35900
N  55.18700 24.50000 45.42900
C  56.04700 23.44600 45.46200
C  57.51400 23.92700 45.75900
C  57.14300 25.38100 46.33300
C  55.70100 25.66200 45.91900
C  58.29000 23.00900 46.73200
C  58.08400 26.53100 45.84200
C  57.85600 27.29800 44.51100
N  52.94100 26.29300 44.97800
C  53.72500 27.18300 45.66700
C  53.07700 28.51900 45.67100
C  51.85500 28.30600 44.97100
C  51.82700 26.95500 44.53100
C  53.60600 29.81800 46.31700
C  50.65200 28.92500 44.50800
O  50.25200 30.08200 44.67700
C  49.90600 27.81300 43.75800
C  49.64100 28.16600 42.32300
O  50.50700 28.32900 41.48800
O  48.28800 28.27700 42.15100
C  47.89500 28.93700 40.90500
H  50.37700 20.97700 43.18900
H  56.51500 21.43700 45.20000
H  55.62000 27.66600 46.52300
H  48.29600 25.39500 42.84200
H  49.06600 22.71000 41.93700
H  47.58900 23.68800 44.27500
H  48.94800 22.66600 44.87600
H  47.66800 22.04200 43.77600
H  48.69400 26.16600 40.69000
H  48.90600 24.53000 40.21300
H  51.19200 24.48100 40.36000
H  51.24200 26.13800 40.96400
H  52.70600 18.23700 42.76700
H  51.25600 19.10100 42.80500
H  51.70500 18.14700 44.20600
H  56.85700 17.92600 45.44500
H  56.27000 19.33800 46.35500
H  56.98600 19.61400 44.73600
H  57.99900 23.98100 44.78400
H  57.13600 25.32200 47.42100
H  59.01100 23.64300 47.24900
H  58.88900 22.24400 46.23900
H  57.58500 22.50900 47.39600
H  59.10500 26.15400 45.79300
H  58.06500 27.20000 46.70200
H  57.82300 28.36800 44.71800
H  56.96100 27.01900 43.95500
H  58.72700 27.14500 43.87300
H  53.24600 29.72900 47.34200
H  53.19000 30.68900 45.81100
H  54.68100 29.86200 46.14400
H  49.03300 27.57600 44.36700
H  48.16800 28.23200 40.12000
H  48.25900 29.96100 40.83000
H  46.80500 28.96200 40.89700
Mg 36.44200 49.06600 24.18800
C  36.57200 47.41800 27.26900
C  34.92500 51.83100 25.85400
C  35.81600 50.40300 21.27400
C  37.20900 45.94100 22.62500
N  35.87600 49.51700 26.29700
C  36.08200 48.74000 27.39900
C  35.77800 49.48200 28.64800
C  35.00400 50.77900 28.05400
C  35.28200 50.73400 26.60300
C  33.50200 50.62800 28.38400
C  37.14200 49.81100 29.37000
C  37.20300 49.74200 30.88400
H  35.87100 49.55200 31.65600
N  35.69600 50.95700 23.61100
C  35.07200 51.93400 24.43100
C  34.60500 53.03700 23.52600
C  34.96500 52.68400 22.20400
C  35.50100 51.31500 22.28900
C  33.97800 54.34100 24.02700
C  34.70400 53.49000 20.87300
O  34.90900 53.07400 19.70600
C  34.32000 54.90800 20.87200
N  36.28400 48.15100 22.24600
C  36.08600 49.00900 21.19300
C  36.38900 48.22400 19.91800
C  37.15200 46.95000 20.35900
C  36.85300 47.00800 21.83900
C  35.24600 47.98600 18.94400
C  38.64000 46.57700 20.00500
C  39.69300 47.43400 20.76700
N  36.92600 47.06100 24.73800
C  37.25800 45.89000 24.00400
C  37.67900 44.87700 24.91200
C  37.43900 45.35800 26.19500
C  36.97400 46.74200 26.01600
C  38.04100 43.47700 24.54800
C  37.41600 45.11600 27.62800
O  37.66400 44.03000 28.17600
C  36.80400 46.44800 28.36400
C  35.61100 45.97300 29.12000
O  34.51700 45.71300 28.60600
O  35.83300 45.94100 30.49400
C  34.76400 45.42200 31.33200
H  34.45300 52.65900 26.38700
H  35.73000 50.84600 20.28000
H  37.63800 45.10300 22.07200
H  35.16900 48.79600 29.23700
H  35.37600 51.66800 28.56500
H  33.32900 50.10500 29.32400
H  32.88000 50.22100 27.58700
H  33.24700 51.65800 28.63500
H  37.55100 50.71100 28.91100
H  37.88000 49.07200 29.05900
H  37.74300 50.60800 31.26900
H  37.84400 48.88400 31.08700
H  34.58300 55.21800 23.80100
H  33.77100 54.25800 25.09400
H  33.00300 54.34000 23.54100
H  34.51100 55.52600 21.74900
H  33.23900 54.86500 20.73900
H  34.78000 55.44900 20.04500
H  37.05200 48.89500 19.37200
H  36.69000 46.00400 20.07900
H  34.25900 48.27900 19.30200
H  35.00400 46.97000 18.63100
H  35.40800 48.56000 18.03100
H  38.73500 46.60900 18.92000
H  38.76100 45.55700 20.37100
H  40.15900 48.09500 20.03600
H  40.49300 46.79700 21.14700
H  39.21800 47.97400 21.58500
H  38.26600 43.33900 23.49000
H  37.25600 42.79200 24.86800
H  38.97500 43.24500 25.05900
H  37.47500 46.81500 29.14100
H  34.43100 44.46600 30.92800
H  33.87800 46.05700 31.35300
H  35.15500 45.27200 32.33900

