158

Mg 17.39600 -1.02300 27.34700
C  16.26800 1.11200 29.85500
C  19.25300 -2.64700 29.88100
C  18.84800 -2.70300 24.99600
C  15.70200 1.06600 24.99800
N  17.63200 -0.85000 29.64200
C  17.11900 0.16200 30.38800
C  17.42800 -0.03500 31.90200
C  18.54500 -1.14100 31.82900
C  18.53700 -1.51800 30.39300
C  19.90900 -0.78000 32.37200
C  16.19300 -0.45500 32.80600
C  16.54000 -0.47400 34.29900
H  17.78600 0.16500 34.86600
N  18.83500 -2.52600 27.40700
C  19.36800 -3.19000 28.53300
C  20.11200 -4.33400 28.10000
C  19.94700 -4.38400 26.67000
C  19.24400 -3.14000 26.28400
C  20.82000 -5.31700 28.97500
C  20.48500 -5.37600 25.59300
O  20.40500 -5.20000 24.38300
C  21.24000 -6.55300 26.14900
N  17.48600 -0.65700 25.35000
C  18.09500 -1.59000 24.57200
C  17.84200 -1.32600 23.04700
C  16.88100 -0.05400 23.08000
C  16.66400 0.19500 24.56600
C  19.03400 -1.24300 22.17600
C  15.66500 -0.41000 22.21100
C  14.94500 0.72600 21.58300
N  16.07300 0.65800 27.39200
C  15.46900 1.32400 26.36500
C  14.70300 2.39200 26.88800
C  14.96700 2.36700 28.23200
C  15.81600 1.27600 28.52300
C  13.75500 3.33200 26.15300
C  14.76500 3.04100 29.49600
O  13.97800 3.95100 29.75400
C  15.43900 2.23200 30.57100
C  16.24600 3.16600 31.42300
O  17.43600 3.35700 31.25000
O  15.56000 3.72800 32.51200
C  16.31200 4.47700 33.45800
H  19.75800 -3.12300 30.72300
H  19.15800 -3.26400 24.11200
H  15.20500 1.71500 24.27400
H  17.87300 0.92100 32.17500
H  18.27800 -2.05200 32.36500
H  19.87600 0.08800 33.02900
H  20.52100 -0.44600 31.53300
H  20.26300 -1.57000 33.03400
H  15.82300 -1.43200 32.49500
H  15.44500 0.31500 32.61400
H  16.45300 -1.52500 34.57600
H  15.74700 -0.01400 34.88800
H  21.85900 -5.13900 28.69700
H  20.46700 -6.31600 28.71800
H  20.59400 -5.01600 29.99800
H  22.07600 -6.24100 26.77500
H  21.62800 -7.20100 25.36300
H  20.47800 -7.11100 26.69300
H  17.33500 -2.23900 22.73500
H  17.43400 0.83500 22.77500
H  18.87400 -0.47700 21.41700
H  19.14900 -2.23600 21.74100
H  19.83600 -1.03100 22.88300
H  14.99600 -0.94400 22.88700
H  15.87000 -1.04000 21.34600
H  13.89200 0.50500 21.40400
H  15.46000 0.84300 20.63000
H  15.15100 1.67200 22.08400
H  13.06000 2.85600 25.46100
H  14.32300 4.17600 25.76200
H  13.12900 3.65900 26.98300
H  14.59800 1.86200 31.15700
H  16.52200 5.44900 33.01100
H  17.23600 4.01900 33.81200
H  15.58000 4.69100 34.23700
Mg 25.66000 1.51000 29.56000
C  27.53000 1.12000 32.39300
C  22.91000 1.79000 31.43300
C  23.82600 1.32500 26.56700
C  28.50100 0.82100 27.67500
N  25.28500 1.59700 31.65400
C  26.20600 1.42200 32.64200
C  25.63400 1.82400 34.06400
C  24.10200 1.89600 33.73900
C  24.05700 1.72700 32.19900
C  23.29800 0.83500 34.52300
C  26.27500 3.14900 34.58400
C  25.92300 3.50700 36.10300
H  27.02500 3.58200 37.12600
N  23.65800 1.66000 29.01500
C  22.72200 1.90500 29.97600
C  21.46500 2.03900 29.27700
C  21.73100 1.89300 27.87000
C  23.13900 1.70300 27.74400
C  20.18300 2.29900 29.93700
C  20.79700 2.07700 26.69800
O  21.10500 1.99300 25.51100
C  19.33000 2.20200 26.91400
N  26.03900 0.87400 27.41000
C  25.18800 1.09600 26.35400
C  25.88000 0.97000 24.96400
C  27.35900 0.98000 25.39700
C  27.30100 0.93200 26.94300
C  25.48200 -0.30200 24.07800
C  28.15200 2.15800 24.78900
C  28.11400 3.40700 25.72000
N  27.62300 0.99900 29.87400
C  28.65000 0.64400 29.02800
C  29.84500 0.57400 29.77300
C  29.40900 0.64600 31.12900
C  28.04900 0.90700 31.12600
C  31.27300 0.19500 29.24900
C  29.90200 0.66100 32.46600
O  31.04200 0.36100 32.85200
C  28.68000 0.99900 33.37600
C  28.48800 0.04800 34.46600
O  27.92500 -1.00400 34.36200
O  29.05500 0.44800 35.68000
C  28.97700 -0.52200 36.74600
H  22.02400 1.89900 32.06100
H  23.14700 1.25700 25.71500
H  29.48100 0.82100 27.19400
H  25.84800 0.99700 34.74100
H  23.80400 2.87600 34.11400
H  23.13200 1.19800 35.53800
H  23.95500 -0.03500 34.52300
H  22.32000 0.72700 34.05500
H  25.93700 3.98700 33.97400
H  27.35900 3.23100 34.51700
H  25.15300 2.81200 36.43900
H  25.38500 4.45400 36.07400
H  19.51200 1.48200 29.67300
H  19.72800 3.21900 29.57200
H  20.23000 2.35600 31.02500
H  19.40000 3.18800 27.37200
H  18.91200 1.42500 27.55400
H  18.83900 2.31000 25.94600
H  25.63800 1.81800 24.32300
H  27.81100 0.03200 25.10500
H  25.20800 -1.07200 24.80000
H  26.25400 -0.59200 23.36500
H  24.52400 -0.04500 23.62600
H  27.68600 2.59200 23.90300
H  29.21600 1.95900 24.66300
H  27.40900 3.40500 26.55100
H  27.96800 4.26100 25.05900
H  29.10600 3.58300 26.13500
H  32.04000 0.54300 29.94100
H  31.55200 0.59500 28.27300
H  31.31900 -0.88300 29.40100
H  28.85700 1.99200 33.78900
H  28.66100 -1.53800 36.51200
H  28.41700 -0.09900 37.58000
H  29.99300 -0.66500 37.11400

