158

Mg 24.28000 -5.18200 46.52000
C  26.20200 -2.83100 44.71500
C  21.67600 -4.67700 44.33800
C  22.73700 -7.96000 47.79200
C  27.07400 -5.95600 48.48400
N  24.11800 -4.00100 44.64600
C  24.93100 -2.96400 44.23400
C  24.29900 -2.15000 43.07600
C  22.83100 -2.60400 43.20200
C  22.84600 -3.86400 44.08900
C  21.87900 -1.40900 43.76200
C  25.00600 -2.38700 41.71400
C  25.49600 -1.09500 41.11700
H  24.98700 -0.94200 39.66100
N  22.45800 -6.14600 46.20600
C  21.48100 -5.75600 45.26500
C  20.26300 -6.55800 45.37100
C  20.54800 -7.49100 46.39700
C  22.01700 -7.27300 46.83300
C  19.07100 -6.43700 44.48400
C  19.59400 -8.58900 46.86600
O  18.45600 -8.77900 46.41200
C  19.94600 -9.45500 47.98700
N  24.77800 -6.73900 47.95200
C  23.93200 -7.78300 48.29400
C  24.72300 -8.84700 49.07000
C  26.12800 -8.13900 49.42700
C  26.01800 -6.90100 48.53400
C  24.05200 -9.54300 50.27800
C  27.37300 -9.00800 49.28100
C  28.50500 -8.88200 50.25900
N  26.24500 -4.53600 46.71300
C  27.27400 -4.86100 47.57800
C  28.37100 -4.04300 47.36800
C  28.02500 -3.28600 46.21000
C  26.71000 -3.61000 45.82900
C  29.58400 -3.80600 48.23400
C  28.53400 -2.24100 45.33900
O  29.63700 -1.66800 45.39200
C  27.44300 -2.02600 44.21000
C  27.08700 -0.58100 44.33500
O  26.45100 -0.03300 45.24700
O  27.68500 0.07400 43.30400
C  27.80200 1.52900 43.40400
H  20.85100 -4.28200 43.74300
H  22.23200 -8.91000 47.98200
H  27.93800 -6.22100 49.09800
H  24.21900 -1.09300 43.33100
H  22.55100 -2.94300 42.20500
H  20.92200 -1.31500 43.24800
H  22.26600 -0.39100 43.77600
H  21.57100 -1.60600 44.78900
H  24.31100 -2.95300 41.09300
H  25.83200 -3.08000 41.87400
H  26.58600 -1.09200 41.09900
H  25.20200 -0.19800 41.66200
H  19.17500 -7.28500 43.80700
H  19.08100 -5.48800 43.94700
H  18.16500 -6.55400 45.07900
H  20.42200 -8.89400 48.79100
H  20.67800 -10.17100 47.61200
H  19.18400 -10.13900 48.36000
H  24.87800 -9.60500 48.30200
H  26.07600 -7.78600 50.45700
H  23.72900 -10.50900 49.89100
H  23.26300 -8.90500 50.67600
H  24.80600 -9.64800 51.05800
H  27.75500 -8.86800 48.26900
H  27.03600 -10.04500 49.29100
H  28.78900 -9.74600 50.86000
H  28.21600 -8.03000 50.87400
H  29.46000 -8.67300 49.77700
H  29.96200 -4.81000 48.42800
H  29.31000 -3.34300 49.18200
H  30.52100 -3.50500 47.76600
H  27.83500 -2.25100 43.21800
H  28.76700 1.71900 43.87500
H  26.95400 1.95500 43.94000
H  27.85800 1.87500 42.37100
Mg 35.64900 48.82800 26.21800
C  35.85600 46.78300 28.89000
C  34.14300 51.18900 28.20800
C  35.31500 50.76800 23.42800
C  37.06200 46.35800 24.11900
N  35.20000 49.06100 28.32700
C  35.39500 48.07100 29.24400
C  35.24900 48.59800 30.70800
C  34.31100 49.75900 30.46300
C  34.53700 50.09500 28.94600
C  32.84000 49.60900 30.88100
C  36.61700 48.87200 31.47500
C  36.49700 48.79900 33.03300
H  35.10900 48.96200 33.67000
N  34.86400 50.72400 25.85200
C  34.36900 51.53700 26.86200
C  34.00200 52.81800 26.21400
C  34.28900 52.66000 24.78400
C  34.84200 51.34600 24.63000
C  33.44900 54.03000 26.95700
C  34.17600 53.70900 23.71400
O  34.51600 53.51000 22.59100
C  33.72000 55.09600 23.99400
N  36.08000 48.56400 24.10400
C  35.79900 49.51100 23.18600
C  35.99100 48.98600 21.77000
C  36.72000 47.60200 21.97900
C  36.60700 47.47500 23.48200
C  34.65300 48.94600 20.88400
C  38.19800 47.51100 21.55400
C  39.24800 48.48000 22.13300
N  36.35400 46.96900 26.45700
C  36.84400 46.02300 25.46600
C  37.21200 44.85200 26.20000
C  36.84400 45.10100 27.53000
C  36.27700 46.35000 27.59600
C  37.77700 43.60200 25.69100
C  36.92300 44.51000 28.83900
O  37.28000 43.39900 29.20300
C  36.26500 45.58200 29.77000
C  35.17600 44.99800 30.56300
O  34.33500 44.19700 30.13900
O  35.33000 45.38100 31.91600
C  34.29000 44.76900 32.72500
H  33.62700 51.89700 28.86100
H  35.32500 51.40700 22.54200
H  37.46900 45.52700 23.53800
H  34.74400 47.78900 31.23500
H  34.77100 50.59200 30.99300
H  32.22700 49.55600 29.98100
H  32.48600 50.42500 31.51100
H  32.78700 48.68200 31.45300
H  37.02200 49.86400 31.27700
H  37.41900 48.22400 31.12000
H  37.12600 49.60200 33.41600
H  36.94200 47.86200 33.36900
H  32.81300 54.61300 26.29100
H  34.19300 54.58100 27.53200
H  32.74400 53.67300 27.70800
H  32.68800 55.21000 24.32500
H  33.73700 55.56000 23.00800
H  34.48100 55.54000 24.63600
H  36.75200 49.60500 21.29500
H  36.19000 46.71800 21.62500
H  33.78100 49.20100 21.48600
H  34.49200 48.06000 20.26800
H  34.68300 49.81900 20.23200
H  38.15500 47.47100 20.46600
H  38.54700 46.49300 21.73200
H  39.49700 49.19700 21.35100
H  40.09000 47.86500 22.45200
H  38.84000 48.88300 23.06000
H  38.21700 43.67000 24.69600
H  37.10800 42.74100 25.67700
H  38.60700 43.46600 26.38500
H  36.97900 45.96900 30.49800
H  34.51600 43.72400 32.93700
H  33.30500 44.78400 32.25900
H  34.14900 45.28100 33.67700

