158

Mg 53.89500 23.68600 43.43300
C  51.14300 25.76100 42.82500
C  52.20300 21.12000 42.03900
C  56.89100 22.01600 43.18700
C  55.76800 26.52500 44.63200
N  51.92000 23.53500 42.55800
C  50.96400 24.50200 42.49200
C  49.66200 23.93400 41.79100
C  49.93800 22.36500 41.84800
C  51.42600 22.29100 42.18000
C  49.12800 21.52800 42.87000
C  49.27100 24.49900 40.35100
C  50.46600 24.73100 39.31400
H  50.07700 25.19000 37.88500
N  54.35300 21.78500 42.79700
C  53.54000 20.88500 42.27400
C  54.25200 19.61400 42.08400
C  55.65200 19.82300 42.44200
C  55.68500 21.30800 42.76800
C  53.53000 18.39900 41.48500
C  56.70300 18.67900 42.46500
O  56.25700 17.52800 42.40000
C  58.11000 18.90100 42.63900
N  56.01400 24.28200 43.69900
C  57.06000 23.32000 43.56000
C  58.46100 23.96100 43.96100
C  58.06100 25.39600 44.44400
C  56.49200 25.42600 44.24900
C  59.15300 23.10700 45.10200
C  58.88800 26.52600 43.66200
C  60.29900 26.84200 44.20400
N  53.56800 25.72800 43.82700
C  54.39500 26.76100 44.33100
C  53.55400 27.99400 44.47800
C  52.32000 27.70400 43.87400
C  52.38900 26.28900 43.40500
C  53.91600 29.25900 45.13400
C  50.96800 28.18200 43.51300
O  50.53200 29.30100 43.71000
C  50.13300 26.95200 42.95200
C  49.69000 27.36000 41.60100
O  50.40100 27.80900 40.63500
O  48.30000 27.46600 41.68000
C  47.75900 28.19900 40.59500
H  51.66600 20.20000 41.80100
H  57.70400 21.28900 43.13200
H  56.40100 27.33100 45.01100
H  48.93800 24.19300 42.56300
H  49.84700 21.82100 40.90800
H  48.13500 21.42000 42.43400
H  48.83000 22.07800 43.76300
H  49.61500 20.60000 43.17200
H  48.63200 25.36200 40.16100
H  48.60000 23.76500 39.90500
H  51.11300 23.85400 39.32300
H  51.02500 25.57500 39.71700
H  53.80700 18.30100 40.43500
H  52.44700 18.35400 41.59100
H  53.80600 17.44400 41.93000
H  58.50900 19.20600 43.60600
H  58.46500 19.67200 41.95400
H  58.58800 17.98600 42.29200
H  59.14900 23.97300 43.11600
H  58.27500 25.46500 45.51000
H  59.84400 22.46000 44.56200
H  58.33900 22.57400 45.59300
H  59.66000 23.66600 45.88800
H  58.28300 27.43200 43.63100
H  58.89300 26.20800 42.61900
H  61.10000 26.28600 43.71700
H  60.24600 26.60200 45.26600
H  60.56400 27.90000 44.20700
H  53.26200 29.46100 45.98200
H  53.87200 30.01100 44.34600
H  54.93400 29.14000 45.50600
H  49.26100 26.73500 43.56800
H  46.71100 28.34000 40.85800
H  47.75000 27.58200 39.69700
H  48.22300 29.18500 40.56200
Mg 29.88300 58.37800 39.99100
C  26.93500 56.52500 39.36600
C  31.65800 55.51200 39.07000
C  32.80200 60.19900 40.31600
C  28.04100 61.29800 40.36700
N  29.31400 56.28000 39.33300
C  28.06300 55.81600 39.05000
C  28.07500 54.33500 38.61700
C  29.61300 53.91400 38.61300
C  30.24500 55.30500 38.99600
C  30.01900 52.69000 39.43500
C  27.31400 54.16400 37.21800
C  27.38500 55.36500 36.10900
H  27.40400 54.97900 34.64400
N  31.96200 57.90900 39.82000
C  32.44400 56.65800 39.47900
C  33.87100 56.71500 39.55100
C  34.24100 58.07100 39.80400
C  32.99200 58.83500 40.04500
C  34.78500 55.50300 39.36100
C  35.62100 58.67700 39.85700
O  36.57700 57.90900 39.71100
C  35.89800 60.15800 40.19100
N  30.35000 60.51700 40.36300
C  31.61700 60.98100 40.51800
C  31.59000 62.51300 40.58300
C  30.11500 62.83500 40.82300
C  29.43900 61.46600 40.49300
C  32.55800 63.16300 41.65800
C  29.54600 63.96100 39.95800
C  28.69500 64.81800 40.80800
N  27.89200 58.88200 40.00600
C  27.27400 60.08000 40.23000
C  25.85400 59.80000 40.28900
C  25.64400 58.44900 39.87300
C  26.93000 57.89500 39.78900
C  24.80400 60.83600 40.55300
C  24.65100 57.40300 39.61700
O  23.44300 57.38000 39.66300
C  25.46400 56.14200 39.22000
C  25.10800 55.09900 40.16700
O  25.65300 54.97800 41.28700
O  24.09700 54.29100 39.78400
C  23.40000 53.55100 40.87900
H  32.08000 54.67200 38.51500
H  33.64100 60.89700 40.33900
H  27.47100 62.23000 40.40300
H  27.57300 53.73500 39.37500
H  29.99200 53.75300 37.60300
H  30.84900 52.87000 40.11800
H  30.40800 51.93000 38.75800
H  29.12800 52.34400 39.96000
H  26.28400 53.98500 37.52800
H  27.61200 53.21400 36.77500
H  28.30200 55.92700 36.28500
H  26.62000 56.13400 36.21600
H  35.28100 55.53100 38.39100
H  34.14600 54.62400 39.26600
H  35.46000 55.43700 40.21400
H  35.51300 60.87000 39.46200
H  36.98800 60.19700 40.19700
H  35.51700 60.42100 41.17700
H  31.93100 62.93900 39.64000
H  29.87100 63.08900 41.85400
H  32.06400 63.71800 42.45500
H  33.23000 63.82500 41.11100
H  33.27800 62.50400 42.14300
H  29.00200 63.53600 39.11500
H  30.28700 64.64100 39.53700
H  28.46100 64.37800 41.77700
H  27.66800 64.84400 40.44400
H  29.08500 65.83100 40.90700
H  24.34800 61.29700 39.67600
H  25.20100 61.59400 41.22800
H  23.94200 60.36500 41.02500
H  25.30800 55.82900 38.18800
H  24.08400 52.82900 41.32400
H  22.48400 53.13500 40.46000
H  23.16800 54.31600 41.62000

