158

Mg -0.17000 7.57800 26.29400
C  0.67100 9.60700 28.93300
C  -0.33000 4.96100 28.44600
C  -0.60100 5.48800 23.58900
C  0.76500 10.09800 24.07200
N  0.22300 7.33000 28.51200
C  0.41700 8.33500 29.39200
C  0.31600 7.85300 30.83300
C  0.27500 6.25000 30.67700
C  0.09400 6.11000 29.13200
C  1.45700 5.38500 31.30200
C  -1.00900 8.38700 31.55200
C  -1.06000 8.37500 33.07500
H  0.09200 7.81600 33.86200
N  -0.43500 5.52600 26.07900
C  -0.51300 4.62400 27.10000
C  -0.89800 3.34300 26.65300
C  -0.98800 3.44200 25.24600
C  -0.70000 4.88600 24.87500
C  -1.04100 2.19800 27.56800
C  -1.29400 2.32400 24.23600
O  -1.23400 2.44600 22.98300
C  -1.45000 0.93900 24.72900
N  -0.08900 7.78600 24.12700
C  -0.29600 6.81400 23.24000
C  -0.22200 7.35600 21.79000
C  0.11400 8.85000 21.98800
C  0.31700 8.89100 23.44600
C  0.90800 6.67300 20.85600
C  -0.90900 9.90200 21.54600
C  -2.31300 10.04500 22.17600
N  0.51400 9.52100 26.38300
C  0.88900 10.40000 25.40800
C  1.12700 11.72600 26.05200
C  1.16500 11.39200 27.44300
C  0.79700 10.10600 27.57700
C  1.36000 13.10200 25.42500
C  1.32400 12.01300 28.80300
O  1.69900 13.19600 29.04200
C  1.04700 10.83500 29.79400
C  2.06300 10.65200 30.78500
O  3.19300 10.23000 30.55300
O  1.56600 11.00600 31.99400
C  2.56900 11.21800 33.02800
H  -0.50100 4.15100 29.15800
H  -0.80500 4.76500 22.79700
H  0.93800 10.89700 23.34800
H  1.21000 8.19500 31.35400
H  -0.62500 5.71800 30.98600
H  1.84900 4.68900 30.56100
H  0.94700 4.75200 32.02800
H  2.25000 6.04200 31.66000
H  -1.84400 7.80400 31.16400
H  -1.10700 9.45400 31.35000
H  -1.91500 7.87400 33.52900
H  -1.16900 9.42100 33.36100
H  -0.11200 1.62900 27.58000
H  -1.93000 1.64600 27.26200
H  -1.20500 2.44900 28.61600
H  -2.43300 0.99000 25.19700
H  -0.68400 0.78300 25.48800
H  -1.38600 0.24700 23.88900
H  -1.17400 7.20900 21.28000
H  1.06000 9.12800 21.52400
H  1.73500 7.36600 20.69900
H  0.42800 6.47100 19.89900
H  1.32100 5.77500 21.31500
H  -1.19800 9.43900 20.60200
H  -0.50600 10.90800 21.43000
H  -2.36700 11.00900 22.68200
H  -2.36200 9.36500 23.02700
H  -3.07700 9.84200 21.42600
H  2.42200 13.34600 25.46200
H  0.74400 13.80700 25.98300
H  0.99600 13.03000 24.40000
H  0.10300 11.22300 30.17600
H  3.29200 11.92000 32.61400
H  3.17300 10.35600 33.31300
H  2.26500 11.72400 33.94400
Mg 46.58600 25.27700 28.71500
C  47.88200 27.67800 31.05000
C  45.57800 23.31800 31.31000
C  45.30400 23.12800 26.43300
C  47.88400 27.17700 26.18900
N  46.79500 25.54300 30.95100
C  47.19600 26.58400 31.66000
C  46.81100 26.37300 33.15300
C  46.38500 24.88600 33.11400
C  46.25400 24.53000 31.63800
C  47.31800 24.02300 34.04600
C  45.70700 27.33300 33.65500
C  46.14200 28.33700 34.75800
H  45.24400 28.29000 36.04700
N  45.67500 23.42700 28.88600
C  45.23400 22.84200 30.05900
C  44.47300 21.62000 29.71600
C  44.36600 21.54900 28.31500
C  45.15100 22.73200 27.82300
C  43.85300 20.67700 30.77000
C  43.58200 20.64500 27.40200
O  43.59600 20.74600 26.22400
C  42.68700 19.46200 27.88900
N  46.81600 25.09800 26.62800
C  46.01400 24.22300 25.92500
C  46.04800 24.44600 24.40400
C  46.71400 25.83800 24.41200
C  47.18000 26.06100 25.79700
C  47.02600 23.44800 23.63500
C  45.75200 26.97800 24.08500
C  46.23200 28.12900 23.23000
N  47.73500 27.04000 28.60800
C  48.15100 27.74900 27.49300
C  48.68500 29.03600 27.88200
C  48.59600 29.00000 29.28300
C  48.05800 27.81900 29.65300
C  49.11400 30.02800 26.98400
C  48.91500 29.77700 30.49400
O  49.50100 30.84900 30.61900
C  48.44600 28.91300 31.64100
C  49.53300 28.54700 32.56400
O  50.55000 27.93000 32.29400
O  49.23900 28.79900 33.84900
C  50.04500 28.26600 34.95300
H  45.23800 22.77000 32.19100
H  44.84200 22.57900 25.61000
H  48.20700 27.77000 25.33100
H  47.58100 26.73000 33.83600
H  45.40300 24.76800 33.57000
H  46.65900 23.36400 34.61100
H  47.89000 24.59400 34.77700
H  47.92900 23.44500 33.35300
H  44.80900 26.82900 34.01400
H  45.42200 27.82300 32.72300
H  46.19300 29.32700 34.30500
H  47.13100 28.15100 35.17500
H  44.00200 21.01000 31.79700
H  44.41000 19.76100 30.57500
H  42.78000 20.62300 30.58500
H  41.91700 19.71700 28.61700
H  43.30100 18.62800 28.22900
H  42.08700 19.07400 27.06600
H  45.08800 24.31400 23.90500
H  47.58200 26.01500 23.77700
H  47.34900 22.66200 24.31800
H  47.90200 23.94900 23.22400
H  46.45400 23.01800 22.81300
H  45.46100 27.43400 25.03100
H  44.89700 26.46700 23.64200
H  46.11800 29.09700 23.71800
H  45.76000 28.18600 22.24900
H  47.28300 28.08400 22.94600
H  48.83700 31.00000 27.39000
H  48.46200 29.98400 26.11200
H  50.14700 30.03200 26.63600
H  47.63600 29.47100 32.11000
H  50.73600 27.47600 34.66100
H  49.42300 27.90000 35.77000
H  50.49700 29.17500 35.34900

