158

Mg -2.35900 17.68200 27.12800
C  -2.56300 15.44900 29.76600
C  -2.41500 20.25500 29.39700
C  -2.47800 19.82400 24.47400
C  -2.83200 14.98200 24.91900
N  -2.36900 17.80200 29.41100
C  -2.37400 16.77700 30.26500
C  -2.23700 17.32300 31.71900
C  -2.46400 18.82800 31.53500
C  -2.40400 18.99500 30.01900
C  -3.86300 19.34200 32.13200
C  -0.90800 16.94000 32.39800
C  -0.58200 17.70200 33.67300
H  -0.25000 16.93200 34.96000
N  -2.46500 19.73400 26.94000
C  -2.44800 20.66400 28.02800
C  -2.36700 22.02600 27.46600
C  -2.17700 21.84900 26.06200
C  -2.32500 20.43800 25.74800
C  -2.51900 23.23800 28.38600
C  -1.90500 22.87700 24.99300
O  -1.96300 22.67900 23.76700
C  -1.65700 24.25300 25.36100
N  -2.68500 17.40200 25.00300
C  -2.61600 18.43400 24.15600
C  -2.82600 17.92200 22.70900
C  -2.64500 16.36100 22.85000
C  -2.63100 16.22800 24.34700
C  -4.18300 18.23400 21.98700
C  -1.40900 15.70800 22.11600
C  -0.06500 15.69000 22.91100
N  -2.56000 15.57900 27.25700
C  -2.80200 14.63900 26.30400
C  -3.01400 13.35700 26.90800
C  -2.87300 13.61600 28.28500
C  -2.65300 14.95400 28.45500
C  -3.29700 12.06900 26.24100
C  -2.94300 13.03400 29.64700
O  -3.22500 11.86400 30.05100
C  -2.75500 14.25500 30.62600
C  -1.72200 13.96800 31.63000
O  -0.50200 13.95100 31.43900
O  -2.28500 13.59700 32.84400
C  -1.44300 13.12100 33.90800
H  -2.33500 21.09200 30.09300
H  -2.43200 20.50600 23.62300
H  -3.17400 14.18200 24.25800
H  -3.05300 16.83400 32.25100
H  -1.66200 19.38700 32.01500
H  -4.48000 19.89700 31.42400
H  -3.69400 20.07600 32.92000
H  -4.40700 18.47800 32.51400
H  -0.05200 16.91200 31.72400
H  -1.20400 15.96500 32.78300
H  -1.32000 18.47200 33.89900
H  0.36100 18.19700 33.44000
H  -3.20100 22.95900 29.18900
H  -2.81000 24.18300 27.92700
H  -1.55400 23.30800 28.88700
H  -0.63500 24.23100 25.73900
H  -2.44100 24.58400 26.04300
H  -1.69800 24.83000 24.43600
H  -2.07100 18.18100 21.96700
H  -3.59600 15.90300 22.57900
H  -4.08900 19.07300 21.29800
H  -4.91600 18.54900 22.72900
H  -4.69800 17.42700 21.46600
H  -1.22800 16.09900 21.11500
H  -1.78900 14.69000 22.03600
H  0.69800 15.19800 22.30900
H  -0.28500 15.07200 23.78200
H  0.23200 16.70000 23.19300
H  -2.75700 11.23200 26.68300
H  -2.83000 12.10100 25.25700
H  -4.38600 12.02700 26.21600
H  -3.71600 14.24900 31.14000
H  -0.99700 13.94200 34.46900
H  -0.61800 12.49100 33.57700
H  -2.07900 12.54900 34.58300
Mg 1.50300 -1.70000 43.47600
C  4.99000 -0.92600 43.30000
C  0.92000 1.39000 41.97800
C  -1.56800 -2.76000 42.80400
C  2.31900 -4.80800 44.74800
N  2.87300 0.11900 42.69200
C  4.26000 0.14400 42.69000
C  4.80400 1.31000 41.89300
C  3.44500 2.15000 41.63800
C  2.32200 1.24200 42.20000
C  3.41500 3.57500 42.23700
C  5.58400 0.87900 40.63100
C  6.72000 1.88200 40.30300
H  6.42100 2.74500 39.01800
N  -0.09400 -0.77400 42.52000
C  -0.19500 0.48900 42.08800
C  -1.53000 0.65100 41.61600
C  -2.23900 -0.54700 41.84100
C  -1.27600 -1.46200 42.40700
C  -2.10800 2.03700 41.20100
C  -3.68900 -0.75400 41.53300
O  -4.31900 0.24800 41.17700
C  -4.42500 -2.13800 41.67300
N  0.51000 -3.56800 43.80700
C  -0.80800 -3.72000 43.47600
C  -1.42100 -5.01300 44.03500
C  -0.12400 -5.69100 44.58700
C  0.95700 -4.66900 44.39100
C  -2.47300 -4.79400 45.15000
C  0.22800 -7.09600 44.03500
C  0.27100 -8.29400 45.07300
N  3.26300 -2.70200 43.91300
C  3.43300 -3.97200 44.43500
C  4.84600 -4.26600 44.60600
C  5.39700 -3.08200 44.21400
C  4.47900 -2.16500 43.73000
C  5.35700 -5.50100 45.29700
C  6.71900 -2.39600 44.23900
O  7.73400 -2.73700 44.78800
C  6.48000 -1.01400 43.50800
C  6.98900 0.18100 44.18400
O  6.84900 0.49400 45.35900
O  7.78900 0.97500 43.35200
C  8.33200 2.20200 43.95300
H  0.59800 2.27100 41.41900
H  -2.61700 -3.04200 42.91200
H  2.55600 -5.82700 45.06100
H  5.37800 1.95000 42.56300
H  3.29200 2.20100 40.56000
H  4.42400 3.96700 42.36400
H  2.83900 3.45300 43.15400
H  2.85200 4.27100 41.61600
H  4.87800 0.80100 39.80300
H  5.89200 -0.15300 40.79600
H  7.59400 1.23900 40.20000
H  6.87600 2.50600 41.18200
H  -2.87300 1.93900 40.43100
H  -1.42600 2.85400 40.96700
H  -2.56000 2.37500 42.13300
H  -3.81800 -2.92100 41.21900
H  -5.38000 -2.08300 41.15200
H  -4.55900 -2.30400 42.74200
H  -1.91300 -5.51300 43.20100
H  -0.25000 -5.86800 45.65500
H  -3.49700 -4.79600 44.77500
H  -2.27800 -3.79900 45.54900
H  -2.33400 -5.46800 45.99500
H  1.18100 -7.03600 43.51100
H  -0.53200 -7.43200 43.33000
H  0.69500 -7.90200 45.99800
H  1.03300 -8.91100 44.59700
H  -0.72700 -8.73100 45.11600
H  6.38400 -5.25700 45.56800
H  5.29200 -6.32200 44.58400
H  4.78700 -5.76800 46.18700
H  7.00600 -1.15200 42.56400
H  8.85100 1.94400 44.87600
H  7.51400 2.86200 44.24100
H  9.07900 2.66200 43.30800

