158

Mg 43.18700 42.35800 26.55500
C  42.06300 44.60800 28.89300
C  44.49500 40.46600 29.10400
C  44.29400 40.16700 24.16000
C  42.09700 44.47800 24.06200
N  43.17000 42.47300 28.74800
C  42.57000 43.41000 29.46200
C  42.51900 42.95300 30.95800
C  43.62900 41.87600 30.99700
C  43.76100 41.54300 29.52900
C  44.82500 42.22200 31.85500
C  41.09600 42.63700 31.42300
C  40.45700 43.43600 32.58200
H  39.83500 42.65200 33.70500
N  44.11400 40.50500 26.65900
C  44.64700 39.90700 27.81300
C  45.21000 38.63300 27.48400
C  45.11800 38.50400 26.03500
C  44.47300 39.78500 25.51600
C  45.71000 37.67700 28.58100
C  45.43600 37.30800 25.13900
O  45.32400 37.30900 23.88500
C  45.91400 35.97600 25.84100
N  43.39100 42.48500 24.37600
C  43.86000 41.44900 23.63400
C  43.77400 41.78600 22.14900
C  42.82900 43.00000 22.12100
C  42.77900 43.38100 23.58000
C  45.13400 42.08300 21.50300
C  41.54800 42.40000 21.61200
C  40.69300 41.57600 22.65200
N  42.45500 44.28000 26.43700
C  42.07300 44.99700 25.36500
C  41.53500 46.27000 25.83100
C  41.44700 46.09700 27.24500
C  42.07100 44.86600 27.51700
C  41.09100 47.44800 25.03800
C  40.94900 46.70600 28.45600
O  40.27400 47.76400 28.64100
C  41.20500 45.67000 29.60200
C  42.06100 46.23300 30.79600
O  43.20800 46.58500 30.74600
O  41.33200 46.17200 31.88100
C  41.94200 46.73000 33.05800
H  44.88500 39.82900 29.90100
H  44.70200 39.47000 23.42500
H  41.69200 45.14600 23.29900
H  42.79100 43.72500 31.67800
H  43.22300 40.94500 31.39400
H  44.65400 43.04800 32.54700
H  45.62300 42.69100 31.27900
H  45.08100 41.27500 32.33000
H  41.06200 41.57900 31.68200
H  40.55600 42.79700 30.49000
H  39.76600 44.18900 32.20400
H  41.27200 44.03200 32.99400
H  45.25600 36.68700 28.63100
H  45.62100 38.03100 29.60900
H  46.79700 37.73400 28.53700
H  46.55100 36.28600 26.66900
H  46.52200 35.37100 25.16900
H  45.00600 35.50300 26.21500
H  43.50400 40.85100 21.65800
H  43.18800 43.68200 21.35000
H  45.51500 43.06500 21.78500
H  45.03500 42.05400 20.41800
H  45.93000 41.36100 21.68900
H  41.52900 41.72100 20.76000
H  40.85800 43.22500 21.43400
H  40.62900 42.01200 23.64800
H  41.02000 40.53600 22.63800
H  39.65300 41.61300 22.32700
H  41.22300 48.32000 25.67900
H  40.08200 47.13900 24.76600
H  41.63400 47.56300 24.10000
H  40.26500 45.25500 29.96700
H  41.34700 46.41500 33.91600
H  41.84600 47.81500 33.02200
H  42.99800 46.52900 33.24000
Mg 17.57800 51.05600 26.00700
C  19.35200 49.89900 28.95500
C  15.21400 52.26600 28.04400
C  16.12300 51.91200 23.20200
C  20.21400 49.36400 24.08400
N  17.30000 50.99200 28.27400
C  18.16300 50.53300 29.24100
C  17.63900 50.97600 30.55700
C  16.18500 51.43400 30.36300
C  16.17700 51.59200 28.85100
C  15.07200 50.54000 30.82600
C  18.58300 52.03000 31.23900
C  18.55300 52.12300 32.75100
H  17.57600 51.27000 33.53900
N  15.89900 52.04900 25.62000
C  14.99900 52.51800 26.61900
C  13.95700 53.26300 25.96500
C  14.14300 53.13000 24.54500
C  15.44100 52.34800 24.35300
C  12.92200 53.92800 26.73600
C  13.38000 53.82300 23.41800
O  13.86000 53.89200 22.31800
C  12.11200 54.54500 23.63600
N  18.05800 50.67600 23.99500
C  17.27800 51.17000 23.03300
C  17.69400 50.72900 21.62700
C  19.08300 50.09700 21.86600
C  19.15200 50.06700 23.40000
C  16.62100 49.90500 20.79000
C  20.26200 50.82700 21.05400
C  20.50300 52.34800 21.44600
N  19.46300 49.86000 26.36300
C  20.39700 49.31400 25.52400
C  21.48500 48.77300 26.31300
C  21.11300 49.03200 27.62100
C  19.93600 49.70800 27.64200
C  22.56100 47.97000 25.86000
C  21.44500 48.64000 29.01100
O  22.39400 48.00000 29.49700
C  20.37900 49.26400 29.91600
C  19.74700 48.22000 30.75300
O  18.77600 47.52800 30.42700
O  20.39000 48.26300 31.97900
C  19.76900 47.44800 33.05300
H  14.45300 52.71800 28.68400
H  15.51000 52.05300 22.31000
H  21.04900 48.99200 23.48700
H  17.65700 50.07100 31.16500
H  16.00800 52.40600 30.82300
H  15.39500 49.81200 31.57100
H  14.57800 50.05700 29.98300
H  14.29600 51.17700 31.25100
H  18.43000 53.03600 30.84800
H  19.60400 51.80100 30.93300
H  18.37800 53.16800 33.00600
H  19.52500 51.86300 33.16900
H  12.00200 53.34800 26.67000
H  12.64000 54.90700 26.35000
H  13.16400 54.24200 27.75200
H  11.53600 53.94900 24.34400
H  11.63000 54.51900 22.65900
H  12.36300 55.59700 23.77100
H  17.74400 51.72300 21.18400
H  19.16500 49.08600 21.46800
H  15.96000 49.33000 21.43800
H  17.15100 49.25200 20.09600
H  15.90600 50.58400 20.32700
H  20.11600 50.89500 19.97600
H  21.19100 50.29400 21.25600
H  20.28500 53.01900 20.61600
H  21.50800 52.48100 21.84500
H  19.82200 52.60800 22.25600
H  22.98100 48.57600 25.05700
H  22.08000 47.19200 25.26800
H  23.28000 47.74100 26.64600
H  20.94500 49.95200 30.54400
H  20.11400 46.41500 33.05700
H  18.68900 47.37200 32.92300
H  20.10500 47.83300 34.01600

