158

Mg 1.09200 8.15000 26.05000
C  2.06000 10.11700 28.74600
C  1.44100 5.31900 27.96800
C  0.51400 6.26700 23.30800
C  1.55900 11.04200 23.89800
N  1.71400 7.77800 28.12600
C  1.95500 8.74100 29.02500
C  2.06800 8.16000 30.43000
C  2.02200 6.61500 30.23400
C  1.66600 6.53600 28.70400
C  3.29800 5.87400 30.80800
C  0.86900 8.68500 31.15400
C  1.00300 8.77500 32.72200
H  2.24400 8.18300 33.44300
N  0.98900 6.00900 25.75200
C  1.07300 5.04500 26.66300
C  0.81700 3.79600 26.05700
C  0.43100 4.01300 24.74600
C  0.65900 5.49200 24.54900
C  0.73700 2.41300 26.82000
C  -0.10800 3.12100 23.76200
O  -0.32100 3.51300 22.61300
C  -0.47800 1.77800 24.03700
N  1.21600 8.58200 23.88900
C  0.86700 7.55600 22.93500
C  0.83300 8.14400 21.48400
C  0.98900 9.67000 21.81900
C  1.15400 9.81100 23.30800
C  2.00200 7.60400 20.62300
C  -0.17200 10.52000 21.30200
C  -0.07900 10.98100 19.79700
N  1.76000 10.15600 26.25200
C  1.82400 11.13500 25.30700
C  2.15000 12.43200 25.94500
C  2.30600 12.04600 27.31100
C  2.01800 10.69900 27.42700
C  2.20300 13.81600 25.35200
C  2.59200 12.61700 28.61100
O  2.90100 13.71300 28.97600
C  2.35100 11.30300 29.57600
C  3.47700 11.00800 30.44000
O  4.53400 10.53800 30.11900
O  3.20200 11.62300 31.60400
C  4.22300 11.69400 32.60000
H  1.50500 4.41500 28.57600
H  0.22400 5.72800 22.40400
H  1.53800 11.95100 23.29300
H  2.98000 8.41200 30.97100
H  1.16300 6.08300 30.64400
H  4.08400 6.56200 31.11900
H  3.55800 5.23700 29.96200
H  3.05500 5.24700 31.66500
H  0.09400 7.94100 30.96800
H  0.51100 9.62500 30.73400
H  0.05000 8.32300 32.99400
H  0.80300 9.78900 33.06800
H  -0.31700 2.19300 26.99500
H  1.43200 2.47300 27.65700
H  0.93600 1.53000 26.21300
H  0.39000 1.19800 24.35000
H  -0.79200 1.24100 23.14200
H  -1.29800 1.72100 24.75300
H  -0.15300 8.06700 21.02700
H  1.82000 10.16500 21.31600
H  2.69300 8.34600 20.22200
H  1.61500 7.09300 19.74100
H  2.56500 6.89800 21.23300
H  -0.16400 11.37300 21.98100
H  -1.10500 9.96500 21.39700
H  -0.21000 10.12100 19.14000
H  0.88600 11.40600 19.52300
H  -0.87700 11.67000 19.52400
H  1.16600 14.14800 25.31000
H  2.57800 13.74200 24.33100
H  2.88600 14.46200 25.90300
H  1.52000 11.48900 30.25500
H  4.86000 12.57700 32.52700
H  4.92400 10.85900 32.57800
H  3.69800 11.77400 33.55200
Mg -0.08400 43.27700 25.07300
C  2.34900 42.30000 27.60100
C  -2.51400 42.39300 27.36600
C  -2.26200 43.76700 22.77900
C  2.63500 43.73700 22.87700
N  -0.09600 42.48200 27.29400
C  1.01700 42.23100 28.07500
C  0.60600 41.95700 29.49200
C  -0.96000 41.66000 29.33400
C  -1.23100 42.23200 27.92400
C  -1.31200 40.16900 29.56200
C  1.08700 43.04700 30.56900
C  0.24700 43.34700 31.76900
H  -0.30200 42.18500 32.67900
N  -2.15900 43.18500 25.04600
C  -2.97500 42.75200 26.04700
C  -4.37300 42.97100 25.57300
C  -4.31300 43.39300 24.21500
C  -2.85800 43.44800 23.93000
C  -5.59000 42.67700 26.42700
C  -5.41300 43.76300 23.25000
O  -5.19700 44.15100 22.08600
C  -6.78300 43.74700 23.75500
N  0.21200 43.70200 23.07700
C  -0.90400 43.94700 22.37200
C  -0.51000 44.40300 21.00000
C  1.07300 44.38200 20.99700
C  1.36000 43.90300 22.38400
C  -1.23100 43.64600 19.78400
C  1.73800 45.78200 20.81700
C  1.66400 46.28400 19.37400
N  2.07300 43.03700 25.10200
C  3.00600 43.35700 24.16800
C  4.35900 43.08700 24.65000
C  4.15400 42.70800 26.01600
C  2.75900 42.79700 26.28700
C  5.63100 43.19800 23.90200
C  4.83500 42.33200 27.29400
O  5.99500 42.13300 27.58300
C  3.66700 42.16100 28.34800
C  3.97800 40.90900 29.02900
O  3.71300 39.80700 28.66400
O  4.51400 41.25400 30.20600
C  4.70500 40.10700 31.09800
H  -3.21100 41.94800 28.07800
H  -2.92700 44.16800 22.01100
H  3.53800 43.92700 22.29300
H  1.13300 41.05700 29.80800
H  -1.59900 42.21600 30.02000
H  -1.71600 39.87200 28.59400
H  -2.01600 40.10000 30.39100
H  -0.46500 39.51600 29.77400
H  1.37100 43.93500 30.00500
H  2.09100 42.77600 30.89600
H  -0.53500 44.02800 31.43200
H  0.84000 43.96100 32.44700
H  -6.10300 43.63500 26.50300
H  -5.24900 42.40500 27.42600
H  -6.28500 41.96900 25.97500
H  -7.06600 44.55800 24.42700
H  -7.00400 42.73300 24.08600
H  -7.49500 43.77900 22.93000
H  -0.82300 45.44600 20.94400
H  1.48000 43.67500 20.27400
H  -1.37600 44.28200 18.91000
H  -2.06600 43.11300 20.23800
H  -0.48500 42.87800 19.57600
H  2.77000 45.76900 21.16700
H  1.34000 46.61100 21.40200
H  0.81200 45.83000 18.86800
H  2.62100 46.05000 18.90700
H  1.43300 47.35000 19.37100
H  5.80800 44.22500 23.58200
H  5.41400 42.57400 23.03500
H  6.54300 42.73700 24.28100
H  3.75600 42.98600 29.05400
H  5.04400 39.23200 30.54300
H  3.84400 39.88400 31.72800
H  5.58500 40.17400 31.73700

