158

Mg 55.17200 23.15800 44.63100
C  52.77700 25.43100 43.81300
C  53.20300 20.57500 43.52500
C  57.86700 21.09800 44.65300
C  57.27000 25.91400 45.65500
N  53.31200 22.97500 43.66200
C  52.46600 24.10300 43.45100
C  51.02600 23.67400 42.97900
C  51.04800 22.13500 43.34700
C  52.57800 21.81000 43.55000
C  50.19500 21.58400 44.50300
C  50.83600 23.87800 41.46600
C  49.50500 24.14100 40.91900
H  49.30800 23.82700 39.39100
N  55.46700 21.09600 44.18400
C  54.58200 20.20100 43.65000
C  55.12000 18.94400 43.53100
C  56.39900 19.03200 44.11000
C  56.65500 20.48500 44.37000
C  54.33000 17.78200 42.92000
C  57.26200 17.80500 44.48300
O  56.91100 16.67800 44.15200
C  58.56400 17.95600 45.24000
N  57.25500 23.44500 45.16700
C  58.13900 22.41200 45.03800
C  59.58600 22.83000 45.41500
C  59.35900 24.35700 45.95100
C  57.89800 24.66200 45.52800
C  60.38000 22.01900 46.43600
C  60.39700 25.30200 45.36000
C  61.35000 25.84200 46.46400
N  54.99300 25.23400 44.86100
C  55.86600 26.25800 45.27100
C  55.16200 27.54000 45.34200
C  53.91200 27.24700 44.80400
C  53.91600 25.87100 44.46300
C  55.80000 28.81900 45.92800
C  52.69200 27.81600 44.30700
O  52.41400 28.99200 44.31400
C  51.85800 26.66400 43.68900
C  51.67000 27.08600 42.33200
O  52.53900 27.00200 41.45200
O  50.35500 27.39600 42.12400
C  49.98600 28.04500 40.85200
H  52.49000 19.79700 43.24600
H  58.74700 20.45200 44.60100
H  57.81300 26.79600 46.00300
H  50.22900 24.09600 43.59200
H  50.78300 21.61800 42.42400
H  49.93400 22.37800 45.20300
H  50.67500 20.82400 45.12100
H  49.27400 21.23600 44.03600
H  51.41800 23.12000 40.94200
H  51.42200 24.79200 41.37700
H  49.26500 25.18700 41.10900
H  48.86300 23.50500 41.52800
H  53.63100 18.20600 42.19800
H  53.78800 17.24800 43.70100
H  55.06500 17.11100 42.47600
H  59.36700 18.28800 44.58300
H  58.98100 17.04500 45.67000
H  58.36400 18.50400 46.16100
H  60.19400 22.93700 44.51600
H  59.43500 24.35500 47.03900
H  61.26600 21.61200 45.94700
H  59.81900 21.17500 46.83800
H  60.55000 22.59800 47.34300
H  59.85600 26.04000 44.76900
H  61.03000 24.79100 44.63500
H  62.31000 25.33200 46.37600
H  61.02300 25.66600 47.48900
H  61.40900 26.93000 46.48900
H  56.39400 29.28100 45.14000
H  56.49800 28.58300 46.73200
H  54.96500 29.46500 46.19700
H  50.97400 26.51300 44.30900
H  50.80500 28.49300 40.28900
H  49.18600 28.77500 40.97800
H  49.62400 27.15900 40.33100
Mg -10.45800 16.80800 41.44600
C  -7.00200 16.88000 41.56000
C  -10.49300 20.25800 40.85400
C  -13.87300 16.74300 40.86500
C  -10.38000 13.35100 41.57300
N  -8.87400 18.32900 41.00500
C  -7.50700 18.20200 41.15700
C  -6.81500 19.56900 40.94700
C  -7.97000 20.51700 41.35500
C  -9.22300 19.67300 41.02100
C  -8.05800 20.95100 42.85200
C  -6.18200 19.95000 39.58000
C  -4.80900 19.31700 39.25000
H  -4.71500 18.29200 38.15800
N  -11.99500 18.29900 40.84300
C  -11.76900 19.61800 40.79100
C  -13.02100 20.27600 40.51100
C  -14.01200 19.34000 40.72700
C  -13.33900 18.05900 40.80400
C  -13.08700 21.75700 40.14000
C  -15.41600 19.51900 40.72400
O  -15.84200 20.63900 40.70300
C  -16.45500 18.45700 40.91500
N  -11.83600 15.28200 41.09200
C  -13.15700 15.51000 40.91900
C  -13.98800 14.14600 40.96200
C  -12.93400 13.14100 41.37100
C  -11.63400 13.93400 41.25200
C  -15.42000 14.01000 41.58900
C  -13.02800 11.77700 40.57400
C  -13.25900 10.43500 41.27200
N  -9.02400 15.38400 41.68100
C  -9.10500 14.01900 41.60700
C  -7.81700 13.43100 42.05000
C  -6.94200 14.51200 41.91700
C  -7.74100 15.67800 41.69800
C  -7.50800 11.99200 42.16000
C  -5.50200 14.94800 42.02400
O  -4.48200 14.29700 42.36600
C  -5.49800 16.46700 41.78900
C  -4.88500 17.10200 43.00000
O  -3.66400 17.30700 43.19700
O  -5.84800 17.51300 43.88500
C  -5.61000 18.10800 45.20700
H  -10.40900 21.34600 40.88600
H  -14.92500 16.69400 40.57600
H  -10.40300 12.26300 41.67300
H  -6.01800 19.70300 41.67800
H  -7.86800 21.37100 40.68400
H  -8.38300 21.97400 42.66400
H  -7.04800 20.95800 43.26100
H  -8.69500 20.22000 43.35000
H  -6.19400 21.03600 39.48600
H  -6.94200 19.75300 38.82300
H  -4.43200 18.94300 40.20200
H  -4.06900 20.08200 39.01700
H  -12.49500 22.36100 40.82700
H  -14.10700 22.13500 40.07400
H  -12.80100 21.90300 39.09900
H  -17.35900 18.89800 41.33500
H  -16.10400 17.85400 41.75300
H  -16.58700 17.95300 39.95800
H  -14.15900 13.98100 39.89800
H  -13.02000 12.79300 42.40000
H  -15.50800 13.00300 41.99500
H  -16.22100 14.16800 40.86700
H  -15.59200 14.74900 42.37200
H  -12.16300 11.65400 39.92200
H  -13.80900 11.92800 39.82800
H  -14.28400 10.29600 41.61800
H  -12.79800 10.48500 42.25800
H  -12.94800 9.50000 40.80700
H  -6.48700 11.86500 42.52100
H  -7.55800 11.69100 41.11300
H  -8.21600 11.43500 42.77300
H  -4.91200 16.68900 40.89700
H  -4.62600 17.76500 45.52600
H  -6.37500 17.89800 45.95400
H  -5.42100 19.17800 45.12400

