158

Mg -1.96300 33.63600 27.20900
C  -3.43100 31.86900 29.91800
C  -0.50400 35.63100 29.50700
C  -1.02700 35.56100 24.65900
C  -3.86100 31.68800 25.08900
N  -2.20000 33.83800 29.48800
C  -2.57800 32.82800 30.35400
C  -2.12300 33.06700 31.81200
C  -1.12700 34.33000 31.58900
C  -1.28500 34.62600 30.10200
C  -1.32100 35.55700 32.45400
C  -1.46400 31.77600 32.44200
C  -2.11000 31.21900 33.82000
H  -1.19500 31.06800 34.99900
N  -0.94500 35.41100 27.13500
C  -0.37000 35.99200 28.18400
C  0.56000 36.97100 27.62900
C  0.37600 37.04700 26.22500
C  -0.60500 36.03900 25.97500
C  1.47000 37.81400 28.53000
C  1.13200 37.92300 25.15900
O  0.87800 37.82000 23.92300
C  2.15300 38.88800 25.57700
N  -2.43200 33.62500 25.18100
C  -1.91200 34.57700 24.29500
C  -2.27600 34.17300 22.79800
C  -2.89000 32.74700 22.97400
C  -3.04000 32.63500 24.49000
C  -3.17100 35.16900 22.06700
C  -2.12000 31.55400 22.30000
C  -0.97400 31.01800 23.24000
N  -3.30800 32.02700 27.33100
C  -4.06500 31.42300 26.43800
C  -4.88400 30.38500 27.06200
C  -4.62700 30.44600 28.41800
C  -3.68500 31.49400 28.58700
C  -5.84100 29.58500 26.34000
C  -4.97400 29.91500 29.68800
O  -5.65900 28.98400 29.98000
C  -4.21600 30.83200 30.69000
C  -5.18000 31.43300 31.69500
O  -5.97700 32.36900 31.53200
O  -5.04500 30.78500 32.92600
C  -5.96600 31.17700 33.98300
H  0.18800 36.15700 30.16800
H  -0.62300 36.08700 23.79100
H  -4.46700 31.10200 24.39500
H  -2.95000 33.46400 32.40000
H  -0.11300 33.97600 31.77900
H  -1.83500 36.33800 31.89300
H  -0.33100 35.89900 32.75600
H  -1.86600 35.38200 33.38100
H  -0.41300 31.92900 32.69000
H  -1.55100 30.92000 31.77300
H  -2.44000 30.23000 33.50100
H  -3.04100 31.70700 34.10700
H  1.03800 38.81100 28.62100
H  2.44600 37.81000 28.04400
H  1.75100 37.46900 29.52500
H  2.42800 39.52400 24.73600
H  3.14400 38.47900 25.77200
H  1.79600 39.56900 26.35100
H  -1.37700 34.00200 22.20600
H  -3.89800 32.83600 22.57100
H  -3.05600 36.21000 22.37200
H  -4.23200 34.96000 22.20500
H  -2.83200 35.19900 21.03200
H  -1.68400 31.80500 21.33300
H  -2.85700 30.75900 22.19200
H  -1.33200 30.10300 23.71200
H  -0.66900 31.75900 23.97900
H  -0.11700 30.73200 22.63000
H  -5.29700 28.64800 26.21700
H  -6.13600 29.92300 25.34700
H  -6.72000 29.47000 26.97400
H  -3.55200 30.21500 31.29500
H  -6.72600 31.82700 33.55100
H  -5.43400 31.75200 34.74100
H  -6.32400 30.36000 34.61000
Mg -10.14400 17.54500 42.65300
C  -6.72300 16.53400 42.24600
C  -9.22600 20.65300 41.89100
C  -13.36800 18.00700 41.99900
C  -10.86900 13.95100 42.76000
N  -8.13500 18.44500 41.93500
C  -6.89100 17.90700 41.99300
C  -5.79000 19.10800 41.85700
C  -6.66100 20.33400 41.98000
C  -8.09000 19.78600 41.96200
C  -6.52500 21.40500 43.13600
C  -4.97800 19.04500 40.55400
C  -5.72000 18.52700 39.32000
H  -5.38700 19.01500 37.88900
N  -11.15900 19.14200 42.04700
C  -10.62700 20.36100 41.76800
C  -11.64700 21.26500 41.37200
C  -12.87700 20.50600 41.39800
C  -12.51300 19.18500 41.85600
C  -11.34900 22.69000 40.97900
C  -14.14400 21.12400 40.95800
O  -14.16400 22.25500 40.55700
C  -15.52200 20.44000 40.90600
N  -11.88700 16.17500 42.63000
C  -13.10500 16.69900 42.34000
C  -14.18800 15.59600 42.30200
C  -13.27600 14.33000 42.17700
C  -11.90200 14.86100 42.59800
C  -15.13700 15.46200 43.52000
C  -13.13700 13.71100 40.69900
C  -14.36900 12.89800 40.28000
N  -9.06200 15.62200 42.74500
C  -9.50900 14.30500 42.80600
C  -8.33600 13.49400 42.99900
C  -7.23500 14.34200 42.88200
C  -7.72800 15.63600 42.63700
C  -8.29900 12.07000 43.21000
C  -5.72300 14.42600 42.88500
O  -4.93100 13.55000 43.03200
C  -5.40300 15.88400 42.61400
C  -4.82600 16.51200 43.81100
O  -5.37800 16.76600 44.89800
O  -3.52200 16.89600 43.60100
C  -2.81800 17.50400 44.73200
H  -8.86500 21.66400 41.69600
H  -14.43600 18.12100 41.80000
H  -11.15100 12.89800 42.82900
H  -5.18300 19.06800 42.76200
H  -6.51300 20.96700 41.10500
H  -5.60100 21.16300 43.66200
H  -7.36600 21.34600 43.82700
H  -6.46100 22.43000 42.77000
H  -4.07400 18.46300 40.73300
H  -4.77400 20.09200 40.33100
H  -6.79600 18.51800 39.49400
H  -5.38000 17.50900 39.12700
H  -11.35600 22.79800 39.89400
H  -10.35500 23.02300 41.27800
H  -12.05800 23.42600 41.35800
H  -15.95500 20.46600 41.90600
H  -15.28400 19.48000 40.44900
H  -16.12300 20.98300 40.17700
H  -14.79100 15.68900 41.39900
H  -13.59700 13.54700 42.86400
H  -15.00200 14.52700 44.06400
H  -16.19700 15.55700 43.28700
H  -14.88500 16.31600 44.14900
H  -12.18100 13.21100 40.54600
H  -13.25900 14.53100 39.99100
H  -14.87400 13.54100 39.55800
H  -15.03700 12.63100 41.09900
H  -14.03600 11.93300 39.90000
H  -7.32000 11.59500 43.15000
H  -8.93500 11.63600 42.43900
H  -8.62400 11.83900 44.22400
H  -4.71400 15.97300 41.77400
H  -2.51000 18.39700 44.18900
H  -2.08300 16.75100 45.01700
H  -3.41500 17.76800 45.60500

