158

Mg 23.76900 -5.00700 45.78000
C  26.04500 -2.76500 44.24400
C  21.32300 -3.83800 43.69500
C  22.07400 -7.65100 46.73300
C  26.67500 -6.60600 47.43200
N  23.76000 -3.53000 44.04100
C  24.77400 -2.68000 43.70500
C  24.28900 -1.55700 42.81800
C  22.81000 -1.79500 42.68200
C  22.56800 -3.14400 43.51500
C  21.84800 -0.71600 43.18000
C  24.95900 -1.59200 41.39900
C  24.96400 -0.26900 40.66900
H  24.45000 -0.20200 39.17600
N  21.87800 -5.60200 45.36400
C  20.99100 -5.03700 44.51000
C  19.79000 -5.76200 44.51300
C  20.02200 -6.95400 45.34600
C  21.38700 -6.79900 45.84700
C  18.64800 -5.26200 43.67900
C  18.96000 -7.95800 45.57800
O  17.78700 -7.81500 45.24700
C  19.25900 -9.21100 46.38900
N  24.34800 -6.92000 46.91100
C  23.35600 -7.73700 47.30800
C  23.94700 -8.97300 47.91400
C  25.38400 -8.64300 48.18100
C  25.53600 -7.29400 47.49200
C  23.15900 -9.44100 49.16400
C  26.39300 -9.69500 47.71300
C  27.49200 -10.04500 48.72200
N  25.89000 -4.71300 45.91300
C  26.85500 -5.42800 46.62200
C  28.05900 -4.71800 46.38900
C  27.82300 -3.71500 45.50000
C  26.47600 -3.74400 45.24700
C  29.38400 -5.15400 46.95200
C  28.40400 -2.60700 44.68400
O  29.62100 -2.22200 44.61900
C  27.28000 -1.96100 43.88100
C  27.21700 -0.54600 44.21000
O  27.26600 -0.04200 45.32700
O  27.18900 0.22200 42.98900
C  27.32100 1.63500 43.16300
H  20.47700 -3.36600 43.19100
H  21.66900 -8.61700 47.04200
H  27.55500 -7.06700 47.88500
H  24.52300 -0.59100 43.26700
H  22.47400 -2.12100 41.69800
H  21.10300 -1.21300 43.80200
H  21.36900 -0.36200 42.26700
H  22.27200 0.14200 43.70100
H  24.41400 -2.29300 40.76700
H  25.96300 -2.00700 41.48400
H  26.02800 -0.05100 40.57900
H  24.59000 0.56900 41.25800
H  17.73900 -5.82900 43.87800
H  18.81900 -5.31300 42.60300
H  18.35100 -4.25200 43.96300
H  19.99600 -9.81900 45.86600
H  18.35500 -9.82000 46.38000
H  19.61100 -8.93700 47.38400
H  23.92600 -9.75200 47.15300
H  25.58900 -8.52600 49.24500
H  23.00200 -10.50500 48.98900
H  22.15100 -9.04400 49.28600
H  23.78600 -9.33300 50.05000
H  26.88400 -9.15900 46.90100
H  26.06100 -10.63300 47.26800
H  27.48600 -11.13200 48.81100
H  27.33400 -9.70500 49.74500
H  28.49800 -9.72300 48.45600
H  29.65000 -6.09600 46.47000
H  29.25900 -5.33800 48.01900
H  30.08700 -4.35700 46.70900
H  27.55900 -2.01800 42.82900
H  26.50900 2.28100 42.82800
H  28.17500 2.05700 42.63500
H  27.55700 1.96900 44.17300
Mg 24.93000 1.75500 29.38100
C  26.97800 1.60500 32.21200
C  22.14200 2.09400 31.57500
C  22.97500 1.80800 26.65000
C  27.78700 1.16500 27.37600
N  24.59700 1.67900 31.64200
C  25.63000 1.81400 32.57000
C  25.04500 2.04300 33.98900
C  23.52700 2.25700 33.72200
C  23.37800 2.01200 32.21500
C  22.60600 1.35000 34.58700
C  25.77700 3.11200 34.89800
C  25.92300 2.71000 36.39700
H  25.82600 3.91100 37.40100
N  22.80500 1.72900 29.17000
C  21.86000 1.89100 30.15200
C  20.54600 1.81900 29.51700
C  20.82200 1.76200 28.07400
C  22.24800 1.71800 27.91100
C  19.27100 1.77600 30.30700
C  19.87500 1.60500 26.91200
O  20.15700 1.70800 25.70700
C  18.42900 1.34900 27.23700
N  25.24500 1.43300 27.35400
C  24.31100 1.79500 26.38000
C  24.96400 1.76700 24.93700
C  26.48900 1.66900 25.31200
C  26.52900 1.41400 26.76700
C  24.51800 0.60500 24.04700
C  27.33000 2.95500 24.82600
C  27.23600 4.19200 25.62500
N  26.95600 1.39000 29.67100
C  28.00500 1.12700 28.78300
C  29.17800 0.86700 29.54300
C  28.79700 1.01400 30.91400
C  27.46000 1.27900 30.92000
C  30.51300 0.62000 29.02600
C  29.39100 0.96400 32.23500
O  30.53300 0.81900 32.62000
C  28.20100 1.42900 33.12100
C  27.96700 0.41000 34.19600
O  27.12900 -0.48300 34.08400
O  28.72600 0.66500 35.30200
C  28.50400 -0.25900 36.42500
H  21.24600 2.15300 32.19700
H  22.43200 1.95900 25.71500
H  28.59200 0.94600 26.67200
H  25.16000 1.12100 34.55900
H  23.32400 3.29900 33.96800
H  22.17900 0.53400 34.00300
H  21.81900 1.93900 35.05800
H  23.21100 0.97000 35.41000
H  25.25000 4.06500 34.87000
H  26.72500 3.30200 34.39400
H  26.95900 2.45200 36.61900
H  25.16200 1.97000 36.64100
H  18.69700 2.67900 30.09600
H  19.26500 1.83200 31.39600
H  18.82900 0.83500 29.98000
H  18.34600 0.49100 27.90500
H  17.84500 1.02500 26.37600
H  17.91300 2.21900 27.64200
H  24.80100 2.76000 24.51700
H  26.92600 0.77700 24.86200
H  25.23300 -0.19500 23.85300
H  24.27600 1.03200 23.07400
H  23.55500 0.21300 24.37600
H  26.99500 3.12100 23.80200
H  28.38900 2.72800 24.70100
H  26.98000 4.01100 26.66900
H  26.49100 4.82700 25.14700
H  28.18800 4.71900 25.54900
H  30.89400 1.41300 28.38200
H  30.48400 -0.26000 28.38400
H  31.15700 0.53300 29.90100
H  28.42200 2.42000 33.51800
H  29.04800 -1.16800 36.17200
H  27.45300 -0.54500 36.46600
H  28.78600 0.19800 37.37400

