158

Mg 45.37800 5.58200 47.15600
C  43.39200 8.45300 46.38200
C  42.82100 3.76700 46.08400
C  47.49100 3.03200 46.89000
C  48.02000 7.91700 47.57600
N  43.40900 6.04300 46.23300
C  42.80700 7.25100 46.05300
C  41.40000 7.12900 45.46300
C  41.09600 5.64700 45.92500
C  42.49900 5.08100 46.12600
C  40.22200 5.61800 47.21400
C  41.46700 7.18100 43.89700
C  40.48400 8.03600 43.11400
H  40.85400 8.73200 41.73100
N  45.18200 3.54500 46.75700
C  43.99900 2.97900 46.39800
C  44.12300 1.57900 46.20400
C  45.51100 1.29300 46.44700
C  46.15500 2.61500 46.70500
C  43.11500 0.61700 45.71900
C  46.19000 -0.01600 46.34300
O  45.54100 -1.02100 46.01700
C  47.65100 -0.25700 46.52600
N  47.34900 5.58000 47.16200
C  48.01400 4.35000 47.17800
C  49.48000 4.47700 47.55000
C  49.64600 6.04800 47.68800
C  48.25900 6.55600 47.48100
C  49.89400 3.62100 48.81200
C  50.62300 6.66800 46.58100
C  51.98600 7.12100 47.07400
N  45.70600 7.81200 47.07800
C  46.80200 8.57600 47.32600
C  46.40800 9.95700 47.32200
C  45.09300 9.92200 46.98500
C  44.72100 8.59800 46.84900
C  47.28400 11.17100 47.41500
C  43.89200 10.76200 46.78900
O  43.79200 11.93100 46.95000
C  42.73400 9.81400 46.28200
C  41.64300 9.89600 47.28400
O  41.69500 9.49900 48.44300
O  40.66900 10.68100 46.79300
C  39.66900 11.03900 47.83000
H  41.93200 3.17800 45.84800
H  48.23700 2.24000 46.79300
H  48.89700 8.52000 47.81900
H  40.67600 7.85500 45.83300
H  40.44200 5.14100 45.21500
H  39.78600 6.58900 47.45000
H  40.72300 5.41100 48.15900
H  39.41200 4.89500 47.11400
H  41.38100 6.17900 43.47600
H  42.43900 7.60500 43.64400
H  40.35400 8.84400 43.83400
H  39.44100 7.72800 43.05100
H  42.13400 1.05600 45.90300
H  43.32500 -0.28700 46.29000
H  43.26200 0.51800 44.64400
H  47.84800 -0.04000 47.57600
H  48.27300 0.22500 45.77200
H  47.77600 -1.33100 46.38800
H  50.09500 4.11600 46.72500
H  49.89000 6.29600 48.72000
H  48.91700 3.28700 49.16100
H  50.59800 3.97700 49.56400
H  50.32000 2.73500 48.34100
H  50.12800 7.57700 46.23800
H  50.77800 6.03100 45.71100
H  52.13000 6.51000 47.96500
H  51.99800 8.20700 47.16800
H  52.77400 6.97400 46.33500
H  46.68200 12.07900 47.41600
H  47.97100 11.11300 46.57100
H  47.83800 11.09600 48.35100
H  42.41000 10.17300 45.30500
H  39.04500 11.68200 47.20900
H  40.13600 11.52300 48.68800
H  39.09100 10.16800 48.13800
Mg 26.68300 50.32900 26.65500
C  24.66600 51.27300 29.25300
C  28.92800 49.04600 28.85400
C  28.86000 49.96500 24.19400
C  24.39800 51.83700 24.47600
N  26.68300 50.11500 28.75500
C  25.74400 50.52300 29.68500
C  26.22700 50.38800 31.15700
C  27.63000 49.81700 30.88500
C  27.74200 49.62000 29.44000
C  28.84000 50.55400 31.37600
C  25.26200 49.61800 32.02800
C  24.92800 50.29700 33.43200
H  25.96400 50.94700 34.32600
N  28.60100 49.39900 26.51100
C  29.35500 48.99500 27.56300
C  30.71600 48.74200 27.12100
C  30.67600 49.10100 25.74600
C  29.36100 49.56500 25.41600
C  31.89800 48.39200 28.04200
C  31.85800 49.18100 24.74900
O  31.70600 49.67800 23.64200
C  33.30500 48.89900 25.26600
N  26.71400 51.00900 24.57600
C  27.68300 50.53700 23.72600
C  27.30500 50.94800 22.28400
C  25.80000 51.39000 22.40300
C  25.57000 51.37100 23.95300
C  28.28000 51.90900 21.67200
C  24.78800 50.44800 21.66400
C  23.94600 51.06600 20.47000
N  24.92600 51.35800 26.76700
C  24.07400 51.92000 25.82600
C  23.03700 52.65000 26.40500
C  23.23900 52.46000 27.77900
C  24.39300 51.65000 27.94900
C  22.04800 53.56600 25.82200
C  22.80300 52.82100 29.03500
O  21.98500 53.70000 29.30400
C  23.75300 52.09600 30.11600
C  24.62200 53.21500 30.80700
O  25.52800 53.80800 30.25400
O  24.33600 53.37300 32.14500
C  25.14400 54.42400 32.81800
H  29.68500 48.68200 29.55300
H  29.51600 49.81900 23.33400
H  23.71100 52.31100 23.77200
H  26.35400 51.36900 31.61400
H  27.72500 48.95700 31.54800
H  29.62900 49.84200 31.62100
H  28.70600 51.07500 32.32400
H  29.25400 51.26900 30.66400
H  25.79400 48.71500 32.32700
H  24.37100 49.39200 31.44300
H  24.52500 49.43700 33.96600
H  24.10400 50.97900 33.22200
H  32.17900 47.33900 28.02300
H  31.54500 48.40700 29.07300
H  32.86700 48.88000 27.93600
H  33.95300 49.19800 24.44200
H  33.41100 47.89200 25.67200
H  33.51200 49.65300 26.02500
H  27.22000 50.00300 21.74800
H  25.74200 52.43800 22.11100
H  29.06500 51.76000 22.41300
H  27.94900 52.91400 21.40700
H  28.52700 51.45300 20.71400
H  24.06800 50.06500 22.38600
H  25.27000 49.65600 21.09000
H  23.79900 52.09700 20.79200
H  23.03500 50.48400 20.33200
H  24.52100 50.92100 19.55600
H  22.34400 54.57700 26.10100
H  21.09600 53.37500 26.31800
H  21.97800 53.37600 24.75100
H  23.15900 51.50300 30.81100
H  26.22800 54.36400 32.71700
H  24.73400 54.29500 33.82000
H  24.83200 55.38900 32.42000

