158

Mg 34.83300 2.14100 29.30400
C  32.62900 3.13100 31.82100
C  37.35900 2.14800 31.56600
C  36.92100 1.77300 26.80900
C  32.18000 2.67100 26.93900
N  34.98200 2.81200 31.40800
C  33.94500 3.05700 32.26400
C  34.45100 3.26100 33.72700
C  36.01600 3.07700 33.59700
C  36.16500 2.60800 32.09100
C  36.84800 4.34300 33.93700
C  33.76300 2.29900 34.76200
C  33.78100 2.68500 36.26800
H  34.49100 3.98600 36.74700
N  36.82500 1.84400 29.21300
C  37.71800 1.84800 30.23100
C  39.06400 1.45900 29.81200
C  38.95200 1.21200 28.42100
C  37.55600 1.59800 28.07100
C  40.17600 1.25400 30.78700
C  39.91000 0.60300 27.47300
O  39.70600 0.55600 26.24900
C  41.17900 0.00000 27.90700
N  34.62200 2.26800 27.20900
C  35.66900 1.93800 26.39100
C  35.22900 1.79000 24.88600
C  33.71400 1.76200 24.96600
C  33.45700 2.27200 26.49500
C  35.92500 2.77600 23.89400
C  32.96300 0.43600 24.82700
C  31.51000 0.60100 24.29400
N  32.76900 2.72200 29.27900
C  31.80200 2.90800 28.28300
C  30.55900 3.21400 28.88100
C  30.82900 3.22000 30.26300
C  32.18400 2.99000 30.43700
C  29.28100 3.55500 28.21400
C  30.15700 3.48400 31.60400
O  28.96800 3.69100 31.86600
C  31.34600 3.40300 32.70700
C  31.46600 4.75600 33.26300
O  32.03000 5.73600 32.75900
O  30.78000 4.85200 34.50400
C  30.94300 6.02800 35.25900
H  38.14900 1.98200 32.30100
H  37.51700 1.57000 25.91700
H  31.35700 2.58800 26.22600
H  34.21400 4.29400 33.98200
H  36.36000 2.27900 34.25400
H  37.80300 4.21600 34.44700
H  36.20800 5.13400 34.32800
H  37.17400 4.77300 32.99100
H  34.29300 1.34700 34.71900
H  32.72300 2.08600 34.51400
H  34.06100 1.83800 36.89400
H  32.74400 2.75700 36.59600
H  41.12200 1.44900 30.28200
H  40.09100 0.30800 31.32100
H  40.09000 1.94300 31.62700
H  41.93700 0.76000 28.09500
H  41.44900 -0.69300 27.11100
H  40.97500 -0.38800 28.90500
H  35.50800 0.78500 24.57100
H  33.36100 2.58100 24.33900
H  36.54700 2.15500 23.24900
H  36.55800 3.42300 24.50000
H  35.20000 3.24000 23.22500
H  32.89700 0.00100 25.82400
H  33.64100 -0.13400 24.19100
H  31.22400 -0.10700 23.51600
H  31.42200 1.60100 23.86900
H  30.88300 0.50600 25.18100
H  29.24100 2.84200 27.39100
H  29.25300 4.51800 27.70500
H  28.37600 3.41800 28.80500
H  31.03500 2.62900 33.40900
H  31.90300 6.52100 35.10400
H  30.71400 5.78800 36.29700
H  30.16800 6.66400 34.83100
Mg 1.18800 42.08800 25.72700
C  1.97500 42.36900 28.96600
C  -1.75700 40.74100 26.68600
C  0.52000 41.17300 22.46900
C  4.38800 43.05500 24.78200
N  0.16900 41.81300 27.60500
C  0.71000 42.07900 28.81900
C  -0.33700 41.95900 29.96100
C  -1.49100 41.22100 29.16300
C  -0.98200 41.14500 27.72800
C  -1.91100 39.88100 29.82000
C  -0.79300 43.33000 30.46800
C  -0.82700 43.33500 31.98300
H  -1.68800 42.30400 32.71700
N  -0.55800 41.25800 24.65500
C  -1.57800 40.69500 25.27100
C  -2.45200 40.09900 24.22200
C  -1.91200 40.29700 22.98400
C  -0.59600 40.96900 23.33800
C  -3.79300 39.45700 24.49900
C  -2.42000 39.99600 21.60800
O  -1.81600 40.30100 20.62100
C  -3.70200 39.26900 21.48200
N  2.28900 42.06100 23.94600
C  1.75800 41.72600 22.72300
C  2.67100 42.19800 21.57600
C  3.76800 43.03000 22.28000
C  3.49800 42.73300 23.76300
C  3.30600 40.99200 20.73300
C  3.73100 44.51900 21.89000
C  4.87800 45.06400 21.11100
N  2.91900 42.47500 26.66800
C  4.11300 42.91300 26.20900
C  4.94100 43.32200 27.29700
C  4.20400 43.07600 28.48500
C  2.96900 42.57400 27.96300
C  6.39700 43.65900 27.19300
C  4.17600 42.99000 29.88300
O  5.09600 43.24300 30.66100
C  2.78400 42.51900 30.34200
C  2.84500 41.25500 31.07600
O  3.47600 40.19700 30.73800
O  2.03000 41.34100 32.11500
C  2.04000 40.35200 33.16300
H  -2.65700 40.28200 27.10100
H  0.33500 40.95400 21.41500
H  5.33700 43.45200 24.41500
H  0.04200 41.28500 30.72900
H  -2.41400 41.77600 28.99600
H  -1.34400 39.05800 29.38600
H  -2.98500 39.69400 29.79700
H  -1.63400 39.96600 30.87100
H  -1.83200 43.41200 30.14900
H  -0.25600 44.17300 30.03500
H  -1.20100 44.33800 32.19300
H  0.21700 43.22300 32.27500
H  -3.89500 39.41400 25.58400
H  -3.67400 38.44200 24.12200
H  -4.64400 40.06900 24.19700
H  -3.71600 38.41100 22.15400
H  -3.81400 39.02300 20.42600
H  -4.39200 40.08100 21.71100
H  2.16800 42.86100 20.87200
H  4.65900 42.50900 21.93000
H  3.09000 40.04400 21.22600
H  4.36800 40.95300 20.49000
H  3.01300 41.08100 19.68700
H  3.61100 45.03700 22.84100
H  2.89000 44.75500 21.23800
H  5.64400 44.29700 20.99600
H  5.32600 45.95500 21.55100
H  4.50000 45.33100 20.12400
H  7.12800 42.85500 27.28100
H  6.55900 44.32500 28.04100
H  6.52600 44.11000 26.20900
H  2.36400 43.29700 30.97900
H  2.64400 39.48300 32.90200
H  1.04300 39.93800 33.31400
H  2.40000 40.78900 34.09400

