158

Mg 26.13000 1.56900 29.39900
C  28.21200 1.22400 32.15400
C  23.54500 2.05800 31.39100
C  24.12500 1.58500 26.61000
C  28.81300 0.58100 27.25500
N  25.92600 1.56100 31.53600
C  26.90500 1.51000 32.49500
C  26.41700 1.80800 33.90200
C  24.89300 1.86400 33.58700
C  24.73300 1.86500 32.05800
C  23.80700 0.84000 34.15100
C  27.00800 3.13100 34.57300
C  27.66200 2.90400 35.87300
H  27.28600 3.81500 37.03300
N  24.12100 1.85000 29.03700
C  23.25500 1.99900 29.96900
C  21.99500 2.32200 29.38000
C  22.14200 2.05200 28.00100
C  23.48500 1.79400 27.82200
C  20.76100 2.60500 30.15200
C  21.06100 2.03700 26.96400
O  21.25500 1.74500 25.80200
C  19.65700 2.20500 27.39600
N  26.45300 1.03600 27.26900
C  25.47500 1.20800 26.30200
C  26.01400 1.22500 24.82900
C  27.47000 0.77700 25.06700
C  27.64400 0.94500 26.56100
C  25.25800 0.25300 23.86800
C  28.56600 1.53700 24.28100
C  28.52200 1.53800 22.71700
N  28.16600 1.01100 29.55300
C  29.13300 0.65200 28.68300
C  30.37800 0.43700 29.41800
C  29.99000 0.57900 30.73500
C  28.64700 1.00200 30.80600
C  31.79600 0.05900 28.95300
C  30.63000 0.59800 32.01500
O  31.81300 0.31800 32.37900
C  29.43700 0.92900 33.01500
C  29.23100 -0.30700 33.84600
O  29.30600 -1.49300 33.51200
O  29.10000 0.07600 35.12000
C  29.02500 -0.85700 36.22000
H  22.73300 2.21000 32.10500
H  23.51000 1.69500 25.71500
H  29.69000 0.29300 26.67100
H  26.63300 0.91700 34.49200
H  24.50900 2.83100 33.91400
H  23.46900 0.19400 33.34100
H  22.97800 1.34800 34.64300
H  24.29400 0.24900 34.92600
H  26.20600 3.80900 34.86400
H  27.67300 3.65400 33.88500
H  28.73500 2.98900 35.69800
H  27.58500 1.88500 36.25100
H  20.85100 2.72500 31.23200
H  20.19100 1.67600 30.12600
H  20.23800 3.48800 29.78500
H  19.08800 1.94300 26.50400
H  19.56000 3.28200 27.53300
H  19.40200 1.54800 28.22800
H  26.13000 2.25300 24.48500
H  27.52100 -0.30500 24.95000
H  24.89500 -0.56300 24.49300
H  25.87800 -0.18900 23.08800
H  24.45700 0.73000 23.30300
H  29.54600 1.20800 24.62800
H  28.43200 2.59100 24.52400
H  29.42300 1.90700 22.22600
H  27.73900 2.22900 22.40600
H  28.21800 0.54700 22.37900
H  31.89200 0.14500 27.87100
H  32.09900 -0.92600 29.30900
H  32.54500 0.73300 29.37000
H  29.69800 1.81400 33.59600
H  29.37300 -1.86000 35.97100
H  27.95500 -0.86400 36.42800
H  29.69700 -0.50800 37.00400
Mg 6.34700 55.08100 41.39400
C  5.19200 51.77600 41.53600
C  9.34400 53.93600 39.96000
C  7.18200 58.23200 40.52800
C  3.16500 56.15500 42.28100
N  7.14000 53.08400 40.73900
C  6.44800 51.90900 40.90800
C  7.19500 50.75100 40.26600
C  8.66500 51.40800 40.33500
C  8.42900 52.91600 40.28700
C  9.58200 51.02000 41.55300
C  6.74700 50.35600 38.82500
C  5.68000 51.28000 38.10600
H  6.25600 52.39300 37.29600
N  8.01400 55.95600 40.36600
C  9.10100 55.29000 39.89100
C  10.09900 56.22300 39.38600
C  9.42000 57.50600 39.32900
C  8.16300 57.29000 40.10400
C  11.49100 55.82300 38.98300
C  9.96900 58.83300 38.71900
O  11.06700 58.92500 38.19200
C  9.15900 60.15700 38.72000
N  5.27100 56.99900 41.41500
C  5.91900 58.15200 41.17500
C  5.01500 59.30900 41.56000
C  3.74800 58.62900 42.06200
C  4.09800 57.13100 42.00300
C  5.76300 60.33800 42.44100
C  2.51900 59.21100 41.34900
C  2.12700 58.57600 40.05400
N  4.55400 54.16200 41.95600
C  3.38200 54.75400 42.33000
C  2.44800 53.69700 42.66200
C  3.18100 52.51500 42.50000
C  4.40000 52.89800 41.94000
C  1.06100 53.95900 43.19800
C  3.09100 51.07800 42.57100
O  2.16600 50.36800 43.03100
C  4.44400 50.54500 42.05100
C  4.18300 49.56800 41.00700
O  3.70000 49.79300 39.90900
O  4.58200 48.33000 41.45200
C  4.30000 47.28100 40.46700
H  10.35700 53.65300 39.66600
H  7.52500 59.23500 40.26400
H  2.24800 56.58300 42.69300
H  7.19700 49.84300 40.87000
H  9.17800 51.13600 39.41300
H  9.68300 51.81200 42.29600
H  10.57200 50.78600 41.16000
H  9.10700 50.25100 42.16300
H  6.35200 49.34000 38.85700
H  7.63500 50.53100 38.21800
H  5.03100 51.72500 38.86100
H  4.98500 50.61300 37.59500
H  11.72500 55.73000 37.92200
H  11.81100 54.91300 39.49200
H  12.19900 56.60500 39.25800
H  8.22100 60.18500 38.16500
H  9.92400 60.84300 38.35500
H  9.06600 60.53800 39.73700
H  4.95900 59.78500 40.58200
H  3.50300 58.80600 43.11000
H  5.08600 60.71700 43.20800
H  5.99000 61.16400 41.76800
H  6.67000 59.96200 42.91300
H  2.67100 60.28900 41.30100
H  1.68000 59.06400 42.02800
H  3.00600 58.28000 39.48300
H  1.56100 59.14300 39.31400
H  1.57700 57.69600 40.38600
H  0.52000 54.66300 42.56600
H  1.07300 54.29800 44.23400
H  0.55000 53.00200 43.08700
H  4.90100 50.04400 42.90500
H  3.22300 47.28400 40.29400
H  4.61800 46.34900 40.93400
H  4.91900 47.44100 39.58500

