158

Mg 48.82400 45.73700 43.34900
C  45.42100 45.94000 42.09500
C  48.99200 42.64400 41.70400
C  52.12400 45.86700 43.61500
C  48.55300 49.07900 44.12900
N  47.34000 44.43600 41.99400
C  46.07700 44.72600 41.64800
C  45.52800 43.67300 40.72100
C  46.50600 42.44100 41.00800
C  47.68600 43.16400 41.64200
C  45.90900 41.25800 41.85200
C  45.50300 44.02600 39.25600
C  44.20400 43.80400 38.49400
H  44.24400 42.72000 37.43600
N  50.29600 44.36500 42.95100
C  50.13400 43.15300 42.31800
C  51.45900 42.51800 42.25800
C  52.40100 43.37600 42.98000
C  51.61000 44.56500 43.30700
C  51.71100 41.09800 41.72100
C  53.79900 43.05500 43.39200
O  54.25000 41.91400 43.15300
C  54.65400 43.98900 44.20100
N  50.09500 47.18900 43.95800
C  51.45100 47.06700 43.94000
C  52.17600 48.41800 44.15400
C  51.00900 49.37900 44.30800
C  49.82700 48.49600 44.05900
C  53.21400 48.46900 45.33000
C  51.06400 50.65600 43.35000
C  50.56200 51.92000 44.09200
N  47.26600 47.24400 43.34000
C  47.31400 48.52700 43.72800
C  46.04800 49.08700 43.68100
C  45.25500 48.11200 42.95300
C  46.03600 46.97700 42.84500
C  45.69200 50.50800 43.97400
C  43.95400 47.87900 42.36200
O  43.02900 48.65100 42.03100
C  44.00800 46.47800 41.76600
C  42.96400 45.60800 42.30600
O  42.27200 44.92100 41.58900
O  42.73900 45.72500 43.68500
C  41.66100 44.77600 44.07700
H  49.12700 41.60900 41.38400
H  53.21000 45.97500 43.64000
H  48.49000 50.13000 44.41600
H  44.52700 43.42300 41.07400
H  46.82600 42.05700 40.04000
H  45.83200 40.31000 41.32100
H  44.90500 41.51600 42.19200
H  46.57100 41.09000 42.70200
H  46.30700 43.58100 38.66800
H  45.63500 45.10800 39.25700
H  43.77900 44.79600 38.34600
H  43.52100 43.33700 39.20400
H  52.63600 41.02200 41.14900
H  50.89200 40.66800 41.14500
H  51.78500 40.36300 42.52300
H  55.04500 44.80200 43.58900
H  55.46700 43.39000 44.61100
H  54.23500 44.34600 45.14100
H  52.71200 48.60000 43.22200
H  50.75300 49.63700 45.33600
H  54.04300 49.08900 44.98900
H  53.64300 47.59200 45.81600
H  52.68200 48.94400 46.15400
H  50.35000 50.52800 42.53700
H  52.00500 50.94400 42.87900
H  51.36900 52.57200 44.42400
H  50.10200 51.75700 45.06700
H  49.88500 52.49600 43.46300
H  46.39400 51.08100 44.58000
H  44.81600 50.50500 44.62200
H  45.53300 50.97500 43.00200
H  43.91700 46.42300 40.68100
H  40.64600 45.11200 43.86800
H  41.68500 44.61000 45.15400
H  41.89700 43.76400 43.74700
Mg -1.93500 34.78200 26.87900
C  -3.39500 32.77400 29.43500
C  -0.56400 36.61300 29.24300
C  -0.86000 36.88700 24.50400
C  -3.74000 33.02300 24.58500
N  -1.99700 34.67800 29.16200
C  -2.58500 33.81400 30.02100
C  -2.26300 34.04500 31.47600
C  -1.35900 35.33400 31.37900
C  -1.23800 35.54500 29.83900
C  -1.95300 36.67200 32.07700
C  -1.54000 32.87900 32.23200
C  -2.05700 32.55700 33.61700
H  -0.98900 32.43500 34.72000
N  -0.79400 36.58300 26.83900
C  -0.38100 37.19900 27.96000
C  0.48000 38.31400 27.57500
C  0.45200 38.35400 26.14100
C  -0.45900 37.22200 25.76900
C  1.15100 39.26900 28.61800
C  1.11500 39.20500 25.15100
O  1.05100 39.06400 23.92100
C  2.11100 40.21300 25.74400
N  -2.38100 34.96900 24.90900
C  -1.81200 35.92800 24.10600
C  -2.10800 35.78300 22.62700
C  -2.64200 34.30900 22.66700
C  -2.93200 34.06400 24.12700
C  -3.11700 36.85300 22.06000
C  -1.63400 33.26400 22.18900
C  -1.33400 33.18300 20.69900
N  -3.32700 33.22300 26.97300
C  -3.95400 32.63800 25.89700
C  -4.81200 31.52800 26.39800
C  -4.61700 31.54600 27.75300
C  -3.71700 32.60800 28.06200
C  -5.74600 30.61400 25.55000
C  -4.86000 30.82600 28.96700
O  -5.60500 29.87300 29.23100
C  -4.20300 31.65000 30.10000
C  -5.28800 32.10600 30.98400
O  -6.37500 32.55300 30.58500
O  -5.00300 31.88500 32.33500
C  -6.20300 31.73500 33.10700
H  -0.09400 37.22400 30.01700
H  -0.66400 37.58800 23.69000
H  -4.13000 32.53500 23.68900
H  -3.19100 34.30900 31.98300
H  -0.36000 35.03200 31.69400
H  -1.08800 37.14300 32.54500
H  -2.59400 36.24100 32.84600
H  -2.44300 37.43100 31.46700
H  -0.46000 32.99200 32.13600
H  -1.79700 31.98100 31.67000
H  -2.67600 31.66000 33.58800
H  -2.78800 33.29000 33.95900
H  2.19600 38.96600 28.68600
H  0.69000 38.99300 29.56700
H  0.99400 40.31800 28.36700
H  2.62400 40.60000 24.86400
H  2.86200 39.72700 26.36700
H  1.63800 41.11200 26.14000
H  -1.28500 36.00300 21.94600
H  -3.65200 34.10400 22.31100
H  -2.97300 37.83800 22.50400
H  -4.15600 36.52300 22.04800
H  -2.87200 36.95300 21.00300
H  -2.08600 32.31400 22.47500
H  -0.71200 33.40500 22.75300
H  -1.45500 32.15600 20.35300
H  -0.26200 33.30900 20.55500
H  -1.91400 33.82300 20.03500
H  -6.66100 31.19500 25.43700
H  -5.91800 29.61600 25.95300
H  -5.37500 30.46200 24.53700
H  -3.54000 30.97000 30.63500
H  -5.95200 32.20200 34.05900
H  -6.34100 30.67300 33.31100
H  -7.07500 32.30700 32.78900

