158

Mg 46.87600 25.79200 28.55300
C  47.80500 27.82200 31.27000
C  45.62200 23.52300 30.83800
C  46.24500 23.76800 25.95700
C  48.52900 28.00500 26.35700
N  46.75300 25.70600 30.79200
C  47.13300 26.69300 31.71800
C  46.80900 26.18500 33.17300
C  46.13400 24.84100 32.95000
C  46.16800 24.66900 31.41900
C  46.80800 23.65600 33.74500
C  45.97900 27.32100 33.98500
C  46.59200 27.98900 35.13500
H  45.69400 28.52900 36.26100
N  46.08600 23.87200 28.45500
C  45.54600 23.15700 29.45500
C  44.93500 21.92100 28.93500
C  45.11300 21.94600 27.55700
C  45.85700 23.23900 27.21000
C  44.08200 20.93300 29.67900
C  44.52000 21.05900 26.50400
O  44.73400 21.18300 25.33800
C  43.75600 19.86000 26.86400
N  47.39200 25.84800 26.47600
C  46.94700 24.86900 25.64200
C  47.24300 25.20300 24.12900
C  47.74300 26.71800 24.24900
C  48.00000 26.83700 25.76100
C  48.25100 24.24100 23.43500
C  46.62800 27.75000 23.79000
C  47.04600 28.66500 22.60800
N  47.88100 27.56900 28.70800
C  48.53900 28.30500 27.74700
C  49.15600 29.38600 28.35600
C  48.85800 29.29000 29.70300
C  48.14300 28.09200 29.87900
C  50.10200 30.34400 27.69000
C  49.04400 29.91500 30.94800
O  49.51000 31.03400 31.22100
C  48.47900 28.92500 32.12000
C  49.59800 28.44300 32.98900
O  50.52500 27.74500 32.61500
O  49.59400 29.02000 34.23100
C  50.55200 28.54600 35.23700
H  45.20800 22.83900 31.58200
H  46.03500 23.18500 25.05800
H  48.95300 28.75300 25.68400
H  47.78500 25.98900 33.61600
H  45.08800 24.83800 33.25700
H  47.45400 23.94600 34.57300
H  47.29700 22.91200 33.11600
H  46.02000 23.02200 34.15200
H  45.07800 26.83400 34.36000
H  45.73900 28.19200 33.37500
H  47.05100 28.91400 34.78500
H  47.47600 27.49500 35.53800
H  43.07700 21.09600 29.29000
H  44.06200 21.32900 30.69500
H  44.45300 19.91100 29.60400
H  44.39100 19.37800 27.60700
H  43.51500 19.22000 26.01500
H  42.84000 20.22100 27.33300
H  46.25400 25.09900 23.68300
H  48.65600 26.99600 23.72300
H  48.24600 23.31200 24.00500
H  49.22400 24.65600 23.17300
H  47.85900 23.91000 22.47400
H  46.39400 28.44900 24.59300
H  45.66400 27.24900 23.70100
H  46.46800 28.57200 21.68800
H  48.08400 28.52200 22.30800
H  46.92200 29.71400 22.87900
H  50.79800 29.89800 26.98000
H  50.63100 30.83300 28.50800
H  49.51400 31.13500 27.22500
H  47.87000 29.57300 32.75000
H  51.18600 27.71300 34.93300
H  49.97800 28.24700 36.11500
H  51.26000 29.31900 35.53600
Mg 27.02000 49.78200 26.70100
C  24.75500 51.00800 29.28200
C  29.27600 49.28700 29.16600
C  29.08000 49.16900 24.28300
C  24.65900 51.30300 24.39900
N  26.90000 50.07000 28.99100
C  25.89200 50.42200 29.88200
C  26.34000 50.29400 31.31600
C  27.93100 50.09700 31.14100
C  28.05700 49.75400 29.63900
C  28.74600 51.41000 31.60000
C  25.61000 49.06600 32.01400
C  24.88600 49.37200 33.29800
H  25.76200 49.92200 34.47400
N  28.88300 49.25600 26.75100
C  29.67600 49.00700 27.86500
C  30.99300 48.52400 27.41600
C  30.96400 48.55600 25.96200
C  29.58400 49.02000 25.60100
C  32.08300 48.17200 28.35800
C  32.05800 48.17400 24.95300
O  31.89500 48.02400 23.75300
C  33.50500 47.88200 25.39200
N  26.90200 50.19500 24.69500
C  27.88500 49.70600 23.87400
C  27.50100 49.75000 22.35100
C  25.96600 50.20000 22.53500
C  25.82700 50.63300 23.92100
C  28.36200 50.68700 21.48300
C  24.92200 49.14700 21.97000
C  24.57700 47.97800 22.83900
N  25.07900 50.89400 26.77100
C  24.26300 51.43600 25.75800
C  23.15600 52.16000 26.35100
C  23.24200 51.93300 27.73000
C  24.44000 51.21700 27.93300
C  22.15300 52.93200 25.56400
C  22.57300 52.18800 28.95400
O  21.49700 52.64500 29.17000
C  23.58700 51.68500 30.08400
C  23.93600 52.71900 31.07800
O  24.53800 53.75900 30.98100
O  23.46300 52.22600 32.27900
C  23.56000 53.16200 33.39400
H  29.96400 49.07800 29.98800
H  29.86000 49.11400 23.52100
H  24.03700 51.70400 23.59600
H  26.13800 51.17000 31.93300
H  28.32600 49.26900 31.73000
H  29.64300 51.15500 32.16600
H  28.15500 52.06300 32.24200
H  29.05900 51.98600 30.73000
H  26.33900 48.28100 32.21200
H  24.75600 48.74400 31.41900
H  24.23900 48.57000 33.65400
H  24.30200 50.27600 33.12600
H  33.06600 48.58100 28.12200
H  32.21300 47.09000 28.32600
H  31.93300 48.50800 29.38300
H  34.13900 47.46200 24.61200
H  33.55000 47.22600 26.26200
H  33.93300 48.84300 25.67900
H  27.59700 48.72400 21.99800
H  25.88400 51.07300 21.88800
H  27.65700 51.20500 20.83300
H  29.00700 50.18000 20.76500
H  28.96400 51.35700 22.09700
H  25.28000 48.67800 21.05400
H  24.03800 49.70200 21.65800
H  24.52400 48.29000 23.88200
H  25.33900 47.20600 22.73300
H  23.58100 47.60500 22.60100
H  22.45600 53.08200 24.52700
H  21.93700 53.90500 26.00500
H  21.31200 52.25400 25.70800
H  23.05600 50.87700 30.58700
H  24.32700 52.84500 34.10100
H  22.67100 53.19200 34.02400
H  23.74300 54.20500 33.13500

