158

Mg 46.81700 35.71000 28.82100
C  44.98300 33.41100 30.99300
C  47.19200 37.74900 31.33900
C  48.06400 37.81900 26.62200
C  46.07400 33.44000 26.23700
N  46.29900 35.50900 30.93000
C  45.74500 34.46200 31.64000
C  45.69700 34.79300 33.11400
C  46.11500 36.30000 33.12900
C  46.60600 36.52300 31.71300
C  44.93600 37.30000 33.54100
C  46.81800 33.98000 33.84200
C  46.93700 33.94500 35.36100
H  46.07200 34.86600 36.24600
N  47.63700 37.48300 28.99300
C  47.74500 38.19800 30.16900
C  48.38100 39.49700 29.89800
C  48.68500 39.55500 28.52400
C  48.16100 38.26300 27.98000
C  48.70500 40.55900 30.86000
C  49.41300 40.50600 27.66900
O  49.72400 40.38900 26.50800
C  49.97300 41.81400 28.16500
N  47.01600 35.66900 26.67200
C  47.50600 36.65700 26.03700
C  47.33900 36.46200 24.56600
C  47.08000 34.94900 24.44800
C  46.63300 34.62600 25.89300
C  46.26200 37.41200 23.97500
C  48.38300 34.14800 24.12000
C  48.35700 33.34700 22.80500
N  45.74500 33.84500 28.58900
C  45.58000 33.01100 27.48100
C  44.74300 31.84600 27.81400
C  44.49300 31.96600 29.20500
C  45.16900 33.12300 29.63700
C  44.23800 30.70100 26.93100
C  43.77400 31.44200 30.41000
O  43.11600 30.41100 30.45000
C  43.94800 32.43400 31.58000
C  44.25200 31.85500 32.91100
O  45.20400 31.03400 33.08800
O  43.41600 32.31300 33.94100
C  43.70600 31.81200 35.27100
H  47.40800 38.37500 32.20800
H  48.61600 38.47100 25.94200
H  45.96000 32.67500 25.46600
H  44.75900 34.71100 33.66400
H  46.96700 36.43100 33.79600
H  44.16900 36.75700 34.09300
H  44.53500 37.97200 32.78300
H  45.34700 37.94200 34.32000
H  47.80400 34.24500 33.46100
H  46.70800 32.94600 33.51500
H  47.97300 34.27100 35.46400
H  47.01900 32.92200 35.72700
H  49.75600 40.83300 30.96000
H  48.58300 40.27500 31.90500
H  48.06300 41.42100 30.67600
H  49.23700 42.35400 28.76200
H  50.04300 42.47200 27.29900
H  50.81900 41.47700 28.76300
H  48.26300 36.83300 24.12400
H  46.28700 34.57100 23.80200
H  45.54700 37.65100 24.76200
H  45.75000 36.93400 23.14000
H  46.72900 38.38000 23.79300
H  48.49400 33.34100 24.84400
H  49.22300 34.84100 24.05500
H  48.11200 32.30400 23.00900
H  49.35000 33.31400 22.35500
H  47.62300 33.79700 22.13700
H  44.48000 29.64700 27.06500
H  44.55500 30.95600 25.92000
H  43.15700 30.80600 27.02600
H  42.94900 32.87000 31.60100
H  43.14700 32.49700 35.90900
H  44.77200 31.84600 35.49800
H  43.26300 30.84900 35.52400
Mg 0.10900 43.44600 25.34700
C  2.41300 43.00000 27.90000
C  -2.43500 42.58400 27.46700
C  -2.08400 43.71000 22.83000
C  2.80400 43.65500 23.09800
N  0.03400 42.83900 27.48000
C  1.05400 42.86800 28.37000
C  0.47100 42.78200 29.84800
C  -0.96000 42.22400 29.54900
C  -1.16500 42.55200 28.06800
C  -1.21000 40.69100 29.96500
C  0.56100 44.18600 30.52900
C  0.50000 44.13000 32.09900
H  0.39000 42.76900 32.67800
N  -2.03100 43.31600 25.16100
C  -2.85700 42.93100 26.13800
C  -4.19500 42.95500 25.65700
C  -4.14700 43.42300 24.32500
C  -2.73000 43.55100 24.05900
C  -5.41000 42.71300 26.50500
C  -5.20500 43.93200 23.33200
O  -4.84500 44.48400 22.25700
C  -6.72500 43.81500 23.65300
N  0.35200 43.70000 23.26500
C  -0.74300 43.73200 22.43100
C  -0.26600 43.67200 20.94600
C  1.26500 43.98500 21.10400
C  1.51900 43.73800 22.56900
C  -0.57700 42.28800 20.24200
C  1.68300 45.33600 20.54700
C  1.09800 46.56200 21.13800
N  2.26000 43.27400 25.37500
C  3.18100 43.39500 24.41800
C  4.59100 43.37100 25.03700
C  4.27300 43.13100 26.37700
C  2.87300 43.09900 26.56200
C  5.87400 43.54600 24.34200
C  4.91500 42.92300 27.69700
O  6.06900 42.92700 28.04400
C  3.70400 42.81300 28.76000
C  3.79100 41.57000 29.50000
O  3.36800 40.51400 29.05200
O  4.36000 41.74700 30.77000
C  4.29200 40.61300 31.68600
H  -3.29100 42.34700 28.10200
H  -2.72200 43.66300 21.94500
H  3.57700 43.85400 22.35400
H  1.12700 42.06700 30.34400
H  -1.63900 42.79400 30.18400
H  -1.11500 39.87900 29.24500
H  -2.07500 40.71000 30.62700
H  -0.36900 40.45300 30.61600
H  -0.30500 44.74300 30.17300
H  1.50900 44.64200 30.24300
H  -0.31800 44.73900 32.48400
H  1.38500 44.63800 32.48400
H  -6.20900 42.15200 26.02000
H  -5.83900 43.68200 26.76000
H  -5.12300 42.12100 27.37300
H  -7.39000 44.23700 22.90100
H  -6.96200 44.30400 24.59800
H  -7.01500 42.77500 23.80800
H  -0.74600 44.56900 20.55500
H  1.89000 43.22100 20.64100
H  -0.82200 41.53000 20.98600
H  0.28300 41.90800 19.69100
H  -1.48600 42.24000 19.64200
H  1.22600 45.40400 19.56000
H  2.77200 45.39400 20.54200
H  0.75900 47.20000 20.32200
H  1.90100 47.10300 21.63900
H  0.21300 46.36400 21.74300
H  5.90400 44.38200 23.64300
H  6.27900 42.63600 23.89900
H  6.60500 43.89500 25.07100
H  3.82100 43.59100 29.51400
H  5.16200 40.71200 32.33500
H  4.34200 39.66000 31.16000
H  3.45400 40.82600 32.35100

