158

Mg 24.85900 -7.31100 47.99400
C  27.02800 -4.82000 46.86100
C  22.54200 -6.06900 45.67400
C  22.94700 -9.85200 48.75600
C  27.30400 -8.51600 50.24000
N  24.92100 -5.74500 46.18900
C  25.87000 -4.78900 46.11700
C  25.54900 -3.89300 44.83900
C  23.99000 -4.10100 44.71300
C  23.79000 -5.38000 45.57600
C  23.09700 -2.90500 45.04300
C  26.47300 -4.17000 43.60900
C  27.03000 -2.98900 42.83300
H  27.07600 -3.06500 41.31600
N  23.08200 -7.90500 47.22800
C  22.21000 -7.29700 46.38900
C  20.99500 -8.12800 46.25900
C  21.14100 -9.28600 47.08400
C  22.40700 -9.04900 47.71900
C  19.82800 -7.63500 45.26700
C  20.10300 -10.40000 47.22600
O  18.95300 -10.26800 46.78400
C  20.47000 -11.68000 47.93800
N  25.11000 -8.97000 49.31700
C  24.11600 -9.85800 49.46100
C  24.34500 -10.84900 50.61500
C  25.89400 -10.62500 50.79200
C  26.10800 -9.26000 50.14900
C  23.41700 -10.63400 51.84700
C  26.82200 -11.66900 50.07600
C  27.82100 -12.43900 50.98400
N  26.79800 -6.79000 48.44000
C  27.64400 -7.33400 49.46400
C  28.87500 -6.54500 49.40900
C  28.56000 -5.49900 48.45200
C  27.38000 -5.72400 47.87100
C  30.13100 -6.80900 50.20500
C  29.03800 -4.31900 47.83300
O  30.11100 -3.76700 48.09500
C  28.06100 -3.79400 46.80200
C  27.54200 -2.46100 47.18900
O  27.16900 -2.11600 48.32200
O  27.65000 -1.62500 46.12300
C  27.03800 -0.22900 46.21000
H  21.70500 -5.57200 45.18100
H  22.29300 -10.63800 49.14200
H  28.10700 -8.91600 50.86200
H  25.80800 -2.88500 45.16400
H  23.75700 -4.28000 43.66300
H  23.54900 -1.95400 44.76000
H  22.82600 -2.88900 46.09900
H  22.21800 -3.08400 44.42400
H  25.82100 -4.78200 42.98600
H  27.28100 -4.84300 43.89700
H  28.01300 -2.84200 43.28100
H  26.31200 -2.19200 43.02900
H  19.73900 -6.56300 45.09500
H  18.85400 -8.01600 45.57400
H  20.07700 -7.94500 44.25200
H  21.42800 -12.13500 47.68200
H  19.66400 -12.34700 47.63200
H  20.46300 -11.46300 49.00600
H  24.13600 -11.82200 50.16900
H  26.15500 -10.47000 51.83900
H  22.45200 -10.19400 51.59300
H  23.88800 -10.16400 52.71100
H  23.11200 -11.62500 52.18600
H  27.21400 -11.24400 49.15200
H  26.11300 -12.41900 49.72700
H  28.75200 -12.53900 50.42600
H  27.59000 -13.48900 51.16700
H  28.03700 -11.81800 51.85300
H  29.95200 -7.49600 51.03200
H  30.47700 -5.85300 50.59700
H  30.90100 -7.21100 49.54700
H  28.37700 -3.67100 45.76600
H  26.14700 -0.02900 45.61400
H  27.85300 0.43300 45.91800
H  26.72700 -0.00500 47.23100
Mg 25.50700 -0.04700 29.04200
C  27.48900 -0.36200 31.88200
C  22.75300 0.42300 30.88900
C  23.73200 0.09900 26.03400
C  28.36200 -0.84800 27.01600
N  25.18100 -0.17700 31.05800
C  26.14000 -0.01000 32.09300
C  25.53300 0.21300 33.47100
C  23.97800 0.40800 33.14500
C  23.95400 0.13900 31.62000
C  22.98500 -0.48800 33.97700
C  26.23700 1.44500 34.10100
C  26.98600 1.15300 35.44200
H  26.56500 1.97900 36.60700
N  23.59700 0.18300 28.58200
C  22.60000 0.41700 29.48000
C  21.36700 0.69500 28.83200
C  21.60900 0.63900 27.41200
C  22.99200 0.28400 27.29400
C  20.17300 1.04200 29.67100
C  20.57200 0.81700 26.26400
O  20.89400 0.48100 25.12100
C  19.17800 1.21700 26.53200
N  25.97700 -0.50100 26.84100
C  25.08800 -0.20900 25.88500
C  25.75800 -0.13900 24.51500
C  27.26700 -0.43400 24.76200
C  27.21600 -0.59800 26.32600
C  24.99300 -0.97400 23.38000
C  28.22100 0.62200 24.11800
C  28.56300 1.77200 25.01600
N  27.50700 -0.63500 29.33800
C  28.53400 -0.92400 28.42600
C  29.71400 -1.27500 29.23500
C  29.32500 -1.05400 30.56000
C  28.00600 -0.63900 30.57600
C  31.01400 -1.72900 28.67500
C  29.81600 -1.00600 31.90400
O  30.93800 -1.23100 32.27700
C  28.64300 -0.52000 32.79700
C  28.44800 -1.45200 33.91000
O  27.57000 -2.27000 34.01400
O  29.45000 -1.28200 34.85300
C  29.38000 -2.05200 36.14900
H  21.98000 0.73300 31.59600
H  23.22700 0.29800 25.08600
H  29.19700 -1.13800 26.37400
H  25.55000 -0.68800 34.08400
H  23.73200 1.44100 33.38700
H  22.49300 -1.18300 33.29700
H  22.23800 0.21500 34.34700
H  23.36800 -0.94400 34.89000
H  25.39700 2.06800 34.41000
H  26.92400 1.90900 33.39300
H  28.05600 1.35900 35.43100
H  26.75200 0.11900 35.69500
H  20.07600 0.57900 30.65300
H  19.26500 0.64600 29.21700
H  20.06100 2.10600 29.87900
H  18.93300 2.16200 27.01600
H  18.70400 0.38000 27.04300
H  18.70100 1.36900 25.56400
H  25.78100 0.86600 24.09300
H  27.61500 -1.45000 24.57300
H  24.57100 -1.84900 23.87400
H  25.59000 -1.15000 22.48500
H  24.17900 -0.32900 23.04600
H  27.81900 1.00500 23.18000
H  29.16600 0.09400 23.98800
H  27.83300 1.95600 25.80400
H  28.68700 2.68100 24.42800
H  29.52800 1.55900 25.47700
H  30.82600 -2.75100 28.34600
H  31.89400 -1.86000 29.30500
H  31.43200 -1.09000 27.89700
H  29.05700 0.41700 33.17100
H  29.96100 -1.58100 36.94200
H  29.70000 -3.08100 35.98100
H  28.33600 -2.10000 36.45600

