158

Mg 43.67800 5.36900 46.95800
C  41.81500 8.15200 45.90100
C  40.93800 3.34100 46.55000
C  45.73300 2.70800 47.28100
C  46.55800 7.46000 46.74900
N  41.61800 5.66300 46.14000
C  41.06900 6.96500 45.98400
C  39.58000 6.75500 45.65900
C  39.22900 5.32800 46.15300
C  40.65100 4.70900 46.27500
C  38.26400 5.21500 47.38800
C  39.15500 7.00600 44.21200
C  38.26900 8.15200 43.89200
H  38.72400 9.11100 42.66900
N  43.38300 3.22500 46.97700
C  42.12500 2.63000 46.82900
C  42.41900 1.23500 46.81300
C  43.77400 1.01400 47.07200
C  44.38900 2.32100 47.10600
C  41.40700 0.15300 46.64800
C  44.46900 -0.39300 47.09300
O  43.78400 -1.45100 47.00800
C  45.89000 -0.41600 47.22400
N  45.87300 5.11400 46.77100
C  46.43700 3.90400 47.10300
C  47.98100 3.92300 47.17700
C  48.24100 5.47400 47.19600
C  46.85700 6.16100 46.86500
C  48.65400 3.22400 48.38100
C  49.31200 6.00300 46.15600
C  50.07700 7.18900 46.77300
N  44.13200 7.32600 46.55700
C  45.30800 8.04700 46.56200
C  45.04200 9.42100 46.24100
C  43.65900 9.48700 46.04200
C  43.17200 8.20800 46.15900
C  45.96200 10.56500 46.30800
C  42.52200 10.32100 45.67300
O  42.55500 11.52600 45.48000
C  41.18200 9.51700 45.77900
C  40.40000 10.02100 46.89400
O  40.11400 9.39700 47.90300
O  39.80700 11.16700 46.61800
C  38.88100 11.61400 47.55100
H  40.04400 2.71400 46.51700
H  46.48000 1.92900 47.44400
H  47.46100 8.06900 46.66400
H  39.06700 7.45300 46.32100
H  38.89000 4.63300 45.38500
H  38.06500 6.19000 47.83400
H  38.85300 4.75800 48.18400
H  37.40600 4.57600 47.18000
H  38.60200 6.09900 43.96800
H  40.05200 7.13600 43.60800
H  38.14800 8.80600 44.75500
H  37.24600 7.83700 43.68300
H  41.51400 -0.53500 47.48600
H  41.54500 -0.34500 45.68800
H  40.43400 0.64500 46.64100
H  46.36800 0.13800 46.41600
H  46.25900 -1.43800 47.14400
H  46.08600 0.07400 48.17800
H  48.40600 3.46700 46.28300
H  48.37900 5.93100 48.17600
H  48.86100 2.18200 48.13800
H  47.92000 3.21500 49.18700
H  49.60800 3.65900 48.67700
H  48.75900 6.33500 45.27800
H  49.97200 5.16200 45.94300
H  50.20800 8.04500 46.11100
H  51.07400 6.85000 47.05200
H  49.71000 7.62100 47.70400
H  46.93800 10.22000 46.65000
H  45.66800 11.23700 47.11500
H  46.25300 11.00800 45.35600
H  40.68600 9.66300 44.81900
H  38.71200 12.67600 47.37500
H  39.11700 11.64700 48.61400
H  38.00600 10.96500 47.49800
Mg 37.01400 49.76400 24.96800
C  36.95000 48.02800 27.88000
C  35.69300 52.55100 26.43400
C  36.50300 51.18200 21.92700
C  38.05800 46.83100 23.28700
N  36.25400 50.16500 26.86500
C  36.52500 49.33200 28.04500
C  36.29700 50.07800 29.36500
C  35.64900 51.50600 28.80600
C  35.79900 51.45000 27.23200
C  34.23800 51.86400 29.37900
C  37.61600 50.19700 30.12200
C  37.52100 49.70200 31.62700
H  36.33600 49.99600 32.55000
N  36.49100 51.69500 24.27300
C  35.96000 52.66700 25.07600
C  35.61400 53.83400 24.29300
C  35.97600 53.53000 22.90300
C  36.31400 52.09200 22.99100
C  34.85300 55.06200 24.82300
C  36.10200 54.37900 21.66600
O  36.41000 53.86800 20.56200
C  35.73600 55.76400 21.67500
N  37.12800 49.02200 22.86200
C  36.94900 49.83400 21.80700
C  37.42500 49.23600 20.47700
C  38.26500 48.06100 20.99100
C  37.86100 47.96000 22.51100
C  36.26800 48.88100 19.48100
C  39.74900 48.38200 20.88800
C  40.76800 47.31700 20.88400
N  37.24600 47.73400 25.38500
C  37.69900 46.68800 24.56500
C  37.88500 45.55400 25.46700
C  37.59000 46.02700 26.79700
C  37.29100 47.38000 26.65700
C  38.50900 44.24300 25.05200
C  37.54900 45.58400 28.18700
O  37.88900 44.54500 28.71000
C  37.14000 46.90300 28.95900
C  35.95400 46.46300 29.65100
O  34.74000 46.37700 29.29000
O  36.30300 46.31700 30.95000
C  35.19400 45.97300 31.87000
H  35.21700 53.37000 26.97800
H  36.43400 51.70200 20.96900
H  38.57300 45.96600 22.86300
H  35.62800 49.44700 29.95100
H  36.31700 52.28200 29.18000
H  34.23400 52.76700 29.99000
H  33.86900 51.08100 30.04100
H  33.49700 52.08900 28.61200
H  38.03700 51.20200 30.15200
H  38.36900 49.62000 29.58500
H  38.45600 50.02600 32.08400
H  37.58100 48.61400 31.59800
H  35.57500 55.85900 25.00200
H  34.39500 54.89500 25.79800
H  34.12000 55.42600 24.10400
H  35.96200 56.35700 20.78900
H  36.30500 56.23800 22.47600
H  34.68200 55.88200 21.92700
H  38.08500 50.00800 20.08100
H  38.02300 47.10700 20.52200
H  35.95400 47.85100 19.65200
H  36.62300 48.98800 18.45600
H  35.43100 49.57100 19.58900
H  39.89500 48.99200 21.77900
H  39.90900 49.12500 20.10700
H  41.65100 47.63100 21.44100
H  41.03600 47.25400 19.82900
H  40.42300 46.31800 21.15000
H  38.98000 43.70600 25.87500
H  39.30000 44.24800 24.30100
H  37.66900 43.64800 24.69500
H  37.88200 47.21100 29.69600
H  34.92600 44.91700 31.91000
H  34.38900 46.67100 31.64200
H  35.41800 46.20300 32.91100

