158

Mg 16.98200 -1.34300 27.79400
C  15.81900 0.70700 30.26200
C  18.85700 -3.08000 30.22300
C  18.43400 -3.17300 25.33600
C  15.16400 0.49500 25.37500
N  17.43100 -1.00300 29.93300
C  16.67500 -0.25400 30.79900
C  16.94400 -0.58400 32.31900
C  18.15500 -1.57100 32.21000
C  18.22300 -1.95000 30.68100
C  19.50200 -1.04200 32.75200
C  15.75100 -1.29600 33.00900
C  15.71900 -1.33900 34.48400
H  16.96400 -0.84500 35.23500
N  18.33000 -2.99300 27.85000
C  18.95500 -3.54900 28.94700
C  19.72900 -4.70300 28.49200
C  19.57900 -4.75500 27.08700
C  18.74400 -3.62000 26.67500
C  20.31000 -5.64800 29.47800
C  20.29600 -5.74400 26.12900
O  20.13300 -5.69300 24.93800
C  21.09900 -6.94900 26.64800
N  16.73800 -1.42800 25.76000
C  17.52900 -2.19800 24.92200
C  17.30200 -1.81000 23.38300
C  16.12700 -0.79900 23.48800
C  15.96700 -0.52500 24.93100
C  18.55700 -1.29900 22.57700
C  14.77200 -1.25200 22.86700
C  14.11600 -0.30900 21.85600
N  15.81000 0.31800 27.77300
C  15.09700 0.92600 26.72600
C  14.33800 2.00900 27.29300
C  14.56900 1.95100 28.65200
C  15.55100 0.94500 28.86200
C  13.50000 3.04000 26.56000
C  14.17600 2.53100 29.90300
O  13.42200 3.46600 30.12800
C  14.93000 1.70600 31.03000
C  15.70900 2.43100 32.00700
O  16.71600 3.07400 31.79100
O  15.10600 2.31200 33.22100
C  15.43900 3.28700 34.25700
H  19.49800 -3.55900 30.96600
H  18.93200 -3.68000 24.50600
H  14.50000 1.00200 24.67200
H  17.24600 0.29900 32.88200
H  17.95300 -2.50900 32.72800
H  20.28700 -1.17600 32.00800
H  19.85200 -1.64200 33.59300
H  19.39800 0.02200 32.96200
H  15.75800 -2.35400 32.74300
H  14.81200 -0.86900 32.65700
H  15.50600 -2.34000 34.85800
H  14.84300 -0.78200 34.81700
H  19.99400 -6.63600 29.14200
H  20.01800 -5.57700 30.52600
H  21.39400 -5.54200 29.44700
H  21.50500 -7.61700 25.88900
H  20.37800 -7.63200 27.09600
H  21.92000 -6.75300 27.33800
H  16.94300 -2.66600 22.81100
H  16.46800 0.13500 23.04200
H  19.40600 -1.00800 23.19600
H  18.32700 -0.41200 21.98600
H  18.85300 -2.09900 21.89900
H  14.01800 -1.36600 23.64600
H  14.85700 -2.23800 22.41200
H  14.97000 0.26600 21.49900
H  13.37000 0.30200 22.36400
H  13.79200 -0.87000 20.97900
H  13.27000 2.61100 25.58500
H  14.07700 3.93300 26.31900
H  12.66500 3.39700 27.16300
H  14.15100 1.06400 31.44200
H  15.96400 4.16700 33.88500
H  16.07100 2.76300 34.97300
H  14.50600 3.51600 34.77200
Mg 40.62900 9.57000 30.10000
C  42.53000 10.59400 32.87100
C  38.31700 8.26600 32.31500
C  38.96200 8.50900 27.43600
C  43.41700 10.12500 28.05100
N  40.48800 9.50400 32.39800
C  41.32400 10.02800 33.27400
C  40.58500 10.11400 34.64700
C  39.30600 9.24000 34.46200
C  39.32700 8.94700 33.00900
C  39.07300 7.96100 35.28300
C  40.21100 11.62300 34.95600
C  39.81000 11.93500 36.39100
H  40.77300 12.66400 37.31000
N  38.88600 8.42100 29.89200
C  38.10900 7.96800 30.88600
C  36.94700 7.33200 30.26100
C  37.11500 7.46100 28.85500
C  38.36400 8.14600 28.67500
C  35.83300 6.80200 30.99800
C  36.20700 7.03400 27.75300
O  36.43000 7.05700 26.55600
C  34.91600 6.50400 28.15400
N  41.15100 9.28200 28.01200
C  40.25000 8.86900 27.11400
C  40.77700 8.98200 25.67300
C  42.25200 9.54900 25.84000
C  42.30900 9.58900 27.39900
C  40.48200 7.72900 24.75200
C  42.53200 10.87600 25.05700
C  42.12200 12.21000 25.67600
N  42.59100 10.21200 30.34700
C  43.60200 10.37900 29.40400
C  44.76900 10.87000 30.04700
C  44.46900 10.96800 31.36300
C  43.09600 10.56400 31.53000
C  46.08500 11.19300 29.33700
C  44.90100 11.35200 32.66900
O  45.99500 11.81700 32.94000
C  43.70500 11.16500 33.67700
C  44.24200 10.14000 34.70100
O  44.56100 8.98700 34.40300
O  44.36800 10.73300 35.92400
C  44.66600 9.79000 37.00200
H  37.49100 7.97600 32.96900
H  38.61400 8.16900 26.45900
H  44.30000 10.42200 27.48100
H  41.10700 9.83100 35.56100
H  38.46200 9.92100 34.58000
H  39.95000 7.65500 35.85400
H  38.75300 7.09900 34.69900
H  38.31600 8.23600 36.01800
H  39.38000 11.97600 34.34600
H  41.02000 12.29900 34.67900
H  39.40100 11.00800 36.79300
H  38.92800 12.57500 36.35500
H  34.83500 7.05000 30.63600
H  35.79800 7.29800 31.96700
H  35.89200 5.72200 31.13100
H  34.45400 6.09000 27.25800
H  34.27300 7.28700 28.55500
H  35.16400 5.72400 28.87400
H  40.25500 9.81900 25.20800
H  42.99700 8.79900 25.57300
H  41.46600 7.42700 24.39300
H  39.88600 7.91300 23.85800
H  40.10100 6.87100 25.30600
H  42.04800 10.85600 24.08100
H  43.60900 10.94400 24.90200
H  42.01200 12.25400 26.75900
H  41.07100 12.41500 25.47000
H  42.72300 13.08100 25.41700
H  46.32900 10.49200 28.53800
H  46.83200 11.29200 30.12500
H  45.88900 12.06500 28.71200
H  43.41100 12.07000 34.20800
H  44.79600 8.74400 36.72500
H  43.74000 9.89300 37.56700
H  45.57300 9.99500 37.57000

