158

Mg 24.34000 -5.47600 46.00700
C  26.59000 -3.17400 44.41300
C  21.96400 -4.41900 43.67800
C  22.24800 -7.82000 47.02400
C  26.97100 -6.88000 47.72100
N  24.38600 -4.12400 44.08300
C  25.33500 -3.16900 43.84700
C  24.85700 -2.18700 42.76600
C  23.30700 -2.34500 42.89600
C  23.18600 -3.71700 43.65200
C  22.58600 -1.13200 43.60800
C  25.49100 -2.44600 41.32800
C  26.10300 -1.29300 40.50700
H  25.78200 -1.39200 38.99900
N  22.44400 -6.13400 45.37900
C  21.65800 -5.58600 44.43900
C  20.39000 -6.36700 44.30700
C  20.35900 -7.28700 45.30800
C  21.73200 -7.17000 45.88700
C  19.38600 -5.88600 43.34100
C  19.18400 -8.25400 45.69700
O  18.15300 -8.24900 45.02300
C  19.21300 -9.05800 46.91800
N  24.52400 -7.15700 47.16500
C  23.50500 -7.94000 47.58800
C  24.03400 -9.07100 48.49000
C  25.47000 -8.66400 48.81800
C  25.69700 -7.51800 47.83900
C  23.22200 -9.47300 49.77000
C  26.53800 -9.84000 48.82900
C  27.35700 -9.84800 50.14000
N  26.32700 -5.13600 46.10200
C  27.27900 -5.74300 46.89500
C  28.57600 -5.04100 46.75700
C  28.29900 -3.97400 45.78600
C  26.97800 -4.15400 45.41600
C  29.78300 -5.43000 47.46000
C  28.88700 -2.76600 45.15600
O  29.99900 -2.24200 45.31400
C  27.76500 -2.22500 44.08100
C  27.45400 -0.82700 44.36900
O  26.68800 -0.32000 45.16200
O  28.28700 -0.03700 43.56100
C  28.29300 1.36100 43.92400
H  21.12600 -3.95400 43.15400
H  21.60700 -8.53500 47.54400
H  27.74900 -7.42000 48.26500
H  25.18100 -1.20800 43.11700
H  22.81100 -2.51200 41.94000
H  23.32000 -0.33200 43.70600
H  22.23300 -1.49500 44.57300
H  21.73800 -0.71400 43.06500
H  24.75900 -2.96700 40.71100
H  26.35100 -3.08700 41.51900
H  27.18900 -1.34200 40.42400
H  25.76700 -0.33600 40.90700
H  18.68400 -5.21100 43.83100
H  18.83400 -6.77100 43.02600
H  19.75200 -5.48000 42.39900
H  18.27200 -9.56700 47.12700
H  19.39600 -8.36900 47.74200
H  20.04000 -9.75800 46.79500
H  24.09000 -9.91200 47.79900
H  25.38900 -8.24400 49.82000
H  22.35600 -8.81100 49.77700
H  23.83000 -9.49600 50.67400
H  22.73800 -10.41500 49.51100
H  27.23500 -9.81200 47.99100
H  25.98400 -10.77600 48.89000
H  28.43200 -9.81900 49.96300
H  27.12000 -10.62100 50.87100
H  27.27300 -8.85400 50.57900
H  29.57000 -5.44800 48.52900
H  30.53400 -4.71500 47.12500
H  30.02700 -6.47400 47.26100
H  28.15300 -2.35800 43.07100
H  28.30000 1.56500 44.99500
H  27.42100 1.91200 43.57300
H  29.20200 1.81200 43.52600
Mg 45.21100 3.75800 48.02200
C  43.50000 6.65600 47.47200
C  42.37700 2.00300 47.36700
C  47.18200 1.05400 47.77000
C  48.19100 5.69600 47.94000
N  43.24000 4.25000 47.55500
C  42.69300 5.49000 47.39400
C  41.24800 5.42700 46.89500
C  40.81600 3.99100 47.44100
C  42.23500 3.40900 47.40200
C  40.28400 3.92100 48.84700
C  41.22700 5.56900 45.34700
C  40.02100 6.37700 44.89600
H  40.13100 6.79700 43.41100
N  44.80200 1.77100 47.72400
C  43.56100 1.24300 47.39000
C  43.72500 -0.20500 47.24400
C  45.07500 -0.56000 47.45900
C  45.78900 0.75700 47.68700
C  42.48000 -1.06500 46.93100
C  45.64600 -2.03700 47.52100
O  44.92800 -3.02100 47.29200
C  47.08600 -2.30700 47.88600
N  47.37200 3.44000 47.62600
C  47.87500 2.17600 47.82300
C  49.36700 2.17100 48.01800
C  49.68900 3.68600 47.63700
C  48.34700 4.31000 47.79400
C  49.91800 1.62100 49.30700
C  50.33700 3.87700 46.26200
C  51.84300 3.98800 46.24000
N  45.78100 5.78000 47.92400
C  46.97600 6.42000 47.95100
C  46.71500 7.87200 47.94600
C  45.35300 7.99300 47.79600
C  44.84900 6.69900 47.72500
C  47.79000 8.97100 47.91900
C  44.17600 8.91500 47.55400
O  44.19900 10.12500 47.51100
C  42.98000 8.12200 47.32300
C  41.98600 8.55800 48.34000
O  41.94900 8.27800 49.48000
O  41.13700 9.42800 47.75300
C  40.13600 9.94100 48.64200
H  41.48000 1.39400 47.23300
H  47.75700 0.12500 47.76500
H  49.12000 6.26800 47.90800
H  40.65600 6.18300 47.41000
H  40.15700 3.34700 46.85800
H  40.06100 4.96600 49.06300
H  40.86300 3.46900 49.65200
H  39.26100 3.54700 48.85700
H  41.30100 4.57000 44.91600
H  42.12800 6.06600 44.98700
H  39.99700 7.22700 45.57800
H  39.15100 5.75700 45.11200
H  42.73300 -1.81200 46.17800
H  41.58400 -0.65100 46.46700
H  42.14000 -1.53800 47.85200
H  47.14600 -3.29300 48.34600
H  47.21800 -1.59500 48.70000
H  47.65800 -2.09400 46.98300
H  49.79000 1.51900 47.25300
H  50.30300 4.01300 48.47600
H  50.83800 2.12700 49.60000
H  50.21000 0.57200 49.26100
H  49.15000 1.64300 50.08000
H  49.92500 4.75400 45.76400
H  50.00800 3.07500 45.60100
H  52.30800 3.20900 45.63500
H  52.28100 3.84200 47.22800
H  52.15800 4.97200 45.89300
H  48.43700 8.93400 47.04400
H  48.37100 8.96500 48.84100
H  47.32600 9.94800 47.78400
H  42.51000 8.36600 46.37100
H  40.44400 10.98500 48.70000
H  39.85900 9.45600 49.57800
H  39.24200 9.88900 48.02100

