158

Mg 54.84000 23.36900 44.65700
C  52.42400 25.62400 43.43900
C  52.79900 20.77500 43.68300
C  57.51100 21.31300 44.83500
C  56.72800 26.12800 45.56400
N  52.90600 23.28100 43.59100
C  52.07800 24.29400 43.32600
C  50.77700 23.75700 42.84000
C  50.75800 22.30400 43.30100
C  52.24000 22.07000 43.55600
C  50.02000 21.82800 44.57000
C  50.45800 23.94300 41.32400
C  49.01700 24.32600 41.01200
H  48.55900 23.93600 39.63500
N  55.14600 21.36100 44.28500
C  54.14400 20.42100 43.92000
C  54.65400 19.12100 43.77600
C  56.02000 19.24700 44.14800
C  56.35200 20.64700 44.43000
C  53.90600 17.98900 43.24000
C  56.98200 18.15700 44.00900
O  56.66100 17.05100 43.61200
C  58.44900 18.27700 44.28200
N  56.89600 23.69900 44.94400
C  57.69500 22.66300 45.16500
C  59.01200 23.17100 45.76800
C  58.85400 24.73700 45.92800
C  57.41400 24.90100 45.44800
C  59.30800 22.40700 47.10100
C  59.70600 25.60900 44.87000
C  60.11500 27.03500 45.31400
N  54.68600 25.45200 44.63700
C  55.46600 26.40900 45.02900
C  54.86200 27.75400 44.94000
C  53.62800 27.46400 44.29500
C  53.63000 26.07700 44.03500
C  55.38100 29.06500 45.51900
C  52.39400 28.02100 43.78600
O  52.02300 29.17900 43.89000
C  51.60600 26.83500 43.06400
C  51.62900 27.12600 41.56900
O  52.64000 27.09500 40.86400
O  50.43700 27.56000 41.03800
C  50.42200 28.05400 39.60400
H  52.06500 19.97500 43.80200
H  58.42000 20.72700 44.99100
H  57.22100 27.01800 45.96100
H  50.07500 24.41400 43.35200
H  50.59000 21.58500 42.49900
H  49.37800 22.61500 44.96600
H  50.67700 21.53000 45.38700
H  49.33600 21.00700 44.35400
H  50.58900 23.00300 40.78700
H  51.14600 24.70800 40.96200
H  48.94700 25.40600 41.13400
H  48.29600 23.82100 41.65500
H  52.89300 18.23000 42.91900
H  53.90900 17.28900 44.07600
H  54.54600 17.43400 42.55400
H  58.80600 19.14400 43.72700
H  58.95900 17.43100 43.82200
H  58.58900 18.33500 45.36100
H  59.91100 23.01400 45.17100
H  58.76300 25.05700 46.96600
H  59.69000 23.00600 47.92800
H  60.06000 21.62300 47.01000
H  58.41400 21.86200 47.40500
H  59.16300 25.78600 43.94200
H  60.61000 25.09500 44.54400
H  61.20100 27.11600 45.25100
H  59.89900 27.19300 46.37000
H  59.65800 27.81800 44.70800
H  55.45100 28.86800 46.58900
H  54.66400 29.87400 45.38400
H  56.39800 29.28400 45.19400
H  50.56900 26.77900 43.39400
H  50.97100 28.96900 39.38000
H  49.35200 28.24700 39.52900
H  50.66700 27.30600 38.85000
Mg -9.23900 39.87800 39.89300
C  -8.24300 36.77400 38.67700
C  -6.20100 41.07000 38.98700
C  -10.60900 42.88400 40.00600
C  -12.50000 38.42300 40.30700
N  -7.50700 38.95700 38.66600
C  -7.19600 37.66200 38.62300
C  -5.78200 37.38100 38.03900
C  -5.12800 38.70100 38.55000
C  -6.35800 39.69700 38.78000
C  -4.11200 38.60800 39.66200
C  -5.96800 37.25700 36.43300
C  -5.41300 36.01700 35.62200
H  -6.37100 35.51700 34.55000
N  -8.46800 41.75300 39.66700
C  -7.19000 42.01600 39.32200
C  -7.04700 43.50700 39.19200
C  -8.27000 44.06800 39.62500
C  -9.24200 42.87600 39.79700
C  -5.85700 44.13200 38.60000
C  -8.48800 45.51100 39.74800
O  -7.56100 46.27800 39.51000
C  -9.80300 46.19400 40.26500
N  -11.31600 40.61700 40.04900
C  -11.61500 41.89500 40.08200
C  -13.16800 42.03900 40.24200
C  -13.70400 40.60300 40.45600
C  -12.38600 39.80600 40.25400
C  -13.73000 42.93000 41.36700
C  -14.92800 40.18400 39.61200
C  -16.06100 39.50200 40.41900
N  -10.17600 38.06300 39.68500
C  -11.46100 37.64000 39.90100
C  -11.52800 36.21900 39.71100
C  -10.31300 35.82700 39.22800
C  -9.60300 36.97800 39.12700
C  -12.77100 35.33400 39.89600
C  -9.53800 34.74300 38.78100
O  -9.78900 33.53000 38.70900
C  -8.17100 35.34000 38.45800
C  -7.20900 34.75700 39.40000
O  -6.91600 35.32200 40.41600
O  -6.57000 33.60700 38.95300
C  -5.38300 33.25300 39.72100
H  -5.19900 41.45400 38.79000
H  -11.07600 43.86300 40.13100
H  -13.54500 38.12500 40.41900
H  -5.57800 36.41900 38.50900
H  -4.64600 39.20000 37.71000
H  -4.51500 38.93200 40.62100
H  -3.24900 39.22600 39.41100
H  -3.73900 37.59200 39.79100
H  -5.63800 38.19300 35.98100
H  -7.04100 37.21800 36.24600
H  -5.04700 35.15300 36.17600
H  -4.51000 36.36300 35.11800
H  -6.01100 44.67600 37.66800
H  -5.12800 43.32300 38.55600
H  -5.45600 44.80000 39.36200
H  -10.70600 45.87100 39.74700
H  -9.65200 47.26400 40.12100
H  -9.81900 45.92800 41.32200
H  -13.53000 42.32600 39.25500
H  -13.92200 40.37600 41.49900
H  -12.96400 43.67200 41.59100
H  -14.09200 42.42700 42.26400
H  -14.56100 43.48100 40.92600
H  -14.57200 39.44000 38.89900
H  -15.23300 41.07000 39.05500
H  -16.26100 38.52800 39.97300
H  -16.98700 39.98400 40.10500
H  -16.06700 39.47400 41.50900
H  -13.09500 35.35700 40.93700
H  -12.53000 34.30200 39.64200
H  -13.68600 35.70500 39.43300
H  -7.90100 35.04400 37.44400
H  -5.65800 32.81500 40.68000
H  -4.70900 34.10200 39.83800
H  -4.72000 32.55400 39.21000

