158

Mg 2.03800 8.24500 27.06200
C  2.15000 10.45000 29.86500
C  2.07200 5.69700 29.32900
C  1.91600 6.15800 24.50300
C  2.46200 10.96900 24.87700
N  2.05300 8.12800 29.38100
C  2.00800 9.10100 30.25200
C  1.86400 8.57500 31.71800
C  2.20800 7.05900 31.59800
C  2.19000 6.93800 30.02700
C  3.62100 6.60300 32.22900
C  0.44300 8.85300 32.39800
C  0.54000 9.60400 33.70300
H  1.13100 8.83600 34.92300
N  1.87500 6.27200 26.90000
C  1.90500 5.35200 27.93400
C  1.78300 3.97800 27.44400
C  1.81600 4.09400 26.06200
C  1.88800 5.57400 25.80200
C  1.57600 2.75000 28.39800
C  1.74600 3.02900 24.94700
O  1.90300 3.25500 23.77100
C  1.64400 1.58600 25.33500
N  2.01200 8.51900 25.02300
C  1.98000 7.49000 24.11400
C  2.19400 8.08400 22.67500
C  1.86600 9.58800 22.88700
C  2.25000 9.69200 24.35600
C  3.58800 7.85400 21.98100
C  0.35500 9.98800 22.57600
C  -0.00900 11.35600 22.11400
N  2.42300 10.27200 27.27500
C  2.60100 11.24200 26.27700
C  2.73900 12.47100 26.93600
C  2.63000 12.21500 28.33000
C  2.49000 10.84300 28.52200
C  2.95800 13.83500 26.20800
C  2.55200 12.80200 29.66200
O  2.76000 13.93200 30.02700
C  2.25600 11.67300 30.63900
C  3.34000 11.61500 31.69300
O  4.44100 11.07900 31.62600
O  2.81800 12.18700 32.85700
C  3.71200 12.08700 34.00900
H  2.03400 4.90300 30.07900
H  1.74600 5.46200 23.67900
H  2.75000 11.74800 24.16800
H  2.68800 9.03200 32.26600
H  1.50300 6.39200 32.09400
H  3.37900 5.60800 32.60300
H  3.95100 7.34000 32.96100
H  4.43800 6.59600 31.50800
H  -0.11200 7.93700 32.60100
H  -0.14500 9.38100 31.64600
H  -0.44900 10.03100 33.86900
H  1.17600 10.45500 33.46000
H  2.47000 2.42600 28.93000
H  1.13800 1.91500 27.85000
H  0.93700 3.05800 29.22700
H  0.63200 1.28400 25.60300
H  2.31400 1.51200 26.19100
H  2.00200 0.85700 24.60700
H  1.50300 7.67800 21.93700
H  2.68700 10.01600 22.31200
H  4.00900 7.03200 22.56100
H  4.29800 8.68000 22.00500
H  3.47800 7.40200 20.99500
H  -0.21600 9.76700 23.47800
H  0.03800 9.24400 21.84500
H  0.87200 11.83100 21.68100
H  -0.56600 11.99500 22.79900
H  -0.74800 11.30700 21.31400
H  2.18000 13.83700 25.44500
H  3.92000 13.91700 25.70300
H  2.78800 14.69000 26.86300
H  1.33600 11.86700 31.19000
H  3.78300 11.05600 34.35600
H  3.40100 12.75700 34.81000
H  4.71300 12.43200 33.75100
Mg 17.60900 -1.32700 27.88900
C  16.53800 0.33600 30.74500
C  19.60700 -3.33700 29.82300
C  18.78500 -2.69800 25.11200
C  15.90500 0.98000 25.92700
N  18.10700 -1.34500 30.02900
C  17.44700 -0.67000 31.06000
C  17.88200 -1.15600 32.37700
C  19.08700 -2.01700 32.00900
C  18.90200 -2.37300 30.56500
C  20.50400 -1.33400 32.33300
C  16.79100 -1.88700 33.22400
C  16.66400 -1.34500 34.64000
H  17.98100 -1.24100 35.48200
N  18.87600 -2.86600 27.54400
C  19.56100 -3.63400 28.45600
C  20.18000 -4.78600 27.82400
C  19.94900 -4.67300 26.43000
C  19.15500 -3.37500 26.29400
C  20.99500 -5.80000 28.54500
C  20.30400 -5.53100 25.28600
O  20.08100 -5.30700 24.12700
C  20.93400 -6.94200 25.55700
N  17.36300 -0.89400 25.73900
C  18.01000 -1.54300 24.81000
C  17.81900 -1.03600 23.35200
C  16.87200 0.24700 23.64300
C  16.74000 0.15700 25.20200
C  19.13100 -0.63900 22.64900
C  15.51400 0.18200 22.89700
C  15.60600 0.54600 21.42400
N  16.42000 0.39600 28.21200
C  15.82400 1.26100 27.36100
C  15.15000 2.29700 28.13600
C  15.35700 1.98700 29.45700
C  16.18200 0.87200 29.45400
C  14.37700 3.49100 27.63900
C  15.05100 2.24100 30.76800
O  14.38700 3.15600 31.26500
C  15.83000 1.28000 31.68300
C  16.68600 2.10900 32.61400
O  17.81600 2.50400 32.35100
O  15.95800 2.50600 33.71000
C  16.35800 3.82100 34.20100
H  20.34100 -3.84800 30.45000
H  19.10600 -3.26100 24.23300
H  15.29100 1.67200 25.34800
H  18.21600 -0.35900 33.04200
H  19.12400 -3.00500 32.46900
H  21.15000 -1.06400 31.49800
H  21.12500 -2.06800 32.84700
H  20.48000 -0.40700 32.90600
H  16.97400 -2.95800 33.31600
H  15.81200 -1.87600 32.74600
H  15.97200 -1.97800 35.19600
H  16.24300 -0.34000 34.59400
H  20.72600 -6.80800 28.23000
H  20.80600 -5.74200 29.61700
H  22.08300 -5.75000 28.48500
H  21.74300 -6.61400 26.20900
H  21.25400 -7.33700 24.59300
H  20.22400 -7.62100 26.03100
H  17.16700 -1.67500 22.75600
H  17.19900 1.26500 23.43100
H  19.88700 -0.22200 23.31500
H  18.91700 0.02800 21.81400
H  19.47100 -1.53800 22.13400
H  14.85500 0.94300 23.31500
H  15.10600 -0.82300 23.00800
H  15.28200 -0.28900 20.80200
H  16.58800 0.87700 21.08700
H  14.92500 1.35300 21.15600
H  13.96000 3.96700 28.52600
H  13.52500 3.09900 27.08300
H  15.06100 4.06200 27.01100
H  15.03300 0.76200 32.21500
H  15.56700 4.25700 34.81200
H  16.46300 4.60200 33.44800
H  17.15500 3.70100 34.93400

