158

Mg 47.65600 15.14100 28.33400
C  45.34000 15.14700 31.07000
C  49.67400 17.02200 30.33600
C  49.47200 15.34900 25.77000
C  45.07300 13.58700 26.36300
N  47.46100 15.96100 30.51200
C  46.53000 15.77200 31.42100
C  46.84400 16.45200 32.78500
C  48.12700 17.20300 32.36200
C  48.44300 16.70800 30.99800
C  48.13400 18.74400 32.53200
C  47.05900 15.40200 34.01100
C  46.31500 15.59200 35.27100
H  46.24200 17.08200 35.68000
N  49.31800 16.11500 28.13300
C  50.07700 16.72000 29.02000
C  51.40000 16.97500 28.44400
C  51.32400 16.50000 27.08300
C  49.97900 15.93900 26.94700
C  52.54600 17.69800 29.15000
C  52.40800 16.54900 25.99800
O  52.24900 16.18700 24.86600
C  53.87500 17.10600 26.33400
N  47.21600 14.71000 26.29400
C  48.29200 14.77600 25.44900
C  47.97100 14.20400 24.05300
C  46.66300 13.46700 24.35500
C  46.20900 13.99500 25.67500
C  47.89600 15.45600 23.02300
C  46.76500 11.90600 24.42600
C  47.73500 11.20600 25.41700
N  45.64300 14.54300 28.62900
C  44.76400 13.86600 27.76000
C  43.59600 13.45300 28.47600
C  43.73100 14.03800 29.74500
C  45.00900 14.65300 29.82600
C  42.44400 12.63800 27.94400
C  43.13800 14.02500 31.06600
O  42.09000 13.59500 31.58600
C  44.14600 14.84300 31.95200
C  43.55800 16.00500 32.53700
O  43.76800 17.18200 32.24800
O  42.85000 15.69300 33.67900
C  42.23200 16.70200 34.53300
H  50.49200 17.44200 30.92500
H  50.12200 15.20500 24.90400
H  44.40100 12.99800 25.73500
H  46.08200 17.18900 33.03900
H  49.02700 16.85700 32.87000
H  47.12000 19.09100 32.73100
H  48.40900 19.26500 31.61400
H  48.79500 18.94500 33.37500
H  48.12800 15.32900 34.21300
H  46.58100 14.50100 33.62700
H  46.83100 14.98600 36.01600
H  45.26500 15.30300 35.32400
H  52.34500 18.07100 30.15400
H  52.84300 18.55500 28.54500
H  53.44600 17.08800 29.22500
H  53.77200 18.19100 26.35100
H  54.37000 16.81900 25.40600
H  54.28500 16.62600 27.22200
H  48.77300 13.51600 23.78500
H  45.95700 13.64200 23.54200
H  48.36700 15.23900 22.06500
H  48.27100 16.41200 23.38900
H  46.82400 15.48500 22.82800
H  47.14800 11.74000 23.41900
H  45.79900 11.40100 24.43000
H  47.02600 10.85700 26.16800
H  48.47000 11.92800 25.77400
H  48.25300 10.39500 24.90500
H  41.87200 12.28700 28.80300
H  42.80900 11.75100 27.42400
H  41.84600 13.23500 27.25600
H  44.47700 14.11500 32.69200
H  41.35600 17.08600 34.01000
H  42.96600 17.38900 34.95700
H  41.86900 16.22900 35.44500
Mg 31.22500 59.66200 38.88400
C  28.34000 57.72000 37.80000
C  33.19300 57.04800 37.95400
C  33.82300 61.78700 39.08100
C  29.02700 62.28000 39.64900
N  30.81400 57.72100 37.90200
C  29.61400 57.08000 37.74500
C  29.81600 55.76200 37.03300
C  31.29000 55.41300 37.40800
C  31.82100 56.85900 37.79500
C  31.51800 54.32900 38.48600
C  29.45600 55.61000 35.53600
C  28.33900 54.67100 35.08100
H  27.24000 55.27800 34.14500
N  33.29400 59.46400 38.67900
C  33.85500 58.27300 38.37700
C  35.33400 58.46800 38.42900
C  35.53300 59.81200 38.75800
C  34.22400 60.44800 38.84600
C  36.36400 57.42000 38.19300
C  36.87500 60.49400 38.98300
O  37.93300 59.88700 39.00300
C  36.96300 61.98100 39.34300
N  31.36700 61.82700 39.17700
C  32.59100 62.42100 39.29000
C  32.43800 63.89000 39.59200
C  30.90700 64.05300 39.95500
C  30.38400 62.68200 39.55500
C  33.36800 64.46900 40.71600
C  30.30900 65.18200 39.15900
C  29.37500 66.24200 39.84900
N  29.12200 59.98600 38.75400
C  28.37600 61.07500 39.18100
C  26.96300 60.77600 39.06700
C  26.94200 59.44200 38.55800
C  28.26600 59.05900 38.31600
C  25.80100 61.62300 39.59000
C  26.05800 58.29700 38.22000
O  24.87300 58.14500 38.26200
C  26.89900 57.15100 37.65300
C  26.55400 55.88000 38.40200
O  27.19300 55.47700 39.33700
O  25.58000 55.15300 37.78800
C  25.25700 53.84700 38.26900
H  33.81200 56.23100 37.57700
H  34.61000 62.54400 39.09200
H  28.37300 63.04200 40.07800
H  29.13000 55.13400 37.60200
H  31.78200 55.09700 36.48800
H  30.66800 53.64600 38.48700
H  31.55000 54.82100 39.45800
H  32.42100 53.74500 38.30800
H  30.32200 55.36600 34.92100
H  29.08700 56.60200 35.27700
H  27.81900 54.25400 35.94300
H  28.78200 53.84000 34.53100
H  35.98200 56.59800 37.58700
H  36.56100 56.98900 39.17500
H  37.36300 57.71600 37.87200
H  38.01300 62.27200 39.37300
H  36.46200 62.18000 40.29000
H  36.49600 62.51800 38.51800
H  32.63800 64.48400 38.70100
H  30.72500 64.17400 41.02300
H  34.17600 63.86400 41.12800
H  32.83400 64.84800 41.58700
H  33.85400 65.32500 40.24700
H  29.76000 64.87600 38.26800
H  31.12500 65.86000 38.90800
H  29.77300 67.25100 39.74100
H  29.27800 65.98400 40.90400
H  28.39600 66.22900 39.37100
H  26.02200 61.86700 40.62900
H  24.86700 61.06800 39.50600
H  25.80600 62.58200 39.07100
H  26.77300 57.00300 36.58000
H  25.90800 53.04300 37.92800
H  24.27200 53.53100 37.92300
H  25.16800 53.79900 39.35500

