158

Mg 16.08600 -2.48500 27.45500
C  15.06600 -0.44800 30.11700
C  17.64400 -4.50600 29.73500
C  17.38900 -4.20900 24.84600
C  14.90000 -0.09100 25.22300
N  16.50000 -2.38200 29.68200
C  15.92500 -1.47600 30.59400
C  16.28700 -1.78700 32.06800
C  17.36000 -3.02900 31.80200
C  17.16300 -3.37300 30.34000
C  18.88300 -2.82900 32.12700
C  14.98300 -2.18300 32.84300
C  14.88700 -1.55600 34.29600
H  16.09300 -0.80600 34.94400
N  17.32700 -4.08200 27.30200
C  17.83300 -4.85800 28.41900
C  18.66100 -5.91900 27.91200
C  18.57200 -5.84300 26.54000
C  17.75400 -4.64800 26.14200
C  19.23500 -7.06200 28.82400
C  19.16400 -6.77500 25.55600
O  18.97100 -6.76900 24.33200
C  20.13900 -7.91400 26.01200
N  16.21300 -2.23300 25.38000
C  16.66000 -3.10000 24.47900
C  16.47900 -2.56500 22.99500
C  15.54400 -1.36600 23.18400
C  15.60100 -1.18800 24.68800
C  17.85600 -2.21800 22.27800
C  14.05000 -1.45300 22.72400
C  12.91400 -1.89800 23.65600
N  15.21900 -0.63600 27.57800
C  14.59900 0.14800 26.57500
C  13.76200 1.15000 27.16600
C  13.98900 1.02600 28.57000
C  14.82600 -0.09500 28.74400
C  12.98600 2.29100 26.43700
C  13.64500 1.58200 29.88800
O  12.98500 2.58000 30.20100
C  14.34200 0.65900 30.96800
C  15.29300 1.45200 31.83000
O  16.53700 1.40100 31.77300
O  14.54200 2.32100 32.63800
C  15.27200 3.22500 33.50900
H  18.18800 -5.16000 30.42000
H  17.59400 -4.86600 23.99800
H  14.37000 0.65600 24.62800
H  16.90600 -1.03500 32.55700
H  16.99500 -3.93700 32.28000
H  19.14200 -3.68500 32.74900
H  18.96200 -1.88500 32.66700
H  19.48200 -2.92000 31.22100
H  14.93200 -3.27100 32.88000
H  14.07200 -1.87400 32.33000
H  14.67300 -2.31200 35.05200
H  14.11900 -0.78300 34.33200
H  18.83200 -7.98800 28.41500
H  18.89500 -7.02800 29.85800
H  20.32400 -7.06100 28.86500
H  19.58800 -8.59300 26.66300
H  20.99800 -7.42300 26.46900
H  20.45300 -8.43600 25.10800
H  16.01800 -3.33200 22.37300
H  16.04200 -0.52400 22.70300
H  18.15100 -1.16900 22.30800
H  17.87800 -2.61600 21.26300
H  18.61400 -2.73200 22.86900
H  13.98200 -2.13200 21.87400
H  13.80100 -0.44200 22.40000
H  13.28000 -2.46800 24.51000
H  12.24100 -2.56700 23.12000
H  12.39300 -1.03100 24.06100
H  12.69100 1.91900 25.45600
H  13.68900 3.12100 26.36400
H  12.06600 2.59500 26.93600
H  13.63200 0.27300 31.69900
H  15.05600 4.26000 33.24600
H  16.31700 2.93700 33.61700
H  14.79500 2.97500 34.45600
Mg 43.31400 42.26400 26.78400
C  42.15500 44.46300 29.30500
C  44.31200 40.18900 29.39100
C  44.76600 40.40000 24.49800
C  43.06900 44.96200 24.54800
N  43.23500 42.24000 29.05300
C  42.55200 43.22400 29.82400
C  42.52400 42.96800 31.38100
C  43.49600 41.73600 31.43900
C  43.75400 41.36600 29.87200
C  44.84000 41.90700 32.28500
C  41.07200 42.82100 31.86100
C  40.65700 43.38100 33.19900
H  41.58900 43.37300 34.35600
N  44.33900 40.46300 26.92100
C  44.65000 39.77300 28.05700
C  45.26200 38.51700 27.60800
C  45.15100 38.45600 26.22600
C  44.76500 39.79200 25.77500
C  45.67900 37.39300 28.48600
C  45.44200 37.29200 25.17300
O  45.25300 37.53500 23.95400
C  45.64800 35.90000 25.58400
N  43.84800 42.59700 24.73200
C  44.35400 41.63400 24.05000
C  44.45100 41.97200 22.60200
C  43.77200 43.45000 22.61800
C  43.52900 43.73700 23.99800
C  45.81900 41.84700 21.91400
C  42.47300 43.56000 21.65900
C  41.16200 42.82500 22.13600
N  42.73900 44.26500 26.88200
C  42.57400 45.22000 25.87700
C  42.05000 46.49200 26.43400
C  41.76300 46.18200 27.73400
C  42.28500 44.89900 27.99200
C  41.73000 47.71900 25.67500
C  41.09500 46.68200 28.95300
O  40.44000 47.72400 29.08800
C  41.41900 45.62700 30.01000
C  42.20300 46.39200 31.00100
O  43.39700 46.62900 30.87500
O  41.43500 46.74200 32.14000
C  42.14400 47.41200 33.18400
H  44.72100 39.57500 30.19600
H  45.26000 39.75600 23.76800
H  42.95900 45.82000 23.88300
H  43.08300 43.78800 31.83200
H  42.95600 40.93400 31.94200
H  45.02600 42.92100 32.63900
H  45.60900 41.60200 31.57500
H  45.01100 41.27100 33.15300
H  40.95200 41.73900 31.90200
H  40.42200 43.09700 31.03100
H  39.74100 42.93600 33.58800
H  40.48000 44.43400 32.98400
H  45.67200 37.87900 29.46200
H  46.67700 37.02000 28.26000
H  44.92700 36.60500 28.49900
H  46.32000 35.66000 26.40700
H  45.85100 35.35000 24.66500
H  44.65000 35.63300 25.93200
H  43.81900 41.25800 22.07400
H  44.44000 44.25400 22.30800
H  46.55900 41.50300 22.63600
H  45.98700 42.89800 21.67900
H  45.93200 41.35600 20.94800
H  42.81600 43.19200 20.69200
H  42.28500 44.62000 21.48900
H  41.17700 42.67700 23.21600
H  40.88900 41.90500 21.61900
H  40.33700 43.51200 21.95000
H  42.51900 47.73600 24.92400
H  41.75700 48.53000 26.40300
H  40.76200 47.65700 25.17600
H  40.47600 45.25200 30.41000
H  42.42100 48.41000 32.84400
H  43.03600 46.83500 33.42500
H  41.45800 47.48000 34.02800

