158

Mg -0.94300 33.61300 26.39600
C  -2.78800 32.18800 28.98000
C  0.63900 35.59500 28.69300
C  0.44300 35.25200 23.80600
C  -3.22000 32.05000 24.19500
N  -1.19100 33.96900 28.59400
C  -1.83300 33.12200 29.47200
C  -1.47900 33.46600 30.95700
C  -0.50700 34.64600 30.71100
C  -0.28300 34.71600 29.22000
C  -1.03800 35.94900 31.40600
C  -0.81600 32.18200 31.74900
C  -1.30000 31.89800 33.18600
H  -0.26500 32.07600 34.27500
N  0.32200 35.22400 26.27400
C  0.98500 35.81000 27.34800
C  2.02200 36.67100 26.84000
C  1.84300 36.67500 25.45800
C  0.80500 35.73500 25.09500
C  2.78700 37.77200 27.76700
C  2.55700 37.56500 24.47700
O  2.35300 37.62800 23.29000
C  3.65900 38.51900 25.00900
N  -1.36100 33.63400 24.30400
C  -0.55400 34.34800 23.41600
C  -1.14100 34.15200 21.99400
C  -2.23200 33.07600 22.16300
C  -2.33000 32.93400 23.65000
C  -1.71400 35.48900 21.38700
C  -1.79100 31.73400 21.30300
C  -1.20800 30.51400 22.01900
N  -2.55900 32.26000 26.45400
C  -3.33600 31.64000 25.48200
C  -4.15000 30.64900 26.13700
C  -4.04100 30.85500 27.48900
C  -3.03400 31.86000 27.61600
C  -5.07600 29.74900 25.37500
C  -4.49000 30.40300 28.74700
O  -5.24600 29.49600 28.99600
C  -3.72900 31.23200 29.79300
C  -4.72000 31.91700 30.69000
O  -5.40700 32.89900 30.49400
O  -4.70800 31.08600 31.83000
C  -5.68700 31.49700 32.81900
H  1.12700 36.23000 29.43600
H  0.99600 35.51300 22.90100
H  -3.78000 31.44800 23.47600
H  -2.37900 33.70600 31.52200
H  0.44900 34.47600 31.20600
H  -1.57300 35.73500 32.33100
H  -1.68600 36.42200 30.66900
H  -0.18300 36.59400 31.61300
H  0.25500 32.37400 31.69400
H  -1.05600 31.25100 31.23700
H  -1.56300 30.84100 33.16600
H  -2.28200 32.33800 33.36200
H  3.85400 37.88500 27.57500
H  2.75800 37.27700 28.73800
H  2.16200 38.64600 27.95100
H  3.17400 39.24200 25.66500
H  4.33500 38.96600 24.28100
H  4.27400 37.76500 25.50100
H  -0.36600 33.88000 21.27800
H  -3.22500 33.36000 21.81500
H  -1.75500 36.17000 22.23600
H  -2.76300 35.30800 21.15100
H  -1.24600 35.87800 20.48200
H  -1.04900 31.98100 20.54400
H  -2.70500 31.37700 20.82900
H  -1.77700 29.60700 21.81600
H  -1.10700 30.60700 23.10100
H  -0.17700 30.35300 21.70400
H  -5.97700 30.22400 24.98900
H  -5.27800 28.91100 26.04200
H  -4.49000 29.27100 24.58900
H  -3.17500 30.53500 30.42200
H  -6.63700 31.87100 32.43700
H  -5.15900 32.30000 33.33300
H  -5.94700 30.65600 33.46300
Mg -5.26000 25.15900 26.29500
C  -3.63800 26.75600 28.93300
C  -7.24900 23.56300 28.66900
C  -6.57300 23.32500 23.85600
C  -2.90500 26.58500 24.13800
N  -5.40700 25.23300 28.50800
C  -4.63200 25.89400 29.39700
C  -4.91700 25.59500 30.81800
C  -6.04500 24.59500 30.68100
C  -6.26000 24.46800 29.18700
C  -5.76300 23.24800 31.52800
C  -5.17000 26.86000 31.70200
C  -6.08300 26.71200 32.91800
H  -5.68400 25.62600 33.91600
N  -6.67100 23.62700 26.22200
C  -7.42100 23.12700 27.34900
C  -8.47800 22.34600 26.83400
C  -8.40100 22.32900 25.43000
C  -7.24600 23.10400 25.07400
C  -9.47700 21.69900 27.76300
C  -9.32900 21.69500 24.42100
O  -9.20700 21.76700 23.20400
C  -10.52900 20.93200 24.86800
N  -4.92400 25.07300 24.19700
C  -5.52300 24.19300 23.40400
C  -4.85800 24.21100 22.00900
C  -3.66200 25.21300 22.19700
C  -3.85000 25.70200 23.60100
C  -4.48500 22.90500 21.34100
C  -3.61800 26.36400 21.14200
C  -2.48100 26.25400 20.06500
N  -3.68200 26.51100 26.41200
C  -2.82400 27.01500 25.44300
C  -1.86500 27.82300 26.10200
C  -2.09100 27.74700 27.46800
C  -3.22400 27.00900 27.59400
C  -0.79400 28.66500 25.47600
C  -1.64200 28.13700 28.80800
O  -0.61600 28.77300 29.03200
C  -2.55700 27.39200 29.88200
C  -1.82100 26.44800 30.78000
O  -1.39400 25.35900 30.46300
O  -1.69900 27.05800 32.02600
C  -1.20900 26.38700 33.27000
H  -7.81700 23.17400 29.51600
H  -6.98000 22.76600 23.01000
H  -2.06600 26.96400 23.55100
H  -4.08100 24.97000 31.12900
H  -6.95200 25.14500 30.93300
H  -5.82500 22.44400 30.79600
H  -6.53600 23.15100 32.29100
H  -4.83700 23.22300 32.10300
H  -5.30400 27.76100 31.10200
H  -4.20600 27.04300 32.17600
H  -7.13300 26.68600 32.62500
H  -6.06000 27.68000 33.41800
H  -9.52900 20.61100 27.72600
H  -10.42500 22.23200 27.68200
H  -9.29500 21.88200 28.82200
H  -11.04600 21.67000 25.48100
H  -10.21300 20.07500 25.46300
H  -11.09300 20.74800 23.95400
H  -5.56000 24.76900 21.38900
H  -2.70400 24.70300 22.30500
H  -3.58700 22.96300 20.72600
H  -5.21700 22.47100 20.66000
H  -4.30500 22.20800 22.15900
H  -3.47400 27.30000 21.68300
H  -4.59100 26.50200 20.67100
H  -2.14300 25.22200 20.15900
H  -1.67700 26.99000 20.09600
H  -2.93800 26.39700 19.08600
H  -0.81500 28.70000 24.38700
H  0.14300 28.18000 25.74600
H  -0.88900 29.73100 25.68600
H  -3.08800 28.10300 30.51600
H  -0.33600 26.89600 33.67800
H  -1.00500 25.33400 33.07900
H  -1.89500 26.52500 34.10600

