158

Mg 8.97400 4.02600 27.07000
C  10.41900 2.58600 30.02100
C  6.85000 5.76100 29.27800
C  7.35100 5.16300 24.47000
C  10.62100 1.52300 25.17100
N  8.80300 4.23800 29.37300
C  9.52800 3.62100 30.33000
C  9.19400 4.12600 31.73200
C  7.98600 4.99500 31.51900
C  7.83100 4.96500 29.94500
C  6.67700 4.54600 32.29400
C  10.34800 4.89600 32.50000
C  10.54200 4.28300 33.93400
H  11.25000 5.09800 35.06100
N  7.45300 5.41800 26.89900
C  6.70700 5.98400 27.87800
C  5.70100 6.76400 27.28400
C  5.88000 6.71500 25.88200
C  6.94700 5.74600 25.67500
C  4.77600 7.55700 28.07000
C  5.07300 7.34000 24.79600
O  5.43000 7.22500 23.59700
C  3.80100 8.07000 25.11000
N  8.89300 3.28700 25.09200
C  8.31100 4.16000 24.15700
C  8.61000 3.64400 22.72200
C  9.70500 2.56600 22.94700
C  9.76600 2.39000 24.43800
C  7.33700 3.03000 22.11800
C  11.09700 2.81900 22.26500
C  11.51400 1.75600 21.20400
N  10.17000 2.39200 27.43400
C  10.82800 1.48700 26.55100
C  11.59600 0.59000 27.34200
C  11.45500 1.00000 28.62800
C  10.62300 2.09700 28.71300
C  12.37800 -0.49600 26.70900
C  11.95400 0.69800 29.89200
O  12.76800 -0.16300 30.27800
C  11.21300 1.68100 30.84100
C  10.41100 0.90700 31.79200
O  9.27000 0.50300 31.64800
O  11.14800 0.77900 32.89000
C  10.47400 0.40900 34.14100
H  6.13900 6.12600 30.02200
H  6.95000 5.53800 23.52700
H  11.25200 0.85000 24.58600
H  8.89700 3.19600 32.21600
H  8.15000 6.04400 31.76900
H  6.20900 5.44200 32.70200
H  6.83000 3.87100 33.13600
H  6.01300 4.15900 31.52100
H  10.09200 5.93600 32.70300
H  11.26000 4.70100 31.93600
H  11.22400 3.43900 33.83000
H  9.58100 3.84300 34.19900
H  5.22800 8.50900 28.35000
H  4.55300 6.98700 28.97200
H  3.79700 7.70000 27.61200
H  3.96300 9.10400 25.41700
H  3.10800 7.50400 25.73200
H  3.30500 8.24700 24.15600
H  8.97400 4.40000 22.02500
H  9.42200 1.59100 22.54900
H  6.64700 2.85400 22.94300
H  7.44300 2.02000 21.72200
H  6.81800 3.57800 21.33100
H  11.82400 2.71400 23.07000
H  11.20900 3.75200 21.71200
H  10.67400 1.11100 20.94800
H  12.28900 1.09700 21.59700
H  11.98100 2.16800 20.30900
H  11.95300 -0.84700 25.76800
H  12.26800 -1.39600 27.31400
H  13.43400 -0.22800 26.68900
H  11.97600 2.14400 31.46800
H  9.84300 -0.48000 34.17200
H  9.92700 1.30700 34.42900
H  11.24600 0.22800 34.88900
Mg -12.50100 38.33500 41.52300
C  -10.65800 35.58800 40.49300
C  -10.47000 40.31000 39.86500
C  -14.74200 40.55800 42.01300
C  -14.94300 35.78900 42.75600
N  -10.94700 37.93700 40.17700
C  -10.25300 36.76700 39.91600
C  -8.99500 37.00600 39.14100
C  -8.86300 38.62400 39.06700
C  -10.18100 38.97400 39.77000
C  -7.63300 39.26000 39.81100
C  -8.99500 36.34500 37.67100
C  -7.75200 35.49400 37.26300
H  -6.78700 36.13700 36.26900
N  -12.59600 40.24300 41.07000
C  -11.61700 40.93000 40.43700
C  -11.96800 42.32200 40.46900
C  -13.22100 42.47800 41.13900
C  -13.56600 41.04400 41.47900
C  -11.07600 43.49100 39.83700
C  -13.90300 43.72700 41.42200
O  -13.50200 44.71400 40.86000
C  -15.15000 43.83200 42.24900
N  -14.47100 38.21100 42.45300
C  -15.19700 39.36100 42.45700
C  -16.60300 39.06300 42.93700
C  -16.73900 37.53900 43.02600
C  -15.33500 37.14100 42.74200
C  -16.96200 39.78700 44.29200
C  -17.71600 36.92700 42.07700
C  -17.39200 36.95600 40.56700
N  -12.67500 36.19900 41.81400
C  -13.66100 35.32300 42.41900
C  -13.19500 33.97400 42.41400
C  -11.99000 34.05800 41.69600
C  -11.77300 35.38700 41.28200
C  -13.82300 32.78900 43.07400
C  -11.00400 33.23500 41.19400
O  -10.85600 32.03100 41.19900
C  -10.01700 34.19600 40.44300
C  -8.69600 34.09000 41.11900
O  -8.54000 34.55700 42.24000
O  -7.75700 33.45700 40.35600
C  -6.43500 33.07600 40.99400
H  -9.80000 40.88000 39.21800
H  -15.52700 41.31100 41.91700
H  -15.63600 35.06100 43.18300
H  -8.19200 36.49400 39.67300
H  -8.91400 38.97800 38.03700
H  -7.82600 39.75000 40.76500
H  -7.14100 39.93300 39.10800
H  -6.95900 38.44000 40.06100
H  -9.20400 37.09600 36.90900
H  -9.88400 35.71400 37.66600
H  -8.01900 34.45900 37.04800
H  -7.18900 35.32600 38.18100
H  -11.17000 44.38800 40.44900
H  -11.31800 43.81700 38.82500
H  -10.03800 43.17100 39.92700
H  -15.95300 43.25700 41.79000
H  -15.59600 44.82600 42.26500
H  -14.97300 43.63500 43.30700
H  -17.35200 39.39100 42.21700
H  -16.97900 37.25500 44.05100
H  -17.50000 40.63400 43.86600
H  -16.07700 40.23500 44.74400
H  -17.56400 39.22400 45.00500
H  -18.68800 37.38900 42.25000
H  -17.93300 35.90500 42.39000
H  -17.37800 35.98900 40.06400
H  -16.36600 37.32300 40.54000
H  -18.09700 37.63400 40.08600
H  -13.84600 32.93300 44.15400
H  -13.27300 31.89700 42.77100
H  -14.83400 32.51100 42.77600
H  -10.02000 33.87700 39.40000
H  -5.99100 32.20000 40.52000
H  -6.50800 32.96800 42.07600
H  -5.88200 33.98300 40.74900

