158

Mg -2.03300 16.91100 26.45400
C  -2.37000 14.56000 29.07300
C  -2.96800 19.31700 28.74000
C  -2.34200 19.05900 23.87700
C  -1.92900 14.25700 24.16900
N  -2.71900 16.90600 28.73400
C  -2.56700 15.86200 29.59000
C  -2.73400 16.24300 31.06300
C  -2.86300 17.80500 30.91200
C  -2.96300 18.03600 29.37600
C  -4.08600 18.42900 31.73600
C  -1.73900 15.74200 32.23700
C  -1.67000 16.59100 33.47800
H  -1.24900 15.98500 34.76400
N  -2.32000 18.90600 26.36400
C  -2.72000 19.72400 27.40400
C  -2.71400 21.06400 26.88600
C  -2.61500 21.02800 25.53500
C  -2.35700 19.64500 25.17800
C  -2.98700 22.26600 27.78900
C  -2.84600 22.20300 24.54400
O  -2.98000 22.03500 23.34800
C  -3.13800 23.64600 24.94900
N  -2.26800 16.67000 24.33100
C  -2.32300 17.73900 23.53400
C  -2.30700 17.27700 22.06000
C  -1.78700 15.84300 22.16900
C  -1.95900 15.55800 23.63100
C  -3.68100 17.45900 21.33700
C  -0.36800 15.57400 21.75700
C  0.87600 16.08800 22.50100
N  -2.15500 14.82500 26.49100
C  -2.03000 13.85700 25.48000
C  -2.10800 12.53800 26.03800
C  -2.18500 12.75400 27.40200
C  -2.23700 14.13700 27.65000
C  -2.11500 11.27000 25.15700
C  -2.34200 12.08600 28.68800
O  -2.41400 10.90200 28.98000
C  -2.49000 13.26700 29.79900
C  -1.39500 12.97200 30.80200
O  -0.24500 13.44200 30.81000
O  -1.87800 12.05300 31.72400
C  -1.10900 11.57000 32.85600
H  -3.12800 20.13600 29.44400
H  -2.35600 19.69400 22.98900
H  -1.69900 13.54400 23.37500
H  -3.68700 15.89800 31.46500
H  -1.94700 18.33400 31.17300
H  -4.46300 17.69200 32.44500
H  -4.89900 18.66500 31.04900
H  -3.76100 19.31600 32.27900
H  -0.71700 15.67200 31.86400
H  -2.15000 14.77400 32.52300
H  -2.69700 16.90700 33.65800
H  -1.03400 17.46300 33.32600
H  -2.74400 22.15200 28.84600
H  -4.03600 22.55700 27.73000
H  -2.33700 23.09800 27.51900
H  -2.41300 23.91900 25.71700
H  -4.08500 23.54000 25.47800
H  -3.17600 24.32300 24.09600
H  -1.52900 17.89000 21.60600
H  -2.37300 15.06600 21.68000
H  -4.20800 18.14100 22.00400
H  -4.32500 16.58200 21.39200
H  -3.61500 17.78100 20.29700
H  -0.15200 15.69700 20.69600
H  -0.23900 14.49200 21.77000
H  1.44200 16.73500 21.83100
H  1.59000 15.30100 22.74700
H  0.57300 16.58000 23.42400
H  -1.43400 11.34100 24.30800
H  -3.12700 10.91400 24.96200
H  -1.62400 10.49100 25.74000
H  -3.51300 13.17000 30.16300
H  -0.14800 12.05500 33.02400
H  -0.84200 10.52300 32.71300
H  -1.68600 11.66200 33.77600
Mg 16.57300 -1.57300 28.01000
C  15.59200 0.31100 30.67300
C  18.34700 -3.55400 30.10900
C  17.87200 -2.96400 25.24900
C  14.75000 0.54900 25.83600
N  16.89600 -1.65800 30.14800
C  16.38100 -0.83700 31.05300
C  16.93200 -1.11600 32.47900
C  17.79200 -2.38100 32.28800
C  17.66400 -2.59600 30.75500
C  19.27100 -2.13100 32.65600
C  15.97500 -1.34200 33.68300
C  16.36900 -0.85600 35.10300
H  17.83300 -0.99900 35.52000
N  18.00900 -2.96200 27.75400
C  18.56200 -3.76600 28.72100
C  19.28800 -4.79500 28.13300
C  19.18500 -4.60700 26.70000
C  18.31700 -3.44400 26.48200
C  19.87100 -5.97100 28.97800
C  19.75700 -5.48800 25.61100
O  19.62700 -5.28800 24.38800
C  20.73100 -6.53600 26.06300
N  16.39500 -1.21900 25.85200
C  16.94100 -2.02000 24.94100
C  16.53900 -1.74400 23.47600
C  15.70800 -0.39100 23.70900
C  15.55300 -0.38300 25.24300
C  17.67900 -1.40400 22.48600
C  14.42000 -0.39200 22.95200
C  13.31700 -1.40000 23.42900
N  15.29800 0.02000 28.16100
C  14.68500 0.83200 27.24800
C  14.09800 2.00000 27.87400
C  14.41800 1.87200 29.22000
C  15.14200 0.68500 29.32100
C  13.36700 3.09900 27.17700
C  14.35800 2.46500 30.44200
O  13.78200 3.44800 30.82600
C  15.04200 1.52400 31.49100
C  16.21900 2.18800 32.19800
O  17.23600 2.50100 31.57500
O  15.82300 2.41300 33.45600
C  16.70500 3.32400 34.15300
H  18.85100 -4.32800 30.69100
H  18.30800 -3.42900 24.36200
H  14.20400 1.18100 25.13200
H  17.43000 -0.18400 32.74700
H  17.49800 -3.29600 32.80100
H  19.52500 -1.16700 33.09800
H  20.03700 -2.23500 31.88700
H  19.47500 -2.86000 33.44000
H  15.84800 -2.42100 33.77800
H  15.03800 -0.83000 33.46900
H  15.83700 -1.50700 35.79700
H  15.95500 0.11600 35.37100
H  20.92400 -6.10900 28.73100
H  19.39300 -6.94300 28.85200
H  19.90000 -5.68700 30.03000
H  21.61000 -6.12800 26.56300
H  21.01700 -6.97700 25.10800
H  20.30300 -7.40400 26.56500
H  15.85800 -2.47600 23.04400
H  16.30800 0.47400 23.42700
H  17.29300 -1.49900 21.47100
H  18.33200 -2.26400 22.63400
H  18.09100 -0.40300 22.61700
H  14.71800 -0.53400 21.91300
H  14.02500 0.61400 23.09200
H  12.55200 -1.00500 24.09700
H  13.82600 -2.22900 23.92200
H  12.77800 -1.86500 22.60400
H  12.29000 2.97800 27.29700
H  13.51300 3.20400 26.10200
H  13.70700 4.00200 27.68400
H  14.26400 1.25800 32.20700
H  16.06200 4.06000 34.63700
H  17.37400 3.85200 33.47300
H  17.21800 2.76500 34.93500

