158

Mg 1.56400 -0.69600 43.79500
C  4.96800 -0.57600 42.95200
C  1.12400 2.02800 41.78100
C  -1.72000 -1.58000 43.65800
C  2.19700 -3.83400 45.32700
N  2.91700 0.56400 42.46700
C  4.24000 0.39700 42.29400
C  4.80000 1.50500 41.39000
C  3.53500 2.36600 41.10900
C  2.46500 1.62200 41.79800
C  3.54000 3.89500 41.35800
C  5.45000 0.87300 40.14800
C  6.80700 1.54000 39.77900
H  6.86100 2.20400 38.43400
N  -0.13500 0.23700 43.05000
C  -0.10000 1.35400 42.23200
C  -1.41400 1.62600 41.86400
C  -2.25400 0.65000 42.44100
C  -1.38400 -0.32200 43.05100
C  -1.73200 2.89900 41.14200
C  -3.81900 0.73000 42.39200
O  -4.43900 1.72600 41.98800
C  -4.68200 -0.29900 42.86900
N  0.42700 -2.45400 44.47000
C  -0.90000 -2.58200 44.22700
C  -1.44700 -3.98000 44.54600
C  -0.13900 -4.72400 45.06900
C  0.89300 -3.59500 44.91500
C  -2.54900 -3.83600 45.57400
C  0.30500 -6.01400 44.28300
C  0.65700 -7.32900 45.11600
N  3.23300 -1.91600 44.24700
C  3.30900 -3.10900 44.93600
C  4.74300 -3.41800 45.12300
C  5.42000 -2.44300 44.38300
C  4.43600 -1.58000 43.80400
C  5.32000 -4.69800 45.79800
C  6.73600 -2.06500 43.89600
O  7.81100 -2.62600 44.01400
C  6.50200 -0.82200 42.98400
C  7.23200 0.17000 43.65500
O  6.89300 0.65700 44.71800
O  8.28600 0.50400 42.83600
C  8.89100 1.81300 43.18900
H  0.92700 2.99600 41.31800
H  -2.71900 -1.99000 43.49500
H  2.34100 -4.76100 45.88600
H  5.45200 2.05100 42.07100
H  3.22900 2.45600 40.06600
H  4.47300 4.45300 41.43800
H  3.14100 4.08600 42.35500
H  2.96800 4.41400 40.58800
H  4.82900 1.00700 39.26200
H  5.64000 -0.18700 40.31700
H  7.54700 0.74100 39.74900
H  7.05200 2.35000 40.46600
H  -1.74800 2.55700 40.10700
H  -0.98600 3.68100 41.28400
H  -2.65900 3.39000 41.43700
H  -5.74100 -0.13000 42.67500
H  -4.49700 -0.40500 43.93800
H  -4.41100 -1.23500 42.38100
H  -1.82100 -4.38300 43.60500
H  -0.31200 -4.89200 46.13200
H  -2.40300 -4.55500 46.38100
H  -3.44700 -4.14600 45.03900
H  -2.62100 -2.78800 45.86300
H  1.18500 -5.90300 43.64900
H  -0.48200 -6.25500 43.56800
H  0.78600 -7.04400 46.16100
H  1.50800 -7.82700 44.65100
H  -0.19700 -7.98200 44.94100
H  5.75100 -4.44700 46.76700
H  6.11600 -5.13200 45.19300
H  4.50200 -5.38600 46.01000
H  6.98200 -1.12600 42.05400
H  8.21000 2.54800 43.61800
H  9.16900 2.18100 42.20200
H  9.85300 1.75900 43.69800
Mg 35.73200 1.44600 30.54200
C  33.37200 2.59800 32.93400
C  38.15400 1.55200 33.00700
C  37.83500 0.71300 28.20200
C  33.03900 1.71600 28.18200
N  35.80400 2.17100 32.68400
C  34.70500 2.50600 33.45400
C  35.14700 2.68400 34.96200
C  36.69300 2.80600 34.78000
C  36.90700 2.06800 33.44200
C  37.24200 4.29200 34.91300
C  34.61800 1.51200 35.85500
C  33.84600 2.01700 37.12000
H  34.33400 3.40400 37.69800
N  37.68500 0.96800 30.66400
C  38.50300 0.98700 31.77600
C  39.71600 0.38800 31.38000
C  39.56100 0.01800 30.03300
C  38.32400 0.57800 29.56100
C  40.82900 0.17700 32.42000
C  40.47600 -0.79500 29.17400
O  40.24800 -0.98000 28.02400
C  41.87400 -1.33300 29.66300
N  35.47800 1.31900 28.49800
C  36.57800 1.10000 27.71900
C  36.27800 1.29300 26.20600
C  34.72600 1.28300 26.17400
C  34.36700 1.45500 27.71200
C  36.92200 2.53200 25.44500
C  34.05000 -0.02400 25.66500
C  32.70800 0.27500 25.01200
N  33.57700 1.94900 30.50300
C  32.68500 2.00300 29.46800
C  31.38000 2.45100 29.93100
C  31.61400 2.62200 31.34300
C  32.95600 2.37900 31.55500
C  30.08300 2.64400 29.23500
C  30.99000 3.00400 32.62700
O  29.80200 3.20900 32.89300
C  32.10000 2.92000 33.76200
C  31.91600 4.25400 34.46600
O  32.34600 5.34400 34.15100
O  31.23200 4.09500 35.61400
C  31.00100 5.29500 36.35200
H  38.89200 1.76500 33.78300
H  38.57100 0.51200 27.42000
H  32.19300 1.77000 27.49400
H  34.73000 3.65400 35.23400
H  37.12100 2.19800 35.57700
H  37.79800 4.57900 34.02100
H  37.95600 4.31900 35.73600
H  36.57900 5.11200 35.18900
H  35.44200 0.92000 36.25200
H  33.96200 0.91900 35.21800
H  33.75900 1.27200 37.91100
H  32.85200 2.14500 36.69100
H  40.79500 -0.80400 32.89500
H  40.79100 1.00700 33.12500
H  41.75200 0.20000 31.84100
H  41.75200 -2.00900 30.51000
H  42.61100 -0.54000 29.78900
H  42.29800 -1.97500 28.89100
H  36.66500 0.47700 25.59600
H  34.26600 2.16600 25.73100
H  36.22400 3.11400 24.84300
H  37.82000 2.16100 24.95100
H  37.29500 3.19600 26.22400
H  34.02100 -0.76200 26.46600
H  34.70400 -0.48100 24.92200
H  32.27100 1.23600 25.28500
H  31.99600 -0.49900 25.29900
H  32.86300 0.07700 23.95200
H  30.31200 2.87700 28.19400
H  29.55900 3.51600 29.62800
H  29.54800 1.69700 29.17500
H  31.92800 2.14900 34.51200
H  30.81000 5.03200 37.39200
H  30.21900 5.96000 35.98500
H  31.94000 5.84900 36.33300

