158

Mg 41.18000 9.57400 29.53400
C  43.16800 10.49200 32.27300
C  39.07100 7.84500 31.70600
C  39.62500 8.30900 26.87900
C  43.86500 10.54700 27.41700
N  41.14800 9.18900 31.70300
C  41.96500 9.83000 32.66400
C  41.41400 9.63900 34.12500
C  40.30400 8.55600 33.87600
C  40.14800 8.47800 32.35300
C  40.65300 7.24700 34.59900
C  40.87600 11.02100 34.69900
C  41.73400 11.72000 35.69400
H  40.90500 12.35600 36.80600
N  39.49500 8.43200 29.35600
C  38.82700 7.75900 30.31000
C  37.70500 7.14900 29.68700
C  37.73800 7.41500 28.30400
C  39.02200 8.08900 28.10200
C  36.65700 6.29300 30.36500
C  36.79300 7.01500 27.17500
O  36.95500 7.28000 25.98800
C  35.55400 6.23500 27.50600
N  41.71600 9.34600 27.46800
C  40.87300 8.83800 26.57200
C  41.37600 8.94800 25.13400
C  42.57500 9.85700 25.30800
C  42.77600 9.91200 26.84100
C  41.74600 7.61900 24.47000
C  42.46900 11.20400 24.63600
C  43.55100 11.55800 23.57500
N  43.09100 10.40000 29.76200
C  44.04700 10.68700 28.79800
C  45.23700 11.15300 29.44000
C  44.88900 11.19900 30.80000
C  43.61500 10.64600 30.93700
C  46.55100 11.56000 28.84300
C  45.45600 11.53900 32.10900
O  46.48100 12.12500 32.37000
C  44.23800 11.16100 33.17900
C  44.73100 10.40200 34.37600
O  44.84800 9.18200 34.41800
O  44.92000 11.29200 35.37600
C  45.28800 10.55700 36.61200
H  38.42300 7.25300 32.35600
H  39.22900 7.83400 25.97900
H  44.56400 10.96800 26.69000
H  42.21600 9.24500 34.74800
H  39.29000 8.81800 34.17900
H  41.59000 7.29600 35.15400
H  40.75500 6.45100 33.86200
H  39.79400 7.02500 35.23200
H  39.81500 10.86800 34.89400
H  40.89100 11.73000 33.87100
H  42.29600 12.51000 35.19700
H  42.51500 11.06500 36.07900
H  35.68500 6.78500 30.32900
H  36.98200 6.17700 31.39900
H  36.63500 5.30000 29.91700
H  35.98100 5.24500 27.66900
H  34.88200 6.14700 26.65200
H  34.92500 6.67500 28.27900
H  40.60600 9.44400 24.54400
H  43.51700 9.43100 24.96300
H  41.12900 7.52200 23.57700
H  41.39300 6.88800 25.19800
H  42.79200 7.50500 24.18400
H  42.41500 11.98200 25.39800
H  41.48900 11.20300 24.15900
H  43.12800 11.36500 22.59000
H  44.40900 10.89200 23.67100
H  43.85600 12.60100 23.65800
H  46.54600 12.64400 28.73000
H  46.84200 11.03700 27.93200
H  47.20800 11.38300 29.69400
H  43.77400 12.06300 33.57800
H  46.10800 11.07900 37.10600
H  45.67700 9.55900 36.41300
H  44.45900 10.48900 37.31600
Mg 6.93400 55.18800 40.33800
C  6.07700 51.78400 40.26200
C  10.19500 54.44900 39.63100
C  7.57800 58.46100 39.65700
C  3.48300 55.96600 40.46400
N  7.94000 53.37200 39.89600
C  7.40300 52.10500 39.91200
C  8.55100 51.07200 39.70300
C  9.78700 51.91300 39.93500
C  9.32500 53.36800 39.90800
C  10.67300 51.59500 41.20000
C  8.48600 50.40100 38.27900
C  8.14400 51.35900 37.08500
H  6.78200 51.10300 36.35000
N  8.61100 56.32000 39.83900
C  9.86000 55.81900 39.55000
C  10.75400 56.84100 39.16400
C  10.01200 58.04900 39.09800
C  8.67100 57.65100 39.60800
C  12.19700 56.60700 38.90900
C  10.63600 59.40100 38.69400
O  11.72300 59.55600 38.13700
C  9.86900 60.77700 38.88200
N  5.70100 56.96100 40.01700
C  6.16400 58.23500 39.85900
C  5.01000 59.21200 39.56000
C  3.80000 58.37300 39.80700
C  4.34400 57.00700 40.06100
C  5.02800 60.49800 40.51600
C  2.85200 58.35900 38.58100
C  1.64300 59.37600 38.56000
N  5.11500 54.15200 40.47300
C  3.77200 54.57300 40.68900
C  2.96600 53.44100 40.93500
C  3.84100 52.24500 40.79500
C  5.13700 52.73700 40.51400
C  1.51900 53.47200 41.37700
C  3.97900 50.85000 40.88400
O  3.13500 49.99100 41.22100
C  5.40400 50.44400 40.64300
C  5.49300 49.40600 39.51900
O  5.15800 49.54500 38.39000
O  5.94300 48.19000 40.09600
C  5.80700 46.98800 39.32500
H  11.20600 54.20200 39.30000
H  7.75000 59.49700 39.35700
H  2.41900 56.20000 40.37900
H  8.33500 50.30100 40.44300
H  10.43200 51.72100 39.07700
H  10.12000 50.87400 41.80200
H  10.88900 52.46900 41.81300
H  11.63900 51.14000 40.98100
H  7.77900 49.58200 38.41300
H  9.42000 49.89800 38.02800
H  8.91400 51.21900 36.32600
H  8.20700 52.40200 37.39400
H  12.33800 56.88800 37.86600
H  12.55500 55.60100 39.12900
H  12.87500 57.28900 39.42200
H  10.53100 61.61700 38.67300
H  9.43400 60.86700 39.87700
H  9.04600 60.87900 38.17500
H  5.09300 59.49600 38.51200
H  3.30700 58.71700 40.71600
H  4.04300 60.67300 40.94600
H  5.36400 61.41500 40.03100
H  5.72200 60.48100 41.35600
H  2.31000 57.41300 38.58800
H  3.40200 58.50400 37.65100
H  1.95700 60.22300 37.95100
H  1.32100 59.78100 39.52000
H  0.89000 58.85800 37.96600
H  1.08600 52.47200 41.40700
H  1.04100 54.20400 40.72700
H  1.58600 53.69900 42.44100
H  5.82300 50.04700 41.56700
H  6.41400 46.84700 38.43100
H  4.73900 46.85100 39.15500
H  6.15200 46.18600 39.97800

