158

Mg 1.52800 -1.71300 42.61700
C  4.80400 -0.87600 42.06500
C  0.55100 1.15100 40.98600
C  -1.75900 -2.78000 42.62600
C  2.50800 -4.93200 43.74000
N  2.62400 -0.15800 41.50300
C  3.92900 0.11700 41.59900
C  4.32000 1.42100 40.95100
C  2.89200 2.18400 40.87900
C  1.95700 0.97600 41.17600
C  2.76200 3.26400 41.98500
C  4.73100 0.98600 39.52400
C  6.11600 1.46400 39.04900
H  6.21300 2.35500 37.85600
N  -0.29600 -0.97900 41.89600
C  -0.50900 0.28700 41.28900
C  -1.89700 0.52100 41.04600
C  -2.57000 -0.69500 41.44000
C  -1.49300 -1.61500 42.02600
C  -2.40600 1.79100 40.38600
C  -4.08600 -0.88000 41.29000
O  -4.76600 0.08500 40.87000
C  -4.77400 -2.12000 41.59000
N  0.53800 -3.54200 43.05600
C  -0.84400 -3.70600 43.07800
C  -1.28700 -5.12500 43.42800
C  0.07300 -5.80500 43.76100
C  1.11400 -4.65000 43.62400
C  -2.40800 -5.36900 44.44500
C  0.39600 -7.02000 42.87000
C  -0.14100 -8.32400 43.42800
N  3.29600 -2.72700 42.91800
C  3.53300 -4.01600 43.37400
C  4.94000 -4.22400 43.42100
C  5.52900 -2.90500 43.03800
C  4.47200 -2.12100 42.64100
C  5.63500 -5.46400 43.90800
C  6.77200 -2.20000 42.77500
O  7.95400 -2.43300 42.95000
C  6.30600 -0.79900 42.20000
C  6.70500 0.37600 43.01500
O  6.05400 0.86500 43.92000
O  7.85900 0.88400 42.55000
C  8.49100 1.89500 43.32200
H  0.37000 2.16600 40.62400
H  -2.82100 -3.02800 42.68000
H  2.76800 -5.91600 44.13500
H  5.12300 1.83200 41.56300
H  2.65400 2.75300 39.98000
H  3.76000 3.55600 42.31100
H  2.35700 2.67600 42.80800
H  2.17200 4.11700 41.65100
H  4.04000 1.53600 38.88600
H  4.69900 -0.08100 39.30400
H  6.62300 0.51100 38.89700
H  6.54700 2.03600 39.87000
H  -2.78600 2.52100 41.10100
H  -3.11800 1.66800 39.57000
H  -1.55100 2.26200 39.90200
H  -5.80200 -1.99900 41.24700
H  -4.82400 -2.13700 42.67900
H  -4.23400 -2.92800 41.09700
H  -1.64400 -5.44800 42.45000
H  0.04500 -6.16700 44.78900
H  -3.34600 -5.61500 43.94700
H  -2.42200 -4.48000 45.07600
H  -2.21300 -6.24900 45.05700
H  1.42600 -7.25000 42.59800
H  -0.11200 -6.93400 41.90900
H  -1.12800 -8.12900 43.84800
H  0.51300 -8.70800 44.21100
H  -0.15400 -9.11400 42.67800
H  5.11500 -6.38700 43.65300
H  5.54200 -5.39300 44.99200
H  6.70900 -5.37600 43.74300
H  6.69800 -0.63600 41.19600
H  9.40000 2.20100 42.80400
H  8.73500 1.52300 44.31600
H  7.99300 2.84200 43.52700
Mg 16.52600 52.82400 26.73100
C  18.45600 51.20300 29.15500
C  14.44200 53.96500 29.13000
C  14.33700 53.84400 24.37600
C  18.50900 51.27800 24.32900
N  16.40900 52.53400 28.88900
C  17.38800 51.92300 29.65800
C  17.15400 52.28700 31.12200
C  15.71800 52.93300 31.10300
C  15.48500 53.14800 29.63400
C  14.56900 52.00900 31.75900
C  18.16200 53.27400 31.70000
C  18.54800 53.23400 33.20200
H  17.58400 52.39700 34.05800
N  14.65500 53.75200 26.75100
C  14.04600 54.21100 27.82000
C  12.91600 55.01400 27.53000
C  12.83400 54.98300 26.09400
C  14.00600 54.21000 25.64400
C  11.93200 55.69400 28.48700
C  11.83200 55.61800 25.14800
O  11.84200 55.46700 23.93700
C  10.79200 56.55800 25.67800
N  16.35200 52.44500 24.69800
C  15.39500 52.99200 23.89700
C  15.67400 52.81900 22.40600
C  17.06400 52.02900 22.34700
C  17.36800 51.96000 23.85300
C  14.49600 52.30800 21.53400
C  18.21500 52.73400 21.47200
C  18.85800 54.00800 22.02100
N  18.27200 51.58200 26.66100
C  18.91400 51.03200 25.60900
C  19.99600 50.27100 26.07900
C  19.87200 50.32900 27.45400
C  18.77900 51.08500 27.80000
C  21.12100 49.60800 25.31500
C  20.50400 49.87400 28.71400
O  21.47900 49.17600 28.95400
C  19.57200 50.42100 29.86700
C  19.12400 49.32900 30.71600
O  18.06600 48.69100 30.65900
O  19.98000 49.23000 31.78300
C  19.71700 48.21200 32.81000
H  13.82500 54.27100 29.97700
H  13.73600 54.26900 23.57000
H  19.28300 50.86000 23.68200
H  17.16200 51.33100 31.64700
H  15.55200 53.82600 31.70500
H  13.87800 52.64700 32.31000
H  15.07200 51.35300 32.47000
H  13.97500 51.46300 31.02600
H  17.79500 54.25400 31.39800
H  19.08600 53.26600 31.12100
H  18.56300 54.20500 33.69700
H  19.51300 52.74700 33.34500
H  12.01600 56.78000 28.53400
H  11.98700 55.36000 29.52300
H  10.89400 55.44000 28.27200
H  9.93400 56.02300 26.08600
H  10.47800 57.12000 24.79800
H  11.21300 57.31300 26.34300
H  15.88100 53.76800 21.91100
H  16.84700 51.03900 21.94600
H  14.60900 51.29500 21.14900
H  14.46500 52.92700 20.63700
H  13.56900 52.52200 22.06600
H  17.90000 53.08000 20.48700
H  18.93400 51.94800 21.24400
H  18.64500 54.04800 23.08900
H  18.48600 54.84900 21.43500
H  19.93500 53.87200 21.93100
H  20.77500 48.66300 24.89500
H  21.90500 49.41600 26.04800
H  21.40100 50.21900 24.45700
H  20.17700 51.08600 30.48200
H  19.16900 48.69800 33.61700
H  20.60300 47.82100 33.31000
H  19.23800 47.31300 32.42000

