158

Mg 40.18300 9.11600 29.15800
C  42.06000 10.49600 31.84600
C  38.32800 7.35400 31.48100
C  38.55000 7.73800 26.64600
C  42.83300 9.82900 27.02500
N  40.10500 9.09500 31.40600
C  40.90200 9.82200 32.31000
C  40.47200 9.59500 33.78300
C  39.34700 8.46100 33.63500
C  39.29900 8.22500 32.07300
C  39.38800 7.19200 34.45200
C  40.14200 10.99100 34.35500
C  39.13300 11.00100 35.53800
H  39.40200 11.89200 36.79000
N  38.55300 7.82600 29.04000
C  37.94100 7.22600 30.09700
C  36.71400 6.46300 29.56600
C  36.69400 6.75300 28.22500
C  37.95900 7.47100 27.88500
C  35.78900 5.63200 30.39900
C  35.64400 6.29000 27.15900
O  35.74000 6.60000 25.97500
C  34.47000 5.53100 27.54100
N  40.53800 8.96900 27.15600
C  39.72700 8.31200 26.27300
C  40.19700 8.42100 24.83200
C  41.67600 8.86400 24.99200
C  41.71100 9.20500 26.46800
C  40.02500 7.08200 24.06900
C  42.26500 9.98800 23.98600
C  41.71800 11.38200 24.24100
N  42.02500 10.09100 29.33500
C  42.99700 10.25000 28.36000
C  44.09000 10.89600 28.98100
C  43.75300 11.07600 30.29600
C  42.52000 10.49600 30.51000
C  45.42600 11.27000 28.41900
C  44.30300 11.52400 31.51600
O  45.31700 12.21400 31.75800
C  43.19000 11.20600 32.58300
C  43.68600 10.39200 33.67400
O  43.84100 9.20100 33.62400
O  43.97500 11.08900 34.80600
C  44.39400 10.40700 36.02600
H  37.67400 6.84800 32.19400
H  37.91600 7.36300 25.83900
H  43.65100 10.08100 26.34800
H  41.31100 9.22200 34.36900
H  38.33100 8.82900 33.77900
H  38.40400 7.05600 34.90100
H  40.16200 7.25700 35.21700
H  39.60400 6.36400 33.77800
H  39.71400 11.62600 33.57900
H  41.11100 11.43500 34.58500
H  38.88600 10.01200 35.92500
H  38.23800 11.42200 35.08000
H  36.16400 5.51600 31.41600
H  35.67100 4.67000 29.89900
H  34.81400 6.11900 30.43800
H  33.93900 5.23700 26.63500
H  33.93500 6.01100 28.36000
H  34.83700 4.58200 27.93200
H  39.69000 9.29100 24.41400
H  42.32700 7.99000 24.96100
H  40.94400 6.82200 23.54300
H  39.25800 7.12400 23.29500
H  39.79500 6.26400 24.75100
H  42.02200 9.80200 22.94000
H  43.35000 9.91900 24.06300
H  40.89800 11.40200 24.95900
H  41.40100 11.80000 23.28500
H  42.60000 11.97400 24.48600
H  45.38300 10.99100 27.36600
H  46.19900 10.75100 28.98500
H  45.45100 12.35300 28.53600
H  42.86000 12.14900 33.01900
H  43.69700 10.75100 36.79000
H  45.41300 10.72900 36.24200
H  44.33200 9.32800 36.17200
Mg -11.36700 15.93500 42.86500
C  -7.96000 16.63700 42.67700
C  -12.06400 19.33400 42.56500
C  -14.52800 15.17900 42.14700
C  -10.50700 12.49500 42.72400
N  -10.12700 17.73300 42.77300
C  -8.76500 17.81600 42.70800
C  -8.31700 19.27400 42.54200
C  -9.60100 19.97800 43.08900
C  -10.73000 18.95600 42.73200
C  -9.63700 20.26200 44.62200
C  -7.81500 19.69500 41.07300
C  -6.31800 20.13400 40.96400
H  -5.48700 19.51200 39.90300
N  -13.07600 17.10500 42.42400
C  -13.14600 18.50400 42.32200
C  -14.48200 18.90700 41.91500
C  -15.25800 17.65400 41.73000
C  -14.35600 16.58900 42.17800
C  -14.99200 20.26500 41.76400
C  -16.67700 17.68000 41.32800
O  -17.24400 18.74900 41.02900
C  -17.56900 16.45000 41.32100
N  -12.29100 14.07500 42.54000
C  -13.65200 14.12600 42.42400
C  -14.26700 12.67200 42.50500
C  -12.99300 11.80100 42.68800
C  -11.85700 12.78800 42.60400
C  -15.27800 12.50700 43.62800
C  -12.79400 10.74000 41.56300
C  -12.80700 9.28100 42.06900
N  -9.63700 14.74100 42.80000
C  -9.41500 13.37100 42.79600
C  -8.00500 13.10000 42.83000
C  -7.46000 14.35800 42.84500
C  -8.47100 15.31100 42.73900
C  -7.29400 11.83500 42.97500
C  -6.13700 14.98800 42.96700
O  -5.04900 14.47200 42.99300
C  -6.45100 16.54900 42.81200
C  -6.01900 17.13100 44.14600
O  -6.50200 16.93600 45.27900
O  -4.99500 17.91900 43.93700
C  -4.33900 18.51900 45.12600
H  -12.11300 20.42500 42.54800
H  -15.53700 14.82300 41.92700
H  -10.35500 11.41300 42.71800
H  -7.48500 19.40200 43.23300
H  -9.80600 20.90700 42.55700
H  -8.62900 20.05800 44.98300
H  -10.43000 19.74500 45.16300
H  -9.80100 21.33900 44.64900
H  -8.46700 20.49200 40.71800
H  -8.05900 18.86300 40.41200
H  -5.91500 19.81500 41.92600
H  -6.31500 21.22300 40.90800
H  -14.99900 20.56100 40.71500
H  -14.36400 21.03700 42.20900
H  -15.96000 20.41600 42.24000
H  -18.62000 16.73500 41.36000
H  -17.55100 15.90300 42.26400
H  -17.28000 15.78800 40.50400
H  -14.68000 12.36800 41.54400
H  -12.93000 11.34400 43.67600
H  -15.29300 13.45400 44.16900
H  -14.93300 11.71200 44.29000
H  -16.27000 12.47000 43.17900
H  -11.95800 11.02500 40.92500
H  -13.65000 10.73900 40.88700
H  -12.86100 9.10000 43.14300
H  -11.96800 8.67100 41.73500
H  -13.68200 8.74100 41.70400
H  -6.60500 11.97400 43.80800
H  -6.65600 11.71700 42.09900
H  -7.97000 10.98100 43.02000
H  -5.80000 16.88800 42.00600
H  -4.07700 17.81900 45.91900
H  -4.83600 19.39400 45.54400
H  -3.33500 18.68100 44.73500

