158

Mg 2.10500 -1.28000 44.05100
C  5.37200 -0.08600 43.63400
C  0.96300 1.49900 42.25300
C  -0.91800 -2.72200 43.52900
C  3.27200 -4.23700 45.14100
N  3.07200 0.40400 42.90200
C  4.40300 0.81900 43.03700
C  4.66100 2.14400 42.29600
C  3.24800 2.64500 42.01600
C  2.33400 1.43400 42.33100
C  2.90900 3.95900 42.84800
C  5.55100 2.00700 41.09000
C  5.31100 0.81000 40.10100
H  5.77900 0.88500 38.68200
N  0.20100 -0.63600 43.23800
C  -0.04400 0.54200 42.56500
C  -1.47300 0.69100 42.36700
C  -2.05300 -0.56000 42.66300
C  -0.90700 -1.37700 43.14900
C  -2.06000 2.00100 41.82700
C  -3.47000 -0.91200 42.40200
O  -4.21500 -0.00400 42.02500
C  -4.03500 -2.26600 42.56700
N  1.31000 -3.24000 44.25200
C  0.01900 -3.57100 44.09500
C  -0.38800 -4.92900 44.66100
C  0.92900 -5.34100 45.32100
C  1.94600 -4.22800 44.88800
C  -1.64800 -4.84900 45.61200
C  1.33500 -6.73000 44.93100
C  1.67000 -7.67100 46.11400
N  3.87400 -2.01500 44.51800
C  4.29100 -3.23100 45.02500
C  5.66800 -3.28700 45.29100
C  6.13400 -2.12000 44.69600
C  5.05500 -1.32000 44.30300
C  6.47500 -4.38300 45.98200
C  7.36100 -1.35500 44.35300
O  8.49600 -1.65000 44.49800
C  6.82900 0.03100 43.72200
C  7.23400 0.99300 44.67800
O  7.23800 0.88300 45.90600
O  7.36300 2.15900 43.95800
C  7.39800 3.46800 44.70700
H  0.62900 2.47800 41.90200
H  -1.86900 -3.21600 43.31800
H  3.61500 -5.17000 45.59300
H  5.10100 2.77100 43.07100
H  3.11800 2.95200 40.97800
H  3.79200 4.51600 43.16300
H  2.39000 3.74500 43.78200
H  2.21700 4.56200 42.26000
H  6.58500 2.01000 41.43500
H  5.27600 2.91500 40.55400
H  4.24500 0.61600 40.22000
H  5.92100 -0.03500 40.41700
H  -2.19400 1.98500 40.74500
H  -1.37000 2.84400 41.81000
H  -3.06200 2.23100 42.19100
H  -5.12000 -2.18800 42.50400
H  -3.77600 -2.51300 43.59600
H  -3.58400 -2.92800 41.82800
H  -0.48300 -5.62500 43.82800
H  0.97000 -5.35400 46.41000
H  -2.36600 -4.12200 45.23300
H  -1.33300 -4.49600 46.59400
H  -2.19800 -5.78600 45.71000
H  2.26200 -6.61500 44.36800
H  0.57500 -7.19300 44.30200
H  2.74900 -7.79100 46.22100
H  1.14000 -8.59300 45.87800
H  1.29100 -7.31100 47.07000
H  7.28800 -3.90400 46.52700
H  6.93000 -5.08000 45.27800
H  5.82000 -4.94600 46.64800
H  7.38700 0.16400 42.79500
H  7.97600 3.39200 45.62700
H  6.41600 3.91400 44.86900
H  7.90500 4.08200 43.96200
Mg 47.05000 16.82400 27.59000
C  45.21300 16.75000 30.56600
C  49.51500 18.37300 29.50400
C  48.87700 17.07800 24.85800
C  44.31300 15.90100 25.84800
N  47.19800 17.74900 29.80600
C  46.37800 17.48100 30.77300
C  46.93800 17.87600 32.09800
C  48.20600 18.69300 31.67400
C  48.33300 18.20200 30.21800
C  47.97500 20.25600 31.80600
C  47.23700 16.66600 33.09100
C  47.29000 16.91200 34.60300
H  47.00500 18.33000 35.02700
N  48.94600 17.48000 27.29900
C  49.81200 18.00800 28.15400
C  51.12100 18.13900 27.56800
C  50.93800 17.70200 26.23200
C  49.50500 17.36300 26.06400
C  52.30000 18.82300 28.25600
C  51.96400 17.58600 25.20000
O  51.76900 17.03100 24.13900
C  53.30000 18.30400 25.38100
N  46.61900 16.62500 25.59500
C  47.53600 16.83300 24.61900
C  46.87000 16.66400 23.12800
C  45.46200 16.05500 23.50800
C  45.48000 16.15200 25.09900
C  46.82700 17.94600 22.31700
C  45.20300 14.54600 23.03800
C  45.34300 13.40500 24.10900
N  45.16900 16.40800 28.07800
C  44.13500 15.93400 27.25600
C  42.97900 15.54800 28.04000
C  43.35000 15.89300 29.33800
C  44.67700 16.41100 29.26700
C  41.74200 14.95700 27.46900
C  42.90300 15.82600 30.69100
O  41.87100 15.41100 31.25200
C  44.11400 16.22200 31.49100
C  43.74000 17.26200 32.52200
O  43.48500 18.44700 32.29700
O  43.69000 16.72900 33.77900
C  43.07300 17.55600 34.84600
H  50.26100 18.76800 30.19800
H  49.53700 16.87000 24.01400
H  43.42000 15.58100 25.30800
H  46.25200 18.53500 32.62900
H  49.14100 18.49700 32.19800
H  48.70900 20.77000 32.42500
H  47.01400 20.43800 32.28800
H  48.05600 20.75100 30.83900
H  48.21900 16.37400 32.72100
H  46.66100 15.75900 32.90300
H  48.29700 16.76800 34.99400
H  46.64900 16.18800 35.10700
H  53.23600 18.28200 28.11500
H  52.19000 18.88500 29.33800
H  52.30500 19.82600 27.83000
H  53.14400 19.34400 25.66800
H  53.77400 18.39200 24.40400
H  53.82500 17.77500 26.17700
H  47.61800 16.01800 22.66900
H  44.65100 16.70400 23.18000
H  47.68000 18.59800 22.50000
H  45.87400 18.46500 22.42100
H  46.94200 17.55700 21.30500
H  45.87200 14.26400 22.22400
H  44.24200 14.53600 22.52300
H  44.37300 13.12700 24.52000
H  46.03300 13.71500 24.89400
H  45.78600 12.57700 23.55500
H  41.77900 13.90400 27.18900
H  41.48500 15.48400 26.55000
H  40.94400 15.12700 28.19200
H  44.62100 15.36600 31.93700
H  43.17500 18.62300 34.65100
H  43.52400 17.45600 35.83300
H  42.04800 17.20700 34.97300

