158

Mg 24.99500 1.30300 30.37400
C  27.29800 1.31100 33.08100
C  22.37400 1.58500 32.67200
C  22.88000 1.06200 27.95000
C  27.71900 0.78800 28.26600
N  24.90300 1.34600 32.62200
C  25.98700 1.40000 33.51500
C  25.48000 1.73500 34.91300
C  23.96000 1.54100 34.74100
C  23.70700 1.50600 33.22800
C  23.28300 0.46800 35.58200
C  25.89400 3.16800 35.35500
C  26.62800 3.19200 36.76900
H  26.03600 4.13300 37.77800
N  22.86000 1.20200 30.31900
C  22.00200 1.34400 31.33900
C  20.65200 1.25300 30.79500
C  20.80800 1.15900 29.39500
C  22.22800 1.16000 29.14700
C  19.38600 1.30000 31.60900
C  19.67300 1.05100 28.40000
O  19.85800 0.99400 27.16700
C  18.27600 0.74400 28.78800
N  25.29500 0.92300 28.40500
C  24.22100 0.99000 27.53800
C  24.59000 0.87200 26.05000
C  26.16900 0.88600 26.12800
C  26.42700 0.79500 27.69400
C  23.85700 -0.31000 25.31800
C  26.82700 2.19200 25.37000
C  26.77600 3.54800 26.13500
N  27.12200 1.03500 30.55400
C  28.05900 0.86500 29.61200
C  29.33000 0.66700 30.26500
C  29.10000 0.95100 31.63500
C  27.75300 1.09300 31.74200
C  30.66900 0.30300 29.48700
C  29.70300 1.13300 32.94500
O  30.85900 1.05100 33.24000
C  28.54500 1.36900 33.88900
C  28.68800 0.36600 34.96700
O  28.54700 -0.82700 34.77600
O  29.20700 0.81200 36.13000
C  29.34100 -0.13900 37.29300
H  21.55700 1.79200 33.36700
H  22.19700 0.95800 27.10500
H  28.43100 0.61800 27.45700
H  25.87100 0.95900 35.57200
H  23.47200 2.46900 35.04100
H  22.66800 -0.15900 34.93700
H  22.47700 0.85500 36.20600
H  23.99400 -0.15000 36.13100
H  25.06000 3.86700 35.41700
H  26.54300 3.59600 34.59100
H  27.70000 3.37300 36.69400
H  26.46300 2.17700 37.13000
H  19.70600 1.60700 32.60500
H  18.93200 0.30900 31.59600
H  18.60700 2.00300 31.31400
H  17.77600 1.54100 29.33900
H  18.52300 -0.18100 29.30800
H  17.64100 0.39900 27.97200
H  24.27800 1.71200 25.43100
H  26.61600 -0.00900 25.69700
H  24.56500 -0.82500 24.66900
H  23.14500 0.08600 24.59300
H  23.43000 -0.99500 26.05000
H  26.46700 2.32300 24.34900
H  27.91300 2.10700 25.39900
H  26.52100 3.39500 27.18300
H  26.19300 4.30100 25.60500
H  27.73200 4.04100 26.31100
H  31.21600 1.23800 29.60500
H  30.45600 -0.02500 28.47000
H  31.21800 -0.38700 30.12800
H  28.65600 2.32900 34.39400
H  28.51600 -0.11600 38.00500
H  30.27300 0.11800 37.79800
H  29.43300 -1.16500 36.93600
Mg 40.14100 10.00300 29.55500
C  42.16300 11.20800 32.01100
C  38.08800 8.63000 31.81700
C  38.29800 8.60600 26.94700
C  42.51800 11.01300 27.12000
N  40.15100 9.89600 31.69800
C  41.02500 10.60100 32.54000
C  40.54400 10.45400 33.98600
C  39.29900 9.49500 33.92200
C  39.22300 9.28700 32.38400
C  39.48900 8.22500 34.74500
C  40.23900 11.85900 34.46400
C  39.65100 12.10700 35.93400
H  40.31600 13.10300 36.93900
N  38.50300 8.75800 29.45000
C  37.71600 8.33400 30.49700
C  36.56800 7.59700 30.02600
C  36.56600 7.69800 28.65000
C  37.86700 8.38500 28.30900
C  35.65800 6.84600 30.99000
C  35.53900 7.19100 27.69100
O  35.62800 7.34800 26.50300
C  34.39700 6.51100 28.31000
N  40.36200 9.75800 27.38600
C  39.48700 9.16500 26.53600
C  39.88800 9.18100 25.10100
C  41.25600 9.99800 25.10800
C  41.39900 10.26700 26.66800
C  39.93700 7.76800 24.45000
C  41.13900 11.25900 24.14200
C  40.67500 12.60400 24.81000
N  41.95300 10.94700 29.51900
C  42.78800 11.35100 28.46100
C  43.89300 12.04600 29.00500
C  43.66800 12.03100 30.40800
C  42.48600 11.31800 30.61100
C  45.10100 12.42700 28.31900
C  44.22200 12.52200 31.63900
O  45.17300 13.29200 31.86300
C  43.07900 12.12200 32.75400
C  43.73500 11.48000 33.86800
O  44.26500 10.37900 33.83100
O  43.68400 12.28100 35.04600
C  44.16000 11.72600 36.33700
H  37.52200 8.32000 32.69800
H  37.72600 8.14300 26.14000
H  43.19500 11.28200 26.30700
H  41.30300 10.09200 34.68000
H  38.41500 10.08800 34.15500
H  38.67600 8.05200 35.45000
H  40.43800 8.23900 35.28000
H  39.59800 7.35600 34.09600
H  39.69400 12.27300 33.61600
H  41.15300 12.45200 34.51500
H  39.58100 11.14300 36.43900
H  38.56900 12.20500 35.84500
H  36.24600 6.79200 31.90700
H  35.41500 5.82900 30.68200
H  34.82500 7.51800 31.19700
H  34.76300 5.55000 28.67300
H  33.70400 6.28900 27.49800
H  33.95100 7.09600 29.11400
H  39.06100 9.68400 24.60100
H  42.07700 9.39500 24.72000
H  39.09900 7.55000 23.78900
H  40.08300 6.93600 25.13900
H  40.69400 7.65100 23.67500
H  40.43200 10.96900 23.36500
H  42.12700 11.49800 23.74800
H  40.28500 12.39800 25.80700
H  39.87500 13.04600 24.21600
H  41.40700 13.41200 24.82000
H  45.55700 11.62200 27.74200
H  45.79700 12.87100 29.03000
H  44.87700 13.23200 27.61900
H  42.71500 13.06600 33.16100
H  45.04400 12.28000 36.64900
H  44.49600 10.69300 36.24900
H  43.36700 11.84200 37.07500

