158

Mg 47.91400 34.41800 26.52400
C  46.15000 33.10400 29.44200
C  48.38400 37.34800 28.34100
C  49.42700 35.70300 23.76400
C  47.21600 31.46800 24.84500
N  47.55200 35.03800 28.67900
C  46.84300 34.34700 29.65500
C  46.88200 35.18200 30.88900
C  47.05700 36.63500 30.40200
C  47.67400 36.37600 29.04600
C  45.78600 37.53500 30.39400
C  47.96100 34.63400 31.90200
C  47.55700 34.64600 33.46500
H  46.51000 35.67400 33.99800
N  48.79500 36.23400 26.12400
C  48.90100 37.31000 27.00200
C  49.48800 38.42200 26.32400
C  49.86200 37.99800 25.03400
C  49.28500 36.61800 24.89200
C  49.75900 39.79800 26.97000
C  50.70600 38.82000 24.03200
O  51.07800 38.22100 23.05900
C  51.31100 40.20700 24.29600
N  48.07600 33.72600 24.39400
C  48.88900 34.44300 23.56900
C  49.31100 33.54300 22.37000
C  48.85200 32.10800 22.87100
C  47.97500 32.43600 24.07000
C  48.76800 34.12700 20.98300
C  49.96600 31.12100 23.25900
C  49.76600 29.73600 22.68400
N  46.80300 32.70100 26.97000
C  46.57100 31.58700 26.12200
C  45.88600 30.61600 26.95900
C  45.62600 31.20800 28.17200
C  46.19300 32.48400 28.16300
C  45.53800 29.17800 26.50700
C  44.94200 30.95900 29.38500
O  44.18800 30.03500 29.66800
C  45.24900 32.19100 30.26800
C  45.99200 31.60300 31.52500
O  47.20000 31.37400 31.65400
O  45.05300 31.45600 32.51400
C  45.45500 30.72600 33.68300
H  48.41400 38.30000 28.87500
H  49.97800 35.97600 22.86200
H  47.19700 30.45300 24.44300
H  45.98100 35.09200 31.49600
H  47.79800 37.18100 30.98700
H  44.91200 37.20400 30.95500
H  45.44700 37.71400 29.37400
H  45.92900 38.48900 30.90100
H  48.85400 35.24600 31.77700
H  48.28200 33.66900 31.51000
H  48.46100 34.91900 34.01000
H  47.23900 33.64400 33.75100
H  50.83600 39.96800 26.96800
H  49.42100 39.80600 28.00600
H  49.24300 40.59900 26.44000
H  50.43500 40.84500 24.41700
H  51.87400 40.52000 23.41700
H  52.05300 40.21900 25.09400
H  50.39600 33.55600 22.27500
H  48.35100 31.75200 21.97100
H  48.30600 33.40700 20.30800
H  49.50000 34.58300 20.31600
H  47.91500 34.80000 21.06400
H  49.95100 30.93900 24.33400
H  50.86900 31.66300 22.97800
H  48.69800 29.54400 22.79500
H  50.39100 29.04700 23.25300
H  50.04800 29.60400 21.64000
H  45.02300 29.25300 25.55000
H  44.76200 28.71200 27.11500
H  46.47000 28.64600 26.31400
H  44.38100 32.76100 30.60100
H  45.76800 29.69800 33.50000
H  44.74000 30.69900 34.50500
H  46.35900 31.20300 34.06100
Mg -9.83300 16.84800 40.96700
C  -6.29900 16.61000 41.07000
C  -9.42900 20.22800 40.21600
C  -13.05800 16.97100 39.94200
C  -10.03800 13.49800 41.40200
N  -8.10500 18.21400 40.53300
C  -6.81500 17.85000 40.65300
C  -5.90600 19.02100 40.28800
C  -6.90600 20.23100 40.53800
C  -8.25700 19.50800 40.50100
C  -6.56200 21.15300 41.83200
C  -5.37500 19.06600 38.81500
C  -3.76700 18.85600 38.62000
H  -3.37300 17.57600 37.98700
N  -11.12900 18.44000 40.23500
C  -10.75600 19.69200 39.97600
C  -11.85500 20.44900 39.55200
C  -12.95800 19.55400 39.53900
C  -12.43400 18.26600 39.93700
C  -11.76300 21.95000 39.29500
C  -14.32200 19.92500 38.97200
O  -14.67100 21.06200 38.77300
C  -15.39500 18.90100 38.73000
N  -11.26800 15.31400 40.27500
C  -12.51900 15.69200 40.16700
C  -13.52900 14.59200 40.58400
C  -12.51900 13.38500 40.87400
C  -11.23500 14.11700 40.89800
C  -14.44000 14.93300 41.77600
C  -12.37200 12.21600 39.87200
C  -12.92600 10.89800 40.30000
N  -8.50600 15.30000 41.16000
C  -8.71600 13.94000 41.36700
C  -7.46900 13.28400 41.65100
C  -6.50600 14.28100 41.53300
C  -7.16100 15.51000 41.26200
C  -7.35300 11.84000 42.03500
C  -5.07500 14.54100 41.69100
O  -4.22300 13.80200 42.08900
C  -4.91500 16.17300 41.41700
C  -4.54100 16.74000 42.75900
O  -5.25600 17.02100 43.69500
O  -3.18300 16.75600 42.70700
C  -2.54800 17.20500 43.82500
H  -9.14300 21.28100 40.25500
H  -14.14500 17.03600 40.02700
H  -10.13000 12.46300 41.73900
H  -5.04500 19.11900 40.94800
H  -6.92300 20.91100 39.68700
H  -6.64900 22.22900 41.68000
H  -5.55300 20.98100 42.20700
H  -7.31700 20.93100 42.58700
H  -5.50400 20.05000 38.36300
H  -5.90800 18.32600 38.21800
H  -3.25200 18.88400 39.58000
H  -3.28400 19.67500 38.08700
H  -12.11500 22.53100 40.14800
H  -12.36400 22.21000 38.42400
H  -10.70700 22.21500 39.23200
H  -16.26700 19.35200 38.25700
H  -15.71200 18.50700 39.69600
H  -15.03100 18.06300 38.13500
H  -14.12900 14.36900 39.70200
H  -12.57800 13.06400 41.91400
H  -14.22000 14.48400 42.74400
H  -15.43800 14.56300 41.54100
H  -14.40900 16.01700 41.88800
H  -11.33600 11.93600 39.68300
H  -12.86400 12.40100 38.91800
H  -13.01800 10.84700 41.38500
H  -12.17700 10.13100 40.10300
H  -13.83600 10.59000 39.78500
H  -8.35400 11.41200 42.07800
H  -6.72200 11.63300 42.89900
H  -6.91000 11.41500 41.13400
H  -4.31100 16.37500 40.53200
H  -2.96300 16.67700 44.68300
H  -2.83100 18.24700 43.97000
H  -1.46400 17.11800 43.74300

