158

Mg 36.30000 49.33300 25.20400
C  36.56500 47.60600 28.28200
C  34.92900 51.79700 26.72500
C  35.92000 50.66000 22.22000
C  37.43800 46.36600 23.60100
N  35.63000 49.56800 27.29300
C  35.87000 48.85800 28.37700
C  35.60300 49.63500 29.68600
C  34.79600 50.82600 29.05700
C  35.14500 50.78200 27.63900
C  33.24900 50.83100 29.23300
C  36.86600 50.04300 30.54000
C  36.83900 49.84700 32.09900
H  35.54800 49.97400 32.90000
N  35.55200 51.07700 24.53900
C  34.96900 51.98400 25.36800
C  34.48700 53.14000 24.60200
C  35.00900 52.89100 23.27000
C  35.53000 51.45900 23.26000
C  33.81000 54.40800 25.16100
C  34.97700 53.76100 22.07500
O  35.40300 53.35400 20.98800
C  34.52600 55.25300 22.20700
N  36.61000 48.59200 23.12300
C  36.31900 49.33600 22.09000
C  36.55000 48.60100 20.80400
C  37.21800 47.23500 21.21600
C  36.98300 47.36700 22.71600
C  35.36900 48.46400 19.79500
C  38.68500 47.07300 20.93500
C  39.05200 47.23900 19.43500
N  36.84000 47.38500 25.78500
C  37.33100 46.32800 25.02500
C  37.63700 45.15500 25.89300
C  37.35700 45.65000 27.18900
C  36.79400 46.96200 27.05700
C  38.25800 43.81300 25.49100
C  37.35300 45.30300 28.50800
O  37.58300 44.25100 29.06800
C  36.85400 46.52400 29.32300
C  35.67000 46.04900 30.01500
O  34.64100 45.90700 29.42100
O  35.71800 46.17700 31.34600
C  34.48400 46.11300 32.14800
H  34.52400 52.65000 27.27300
H  35.70700 51.14500 21.26500
H  37.81800 45.40800 23.24100
H  34.95000 48.97600 30.25800
H  35.12500 51.74300 29.54700
H  32.98200 50.06100 29.95600
H  32.63700 50.99700 28.34600
H  32.98700 51.73000 29.79200
H  37.22600 51.05800 30.37000
H  37.66400 49.39400 30.17800
H  37.60400 50.52700 32.47500
H  37.20500 48.82500 32.19200
H  33.59900 54.32500 26.22700
H  32.77600 54.57300 24.85600
H  34.47700 55.26400 25.06600
H  34.56200 55.88800 21.32200
H  35.25200 55.69600 22.88900
H  33.52800 55.29500 22.64200
H  37.33500 49.14700 20.28200
H  36.70400 46.37700 20.78300
H  34.58800 49.11200 20.19500
H  35.05400 47.43400 19.96000
H  35.47200 48.77000 18.75400
H  39.13500 46.15300 21.30700
H  39.01900 47.89500 21.56700
H  38.16200 46.95700 18.87200
H  39.88400 46.56900 19.22200
H  39.51300 48.18000 19.13500
H  38.65600 43.84500 24.47700
H  37.52200 43.02400 25.64900
H  39.08400 43.68800 26.19100
H  37.60200 46.78300 30.07200
H  34.20800 45.07200 32.31300
H  33.65800 46.74100 31.81500
H  34.79800 46.48500 33.12400
Mg 27.17500 50.10300 26.52900
C  25.11200 51.12800 29.19400
C  29.37600 49.10300 28.74500
C  29.23400 49.61700 23.93900
C  24.91400 51.69800 24.32500
N  27.25800 50.36600 28.72400
C  26.24000 50.59000 29.58800
C  26.65100 50.13000 30.98900
C  28.10000 49.65900 30.83400
C  28.20600 49.63500 29.32800
C  29.19100 50.63500 31.49300
C  25.73600 49.01000 31.53000
C  25.35500 49.08200 33.06800
H  26.30200 49.52800 34.15100
N  29.07800 49.41100 26.32400
C  29.81800 48.96000 27.36700
C  31.02800 48.29000 26.84700
C  30.99800 48.45900 25.46200
C  29.70400 49.17400 25.17600
C  32.03700 47.70200 27.76600
C  32.07900 48.14800 24.39000
O  31.94600 48.48400 23.21400
C  33.36800 47.55600 24.95600
N  27.10400 50.59800 24.47800
C  28.04700 50.37700 23.61400
C  27.62800 50.55800 22.14500
C  26.07000 50.85300 22.29500
C  25.98000 51.01000 23.83100
C  28.48900 51.71100 21.54700
C  25.15600 49.76300 21.72400
C  23.89700 50.27400 21.03100
N  25.48900 51.31400 26.70600
C  24.63200 51.83000 25.72300
C  23.45800 52.44900 26.29500
C  23.60400 52.14300 27.62800
C  24.80100 51.48200 27.84300
C  22.42300 53.19600 25.55900
C  22.94800 52.11200 28.96600
O  21.86600 52.52300 29.23100
C  23.95800 51.50900 30.03900
C  24.25900 52.56900 31.05500
O  24.97400 53.56800 30.88600
O  23.59500 52.25900 32.18400
C  24.13000 53.01800 33.29500
H  30.11100 48.70300 29.44600
H  29.80600 49.38300 23.03800
H  24.20700 52.14400 23.62200
H  26.60800 50.93600 31.72000
H  28.22300 48.61500 31.11900
H  28.65800 51.47100 31.94500
H  29.81300 50.91700 30.64400
H  29.79700 50.25800 32.31700
H  26.24000 48.04800 31.43400
H  24.73800 49.01100 31.09100
H  24.90100 48.10300 33.22500
H  24.58900 49.85700 33.05200
H  32.31500 46.68500 27.49200
H  31.75000 47.68500 28.81700
H  32.89300 48.37600 27.73600
H  34.09500 47.54600 24.14400
H  33.23400 46.51900 25.26300
H  33.81400 48.07300 25.80500
H  27.79400 49.64500 21.57300
H  25.76000 51.82800 21.91800
H  29.44800 51.87600 22.03800
H  27.92000 52.62800 21.70000
H  28.68000 51.51500 20.49200
H  24.77100 49.08500 22.48600
H  25.66000 49.14000 20.98500
H  23.92100 51.36400 21.00100
H  23.04400 49.88600 21.58700
H  23.76500 49.95700 19.99700
H  21.59200 52.59800 25.18400
H  22.87600 53.78300 24.76100
H  22.03900 53.85500 26.33800
H  23.37600 50.72000 30.51400
H  25.11600 52.61600 33.52500
H  23.49400 52.80000 34.15300
H  24.21700 54.10300 33.35100

