158

Mg 16.55900 -3.15100 27.65000
C  16.01500 -0.84300 30.31200
C  18.34800 -5.08400 29.79800
C  17.79700 -4.97000 24.93400
C  15.05900 -0.87900 25.47500
N  17.27900 -2.85700 29.79100
C  16.77100 -1.95200 30.71300
C  17.40700 -2.20100 32.09800
C  18.25600 -3.51900 31.88700
C  17.88100 -3.89000 30.40400
C  19.80200 -3.38800 32.12600
C  16.34900 -2.39000 33.16600
C  16.79100 -2.16200 34.55700
H  18.12500 -1.49800 34.96100
N  17.71000 -4.96800 27.43600
C  18.36300 -5.57100 28.44900
C  19.00400 -6.78800 27.90500
C  18.93300 -6.73800 26.48700
C  18.09100 -5.55200 26.24900
C  19.70200 -7.84800 28.74000
C  19.43100 -7.71900 25.36500
O  19.18300 -7.52600 24.21700
C  20.29600 -8.99300 25.65500
N  16.60300 -2.84000 25.52500
C  17.18400 -3.74000 24.64900
C  16.86300 -3.35300 23.17400
C  15.88700 -2.03200 23.39200
C  15.80800 -1.90300 24.92900
C  18.16000 -3.06500 22.36100
C  14.49900 -2.11700 22.64100
C  14.08000 -0.94200 21.72500
N  15.61700 -1.28500 27.81200
C  15.01900 -0.50600 26.84300
C  14.52800 0.65400 27.47700
C  14.88600 0.58800 28.82900
C  15.54800 -0.65200 28.99200
C  13.77400 1.64900 26.85300
C  14.74800 1.30700 30.10400
O  14.36000 2.40600 30.44300
C  15.47200 0.35400 31.14300
C  16.52300 1.08200 31.92900
O  17.68300 1.26300 31.58200
O  15.92100 1.44600 33.09900
C  16.78300 2.29400 33.99200
H  18.90600 -5.62500 30.56400
H  18.16500 -5.41700 24.00800
H  14.58900 -0.12400 24.84100
H  18.10500 -1.41900 32.39800
H  17.80700 -4.27400 32.53200
H  20.42100 -3.21900 31.24500
H  20.19200 -4.33900 32.48800
H  20.00700 -2.67600 32.92600
H  15.92200 -3.38900 33.08800
H  15.55800 -1.65900 33.00000
H  16.62800 -3.06300 35.14900
H  16.06700 -1.44200 34.93900
H  19.67500 -7.44500 29.75300
H  20.72000 -8.02100 28.39200
H  19.24000 -8.83300 28.67600
H  19.93200 -9.60600 26.48000
H  21.29800 -8.60000 25.82600
H  20.51500 -9.54900 24.74300
H  16.13200 -4.00300 22.69300
H  16.52000 -1.19300 23.10200
H  19.02200 -3.52900 22.84100
H  18.36500 -2.03300 22.07500
H  18.08500 -3.56000 21.39300
H  13.69900 -2.30100 23.35800
H  14.54800 -2.96300 21.95500
H  13.82700 -1.38700 20.76300
H  14.83800 -0.17500 21.56600
H  13.12900 -0.54600 22.08100
H  12.83400 1.17500 26.57000
H  14.31000 2.15200 26.04800
H  13.52100 2.41000 27.59200
H  14.79400 -0.00600 31.91700
H  16.19500 3.09100 34.44700
H  17.59100 2.80800 33.47100
H  17.20300 1.70000 34.80400
Mg 44.09400 3.54400 46.84100
C  42.16400 6.33100 46.60700
C  41.33200 1.67600 46.12300
C  46.08300 0.84300 46.54100
C  47.00600 5.62000 47.30800
N  42.01100 4.03600 46.36900
C  41.41500 5.20800 46.31600
C  39.90800 5.17800 45.97700
C  39.68900 3.61300 45.92500
C  41.15400 3.05500 46.14200
C  38.68400 3.03900 46.97800
C  39.63000 5.92200 44.61000
C  40.70500 6.06400 43.54900
H  40.24700 6.29700 42.06700
N  43.69100 1.49600 46.61200
C  42.48600 0.93000 46.40400
C  42.68000 -0.51000 46.31800
C  44.10400 -0.73800 46.42900
C  44.70200 0.60900 46.51800
C  41.58500 -1.53700 45.98100
C  44.76500 -2.10100 46.33700
O  44.05600 -3.12600 46.27000
C  46.25000 -2.31000 46.35600
N  46.24400 3.29500 46.86700
C  46.76900 2.01300 46.87100
C  48.38500 2.10000 46.83500
C  48.62300 3.62500 46.95100
C  47.20200 4.21800 47.07400
C  49.06800 1.27600 48.05600
C  49.48200 4.24600 45.78300
C  50.97700 4.43200 46.06600
N  44.55800 5.56800 46.93700
C  45.72400 6.27400 47.32400
C  45.41800 7.69600 47.57300
C  43.99000 7.70500 47.19800
C  43.56300 6.43100 46.89000
C  46.44300 8.64500 47.98000
C  42.90800 8.67600 47.14900
O  42.81500 9.87900 47.41100
C  41.61000 7.78800 46.73700
C  40.61700 8.08700 47.83100
O  40.52300 7.56100 48.94300
O  39.69200 8.98800 47.33700
C  38.63800 9.21700 48.32800
H  40.46500 1.05400 45.89100
H  46.67400 -0.06400 46.40000
H  47.93100 6.19800 47.35300
H  39.29700 5.51700 46.81400
H  39.21400 3.41500 44.96400
H  38.57400 3.72200 47.82000
H  39.02200 2.06300 47.32600
H  37.64500 2.91400 46.67200
H  39.41300 6.94700 44.91000
H  38.64200 5.76000 44.17700
H  41.13300 5.06200 43.58500
H  41.44700 6.78700 43.88700
H  41.57300 -1.71600 44.90500
H  40.60100 -1.08900 46.12100
H  41.70900 -2.43100 46.59200
H  46.82400 -1.98500 45.48900
H  46.35100 -3.39000 46.46600
H  46.71900 -1.92400 47.26100
H  48.72800 1.64200 45.90700
H  49.07400 3.91400 47.90100
H  49.48200 0.34400 47.67100
H  48.27800 1.06500 48.77600
H  49.84400 1.92000 48.47000
H  49.08500 5.23200 45.53800
H  49.41400 3.57000 44.93100
H  51.18400 3.90500 46.99800
H  51.33900 5.45700 46.14000
H  51.55900 4.08400 45.21200
H  46.48600 9.53000 47.34600
H  47.44800 8.23100 47.89800
H  46.26400 8.94900 49.01100
H  41.14400 8.21600 45.85000
H  37.94900 8.39000 48.49800
H  38.03500 10.01700 47.89800
H  39.10000 9.62800 49.22600

