158

Mg -1.19200 18.17200 27.52400
C  -1.76300 15.80300 30.05800
C  -1.60900 20.68500 30.02600
C  -1.42900 20.46700 25.13400
C  -1.32000 15.61500 25.11900
N  -1.64500 18.22700 29.81000
C  -1.72900 17.10500 30.58200
C  -1.81500 17.54200 32.06600
C  -2.05200 19.08900 31.99100
C  -1.67100 19.36500 30.53900
C  -3.45400 19.61800 32.42500
C  -0.58200 17.03900 32.88700
C  -0.29200 17.68400 34.24000
H  0.41100 16.78200 35.33900
N  -1.36600 20.30400 27.61400
C  -1.51300 21.17700 28.67000
C  -1.60800 22.50300 28.18300
C  -1.79900 22.39700 26.76600
C  -1.54600 21.01100 26.44900
C  -1.65900 23.70000 29.07100
C  -2.23400 23.38400 25.72700
O  -2.47100 23.19100 24.53600
C  -2.45000 24.80400 26.20200
N  -1.42700 18.03500 25.50100
C  -1.35900 19.16300 24.73500
C  -1.21500 18.78300 23.28800
C  -0.96800 17.25600 23.31200
C  -1.23200 16.94000 24.74700
C  -2.51700 19.13500 22.46100
C  0.49100 16.83000 22.95300
C  1.70500 17.33400 23.87300
N  -1.35400 16.07400 27.47800
C  -1.54500 15.12800 26.44200
C  -1.67100 13.83700 26.99800
C  -1.81700 14.00400 28.40700
C  -1.68600 15.42100 28.65000
C  -1.81100 12.57800 26.21200
C  -1.99900 13.36800 29.71300
O  -2.21500 12.20100 30.00200
C  -1.79200 14.47900 30.82100
C  -0.62600 14.03100 31.65200
O  0.52000 14.17900 31.26500
O  -1.13100 13.43200 32.79000
C  -0.16100 12.53800 33.53700
H  -1.56400 21.50600 30.74500
H  -1.35700 21.13100 24.26900
H  -1.26300 14.84100 24.35100
H  -2.69100 17.07900 32.51900
H  -1.34000 19.54100 32.68100
H  -3.37400 20.42000 33.15900
H  -4.06400 18.87700 32.94200
H  -4.02400 20.07400 31.61600
H  0.29100 16.99200 32.23700
H  -0.77400 16.02200 33.22800
H  -1.25100 18.07800 34.57600
H  0.20000 18.64400 34.08400
H  -2.67800 24.05600 29.22500
H  -1.15400 24.49700 28.52500
H  -1.25800 23.46500 30.05600
H  -3.01100 25.38200 25.46800
H  -1.47000 25.23000 26.41500
H  -2.99800 24.68600 27.13700
H  -0.32200 19.24400 22.86700
H  -1.65100 16.70500 22.66500
H  -2.22600 19.85200 21.69200
H  -3.22000 19.54800 23.18500
H  -2.97800 18.34800 21.86400
H  0.62800 17.12400 21.91200
H  0.50700 15.75200 23.11300
H  1.40200 17.87000 24.77200
H  2.33700 17.97200 23.25500
H  2.38600 16.58100 24.26900
H  -1.68400 12.46400 25.13600
H  -2.87500 12.35300 26.28500
H  -1.35800 11.69700 26.66800
H  -2.72600 14.52900 31.38100
H  0.38500 11.80400 32.94400
H  -0.74200 11.93500 34.23500
H  0.51800 13.13100 34.14900
Mg 26.30300 49.97300 25.54000
C  24.48800 51.30300 28.25800
C  28.70900 48.78500 27.74700
C  27.93900 48.68200 22.93300
C  24.04800 51.63700 23.38100
N  26.56400 50.02900 27.78000
C  25.65600 50.61800 28.63700
C  26.19500 50.44400 30.01300
C  27.67000 49.95800 29.87600
C  27.66800 49.55500 28.40300
C  28.67900 51.10600 30.09500
C  25.26200 49.46800 30.83200
C  24.63400 50.14000 32.08900
H  25.52900 50.44800 33.35200
N  27.98500 48.78500 25.36700
C  28.76600 48.40900 26.34500
C  29.93500 47.76500 25.69700
C  29.60900 47.51300 24.38000
C  28.41900 48.32300 24.16000
C  31.27800 47.36000 26.40600
C  30.41400 46.76100 23.30000
O  30.04300 46.51200 22.18200
C  31.79800 46.13100 23.62800
N  26.05400 50.25200 23.42800
C  26.87000 49.56500 22.53900
C  26.52600 49.88600 21.09300
C  25.22700 50.77700 21.25500
C  25.08100 50.92700 22.79300
C  27.63500 50.50300 20.27600
C  23.90900 50.18400 20.61300
C  23.24800 48.92200 21.17800
N  24.55200 51.20100 25.74800
C  23.80100 51.83500 24.78300
C  22.67000 52.47600 25.45600
C  22.91800 52.36700 26.81400
C  24.06400 51.56200 26.96700
C  21.56800 53.19100 24.75300
C  22.44200 52.78300 28.11100
O  21.49600 53.45300 28.44700
C  23.48800 52.14900 29.06000
C  24.07400 53.27500 29.90900
O  25.07300 53.89100 29.67200
O  23.31600 53.53700 31.02700
C  23.80700 54.54300 32.03000
H  29.52000 48.34700 28.33300
H  28.44900 48.29600 22.04800
H  23.37400 52.11300 22.66600
H  26.21100 51.38400 30.56500
H  27.92800 49.12900 30.53400
H  29.33500 50.78200 30.90300
H  28.22100 52.02800 30.45400
H  29.23200 51.29400 29.17500
H  25.91000 48.68000 31.21500
H  24.54000 48.87300 30.27300
H  23.79500 49.53700 32.43700
H  24.12800 51.03400 31.72300
H  31.35700 47.93900 27.32700
H  32.17100 47.48900 25.79500
H  31.44700 46.31600 26.67000
H  31.99100 45.47200 22.78200
H  31.73900 45.49600 24.51200
H  32.65700 46.79800 23.69800
H  25.98000 49.05500 20.64800
H  25.45800 51.78800 20.92000
H  28.60300 50.43100 20.77200
H  27.34900 51.52600 20.03300
H  27.68700 50.08200 19.27200
H  24.22900 50.03800 19.58200
H  23.25300 51.05200 20.55300
H  23.91500 48.35400 21.82600
H  22.99300 48.28700 20.33000
H  22.29500 49.15300 21.65300
H  21.17800 52.61200 23.91600
H  21.80400 54.16800 24.33100
H  20.76300 53.32500 25.47500
H  22.89600 51.57300 29.77200
H  23.02500 54.83300 32.73200
H  24.12600 55.44300 31.50300
H  24.53600 54.08200 32.69600

