158

Mg 55.40300 24.04100 45.06300
C  53.03300 26.57700 44.21900
C  53.09000 21.76500 43.89100
C  57.87900 21.78100 44.95600
C  57.77200 26.59600 45.79000
N  53.34400 24.14300 43.99900
C  52.55700 25.29800 43.88900
C  51.13900 24.88300 43.44200
C  51.07900 23.37200 43.82500
C  52.56700 23.03000 43.84600
C  50.35400 22.88500 45.03600
C  50.94100 25.21200 41.92800
C  49.55100 25.57800 41.45600
H  49.19400 25.46400 39.93900
N  55.44400 22.07700 44.49400
C  54.36600 21.32300 44.11400
C  54.86300 19.94600 43.89300
C  56.25700 19.89300 44.12900
C  56.59900 21.28700 44.54500
C  53.83800 18.87300 43.41100
C  57.12600 18.68900 43.93400
O  56.63600 17.61300 43.57100
C  58.61300 18.74500 44.19800
N  57.58900 24.17900 45.31900
C  58.32600 23.04000 45.39200
C  59.78200 23.45800 45.76500
C  59.75900 25.01700 45.95600
C  58.25200 25.30100 45.71600
C  60.34700 22.74400 47.00800
C  60.75900 25.70400 44.89500
C  61.50900 26.95500 45.48600
N  55.41300 26.13500 45.11500
C  56.42700 26.97400 45.53600
C  55.83200 28.34300 45.55400
C  54.52600 28.20600 45.02800
C  54.31800 26.82900 44.80800
C  56.57100 29.54900 45.96700
C  53.28500 28.86900 44.81100
O  52.92100 30.04700 44.91300
C  52.40000 27.93200 44.03600
C  52.32200 28.37300 42.59900
O  53.16800 28.28200 41.73600
O  51.03300 28.94300 42.44800
C  50.76400 29.26800 41.06100
H  52.31700 21.01400 43.71300
H  58.71600 21.08600 45.04600
H  58.52000 27.34600 46.05400
H  50.33900 25.40200 43.96900
H  50.56900 22.92300 42.97300
H  49.83900 23.72800 45.49600
H  51.08600 22.46400 45.72500
H  49.67800 22.10300 44.69000
H  51.12000 24.27900 41.39400
H  51.57600 26.06400 41.68400
H  49.37900 26.63000 41.68200
H  48.73400 25.06100 41.95900
H  53.75900 18.64100 42.34900
H  52.82000 19.03600 43.76600
H  54.14600 17.92900 43.86100
H  59.14600 19.52000 43.64700
H  59.14400 17.85900 43.85100
H  58.73300 18.74800 45.28100
H  60.33200 23.16600 44.87100
H  59.89200 25.23700 47.01500
H  61.09900 21.97200 46.85000
H  59.53400 22.27300 47.56100
H  60.76100 23.49800 47.67800
H  60.11400 26.06300 44.09300
H  61.51100 25.04300 44.46400
H  62.47700 27.08700 45.00100
H  61.58800 26.85600 46.56800
H  60.85600 27.81000 45.30900
H  57.43800 29.89000 45.40200
H  56.83600 29.20100 46.96500
H  55.80600 30.32500 46.02600
H  51.41800 27.91100 44.50800
H  51.54300 29.92500 40.67400
H  49.76300 29.69900 41.03600
H  50.85000 28.33600 40.50200
Mg -10.17400 16.05000 41.45500
C  -6.79800 15.00600 41.44500
C  -9.16400 19.05500 40.21300
C  -13.36300 16.77000 40.80300
C  -11.01700 12.71300 42.08400
N  -8.21700 16.91500 40.87400
C  -7.03000 16.29600 40.98500
C  -5.86600 17.21300 40.45000
C  -6.57400 18.69400 40.60000
C  -8.08000 18.23200 40.55900
C  -6.16200 19.48800 41.87000
C  -5.57100 16.91200 38.97300
C  -4.10400 16.48400 38.61200
H  -3.90800 15.22500 37.74900
N  -11.11100 17.68600 40.52000
C  -10.56200 18.84000 40.21000
C  -11.49700 19.80700 39.71900
C  -12.78000 19.23400 39.94000
C  -12.46700 17.83200 40.36600
C  -11.24100 21.14000 39.17400
C  -14.15400 19.86200 39.66600
O  -14.27900 20.91000 39.05100
C  -15.41700 19.11400 39.98800
N  -11.84000 14.83000 41.30200
C  -13.06800 15.48700 41.26200
C  -14.21800 14.44100 41.48500
C  -13.48000 13.12100 41.57800
C  -12.02400 13.58800 41.67700
C  -15.08600 14.77600 42.73100
C  -13.61700 12.14800 40.38500
C  -14.17000 10.72900 40.71500
N  -9.15800 14.23200 42.01500
C  -9.63300 12.96600 42.18200
C  -8.61200 12.02800 42.52400
C  -7.45600 12.75500 42.16100
C  -7.81700 14.06800 41.82200
C  -8.66200 10.61300 42.99800
C  -5.94400 12.70600 41.94900
O  -5.19600 11.75900 42.12000
C  -5.57700 14.16600 41.46200
C  -4.47000 14.63800 42.26300
O  -3.41800 15.00100 41.78900
O  -4.66000 14.41800 43.64100
C  -3.39400 14.56300 44.43300
H  -8.89900 20.10900 40.10700
H  -14.45300 16.80400 40.86400
H  -11.25200 11.68700 42.37300
H  -4.94400 17.07800 41.01500
H  -6.36100 19.21800 39.66900
H  -7.04600 19.35000 42.49300
H  -6.11500 20.56700 41.72000
H  -5.26500 19.21000 42.42400
H  -5.74700 17.80200 38.36900
H  -6.29600 16.16000 38.66000
H  -3.50100 16.21400 39.47900
H  -3.66700 17.34000 38.09800
H  -10.99100 21.08800 38.11400
H  -10.41900 21.60100 39.72200
H  -12.06300 21.83800 39.32900
H  -15.39300 18.30600 39.25600
H  -16.23400 19.74000 39.63100
H  -15.41000 18.70500 40.99800
H  -14.79700 14.54100 40.56700
H  -13.63500 12.61400 42.53000
H  -16.12800 14.85300 42.41700
H  -14.80700 15.66100 43.30300
H  -15.15000 13.92000 43.40200
H  -12.74800 12.22000 39.73200
H  -14.37300 12.56800 39.72200
H  -15.15800 10.59400 40.27600
H  -14.35400 10.48800 41.76200
H  -13.52900 9.97700 40.25300
H  -8.77400 10.60200 44.08200
H  -7.79700 10.00700 42.72800
H  -9.54300 10.13600 42.56900
H  -5.22100 14.02100 40.44200
H  -2.57600 14.05100 43.92500
H  -3.54000 14.06100 45.39000
H  -3.16300 15.57400 44.76700

