158

Mg 54.67400 22.91600 45.10100
C  52.40500 25.15000 43.73700
C  52.50300 20.31600 44.04900
C  57.10800 20.69200 45.57800
C  56.78800 25.62100 45.83100
N  52.74700 22.85800 44.06700
C  51.98700 23.83600 43.59100
C  50.65000 23.36000 43.00100
C  50.52000 21.87100 43.57500
C  52.04200 21.66900 43.95900
C  49.53700 21.67200 44.78300
C  50.47000 23.47200 41.47800
C  49.08700 23.88400 40.96600
H  48.59000 23.21100 39.66600
N  54.82200 20.75200 44.84200
C  53.84800 19.92000 44.34600
C  54.34600 18.55900 44.41600
C  55.73300 18.63100 44.91800
C  55.97000 20.08700 45.13900
C  53.59500 17.40400 43.82100
C  56.59800 17.45200 45.08900
O  56.23200 16.32300 44.76400
C  58.05900 17.61900 45.42700
N  56.79200 23.15000 45.36800
C  57.51600 22.05300 45.74100
C  58.80400 22.50700 46.46900
C  58.60500 24.08800 46.70100
C  57.36600 24.34200 45.77700
C  59.25400 21.76000 47.78800
C  59.83900 24.99600 46.30300
C  60.48200 25.80800 47.45700
N  54.59800 25.05500 45.01400
C  55.51400 26.05700 45.29300
C  54.85300 27.25200 45.23200
C  53.64500 26.94100 44.60400
C  53.59400 25.59800 44.41500
C  55.25600 28.62800 45.62500
C  52.44000 27.54900 44.10100
O  52.03100 28.72000 43.97500
C  51.63100 26.41800 43.50300
C  51.56400 26.73600 42.08100
O  52.50600 26.68400 41.33900
O  50.34700 27.22100 41.75500
C  50.24500 27.53300 40.29800
H  51.78400 19.49500 44.06700
H  57.97100 20.05900 45.79400
H  57.32900 26.52200 46.12800
H  49.82900 23.92600 43.44100
H  50.22200 21.11000 42.85300
H  49.94800 21.04000 45.57100
H  48.60500 21.17000 44.52200
H  49.35700 22.65100 45.22700
H  50.66800 22.52700 40.97200
H  51.19200 24.21200 41.13500
H  48.90800 24.92300 40.68700
H  48.38300 23.68000 41.77200
H  52.78500 17.70900 43.15800
H  53.26500 16.67600 44.56300
H  54.32400 16.95400 43.14700
H  58.60700 18.19900 44.68400
H  58.52900 16.64100 45.32800
H  58.25100 17.90900 46.46000
H  59.67500 22.38800 45.82500
H  58.33000 24.31500 47.73100
H  59.40700 22.45000 48.61800
H  60.23000 21.29700 47.64900
H  58.54300 20.97100 48.03300
H  59.66100 25.69900 45.48900
H  60.63300 24.35400 45.92200
H  60.37900 26.86500 47.21300
H  61.52600 25.62100 47.71100
H  59.89900 25.65800 48.36500
H  55.36200 28.72000 46.70600
H  54.51100 29.32800 45.24600
H  56.22900 28.87600 45.20200
H  50.63200 26.43500 43.93700
H  51.02600 28.15600 39.86300
H  49.30300 27.89700 39.88700
H  50.33800 26.58400 39.76900
Mg 16.11400 51.57600 26.29600
C  18.17000 50.65200 29.01300
C  13.71400 52.48600 28.42300
C  14.29200 52.22000 23.56200
C  18.60300 50.18800 24.17000
N  16.04000 51.69200 28.47600
C  16.96700 51.26500 29.38200
C  16.41600 51.45700 30.83200
C  14.96600 51.99600 30.60000
C  14.86900 52.04800 29.07400
C  13.77400 51.12400 31.20600
C  17.27900 52.45000 31.55700
C  17.31700 52.56400 33.05600
H  16.36300 51.75300 33.94200
N  14.24500 52.30900 26.06800
C  13.38000 52.70700 27.07300
C  12.27800 53.31600 26.42700
C  12.47300 53.26800 24.98300
C  13.72100 52.55400 24.81500
C  11.09300 53.86700 27.20300
C  11.49100 53.72300 23.90500
O  11.56000 53.53200 22.73300
C  10.20600 54.35100 24.28600
N  16.35600 51.14300 24.14000
C  15.43000 51.47900 23.21500
C  15.77600 50.85700 21.83400
C  17.28000 50.57000 22.04800
C  17.44100 50.65900 23.57600
C  14.91000 49.62300 21.50500
C  18.15400 51.62700 21.35700
C  19.24200 51.02700 20.38500
N  18.06900 50.63100 26.47100
C  18.92600 50.08900 25.50300
C  19.96500 49.39400 26.13600
C  19.81100 49.60200 27.52600
C  18.58800 50.37600 27.66400
C  21.05900 48.64100 25.48500
C  20.31700 49.39100 28.87100
O  21.24900 48.76300 29.23500
C  19.22100 50.10000 29.92200
C  18.83000 49.01300 30.74600
O  18.22500 47.98700 30.32500
O  19.28300 49.22100 32.02700
C  18.89700 48.15800 32.98400
H  12.86300 52.71500 29.06900
H  13.72400 52.46700 22.66300
H  19.41400 49.93800 23.48300
H  16.49900 50.48100 31.31100
H  14.82300 52.94700 31.11200
H  13.07500 50.58400 30.56700
H  13.11200 51.71100 31.84200
H  14.34400 50.46900 31.86400
H  17.02900 53.41500 31.11600
H  18.26500 52.26700 31.12800
H  17.01700 53.60400 33.18100
H  18.34900 52.47400 33.39500
H  10.29800 53.13300 27.07100
H  10.79000 54.90600 27.07600
H  11.26000 53.80900 28.27900
H  9.66100 54.59900 23.37600
H  10.48200 55.35000 24.62400
H  9.49700 53.76900 24.87500
H  15.61500 51.56100 21.01700
H  17.56500 49.55500 21.77300
H  14.05800 49.49900 22.17300
H  15.37700 48.64900 21.65200
H  14.63700 49.56000 20.45200
H  18.68100 52.22300 22.10100
H  17.63500 52.41400 20.80900
H  19.59000 51.69600 19.59700
H  19.02300 50.06200 19.92800
H  20.09900 50.69700 20.97200
H  21.07500 48.69900 24.39700
H  21.05200 47.58700 25.76300
H  21.99900 49.03700 25.87000
H  19.70700 50.93700 30.42400
H  19.76600 47.51900 33.13600
H  18.11200 47.46100 32.69000
H  18.65800 48.66400 33.92000

