158

Mg 45.49800 4.61400 47.72100
C  43.26900 7.37700 47.32200
C  42.81200 2.53600 47.15000
C  47.72400 1.98700 47.50300
C  48.28600 6.88500 47.59200
N  43.28500 4.97200 47.31600
C  42.59100 6.17900 47.21700
C  41.10900 5.95800 46.72600
C  41.08700 4.39700 46.91300
C  42.53500 3.92700 47.14900
C  40.16600 3.91400 48.12900
C  40.94000 6.48300 45.28200
C  39.89700 7.50600 44.97000
H  39.16900 7.12900 43.69600
N  45.27000 2.54700 47.46300
C  44.09100 1.95500 47.27800
C  44.39200 0.51600 46.93400
C  45.80200 0.27400 47.02300
C  46.33700 1.62900 47.35400
C  43.31500 -0.48400 46.52000
C  46.47500 -1.01300 46.70300
O  45.73900 -2.01500 46.44800
C  48.04200 -1.16900 46.72100
N  47.69800 4.50900 47.22800
C  48.34900 3.27100 47.50300
C  49.82300 3.47500 47.67600
C  49.97500 5.02500 47.70500
C  48.54000 5.50100 47.59800
C  50.38400 2.81200 48.96800
C  50.92700 5.60900 46.70900
C  50.58800 5.30000 45.25400
N  45.78900 6.65600 47.65800
C  46.96700 7.42600 47.51600
C  46.56300 8.82400 47.48300
C  45.18100 8.83400 47.52700
C  44.71200 7.49200 47.47900
C  47.57500 9.94200 47.38300
C  43.98200 9.68400 47.50000
O  43.91800 10.92600 47.46200
C  42.74000 8.77900 47.23100
C  41.74500 9.08000 48.34200
O  41.55300 8.38900 49.38600
O  40.91600 10.05500 47.95300
C  39.68600 10.23200 48.70200
H  41.89900 1.97100 46.95200
H  48.43800 1.18900 47.71400
H  49.18600 7.50400 47.57600
H  40.28000 6.33600 47.32500
H  40.73300 3.85400 46.03700
H  39.61900 3.03600 47.78700
H  39.44900 4.66300 48.46600
H  40.78900 3.70300 48.99900
H  40.67700 5.60000 44.70000
H  41.92400 6.81500 44.95100
H  40.29500 8.49100 44.72700
H  39.20900 7.62900 45.80700
H  42.35700 -0.03800 46.25100
H  43.27100 -1.04400 47.45400
H  43.65500 -1.16800 45.74300
H  48.31400 -1.00400 47.76400
H  48.31500 -0.41500 45.98300
H  48.44300 -2.15000 46.46700
H  50.36100 3.04000 46.83400
H  50.29100 5.40700 48.67600
H  49.49700 2.38600 49.43600
H  50.70300 3.54300 49.71000
H  51.16100 2.04800 48.91900
H  51.86500 5.10000 46.93200
H  51.21200 6.62400 46.98700
H  49.66900 4.73100 45.11700
H  51.38700 4.71700 44.79600
H  50.52800 6.23300 44.69300
H  48.07500 9.81900 46.42200
H  48.36200 9.83400 48.12900
H  46.94900 10.83400 47.40600
H  42.30500 8.98700 46.25400
H  39.79800 10.09600 49.77800
H  38.97800 9.43500 48.47500
H  39.10000 11.12600 48.48800
Mg 36.48300 49.04400 26.07700
C  36.22800 46.95300 28.90600
C  35.63700 51.65300 27.98400
C  36.40200 50.96800 23.11400
C  36.56400 46.10800 24.09000
N  36.05700 49.28100 28.30600
C  36.01100 48.36800 29.26700
C  35.80500 49.03200 30.65700
C  35.44500 50.47300 30.25600
C  35.76500 50.50600 28.76500
C  34.06900 51.05000 30.76300
C  37.00800 48.81400 31.68300
C  36.45400 48.44100 33.09300
H  35.04400 48.68600 33.63700
N  36.14600 51.01500 25.65800
C  35.84700 51.95600 26.62300
C  35.85000 53.25600 26.05400
C  36.01800 53.12800 24.65700
C  36.20900 51.61700 24.39000
C  35.55500 54.41300 26.94900
C  36.18000 54.15600 23.52100
O  36.25300 53.82300 22.35100
C  36.04300 55.60200 23.94400
N  36.29900 48.53700 23.88700
C  36.49400 49.52100 22.95800
C  36.77400 48.93200 21.48800
C  37.12600 47.44300 21.97000
C  36.60500 47.36200 23.41800
C  35.50500 48.92200 20.57300
C  38.64600 47.15900 22.00500
C  39.24500 45.81200 21.40800
N  36.44300 46.94400 26.35800
C  36.45000 45.90300 25.44600
C  36.54900 44.73800 26.21300
C  36.50100 45.10900 27.58500
C  36.45900 46.46700 27.64100
C  36.92800 43.37900 25.58500
C  36.60700 44.63200 28.85900
O  36.86900 43.52500 29.32600
C  36.34200 45.75300 29.81300
C  35.05000 45.47300 30.55500
O  33.87100 45.62900 30.14300
O  35.40800 44.97600 31.77800
C  34.42100 44.60500 32.80000
H  35.36400 52.52200 28.58700
H  36.29200 51.43600 22.13400
H  36.79800 45.22800 23.48700
H  34.95500 48.49800 31.08200
H  36.16800 51.17300 30.67500
H  33.61300 50.22900 31.31600
H  33.54900 51.26500 29.83000
H  34.07100 51.99000 31.31500
H  37.55600 49.74900 31.79300
H  37.66200 48.06400 31.23600
H  37.14500 48.84200 33.83500
H  36.54100 47.37200 33.28800
H  36.22200 55.24200 26.71200
H  35.84400 54.27800 27.99100
H  34.54900 54.79000 26.76800
H  36.05400 56.25600 23.07200
H  36.95000 55.96100 24.43000
H  35.16400 55.82400 24.55000
H  37.60500 49.32700 20.90300
H  36.64000 46.75100 21.28200
H  35.06100 47.95000 20.35800
H  35.92700 49.31900 19.65000
H  34.74500 49.59000 20.97800
H  38.93700 47.30600 23.04600
H  39.11800 47.93700 21.40500
H  39.84900 45.18600 22.06400
H  39.86400 45.93500 20.51900
H  38.33100 45.31900 21.07800
H  36.26600 43.08400 24.77100
H  36.92500 42.62400 26.37200
H  37.91200 43.41900 25.11800
H  37.20900 45.87100 30.46200
H  33.43000 44.57400 32.34700
H  34.51900 45.34800 33.59100
H  34.72500 43.63900 33.20300

