158

Mg 50.21800 45.22800 41.49300
C  46.88000 45.85100 40.34800
C  50.14200 42.31300 39.64300
C  53.46900 45.22700 41.65000
C  50.34800 48.74700 42.24700
N  48.79400 44.30800 40.04700
C  47.45900 44.70900 39.84600
C  46.82900 43.77400 38.76200
C  47.71100 42.50600 38.81200
C  48.99400 43.04100 39.52700
C  47.06500 41.24000 39.42600
C  46.77600 44.41600 37.33500
C  45.40700 44.46100 36.58200
H  45.33600 44.37800 34.99700
N  51.56100 43.81000 40.91100
C  51.37900 42.66200 40.20000
C  52.58300 41.85400 40.27200
C  53.57600 42.56500 41.03900
C  52.86800 44.00300 41.20700
C  52.60500 40.47900 39.64900
C  54.94500 42.09300 41.48100
O  55.33400 40.97200 41.14400
C  55.79400 42.94800 42.31400
N  51.68500 46.77700 41.76200
C  52.99100 46.46300 41.86600
C  53.89400 47.61100 42.27300
C  52.83600 48.71300 42.67600
C  51.53200 48.03900 42.19400
C  54.97300 47.34400 43.33700
C  53.08200 50.01300 41.88600
C  52.64800 50.02800 40.38800
N  48.89000 46.90700 41.63700
C  49.06700 48.24900 41.92100
C  47.81400 48.93900 41.83000
C  46.94200 48.01600 41.29900
C  47.59500 46.82000 41.11100
C  47.50300 50.31300 42.21300
C  45.56000 47.84900 40.89000
O  44.63100 48.62000 40.81900
C  45.45000 46.44200 40.22100
C  44.56000 45.52300 40.94900
O  43.96000 44.60500 40.43200
O  44.30800 45.88900 42.25800
C  42.97500 45.47300 42.78200
H  49.98400 41.35700 39.13900
H  54.54100 45.02500 41.60100
H  50.44600 49.74100 42.68700
H  45.88100 43.41900 39.16700
H  48.00500 42.15600 37.82300
H  47.77500 40.62200 39.97600
H  46.70400 40.67400 38.56700
H  46.25000 41.48800 40.10500
H  47.34100 43.80100 36.63500
H  47.17900 45.42800 37.35500
H  44.96100 45.39900 36.91400
H  44.72500 43.68400 36.92800
H  51.57200 40.16000 39.78400
H  53.33200 39.72900 39.96000
H  52.80000 40.60700 38.58400
H  55.19000 43.49900 43.03500
H  56.41100 43.51500 41.61700
H  56.44500 42.28200 42.88000
H  54.44400 47.91200 41.38200
H  52.81200 48.88300 43.75200
H  55.06000 48.12200 44.09600
H  55.89800 47.38400 42.76200
H  54.90500 46.34300 43.76400
H  54.15600 50.19500 41.92200
H  52.58600 50.85200 42.37400
H  53.45200 50.51400 39.83500
H  51.70200 50.55300 40.26200
H  52.56800 48.99500 40.05000
H  47.39800 50.99900 41.37200
H  48.28000 50.62200 42.91100
H  46.51900 50.38800 42.67600
H  45.15100 46.53000 39.17700
H  43.19200 45.06900 43.77100
H  42.32700 44.77300 42.25400
H  42.50100 46.41600 43.05200
Mg -1.98400 35.82800 27.09600
C  -4.05000 34.03300 29.29600
C  -1.38700 38.09000 29.68200
C  0.05800 37.60300 25.18100
C  -3.33600 34.13100 24.39300
N  -2.63200 36.01900 29.24700
C  -3.36800 35.11100 29.91700
C  -3.37700 35.40000 31.43300
C  -2.70100 36.83000 31.45800
C  -2.20300 37.01600 30.05100
C  -3.63200 37.96800 32.01200
C  -2.81100 34.27400 32.32700
C  -2.10700 34.69400 33.69300
H  -2.43900 33.77800 34.94200
N  -0.82200 37.62000 27.43200
C  -0.63500 38.31400 28.56500
C  0.33500 39.39400 28.37300
C  0.75700 39.25200 27.01500
C  -0.01600 38.14400 26.45300
C  0.80100 40.37600 29.43700
C  1.72000 40.12100 26.20000
O  1.93800 39.91000 25.04900
C  2.68800 41.14000 26.86500
N  -1.80800 35.93800 24.97500
C  -0.76800 36.65300 24.45100
C  -0.63200 36.34600 22.97600
C  -1.49200 35.03600 22.78300
C  -2.30200 35.01800 24.10200
C  -1.03800 37.67600 22.11000
C  -0.70500 33.75200 22.71100
C  -1.39700 32.69300 21.73200
N  -3.45700 34.40300 26.86200
C  -3.91500 33.83700 25.70500
C  -4.91400 32.85400 26.04600
C  -4.98300 32.93700 27.41300
C  -4.07500 33.83200 27.84500
C  -5.53700 31.74800 25.24400
C  -5.58400 32.25900 28.66100
O  -6.27700 31.23200 28.82300
C  -5.05800 33.08800 29.89000
C  -6.22700 33.77200 30.43400
O  -7.03700 34.52500 29.84000
O  -6.40800 33.52600 31.77400
C  -7.51300 34.09300 32.62300
H  -1.29500 38.80600 30.50100
H  0.94100 37.90800 24.61600
H  -3.84000 33.66600 23.54200
H  -4.39700 35.57000 31.77700
H  -1.81200 36.80100 32.08800
H  -3.00100 38.85700 32.02200
H  -3.98500 37.79300 33.02800
H  -4.53000 38.02800 31.39700
H  -2.17500 33.63800 31.71200
H  -3.68300 33.65800 32.54500
H  -2.44800 35.71400 33.87100
H  -1.04400 34.62400 33.46400
H  1.69600 39.98000 29.91800
H  -0.04300 40.60200 30.08900
H  0.93600 41.32600 28.92000
H  3.50200 41.48900 26.22800
H  3.18000 40.78600 27.77100
H  2.18600 42.07400 27.11500
H  0.40600 36.11400 22.73700
H  -2.10900 35.20400 21.90000
H  -1.77000 37.52500 21.31600
H  -0.06700 38.02900 21.76300
H  -1.46600 38.45600 22.73900
H  -0.45700 33.35100 23.69400
H  0.29500 33.97000 22.33600
H  -0.80400 32.46000 20.84800
H  -2.25300 33.15600 21.24000
H  -1.59200 31.72500 22.19400
H  -4.75200 31.41500 24.56500
H  -6.35600 32.17600 24.66600
H  -5.82200 30.96100 25.94200
H  -4.57800 32.44800 30.63100
H  -8.47000 33.67900 32.30700
H  -7.55700 35.18200 32.63800
H  -7.34200 33.90400 33.68200

