158

Mg 26.26800 0.68400 28.89800
C  28.09000 0.61300 31.96100
C  23.46300 1.14300 30.72500
C  24.64500 1.09400 26.00200
C  29.21500 -0.16200 27.24900
N  25.85800 0.71400 31.15000
C  26.78300 0.91200 32.14200
C  26.04000 1.22700 33.46700
C  24.51800 1.38400 33.02500
C  24.62200 1.08900 31.51700
C  23.56200 0.49900 33.84600
C  26.65500 2.57500 34.03700
C  27.32000 2.47500 35.41500
H  26.87500 3.38500 36.50500
N  24.26200 0.97100 28.39800
C  23.20900 1.04400 29.32200
C  21.93700 1.18900 28.60200
C  22.34600 1.38800 27.21000
C  23.83700 1.21200 27.09800
C  20.66000 1.20500 29.31400
C  21.47300 1.68800 25.98500
O  21.94100 1.78300 24.84400
C  19.99200 1.79700 26.13000
N  26.86000 0.46200 26.92400
C  25.99400 0.76600 25.85000
C  26.69300 0.45500 24.44500
C  28.16500 0.11000 24.89100
C  28.12200 0.11200 26.44500
C  25.99300 -0.57900 23.63000
C  29.37200 0.89000 24.23500
C  29.78600 2.17300 24.98500
N  28.24900 0.22600 29.43500
C  29.31700 -0.03200 28.65100
C  30.50300 -0.30000 29.41900
C  30.05000 -0.01100 30.71900
C  28.67400 0.27400 30.71600
C  31.81600 -0.65400 28.84000
C  30.50800 0.25500 32.14000
O  31.62300 0.24500 32.55000
C  29.26000 0.62600 32.97300
C  29.09800 -0.52000 33.99900
O  28.92400 -1.68500 33.72200
O  29.20300 -0.09200 35.30600
C  29.01700 -1.11200 36.38300
H  22.47100 1.24900 31.16800
H  24.14000 1.19800 25.03900
H  30.11000 -0.48500 26.71400
H  26.12600 0.28100 34.00000
H  24.17000 2.40500 33.18000
H  23.32000 -0.43000 33.33100
H  22.64100 1.06400 33.98800
H  23.92600 0.16600 34.81800
H  25.81700 3.26900 34.09800
H  27.30500 2.96700 33.25500
H  28.39000 2.58600 35.24200
H  27.15700 1.45200 35.75300
H  20.38700 2.16900 29.74400
H  20.69000 0.42200 30.07100
H  19.82800 1.00000 28.63900
H  19.65800 2.52000 26.87500
H  19.63300 0.81300 26.43000
H  19.42500 2.07400 25.24200
H  26.65600 1.38900 23.88400
H  28.27900 -0.95600 24.69600
H  26.58200 -1.47600 23.43800
H  25.64400 -0.16500 22.68400
H  25.08600 -0.84100 24.17600
H  29.06400 1.10100 23.21200
H  30.16900 0.17900 24.45300
H  30.08200 2.84200 24.17700
H  30.71400 2.02300 25.53700
H  28.96000 2.52800 25.60200
H  31.82300 -1.47000 28.11700
H  32.44500 -1.05500 29.63500
H  32.29800 0.22900 28.42200
H  29.38500 1.60300 33.43900
H  29.66300 -0.84100 37.21900
H  29.09200 -2.13900 36.02500
H  27.99200 -1.06200 36.75000
Mg 47.36900 25.82800 28.32500
C  48.03000 27.98500 30.91900
C  47.25100 23.17400 30.40400
C  47.54200 23.79400 25.55000
C  48.47800 28.52200 26.07200
N  47.46300 25.65500 30.38800
C  47.68600 26.68300 31.33700
C  47.68200 26.14100 32.75300
C  47.43100 24.59500 32.51900
C  47.34300 24.43300 30.97700
C  48.38300 23.58000 33.31800
C  46.75500 26.85700 33.66300
C  46.08200 26.18600 34.89400
H  45.73100 27.07900 36.09000
N  47.08600 23.82000 28.06200
C  47.14400 22.89200 29.02700
C  47.07000 21.57200 28.40800
C  47.00500 21.80900 27.05600
C  47.29500 23.22300 26.81800
C  46.85800 20.29500 29.20200
C  46.88000 20.76600 25.93000
O  46.99800 21.02400 24.71700
C  46.43600 19.39900 26.22600
N  48.13000 26.06300 26.15200
C  47.94700 25.08700 25.20000
C  47.94800 25.63700 23.67800
C  48.10000 27.20200 23.91900
C  48.24300 27.27000 25.45700
C  49.07700 25.01500 22.76100
C  46.84300 27.95300 23.42600
C  47.17100 29.26300 22.69000
N  48.11200 27.80700 28.42200
C  48.52500 28.77300 27.47500
C  48.91800 30.02500 28.16600
C  48.66800 29.72700 29.50700
C  48.20200 28.40000 29.63200
C  49.42500 31.22900 27.60300
C  48.71300 30.26500 30.80900
O  48.93400 31.37600 31.22800
C  48.21900 29.17100 31.81200
C  49.34200 28.89600 32.75700
O  50.32600 28.23200 32.60200
O  49.03900 29.54400 33.93200
C  49.90800 29.15600 35.07000
H  47.03900 22.41400 31.15800
H  47.56100 23.24700 24.60500
H  48.54800 29.40500 25.43300
H  48.70800 26.19900 33.11700
H  46.42300 24.45600 32.91000
H  49.21100 24.20900 33.64500
H  48.74300 22.74000 32.72300
H  47.92500 23.16100 34.21300
H  45.97000 27.27600 33.03300
H  47.23900 27.75100 34.05600
H  46.78000 25.44300 35.28000
H  45.15600 25.83600 34.43700
H  47.47000 19.51500 28.74900
H  45.80300 20.03500 29.12900
H  47.12200 20.48000 30.24300
H  47.27900 18.98300 26.77600
H  46.32200 18.88000 25.27400
H  45.45000 19.40400 26.69000
H  46.91000 25.47500 23.38700
H  49.06000 27.41600 23.45100
H  49.75200 24.49800 23.44400
H  49.64600 25.76100 22.20600
H  48.65200 24.33100 22.02600
H  46.20900 28.27900 24.25000
H  46.30900 27.37500 22.67100
H  46.51400 29.38900 21.82900
H  48.20900 29.43300 22.40700
H  47.00300 30.13600 23.32100
H  49.57900 31.23000 26.52400
H  50.33000 31.51000 28.14100
H  48.67800 31.97700 27.86800
H  47.29900 29.48800 32.30500
H  49.96800 29.99800 35.76000
H  50.95400 28.92900 34.86400
H  49.49600 28.26900 35.55000

