158

Mg 48.52100 25.39400 27.87200
C  49.20200 27.64800 30.49600
C  47.38200 23.26900 30.20400
C  48.31400 23.17200 25.39100
C  50.04800 27.65800 25.64400
N  48.23900 25.49100 30.09200
C  48.64800 26.43300 30.93800
C  48.47300 26.07700 32.41100
C  47.93400 24.62100 32.34500
C  47.78300 24.41700 30.80200
C  48.79500 23.51400 33.02800
C  47.65800 27.11600 33.24100
C  46.68000 26.73900 34.27200
H  46.46400 27.70500 35.43400
N  47.80300 23.48700 27.83800
C  47.33200 22.79000 28.87800
C  46.98300 21.47500 28.39900
C  47.20000 21.44600 26.96200
C  47.74600 22.74500 26.65100
C  46.41000 20.37500 29.28800
C  46.86600 20.30700 25.91100
O  47.06800 20.50800 24.73600
C  46.26300 18.97600 26.41700
N  49.19200 25.32900 25.81700
C  49.03800 24.30100 24.98500
C  49.49400 24.50400 23.49600
C  49.64900 26.05100 23.60900
C  49.60100 26.42200 25.14000
C  50.83600 23.79800 23.10300
C  48.56100 26.89100 22.81200
C  49.17500 27.68600 21.60500
N  49.38900 27.27700 27.95700
C  49.93200 28.11300 26.99800
C  50.50000 29.29000 27.61900
C  50.15500 29.17000 28.97300
C  49.44500 27.99700 29.10200
C  51.48200 30.29800 26.96400
C  50.29600 29.82000 30.25100
O  50.85000 30.87700 30.57000
C  49.64700 28.85300 31.29200
C  50.64000 28.66400 32.31600
O  51.52600 27.82500 32.25100
O  50.38200 29.37400 33.43600
C  51.20800 29.03900 34.65200
H  47.23300 22.53100 30.99500
H  48.33000 22.45700 24.56600
H  50.31200 28.37600 24.86400
H  49.45700 26.01900 32.87600
H  46.88500 24.54000 32.63100
H  49.44900 24.10100 33.67300
H  49.44300 22.89700 32.40700
H  48.20600 22.91700 33.72500
H  47.02200 27.59900 32.49900
H  48.32100 27.83900 33.71700
H  46.90400 25.76600 34.71000
H  45.68700 26.61100 33.84100
H  47.03400 19.48700 29.18600
H  45.45900 19.99000 28.92000
H  46.23700 20.74000 30.30000
H  46.97900 18.54200 27.11600
H  46.07300 18.49300 25.45800
H  45.31600 19.11600 26.93700
H  48.70900 24.05700 22.88600
H  50.60200 26.31800 23.15300
H  51.24600 23.18400 23.90500
H  51.53800 24.52000 22.68600
H  50.54100 23.10800 22.31300
H  48.05900 27.56200 23.50900
H  47.80500 26.23800 22.37700
H  48.89500 28.72800 21.75900
H  48.93400 27.31000 20.61000
H  50.25800 27.62200 21.70700
H  52.18400 29.76100 26.32600
H  52.05300 30.80700 27.74000
H  51.08800 31.16900 26.44100
H  48.87700 29.50200 31.71000
H  50.75100 28.15000 35.08600
H  51.12700 29.89300 35.32400
H  52.25900 28.88800 34.40600
Mg 49.68300 35.38700 26.68100
C  47.61000 34.16400 29.28400
C  50.06400 38.24600 28.60700
C  51.21700 36.85600 24.06900
C  48.92900 32.56900 24.80100
N  48.92200 36.11000 28.68300
C  48.22000 35.37400 29.57700
C  48.26200 35.99000 30.88200
C  48.67800 37.44600 30.60000
C  49.24000 37.32800 29.15300
C  47.50100 38.49500 30.77900
C  49.28400 35.30500 31.79600
C  49.14600 35.42100 33.29600
H  47.95500 36.19500 33.89800
N  50.53900 37.30300 26.38400
C  50.65400 38.28200 27.30200
C  51.38700 39.37200 26.75100
C  51.88600 38.90100 25.45800
C  51.19800 37.59400 25.25400
C  51.77700 40.48200 27.56500
C  52.76700 39.54600 24.42700
O  53.15100 38.94600 23.41500
C  53.30900 40.98600 24.62700
N  49.85700 34.85900 24.63300
C  50.72600 35.58900 23.78900
C  51.00700 34.73800 22.51400
C  50.42500 33.31300 22.92700
C  49.65200 33.62400 24.17800
C  50.31500 35.39500 21.21400
C  51.45100 32.07700 22.92400
C  50.96700 30.76500 22.19700
N  48.58400 33.70000 27.00300
C  48.32000 32.60000 26.12900
C  47.55500 31.59200 26.73700
C  47.21800 32.14000 27.95900
C  47.84600 33.40900 28.05400
C  47.08900 30.27400 26.17800
C  46.44700 31.86400 29.19200
O  45.80200 30.86200 29.56800
C  46.57800 33.24800 30.01900
C  47.06100 32.82800 31.38200
O  48.08300 32.26300 31.57500
O  46.09300 32.86000 32.36100
C  46.41600 32.23400 33.66600
H  50.22800 39.04700 29.33100
H  51.61000 37.35200 23.17900
H  48.80900 31.67100 24.19200
H  47.24600 35.89400 31.26700
H  49.54400 37.68300 31.21800
H  47.23000 38.86200 29.78900
H  47.74000 39.37400 31.37700
H  46.66500 37.99600 31.26900
H  50.27400 35.69500 31.55900
H  49.33300 34.25100 31.52500
H  50.05600 35.93300 33.60900
H  49.08600 34.43100 33.74600
H  51.62900 40.38400 28.64000
H  51.24100 41.36000 27.20500
H  52.85100 40.56600 27.39400
H  52.59400 41.61500 25.15700
H  53.49700 41.26300 23.58900
H  54.27100 40.99000 25.14000
H  52.07000 34.61500 22.30600
H  49.74900 33.06600 22.10800
H  49.72000 36.24400 21.54900
H  49.68200 34.67300 20.69800
H  51.04600 35.88600 20.57200
H  51.59500 31.81200 23.97100
H  52.36200 32.49000 22.49200
H  49.93100 30.85700 21.87100
H  51.04600 29.92200 22.88300
H  51.55800 30.52400 21.31300
H  47.69600 29.38300 26.33400
H  46.78100 30.46400 25.15000
H  46.18400 30.00300 26.72300
H  45.65100 33.80600 30.15000
H  45.82600 32.57400 34.51700
H  47.46600 32.26800 33.95500
H  46.28600 31.17000 33.46900

