158

Mg 2.75000 -0.77700 44.04300
C  5.88800 0.69700 43.57000
C  1.51600 2.00400 42.16100
C  -0.31400 -2.27800 43.82900
C  4.00000 -3.60700 45.25300
N  3.67100 1.07400 42.85000
C  4.95100 1.50500 42.90100
C  5.19800 2.87000 42.31900
C  3.77900 3.37500 42.04100
C  2.94200 2.07500 42.33800
C  3.38400 4.63000 42.83300
C  6.17200 2.94500 41.11600
C  6.12200 1.81200 40.03500
H  5.97700 2.04900 38.44900
N  0.91900 -0.26900 43.04200
C  0.58900 0.94600 42.45400
C  -0.80400 0.95400 42.09700
C  -1.30800 -0.32400 42.48100
C  -0.18800 -1.05800 43.17600
C  -1.46900 2.05700 41.43000
C  -2.65700 -0.78400 42.12300
O  -3.40800 -0.13100 41.42900
C  -3.20900 -2.14600 42.52300
N  1.94000 -2.77500 44.41600
C  0.65100 -3.13500 44.36600
C  0.35700 -4.42600 45.07500
C  1.78300 -4.90800 45.45700
C  2.60500 -3.69600 45.03000
C  -0.59200 -4.36600 46.28400
C  2.27800 -6.29300 44.95600
C  2.94900 -7.23900 45.87300
N  4.48400 -1.31500 44.50800
C  4.90300 -2.51600 45.01200
C  6.35800 -2.45900 45.22900
C  6.78900 -1.14000 44.70200
C  5.61600 -0.58600 44.17300
C  7.17700 -3.60400 45.93100
C  7.91000 -0.31600 44.44500
O  9.05800 -0.47400 44.72900
C  7.36700 0.97600 43.79600
C  7.43600 2.01000 44.84100
O  6.71200 2.21000 45.74800
O  8.46600 2.83300 44.57000
C  8.84700 3.87000 45.61600
H  1.17500 2.92400 41.68200
H  -1.29700 -2.75300 43.83900
H  4.46100 -4.50300 45.67400
H  5.71000 3.48100 43.06200
H  3.70400 3.63200 40.98500
H  2.55800 4.48500 43.52900
H  3.10800 5.40300 42.11600
H  4.15200 5.02000 43.50100
H  7.09200 2.99800 41.69800
H  6.03000 3.92900 40.66900
H  5.33500 1.09900 40.27900
H  7.07400 1.29100 40.14300
H  -1.54500 1.76700 40.38200
H  -1.00400 3.03900 41.50100
H  -2.39900 2.15000 41.99100
H  -4.22300 -2.17100 42.12400
H  -3.40500 -2.08800 43.59400
H  -2.63600 -2.99300 42.14700
H  -0.01400 -5.19700 44.39900
H  1.90300 -4.80900 46.53500
H  -0.03000 -4.43700 47.21400
H  -1.41000 -5.08600 46.26500
H  -1.11800 -3.41200 46.24900
H  2.90100 -6.19800 44.06700
H  1.37300 -6.74100 44.54500
H  3.89300 -7.60400 45.46700
H  2.30100 -8.10500 46.00500
H  3.15400 -6.75500 46.82800
H  8.07900 -3.21900 46.40800
H  7.47100 -4.36300 45.20600
H  6.67100 -4.10600 46.75600
H  7.86500 1.22200 42.85900
H  8.41700 4.85700 45.44600
H  9.93500 3.88800 45.68100
H  8.44500 3.50800 46.56200
Mg 35.84300 48.01500 25.90300
C  36.03000 46.12200 28.81900
C  34.17600 50.42600 27.60800
C  35.36500 49.59500 22.85800
C  37.38000 45.41900 24.19700
N  35.08700 48.18600 27.91000
C  35.42500 47.36800 28.99400
C  34.98900 48.01800 30.34000
C  34.29600 49.29100 29.96000
C  34.53000 49.28900 28.41100
C  32.76600 49.47400 30.47100
C  36.18300 48.13200 31.31900
C  35.89800 47.87400 32.72800
H  35.92800 49.14600 33.66500
N  34.88500 49.73500 25.29800
C  34.38200 50.69700 26.20500
C  34.09600 51.93100 25.44600
C  34.49600 51.70200 24.09700
C  34.95800 50.28900 23.97900
C  33.49800 53.13300 26.14900
C  34.62300 52.72200 23.00000
O  35.00900 52.47200 21.90400
C  34.37900 54.19000 23.33600
N  36.12300 47.48600 23.77500
C  35.90100 48.29000 22.76400
C  36.50700 47.69500 21.44300
C  37.20600 46.41700 21.87500
C  36.96800 46.48100 23.42400
C  35.57700 47.31200 20.30400
C  38.72800 46.36300 21.48900
C  39.02700 45.79200 20.11000
N  36.59700 46.13200 26.39000
C  37.13200 45.15300 25.57300
C  37.42900 43.94600 26.30300
C  36.99500 44.24900 27.68400
C  36.48100 45.60800 27.61900
C  38.07200 42.67600 25.82800
C  36.94200 43.75200 29.02600
O  37.27500 42.68200 29.50300
C  36.35300 45.01300 29.85400
C  35.19100 44.51000 30.64600
O  34.24800 43.87800 30.11700
O  35.31500 44.75500 32.02300
C  34.16600 44.42100 32.87600
H  33.88700 51.30200 28.19300
H  35.31200 50.09400 21.88800
H  37.95300 44.64600 23.68100
H  34.22500 47.37600 30.77900
H  34.90700 50.08800 30.38200
H  32.78100 50.24200 31.24400
H  32.39100 48.57000 30.95100
H  32.11600 49.83400 29.67300
H  36.63300 49.11500 31.18000
H  37.01200 47.50400 30.99200
H  36.72100 47.23100 33.03800
H  34.93200 47.38500 32.85800
H  33.92100 54.07400 25.79700
H  33.77800 53.25500 27.19500
H  32.41600 53.14500 26.01900
H  33.32900 54.46100 23.44800
H  34.64400 54.74400 22.43600
H  35.08000 54.59200 24.06700
H  37.12300 48.48700 21.01700
H  36.74100 45.48800 21.54400
H  35.50100 48.05400 19.50900
H  34.61200 46.95500 20.66500
H  36.00700 46.50800 19.70600
H  39.34200 45.75000 22.15000
H  39.09100 47.37800 21.65500
H  38.08600 45.49500 19.64800
H  39.75400 44.98100 20.14100
H  39.53700 46.54100 19.50400
H  39.08800 42.62200 26.22000
H  38.13800 42.60500 24.74200
H  37.46900 41.83200 26.16600
H  37.07600 45.35800 30.59300
H  33.95000 45.22300 33.58100
H  34.38000 43.53700 33.47700
H  33.22600 44.32900 32.33200

