158

Mg 0.70700 7.87600 25.23100
C  1.55900 9.86600 28.17600
C  1.04800 5.07900 27.17700
C  0.00000 6.32000 22.56900
C  0.88000 10.97100 23.41200
N  1.14200 7.51200 27.44000
C  1.54100 8.51200 28.42800
C  1.71400 7.77300 29.82200
C  1.76700 6.24300 29.37200
C  1.36300 6.28500 27.89100
C  3.22900 5.56800 29.60100
C  0.39600 8.07400 30.74000
C  0.65800 8.46900 32.18000
H  1.80000 7.74700 32.88100
N  0.61600 5.99100 24.85300
C  0.70600 4.91600 25.77700
C  0.36000 3.73000 25.08000
C  0.04600 4.01900 23.71600
C  0.15200 5.52200 23.62200
C  0.28400 2.39800 25.92500
C  -0.24500 3.04100 22.57900
O  -0.44700 3.34900 21.44200
C  -0.02900 1.61600 22.84800
N  0.35300 8.56800 23.32400
C  0.06000 7.74200 22.36000
C  -0.37100 8.46800 21.05100
C  -0.19700 9.97700 21.42600
C  0.39600 9.83400 22.78700
C  0.42500 8.05600 19.76100
C  -1.61100 10.74300 21.45300
C  -1.71600 12.08900 20.79500
N  1.07200 10.02100 25.64100
C  1.08800 11.10000 24.77800
C  1.38800 12.32000 25.51500
C  1.52800 11.86900 26.86000
C  1.31700 10.43300 26.88200
C  1.42200 13.61100 24.86900
C  1.81700 12.25000 28.17300
O  2.02000 13.34500 28.62200
C  1.81800 11.01600 29.12000
C  3.16500 10.86600 29.62400
O  4.27200 10.90100 29.07500
O  2.97700 10.93900 30.97200
C  4.17900 11.19700 31.86400
H  0.92900 4.15100 27.73900
H  -0.34600 5.75200 21.70200
H  0.78100 11.87100 22.80200
H  2.68900 7.96300 30.27000
H  1.05000 5.54300 29.80100
H  3.84500 6.21100 30.23000
H  3.74700 5.27400 28.68800
H  3.05100 4.61900 30.10700
H  -0.33600 7.28100 30.58800
H  -0.05400 8.93300 30.24100
H  -0.28400 8.32200 32.70800
H  0.85000 9.53900 32.25700
H  1.04200 1.67600 25.62500
H  -0.63200 1.82400 25.78800
H  0.47400 2.62400 26.97400
H  -0.13300 1.14500 21.87000
H  -0.76200 1.28400 23.58300
H  1.00200 1.34600 23.07700
H  -1.38500 8.29900 20.68600
H  0.48500 10.53600 20.78500
H  1.09400 7.25200 20.06700
H  0.96300 8.90700 19.34400
H  -0.18300 7.66700 18.94500
H  -1.96900 10.87200 22.47500
H  -2.41400 10.13800 21.03200
H  -2.56300 12.13700 20.11100
H  -0.78000 12.13800 20.23900
H  -1.65900 12.97000 21.43400
H  1.17300 14.33200 25.64800
H  0.73600 13.71600 24.02800
H  2.45100 13.79700 24.56300
H  1.03800 11.21100 29.85600
H  4.59500 12.20400 31.83700
H  4.96600 10.47200 31.65700
H  3.85200 10.95200 32.87400
Mg 36.33400 0.94900 29.07300
C  34.20400 1.89400 31.71200
C  39.00300 1.06700 31.22800
C  38.42400 0.83600 26.36800
C  33.66200 1.31400 26.83800
N  36.55700 1.41000 31.25600
C  35.48400 1.57300 32.18900
C  36.07200 1.57200 33.58300
C  37.59300 1.45600 33.35900
C  37.75300 1.28100 31.86700
C  38.47900 2.52400 33.97300
C  35.45700 0.46000 34.51500
C  34.97000 0.96300 35.89800
H  35.72600 2.06400 36.57000
N  38.40000 0.95700 28.85100
C  39.32000 0.93100 29.86700
C  40.64000 0.68300 29.33100
C  40.45800 0.64500 27.93000
C  39.04400 0.87600 27.67900
C  41.90500 0.44200 30.17600
C  41.60100 0.37100 26.89000
O  41.41200 0.30500 25.67200
C  43.04300 0.18100 27.18800
N  36.05700 1.04400 26.87900
C  37.07600 0.89100 25.98800
C  36.53400 0.59400 24.58300
C  34.93400 0.63500 24.72000
C  34.83900 1.01900 26.20900
C  37.11600 1.62500 23.56800
C  34.24000 -0.69600 24.37800
C  34.13000 -1.79100 25.51900
N  34.39700 1.39600 29.15300
C  33.43000 1.55400 28.21300
C  32.15800 2.01900 28.79700
C  32.45000 2.12000 30.13300
C  33.80500 1.77200 30.31900
C  30.91600 2.36200 27.98200
C  31.80500 2.47900 31.41800
O  30.70400 2.91700 31.66100
C  32.96800 2.29100 32.46300
C  33.04100 3.48500 33.27200
O  33.66100 4.51500 32.95300
O  32.22000 3.39100 34.37400
C  32.25700 4.41400 35.43100
H  39.81700 0.81200 31.90900
H  39.04900 0.53500 25.52500
H  32.77800 1.19200 26.20900
H  35.85900 2.55000 34.01500
H  37.98900 0.57100 33.85600
H  37.96300 3.00900 34.80200
H  38.62400 3.36200 33.29100
H  39.38600 2.17100 34.46200
H  36.22800 -0.30300 34.61400
H  34.61600 0.00600 33.99000
H  34.95900 0.16100 36.63500
H  33.92400 1.20600 35.70800
H  42.23400 -0.58400 30.01100
H  41.75000 0.47600 31.25400
H  42.57100 1.25900 29.89700
H  43.63600 0.21900 26.27400
H  43.13100 -0.87200 27.45900
H  43.31500 0.92100 27.94000
H  36.85400 -0.39000 24.23900
H  34.53700 1.51900 24.22000
H  37.65900 0.99000 22.86800
H  37.78300 2.42500 23.89000
H  36.24000 2.02500 23.05800
H  34.58000 -1.31600 23.54800
H  33.18800 -0.50300 24.16600
H  33.11100 -2.00400 25.84200
H  34.63500 -1.46000 26.42600
H  34.77600 -2.60500 25.18900
H  30.96400 3.30500 27.43800
H  30.05500 2.13200 28.61000
H  30.94800 1.47100 27.35500
H  32.70800 1.41100 33.05200
H  31.62900 5.23200 35.07900
H  33.31000 4.68400 35.50700
H  32.01000 3.90900 36.36400

