158

Mg 2.40200 -2.00000 44.35300
C  5.79800 -0.91300 44.03500
C  1.44000 0.74900 42.46700
C  -0.61000 -3.21100 44.18800
C  3.66200 -5.04100 45.61100
N  3.49900 -0.24100 43.39800
C  4.83700 -0.01500 43.44700
C  5.22100 1.25500 42.56500
C  3.79200 1.80700 42.31200
C  2.82100 0.75500 42.81300
C  3.36100 3.22800 42.73500
C  6.02700 0.85400 41.24500
C  7.13200 1.88500 40.80700
H  6.56300 3.08700 39.99100
N  0.57700 -1.22500 43.55200
C  0.37900 -0.12300 42.82500
C  -1.01300 0.05100 42.47200
C  -1.66800 -1.09900 43.10700
C  -0.59000 -1.93600 43.65700
C  -1.55800 1.31700 41.79900
C  -3.17200 -1.38900 43.01300
O  -3.90200 -0.62400 42.34500
C  -3.81300 -2.32600 43.86700
N  1.68200 -3.79000 44.85300
C  0.33600 -4.08400 44.73700
C  0.01200 -5.53900 45.10300
C  1.41500 -6.02700 45.63900
C  2.33500 -4.88500 45.33600
C  -1.17300 -5.62800 46.10300
C  1.97600 -7.28200 44.90200
C  2.56800 -8.44900 45.76400
N  4.31800 -2.87200 44.82000
C  4.62900 -4.09500 45.35000
C  6.08200 -4.03100 45.69900
C  6.56900 -2.80300 45.22600
C  5.48600 -2.14000 44.62000
C  6.87300 -5.23400 46.30200
C  7.74400 -1.96600 45.03700
O  8.88600 -2.11300 45.37300
C  7.34400 -0.74200 44.16100
C  7.64600 0.48800 44.92800
O  7.31900 0.72700 46.09100
O  8.37300 1.37500 44.14700
C  8.81200 2.62900 44.74900
H  1.18200 1.62600 41.87000
H  -1.60800 -3.65100 44.23200
H  4.06600 -5.91800 46.11900
H  5.91200 1.89400 43.11400
H  3.61000 1.69600 41.24300
H  4.23300 3.78300 43.08200
H  2.74600 3.28400 43.63200
H  2.92800 3.76100 41.88800
H  5.33300 0.73000 40.41400
H  6.68000 -0.01400 41.33800
H  7.95000 1.29700 40.39100
H  7.54700 2.34000 41.70600
H  -1.74900 1.05100 40.76000
H  -0.94600 2.21200 41.90100
H  -2.51800 1.66400 42.18100
H  -4.87300 -2.14600 43.68600
H  -3.46800 -2.37300 44.90000
H  -3.52400 -3.35000 43.63400
H  -0.21500 -6.08700 44.18800
H  1.46900 -6.20700 46.71200
H  -0.95800 -5.09300 47.02700
H  -1.29100 -6.64200 46.48400
H  -2.09100 -5.32200 45.60100
H  2.62700 -6.79100 44.17800
H  1.16500 -7.75000 44.34500
H  3.64100 -8.57500 45.61700
H  2.19500 -9.46300 45.62000
H  2.38500 -8.35000 46.83400
H  6.79000 -6.12300 45.67700
H  6.57300 -5.26800 47.34900
H  7.92200 -4.93800 46.31100
H  7.83000 -0.67800 43.18800
H  9.62200 2.90300 44.07400
H  9.35700 2.42400 45.67100
H  8.23100 3.51500 45.00600
Mg 9.62300 47.52700 26.49100
C  7.88100 47.54500 29.37300
C  12.33900 48.85300 28.14000
C  11.29000 47.37700 23.58100
C  6.62600 46.78200 24.78200
N  10.07800 48.10300 28.55200
C  9.19600 48.04900 29.53400
C  9.88000 48.33900 30.88500
C  11.02900 49.29800 30.42900
C  11.15900 48.78900 28.95500
C  10.70200 50.78900 30.36200
C  10.41900 47.13700 31.64300
C  10.54000 47.31300 33.13100
H  10.24500 46.22900 34.18000
N  11.55000 48.20700 25.90900
C  12.54800 48.57600 26.75900
C  13.73700 48.72000 25.92100
C  13.43900 48.16200 24.59900
C  12.04800 47.87100 24.65400
C  15.01400 49.33300 26.53300
C  14.42800 47.98400 23.44500
O  14.09300 47.55700 22.36000
C  15.98600 48.29500 23.60100
N  8.98600 47.29700 24.34600
C  9.89700 47.20400 23.38800
C  9.18400 46.79500 22.09900
C  7.78100 46.51400 22.51700
C  7.75000 46.90000 23.93400
C  9.41500 47.88100 21.01600
C  7.33000 45.00000 22.19000
C  7.90600 43.93800 23.15500
N  7.72400 47.03000 26.92200
C  6.54000 46.81100 26.19800
C  5.42200 46.70700 27.05600
C  5.88900 46.97000 28.28300
C  7.24900 47.15500 28.16300
C  3.93700 46.60900 26.74700
C  5.48200 47.14500 29.65100
O  4.31100 47.06100 30.05400
C  6.80400 47.40000 30.46400
C  6.93100 46.04000 31.21400
O  7.49900 45.07000 30.77900
O  6.30700 46.15300 32.37900
C  6.26500 44.94500 33.22200
H  13.17200 49.22700 28.73900
H  11.83500 47.07700 22.68400
H  5.68900 46.55500 24.27000
H  9.28200 48.97900 31.53400
H  11.94300 49.13300 30.99900
H  11.10700 51.30800 31.23000
H  9.64500 50.92800 30.59000
H  10.91500 51.29000 29.41700
H  11.36000 46.76400 31.23900
H  9.74500 46.28600 31.55600
H  9.81300 48.06900 33.43000
H  11.60300 47.52500 33.24600
H  14.73900 50.26900 27.01900
H  15.93200 49.44400 25.95600
H  15.43700 48.72400 27.33100
H  16.34000 47.78100 24.49500
H  16.07100 49.38200 23.59600
H  16.57100 47.90500 22.76900
H  9.58400 45.83000 21.78700
H  7.03100 47.12700 22.01800
H  9.68600 47.37000 20.09200
H  10.22600 48.51200 21.38000
H  8.57000 48.55200 20.86400
H  7.75500 44.71400 21.22800
H  6.24700 44.93000 22.08700
H  7.05100 43.52100 23.68600
H  8.56100 44.31600 23.94000
H  8.51100 43.18700 22.64600
H  3.59300 47.63000 26.91400
H  3.52600 45.95800 27.51900
H  3.68100 46.28900 25.73700
H  6.71000 48.32000 31.04200
H  6.59300 45.34300 34.18300
H  7.06400 44.23800 33.00000
H  5.26200 44.55000 33.37900

