158

Mg -1.24200 17.84000 26.21700
C  -1.53800 15.46500 28.92500
C  -1.76600 20.26200 28.70200
C  -1.63900 20.09800 23.80700
C  -1.56000 15.18800 23.99100
N  -1.66900 17.85600 28.58100
C  -1.51400 16.76600 29.44500
C  -1.84400 17.23600 30.88800
C  -2.23800 18.77400 30.73800
C  -1.77900 19.03600 29.26000
C  -3.74400 19.12600 30.96900
C  -0.69600 16.83700 31.95200
C  -0.71700 17.58700 33.28200
H  -0.55400 16.96900 34.61600
N  -1.45700 19.88300 26.23600
C  -1.69700 20.71700 27.36700
C  -1.97700 22.07900 26.98300
C  -1.84000 22.09200 25.53100
C  -1.59900 20.63600 25.09000
C  -2.36400 23.12400 28.00500
C  -1.97400 23.11000 24.51900
O  -1.81000 22.99800 23.28000
C  -2.20400 24.52400 25.06600
N  -1.79900 17.70200 24.19500
C  -1.68000 18.75900 23.37700
C  -1.66200 18.30700 21.88200
C  -1.45000 16.75600 21.93400
C  -1.65100 16.48900 23.43800
C  -2.84400 18.81900 21.03800
C  -0.12300 16.14200 21.38200
C  -0.14800 15.34800 20.06700
N  -1.43500 15.81400 26.35500
C  -1.47700 14.85500 25.32900
C  -1.45200 13.50100 25.92300
C  -1.57300 13.75200 27.29200
C  -1.44200 15.13400 27.53500
C  -1.50500 12.17000 25.22800
C  -1.68400 13.03700 28.55600
O  -1.75400 11.84800 28.83600
C  -1.67400 14.13300 29.65200
C  -0.64600 13.72600 30.58300
O  0.57000 13.85300 30.52400
O  -1.33300 13.41900 31.74100
C  -0.41200 12.86300 32.76700
H  -1.94000 20.90800 29.56500
H  -1.62400 20.80200 22.97300
H  -1.34800 14.35800 23.31300
H  -2.66200 16.60500 31.23700
H  -1.69300 19.30900 31.51500
H  -4.04900 19.68500 30.08400
H  -3.87500 19.72500 31.87100
H  -4.34400 18.22600 31.10200
H  0.26600 16.84800 31.43800
H  -0.95500 15.79000 32.11300
H  -1.67100 18.10700 33.37300
H  0.05900 18.33200 33.10500
H  -3.11900 23.74400 27.52200
H  -1.50200 23.76500 28.19000
H  -2.70300 22.71700 28.95700
H  -2.01100 25.29700 24.32100
H  -1.43200 24.59800 25.83200
H  -3.24300 24.45900 25.39000
H  -0.79800 18.82800 21.46800
H  -2.29600 16.21100 21.51400
H  -2.61000 19.48900 20.21000
H  -3.55700 19.33000 21.68500
H  -3.32200 17.92400 20.63800
H  0.31900 15.48000 22.12600
H  0.64900 16.90100 21.26400
H  0.62000 15.71000 19.38400
H  -1.00700 15.62100 19.45500
H  0.00800 14.28100 20.23000
H  -0.98000 12.14100 24.27300
H  -2.58500 12.06600 25.12600
H  -0.93800 11.40300 25.75500
H  -2.65900 14.16100 30.11800
H  0.30500 12.16100 32.34000
H  -1.06200 12.33200 33.46200
H  0.26200 13.56700 33.25500
Mg 1.36300 -0.81800 43.01700
C  4.89600 -0.41100 42.72000
C  0.93400 1.86900 40.93800
C  -1.96500 -1.58200 42.91900
C  2.03400 -3.99500 44.25300
N  2.79800 0.43100 41.76800
C  4.15100 0.48000 41.94000
C  4.73500 1.56700 40.99700
C  3.56500 2.44300 40.52900
C  2.33700 1.54900 41.06600
C  3.41300 3.87900 41.08400
C  5.44700 0.88900 39.76600
C  6.88900 1.28300 39.49500
H  7.12300 2.12400 38.27200
N  -0.33500 0.15000 42.18100
C  -0.28100 1.21700 41.41800
C  -1.64700 1.67500 41.13800
C  -2.56100 0.80500 41.75400
C  -1.64300 -0.29100 42.36600
C  -1.92400 2.96300 40.32300
C  -4.02500 0.82700 41.77800
O  -4.70100 1.63600 41.20300
C  -4.72700 -0.19500 42.52500
N  0.25600 -2.57900 43.33300
C  -1.13200 -2.60800 43.38900
C  -1.67100 -3.98100 43.63100
C  -0.36900 -4.77100 44.00300
C  0.73200 -3.65600 43.94000
C  -2.88400 -4.12000 44.63300
C  -0.12900 -6.06900 43.15500
C  -0.13300 -7.49100 43.86800
N  3.02700 -2.00900 43.50700
C  3.12400 -3.24900 43.95800
C  4.57700 -3.57400 44.24200
C  5.30000 -2.55000 43.70100
C  4.32500 -1.57300 43.32900
C  5.16100 -4.81500 44.96300
C  6.59100 -2.03800 43.41900
O  7.69600 -2.55500 43.55500
C  6.37500 -0.56900 42.92000
C  7.03700 0.22100 43.98100
O  6.54500 0.44600 45.05500
O  8.21600 0.79500 43.59600
C  9.16500 1.44600 44.50000
H  0.80600 2.80900 40.39700
H  -2.99900 -1.91000 42.79100
H  2.19100 -4.96200 44.73500
H  5.38700 2.15400 41.64400
H  3.51100 2.54100 39.44500
H  4.33000 4.34400 41.44600
H  2.66500 3.82400 41.87500
H  3.22300 4.65000 40.33700
H  4.84600 1.04000 38.86900
H  5.57700 -0.18100 39.92800
H  7.66400 0.53500 39.66000
H  7.10000 2.07800 40.21000
H  -1.56400 2.93100 39.29400
H  -1.45800 3.81400 40.81800
H  -2.96400 3.27400 40.42200
H  -5.81000 -0.17900 42.39800
H  -4.31000 -0.26200 43.53000
H  -4.56100 -1.09000 41.92500
H  -2.14200 -4.22400 42.67900
H  -0.50000 -5.11200 45.03000
H  -3.33400 -3.13200 44.72500
H  -2.54300 -4.37800 45.63600
H  -3.58500 -4.86900 44.26300
H  0.83300 -6.04600 42.64300
H  -0.95300 -6.15500 42.44700
H  -0.58800 -7.41000 44.85500
H  0.86800 -7.92000 43.85800
H  -0.68500 -8.27100 43.34300
H  6.24100 -4.84400 45.10300
H  4.73800 -5.67500 44.44300
H  4.64800 -4.80200 45.92500
H  6.96200 -0.58400 42.00200
H  9.35700 0.81600 45.36800
H  8.75000 2.41100 44.79400
H  10.11900 1.56300 43.98600

