158

Mg 47.31500 24.47700 28.45000
C  48.10600 26.84800 31.01200
C  46.39800 22.34600 31.06500
C  47.11400 22.10000 26.23500
C  48.51300 26.74000 26.12100
N  47.29900 24.63600 30.75100
C  47.48100 25.68300 31.58700
C  47.12100 25.47800 33.11300
C  46.69600 23.99400 33.00900
C  46.77500 23.62500 31.48100
C  47.70500 23.09900 33.88300
C  46.10300 26.48900 33.64600
C  46.46900 27.18000 34.98100
H  45.34100 27.43800 36.05600
N  46.77300 22.49400 28.58600
C  46.40200 21.84300 29.74300
C  45.89600 20.57000 29.35400
C  46.14400 20.38500 27.99500
C  46.70200 21.66900 27.55200
C  45.23800 19.55300 30.32600
C  45.85100 19.16500 27.12700
O  46.11000 19.09400 25.93200
C  45.16700 17.98000 27.68800
N  47.76500 24.40300 26.42000
C  47.58500 23.28100 25.71100
C  47.72600 23.60800 24.21700
C  48.03600 25.13200 24.28300
C  48.14800 25.44300 25.68300
C  48.89200 22.77500 23.63700
C  47.00100 25.99300 23.55400
C  45.49500 25.70500 23.76700
N  48.09500 26.40800 28.48000
C  48.53300 27.20000 27.41600
C  48.92200 28.43700 27.92400
C  48.76700 28.41600 29.35900
C  48.29700 27.07600 29.62600
C  49.46100 29.52500 27.00800
C  48.94200 29.06900 30.59700
O  49.33200 30.22000 30.80800
C  48.52600 28.09100 31.72600
C  49.70300 27.86600 32.69300
O  50.64400 27.11800 32.39600
O  49.49900 28.45400 33.95600
C  50.68000 28.58700 34.82700
H  46.07200 21.60100 31.79400
H  47.05600 21.29400 25.50100
H  48.66700 27.46000 25.31500
H  48.04000 25.51500 33.69800
H  45.68000 23.86900 33.38400
H  47.93900 23.64500 34.79700
H  48.64300 22.99100 33.33900
H  47.24000 22.13700 34.09800
H  45.11900 26.02800 33.73200
H  45.97500 27.30600 32.93700
H  46.90600 28.13300 34.68000
H  47.28300 26.69700 35.52200
H  44.93700 20.05600 31.24500
H  45.87700 18.72200 30.62500
H  44.27600 19.11200 30.06300
H  45.61100 17.64700 28.62600
H  45.13700 17.17400 26.95500
H  44.10700 18.19500 27.81700
H  46.85100 23.23600 23.68400
H  48.98200 25.26000 23.75700
H  48.32100 22.03600 23.07400
H  49.63900 22.39600 24.33500
H  49.49100 23.35600 22.93700
H  47.33000 25.75900 22.54200
H  47.07000 27.06500 23.74000
H  44.97700 25.23900 22.92900
H  44.93100 26.62100 23.94600
H  45.51000 25.10700 24.67800
H  49.34200 30.48500 27.51200
H  48.90400 29.56000 26.07200
H  50.49500 29.28700 26.76000
H  47.82200 28.66700 32.32600
H  50.64700 27.71800 35.48500
H  50.88600 29.46200 35.44300
H  51.52900 28.39600 34.17100
Mg 31.76100 57.88100 40.22900
C  28.98600 55.82100 39.28900
C  33.76600 55.32800 39.59300
C  34.22900 60.15600 40.39600
C  29.41700 60.54900 40.36800
N  31.40300 55.87600 39.49200
C  30.23200 55.17600 39.39700
C  30.54500 53.70900 38.96300
C  31.97600 53.53700 39.40800
C  32.40700 54.98900 39.46100
C  32.06700 52.84400 40.82100
C  30.21700 53.49200 37.43600
C  29.26100 52.39000 37.18600
H  28.65600 52.19900 35.73700
N  33.80500 57.73600 40.00900
C  34.43500 56.55300 39.73900
C  35.79600 56.83000 39.79200
C  35.95500 58.23500 39.98800
C  34.61200 58.79500 40.08600
C  36.77300 55.71900 39.69900
C  37.36400 58.90700 39.94400
O  38.37800 58.23300 39.97100
C  37.56900 60.33700 39.99900
N  31.86900 60.10800 40.36600
C  32.97300 60.71500 40.60000
C  32.72000 62.20000 41.08000
C  31.22000 62.38700 40.76700
C  30.80700 60.91500 40.40900
C  33.17600 62.39400 42.54400
C  30.84600 63.31400 39.58400
C  30.72800 62.69300 38.16200
N  29.62000 58.19300 40.08300
C  28.88600 59.33200 40.11700
C  27.50400 58.99500 39.74300
C  27.48000 57.62100 39.39200
C  28.81200 57.16300 39.63000
C  26.36600 59.92500 39.65700
C  26.66500 56.50600 38.97600
O  25.47800 56.43700 38.62400
C  27.61500 55.21000 38.99700
C  27.15900 54.34500 40.07400
O  27.73300 54.07600 41.05000
O  25.92000 53.88100 39.87300
C  25.17200 53.09300 40.85200
H  34.35700 54.43000 39.78500
H  35.08200 60.83200 40.47600
H  28.65900 61.33300 40.31700
H  29.84600 53.12000 39.55600
H  32.61100 53.00400 38.70000
H  32.67300 51.94100 40.74400
H  31.09700 52.45500 41.13200
H  32.37900 53.46700 41.66000
H  31.16900 53.27200 36.95300
H  29.82300 54.40400 36.98600
H  28.39400 52.50400 37.83700
H  29.78500 51.52100 37.58400
H  37.09600 55.55200 38.67200
H  36.25700 54.76500 39.81100
H  37.65400 55.69900 40.34100
H  37.37000 60.59700 41.03800
H  36.86800 60.82800 39.32300
H  38.60700 60.43100 39.68000
H  33.20000 62.86000 40.35700
H  30.60500 62.70700 41.60800
H  33.44200 63.44400 42.66000
H  34.01900 61.76700 42.83600
H  32.32800 62.21300 43.20600
H  31.53000 64.15900 39.50500
H  29.82700 63.66100 39.75600
H  29.76000 62.19200 38.15800
H  31.55500 62.00200 37.99600
H  30.66900 63.58400 37.53800
H  26.63000 60.62100 38.86100
H  26.17200 60.39100 40.62300
H  25.48900 59.35700 39.34500
H  27.56600 54.66900 38.05100
H  25.76900 52.20800 41.06800
H  24.16100 52.92700 40.47900
H  24.91200 53.62100 41.76900

