158

Mg 48.13200 15.54800 28.79500
C  45.91000 15.41300 31.58400
C  50.08100 17.66400 30.69800
C  50.01300 15.92700 26.21400
C  45.54500 14.10800 26.90400
N  47.97400 16.28600 30.91000
C  47.09000 16.11600 31.84200
C  47.47900 16.80200 33.17600
C  48.59000 17.75500 32.71800
C  48.92800 17.19500 31.30200
C  48.19300 19.22500 32.91800
C  47.91400 15.61000 34.10800
C  47.68000 15.86600 35.64200
H  47.65200 17.21800 36.38700
N  49.88900 16.50700 28.53500
C  50.59300 17.22600 29.40400
C  51.80400 17.72600 28.76600
C  51.86900 17.09500 27.46900
C  50.54900 16.42600 27.37200
C  52.77100 18.69800 29.44300
C  53.00100 17.24500 26.43900
O  52.96100 16.61100 25.35600
C  54.27900 17.85900 26.83800
N  47.74000 15.24900 26.80900
C  48.74700 15.36700 25.96000
C  48.42900 14.82300 24.51300
C  46.96200 14.40100 24.70300
C  46.69700 14.54400 26.19300
C  48.56700 15.88800 23.43800
C  46.87800 13.01800 24.07500
C  47.50200 11.84400 24.87600
N  46.14400 14.88000 29.12100
C  45.28500 14.20400 28.26800
C  44.05200 13.91300 28.96400
C  44.29100 14.28600 30.27400
C  45.56000 14.91400 30.34600
C  42.76400 13.26100 28.40700
C  43.70400 14.27100 31.58300
O  42.58500 13.90900 31.92800
C  44.75000 14.99900 32.47200
C  44.10700 16.11800 33.16200
O  43.77900 17.16000 32.61800
O  43.81900 15.72000 34.43100
C  42.86100 16.60100 35.12100
H  50.60300 18.45600 31.23900
H  50.70000 15.87100 25.36700
H  44.84000 13.49200 26.34200
H  46.60700 17.29500 33.60500
H  49.55400 17.61700 33.20800
H  47.17600 19.29600 33.30300
H  48.20000 19.74500 31.96000
H  48.89100 19.72100 33.59200
H  48.96900 15.45200 33.88400
H  47.47000 14.65100 33.84000
H  48.46900 15.30600 36.14400
H  46.76900 15.46000 36.08200
H  53.02000 19.46600 28.71100
H  53.54700 17.95600 29.63200
H  52.45200 19.01800 30.43500
H  55.03500 17.77900 26.05700
H  54.66700 17.24000 27.64700
H  54.32400 18.90400 27.14600
H  49.16900 14.05900 24.27300
H  46.21000 15.04300 24.24300
H  49.63800 16.07700 23.37300
H  48.17700 16.88100 23.66500
H  48.10800 15.49000 22.53300
H  47.35300 13.01100 23.09400
H  45.81000 12.89800 23.89300
H  46.74100 11.09700 25.10300
H  47.95500 12.17300 25.81100
H  48.30000 11.40400 24.27800
H  42.31400 12.82400 29.29800
H  43.02500 12.50500 27.66600
H  42.10900 14.05400 28.04500
H  45.08400 14.21500 33.15200
H  43.40200 17.31700 35.74000
H  42.40000 15.95600 35.86900
H  42.02800 17.04400 34.57600
Mg 16.56700 51.82000 26.40800
C  18.47500 50.83000 29.20200
C  14.08400 52.75000 28.46900
C  14.85900 52.82100 23.65900
C  19.21300 50.86600 24.34800
N  16.33900 51.85000 28.55100
C  17.22000 51.40000 29.53700
C  16.65500 51.58100 30.93500
C  15.15000 51.89000 30.61000
C  15.19400 52.17800 29.10800
C  14.05500 50.82300 30.99500
C  17.40600 52.65500 31.78600
C  17.80800 52.21000 33.15600
H  16.80700 52.70100 34.20100
N  14.78000 52.75700 26.15200
C  13.84300 53.01400 27.12800
C  12.72300 53.73100 26.54200
C  12.91000 53.74600 25.14100
C  14.19800 53.02900 24.95400
C  11.54600 54.30300 27.39400
C  12.07200 54.36700 24.02600
O  12.39100 54.37300 22.87900
C  10.68200 54.95200 24.31800
N  16.89000 51.68500 24.29100
C  16.05700 52.24700 23.36900
C  16.68800 52.29300 21.95500
C  18.08200 51.65900 22.20900
C  18.12600 51.47800 23.69500
C  15.84400 51.67300 20.85400
C  19.33100 52.50600 21.75200
C  20.29300 51.90500 20.72900
N  18.39000 50.82500 26.65600
C  19.38200 50.54700 25.72500
C  20.55100 49.92000 26.39100
C  20.24300 50.07800 27.76400
C  18.90900 50.58900 27.86200
C  21.85100 49.44200 25.81900
C  20.72000 49.88000 29.11300
O  21.84000 49.52300 29.49400
C  19.56400 50.20000 30.13000
C  19.14100 48.94000 30.83800
O  18.65400 47.95600 30.31100
O  19.21700 49.14900 32.16700
C  18.73800 48.05500 33.08600
H  13.32800 53.08200 29.18400
H  14.37300 53.07200 22.71400
H  20.10900 50.60100 23.78400
H  16.74000 50.60500 31.41200
H  14.85300 52.79700 31.13800
H  13.47000 51.12400 31.86500
H  14.59200 49.87700 31.05500
H  13.36600 50.67900 30.16200
H  16.90200 53.62100 31.79600
H  18.37200 52.83200 31.31300
H  18.77900 52.63500 33.41100
H  17.90800 51.12700 33.22800
H  10.62500 53.87600 26.99700
H  11.55200 55.38700 27.28600
H  11.57900 53.99300 28.43800
H  10.20500 55.09100 23.34800
H  10.89200 55.76800 25.00900
H  10.07600 54.11300 24.66100
H  16.83600 53.35300 21.75300
H  18.15300 50.67400 21.74700
H  16.19200 50.73600 20.41800
H  15.73400 52.50800 20.16200
H  14.92000 51.35200 21.33600
H  19.86100 52.92900 22.60500
H  18.96400 53.40500 21.25600
H  21.18100 52.53600 20.75900
H  19.81500 51.99900 19.75400
H  20.44400 50.83400 20.86900
H  21.72600 48.51600 25.25800
H  22.59800 49.36900 26.61000
H  22.07100 50.15300 25.02200
H  20.07200 50.83300 30.85600
H  17.68700 48.29900 33.24000
H  19.23300 48.06600 34.05700
H  18.88300 47.06200 32.66200

