158

Mg -0.52900 7.17800 27.54200
C  0.17400 9.33500 30.20800
C  -0.76100 4.59300 29.86500
C  -1.12300 5.02000 25.03500
C  -0.45200 9.81400 25.36500
N  -0.27000 6.96300 29.74800
C  -0.06800 7.99900 30.63800
C  -0.26900 7.56000 32.11200
C  -0.43700 6.03300 32.01300
C  -0.50000 5.81000 30.46800
C  0.60400 5.23400 32.70800
C  -1.36700 8.31500 32.87000
C  -1.15100 8.57500 34.41400
H  -0.06100 7.93100 35.23500
N  -0.73600 5.07800 27.41900
C  -0.79700 4.19800 28.49600
C  -1.03400 2.84800 27.96700
C  -0.98300 2.93200 26.55500
C  -0.90300 4.39800 26.23400
C  -0.98700 1.67700 28.91600
C  -0.98700 1.91000 25.57500
O  -0.79300 2.16500 24.41400
C  -1.13400 0.43700 25.96200
N  -0.86900 7.31600 25.56700
C  -0.96800 6.33800 24.66600
C  -0.90200 6.78900 23.17900
C  -0.97600 8.33700 23.41300
C  -0.68600 8.46100 24.92400
C  0.34900 6.35600 22.42000
C  -2.39300 9.00800 23.10400
C  -2.48600 10.50500 22.69900
N  -0.23700 9.11900 27.69600
C  -0.24600 10.15500 26.78100
C  0.09500 11.39500 27.36200
C  0.27800 11.15900 28.70400
C  0.07300 9.75600 28.87100
C  0.25100 12.68600 26.58000
C  0.73000 11.77800 29.99400
O  1.18200 12.89600 30.15200
C  0.38600 10.63400 31.05800
C  1.44200 10.58800 32.04100
O  2.42100 9.88200 31.98400
O  1.13600 11.42800 33.12200
C  2.03100 11.33800 34.30700
H  -0.92700 3.77700 30.57200
H  -1.15900 4.34600 24.17600
H  -0.36500 10.63900 24.65500
H  0.64300 7.83700 32.64100
H  -1.42200 5.72700 32.36600
H  1.03300 4.47900 32.05000
H  0.02900 4.55900 33.34200
H  1.39900 5.85500 33.12100
H  -2.31300 7.77700 32.81700
H  -1.46300 9.28800 32.38800
H  -2.12400 8.31400 34.83000
H  -1.00400 9.65200 34.50400
H  -1.77600 0.94500 28.74400
H  -1.20000 1.88200 29.96500
H  -0.00500 1.20500 28.89300
H  -0.47600 0.30100 26.82100
H  -0.97900 -0.27100 25.14800
H  -2.16400 0.30700 26.29400
H  -1.82300 6.38000 22.76400
H  -0.25200 9.02200 22.97300
H  0.86900 7.20200 21.97000
H  0.10000 5.79400 21.52000
H  1.13800 6.03600 23.10200
H  -3.04900 8.78400 23.94500
H  -2.90600 8.43700 22.33000
H  -3.16200 11.00300 23.39400
H  -2.82500 10.43300 21.66500
H  -1.55800 11.06900 22.79600
H  1.07000 13.18700 27.09700
H  -0.65800 13.24600 26.79900
H  0.45700 12.72500 25.51000
H  -0.59600 10.93300 31.42300
H  2.57600 12.27400 34.42800
H  2.78300 10.55200 34.23200
H  1.53500 11.28200 35.27500
Mg -6.52900 24.48200 25.88700
C  -4.91800 26.02300 28.53700
C  -8.59900 22.77400 28.16500
C  -7.82800 22.52100 23.45400
C  -4.40000 26.00500 23.72900
N  -6.71300 24.33300 28.02300
C  -5.97100 25.13000 28.91000
C  -6.38400 24.85800 30.38400
C  -7.24300 23.57800 30.22200
C  -7.59500 23.57100 28.72900
C  -6.52200 22.28000 30.70600
C  -7.21500 26.12900 30.80900
C  -7.03600 26.47400 32.33100
H  -6.39600 25.41200 33.21000
N  -8.13900 23.03900 25.84400
C  -8.89100 22.54400 26.86300
C  -9.84500 21.60400 26.32100
C  -9.58300 21.45900 24.93300
C  -8.49200 22.39600 24.66100
C  -10.87900 20.97100 27.20800
C  -10.31000 20.63700 23.94100
O  -10.02600 20.57100 22.79600
C  -11.53400 19.81700 24.39800
N  -5.94300 24.07900 23.99200
C  -6.72800 23.29700 23.11200
C  -6.43800 23.55200 21.64500
C  -5.36500 24.70400 21.68500
C  -5.21100 24.95400 23.23900
C  -5.88900 22.20400 21.05700
C  -5.79300 25.95100 20.89800
C  -4.91400 26.64800 19.94200
N  -4.96800 25.73800 26.02300
C  -4.20400 26.34500 25.04600
C  -3.24700 27.21300 25.68300
C  -3.38100 26.99000 27.05900
C  -4.52200 26.18300 27.20200
C  -2.29400 28.19400 25.02300
C  -2.89700 27.33900 28.41200
O  -1.97800 28.04200 28.75400
C  -3.89700 26.70800 29.43600
C  -3.02400 25.70400 30.08100
O  -2.81100 24.56500 29.67600
O  -2.42000 26.31700 31.13300
C  -1.41500 25.48100 31.78700
H  -9.22000 22.40100 28.98200
H  -8.31900 22.10000 22.57500
H  -3.71500 26.50800 23.04300
H  -5.48000 24.74800 30.98200
H  -8.17400 23.66900 30.78200
H  -6.86100 22.01800 31.70900
H  -5.44500 22.41900 30.61100
H  -6.81700 21.49900 30.00500
H  -8.25600 25.92300 30.55900
H  -6.95200 27.00800 30.22000
H  -8.02000 26.65100 32.76600
H  -6.31700 27.28900 32.41800
H  -11.80500 21.54700 27.21400
H  -10.53500 20.93500 28.24200
H  -10.99900 19.91900 26.94700
H  -11.22400 18.92500 24.94200
H  -12.14800 19.37700 23.61200
H  -12.22100 20.40300 25.00800
H  -7.35300 23.86800 21.14400
H  -4.32800 24.43300 21.49100
H  -5.02000 22.53300 20.48700
H  -6.59100 21.96100 20.26000
H  -5.65300 21.38300 21.73400
H  -6.09500 26.73400 21.59400
H  -6.70800 25.67500 20.37300
H  -3.92800 26.19300 20.03600
H  -4.95900 27.73200 20.04800
H  -5.42700 26.48700 18.99400
H  -2.11100 27.97000 23.97200
H  -1.28100 28.08000 25.41000
H  -2.64100 29.22700 24.99900
H  -4.33900 27.46500 30.08400
H  -1.63400 25.25000 32.83000
H  -0.62100 26.22300 31.86500
H  -1.18900 24.48700 31.40200

