158

Mg 47.39400 24.55800 28.41100
C  48.49900 26.98200 30.89400
C  46.40300 22.47600 31.03800
C  47.02400 22.10400 26.13800
C  49.03100 26.53700 25.97600
N  47.38400 24.76400 30.83400
C  47.81600 25.87200 31.55300
C  47.51700 25.59100 33.01300
C  46.85700 24.11700 33.04600
C  46.82100 23.72700 31.58600
C  47.48200 23.08300 33.99500
C  46.94900 26.72800 33.76700
C  45.90100 26.57300 34.88900
H  46.15700 27.24500 36.24000
N  46.55800 22.63200 28.54400
C  46.26100 22.01000 29.70200
C  45.62700 20.72200 29.29600
C  45.80600 20.60400 27.84100
C  46.52100 21.85400 27.46100
C  44.97400 19.77400 30.28800
C  45.30200 19.50400 26.87400
O  45.51100 19.46300 25.66100
C  44.41600 18.41000 27.48800
N  47.64800 24.46400 26.38900
C  47.58500 23.23500 25.69600
C  48.04600 23.32300 24.24400
C  48.34900 24.91700 24.10800
C  48.39100 25.34700 25.59400
C  49.30000 22.46500 23.86700
C  47.50200 25.80300 23.11500
C  46.34000 26.67400 23.65200
N  48.47900 26.42300 28.32100
C  49.12500 27.05000 27.25500
C  49.70800 28.28900 27.72100
C  49.48300 28.29500 29.13000
C  48.74600 27.13800 29.42800
C  50.58300 29.17600 26.93200
C  49.76900 29.09200 30.23700
O  50.41600 30.12700 30.34600
C  49.01700 28.26500 31.44000
C  50.02000 28.17700 32.55200
O  50.58100 27.14300 32.86200
O  49.99500 29.33400 33.29700
C  50.67800 29.35800 34.60200
H  46.01500 21.80900 31.81000
H  47.00400 21.33900 25.35800
H  49.30800 27.21800 25.16900
H  48.45100 25.43500 33.55300
H  45.83800 24.20200 33.42400
H  48.06700 23.62500 34.73800
H  48.14100 22.40800 33.44700
H  46.62000 22.64500 34.49800
H  46.59700 27.43300 33.01300
H  47.76800 27.24900 34.26300
H  45.78100 25.50300 35.06100
H  44.89200 26.75400 34.51900
H  45.50600 18.82300 30.26500
H  43.96500 19.56500 29.93300
H  44.66700 20.18200 31.25100
H  44.85000 17.95500 28.37800
H  44.37700 17.63000 26.72900
H  43.47900 18.92400 27.70100
H  47.29700 23.02100 23.51200
H  49.33800 25.07800 23.67900
H  48.97800 21.54300 23.38300
H  49.96700 22.09200 24.64500
H  49.90000 22.99500 23.12800
H  47.02200 25.05500 22.48500
H  48.18500 26.44200 22.55600
H  46.18300 26.64500 24.73000
H  45.41400 26.24300 23.27100
H  46.39700 27.70600 23.30800
H  50.19600 29.45400 25.95200
H  51.54700 28.73500 26.68100
H  50.78700 30.07300 27.51800
H  48.18800 28.87800 31.79300
H  51.65300 28.87300 34.64800
H  50.04800 28.90800 35.36900
H  50.95300 30.36500 34.91600
Mg 16.79400 51.97700 26.66800
C  18.56400 50.54000 29.23600
C  14.30000 52.94200 28.94900
C  15.19100 53.51900 24.15000
C  19.17500 50.69200 24.41000
N  16.49000 51.74600 28.74100
C  17.38200 51.19500 29.60600
C  16.88600 51.37900 31.02600
C  15.35200 51.82100 30.93500
C  15.35200 52.18700 29.47400
C  14.29400 50.75800 31.37600
C  17.74800 52.33400 31.84500
C  17.76200 52.16900 33.36900
H  16.61600 51.32100 33.97600
N  15.04800 53.11000 26.59400
C  14.20100 53.37700 27.62700
C  13.18100 54.34000 27.13500
C  13.42700 54.57900 25.77000
C  14.56400 53.69600 25.45800
C  12.02300 54.79200 27.98300
C  12.73800 55.48300 24.70600
O  13.11200 55.56900 23.55300
C  11.56200 56.34100 25.13700
N  17.08900 52.00300 24.63800
C  16.24500 52.72700 23.75500
C  16.70400 52.50900 22.27800
C  18.15700 51.99100 22.45700
C  18.13500 51.48000 23.90400
C  15.77900 51.54800 21.47200
C  19.33400 52.98400 22.25600
C  20.18400 52.71800 21.04400
N  18.49700 50.78600 26.76000
C  19.46700 50.40900 25.78000
C  20.61700 49.71900 26.41400
C  20.30700 49.78000 27.74800
C  19.02400 50.36100 27.94000
C  21.86200 49.18700 25.72000
C  20.81000 49.43700 29.07100
O  21.86900 48.94100 29.37600
C  19.71300 49.99400 30.09500
C  19.33800 48.84900 31.02600
O  18.70000 47.83700 30.80700
O  19.85900 49.13900 32.27500
C  19.40700 48.18700 33.25800
H  13.52900 53.27800 29.64600
H  14.55900 53.79800 23.30500
H  20.05900 50.38600 23.84800
H  16.90000 50.36600 31.42800
H  15.19400 52.70800 31.55000
H  13.47300 50.69800 30.66100
H  13.87100 51.17300 32.29100
H  14.80100 49.80600 31.53300
H  17.41400 53.33500 31.57500
H  18.78300 52.25300 31.51100
H  17.69000 53.17300 33.78600
H  18.71400 51.80900 33.76000
H  12.25800 55.83600 28.19300
H  11.82400 54.28500 28.92700
H  11.11400 54.85300 27.38500
H  10.72500 55.64800 25.21700
H  11.31500 57.10500 24.40000
H  11.69300 56.82800 26.10400
H  16.69900 53.46200 21.74900
H  18.25600 51.20700 21.70600
H  15.53600 52.10000 20.56400
H  14.84000 51.36300 21.99400
H  16.30000 50.62800 21.20700
H  19.97600 52.93600 23.13600
H  18.94500 53.98700 22.08500
H  21.18800 52.37300 21.29100
H  20.21700 53.58900 20.38900
H  19.77000 51.86400 20.50800
H  21.52800 48.64100 24.83800
H  22.24400 48.47500 26.45200
H  22.51700 50.03200 25.50500
H  20.06500 50.79800 30.74100
H  19.65700 47.13100 33.15200
H  18.32000 48.24100 33.21000
H  19.76400 48.48300 34.24400

