158

Mg 46.13100 2.98800 47.46900
C  43.61500 5.36000 46.74200
C  43.71800 0.55900 47.27800
C  48.59600 0.75100 47.18500
C  48.50700 5.54900 46.98200
N  43.97600 2.97300 46.88500
C  43.08300 4.07800 46.79000
C  41.59000 3.63200 46.72600
C  41.73900 2.13200 47.18200
C  43.27000 1.81700 47.03800
C  40.92100 1.79100 48.46400
C  41.18600 3.74500 45.19800
C  39.88900 4.40300 44.79400
H  39.97800 5.59600 43.87200
N  46.14500 0.89800 47.31900
C  45.09200 0.11200 47.26600
C  45.56000 -1.31300 47.18400
C  46.97900 -1.31100 47.01800
C  47.35100 0.13000 47.16700
C  44.64700 -2.47900 47.36100
C  47.88200 -2.53500 46.77200
O  47.45800 -3.68500 46.73000
C  49.39000 -2.24800 46.61800
N  48.34900 3.12200 47.38000
C  49.05500 2.03900 47.18100
C  50.56200 2.43200 47.16800
C  50.48000 3.92000 46.72100
C  49.02000 4.24700 47.04000
C  51.44400 2.22500 48.41100
C  50.91300 4.25800 45.24600
C  52.38100 3.92300 44.79900
N  46.07600 5.02700 47.03400
C  47.09000 5.94000 46.88300
C  46.53000 7.26800 46.60200
C  45.14700 7.05600 46.61400
C  44.93600 5.67100 46.82000
C  47.28700 8.50000 46.37200
C  43.88200 7.73200 46.53400
O  43.59800 8.88700 46.41100
C  42.80300 6.66900 46.68500
C  41.94800 7.09800 47.84100
O  42.30200 7.31500 49.00400
O  40.69900 7.42700 47.30100
C  39.74700 7.91600 48.27800
H  42.87500 -0.13400 47.31600
H  49.51800 0.16800 47.22500
H  49.23300 6.27100 46.60300
H  40.81900 4.16200 47.28600
H  41.25700 1.40100 46.53300
H  40.43700 2.68300 48.86200
H  41.66100 1.44000 49.18300
H  40.14300 1.04500 48.30300
H  41.03000 2.74100 44.80300
H  42.07800 4.11400 44.69100
H  39.42000 4.88900 45.65000
H  39.14800 3.70300 44.40900
H  43.64600 -2.16000 47.65100
H  45.00100 -3.26600 48.02600
H  44.49500 -2.89600 46.36500
H  49.81600 -1.92900 47.56900
H  49.51200 -1.46400 45.87100
H  49.88300 -3.17100 46.31300
H  51.06800 2.00500 46.30200
H  51.05400 4.42800 47.49600
H  50.86700 2.01800 49.31300
H  52.17900 3.01300 48.57300
H  51.93300 1.28300 48.16400
H  50.63700 5.30500 45.11900
H  50.30300 3.74700 44.50100
H  52.89100 4.85400 44.55300
H  52.31100 3.20500 43.98200
H  52.93000 3.41500 45.59200
H  48.07000 8.60100 47.12400
H  46.65200 9.38500 46.33600
H  47.74200 8.44800 45.38200
H  42.20300 6.71700 45.77600
H  39.61700 7.29900 49.16700
H  38.81100 8.16600 47.77800
H  40.15100 8.89000 48.55500
Mg 16.44200 51.51800 25.20300
C  18.02700 50.46300 27.97400
C  13.52800 52.08200 27.18200
C  14.73200 52.52600 22.52100
C  18.80100 50.04000 23.21800
N  15.84700 51.23100 27.30700
C  16.72700 50.94200 28.25900
C  16.31900 51.37900 29.70200
C  14.82300 51.63200 29.37200
C  14.71500 51.71400 27.88200
C  13.85700 50.63300 30.06900
C  17.03500 52.64600 30.24700
C  17.40700 52.70000 31.78700
H  16.55500 51.81200 32.73300
N  14.47100 52.41800 24.94700
C  13.45600 52.58400 25.90700
C  12.38100 53.46300 25.30500
C  12.71300 53.57900 23.90700
C  14.02800 52.87400 23.73600
C  11.23600 54.16500 26.07700
C  11.97600 54.28500 22.74200
O  12.29100 54.20500 21.54900
C  10.78600 55.05200 23.00400
N  16.72200 51.29700 23.14800
C  15.88000 51.80100 22.27600
C  16.37700 51.53600 20.87400
C  17.79700 50.83700 21.07300
C  17.74400 50.73700 22.59200
C  15.43800 50.60800 20.02000
C  18.86200 51.66900 20.40800
C  19.64700 50.94300 19.21600
N  18.10100 50.50000 25.52800
C  19.04200 49.93100 24.61800
C  20.13200 49.34200 25.35700
C  19.75700 49.55400 26.67100
C  18.48200 50.12700 26.69700
C  21.37500 48.70200 24.76700
C  20.23100 49.32200 28.01000
O  21.26600 48.81900 28.42900
C  19.09700 49.91000 28.90900
C  18.54400 48.87300 29.80800
O  17.64900 48.07800 29.63700
O  19.37900 48.83700 30.88700
C  19.01900 47.97200 32.03900
H  12.67800 52.34100 27.81700
H  14.12600 52.87200 21.68100
H  19.49100 49.46800 22.59500
H  16.50000 50.53200 30.36400
H  14.40700 52.55900 29.76700
H  14.38600 50.12100 30.87300
H  13.39100 49.90100 29.40900
H  13.07300 51.17500 30.59800
H  16.27100 53.42300 30.21500
H  17.93700 52.90600 29.69300
H  17.36000 53.71900 32.17000
H  18.37800 52.22100 31.91300
H  10.25300 53.88400 25.70000
H  11.34300 55.22600 25.85000
H  11.29400 53.91900 27.13800
H  11.01900 55.82100 23.74000
H  10.08600 54.41000 23.53800
H  10.30500 55.36700 22.07700
H  16.47600 52.58700 20.60500
H  17.87000 49.81000 20.71600
H  14.66700 50.15400 20.64200
H  15.93100 49.73600 19.58900
H  15.00800 51.14400 19.17400
H  19.58800 52.06700 21.11700
H  18.36200 52.52600 19.95600
H  20.69300 51.23700 19.30000
H  19.09600 51.12000 18.29200
H  19.63800 49.86800 19.39600
H  22.27200 49.02600 25.29600
H  21.52100 49.18400 23.80000
H  21.28200 47.61900 24.68500
H  19.53200 50.62400 29.60900
H  17.97500 47.69900 31.88700
H  19.00700 48.40100 33.04100
H  19.70500 47.12700 31.97400

