158

Mg 29.90400 58.55500 40.20300
C  27.36600 56.28000 39.46500
C  32.23600 55.99600 39.67100
C  32.13500 60.90000 40.07400
C  27.37800 61.14900 39.63200
N  29.80900 56.43300 39.59300
C  28.67800 55.68600 39.33200
C  29.02400 54.34900 38.75300
C  30.49300 54.18300 39.29900
C  30.91100 55.64700 39.59400
C  30.75500 53.23400 40.57800
C  28.86600 54.28300 37.19400
C  27.74000 53.33900 36.73100
H  26.81600 54.07200 35.73900
N  31.94200 58.49800 39.95300
C  32.73900 57.31300 39.81200
C  34.17700 57.74900 39.82200
C  34.18500 59.21300 40.07200
C  32.73700 59.58100 40.02800
C  35.24200 56.67000 39.62900
C  35.45400 60.09400 40.35000
O  36.55800 59.56200 40.33100
C  35.30400 61.65900 40.61300
N  29.73400 60.68800 39.93400
C  30.81200 61.43200 39.97900
C  30.62300 62.95400 39.97100
C  29.08200 63.00300 39.74100
C  28.69400 61.53700 39.72700
C  31.06400 63.76500 41.25800
C  28.70600 63.83500 38.49600
C  27.78500 65.00900 38.60900
N  27.75700 58.75000 40.04800
C  26.95000 59.81000 39.73100
C  25.63800 59.32000 39.52800
C  25.70500 57.96800 39.53100
C  27.05400 57.64400 39.70600
C  24.47800 60.28500 39.33200
C  24.95100 56.81200 39.41000
O  23.71700 56.65600 39.25200
C  26.00200 55.62700 39.30300
C  25.68900 54.57100 40.23700
O  25.82800 54.64900 41.43900
O  24.97900 53.54400 39.64500
C  24.45800 52.51500 40.52600
H  33.00100 55.21600 39.66600
H  32.88800 61.69100 40.07500
H  26.60400 61.91400 39.54500
H  28.40200 53.66200 39.32600
H  31.02400 53.83400 38.41400
H  31.42900 52.43100 40.28100
H  29.77600 52.82600 40.83100
H  31.04400 53.92000 41.37300
H  29.79300 53.93200 36.74000
H  28.70200 55.31500 36.88500
H  27.12400 52.93200 37.53300
H  28.27700 52.49000 36.30700
H  34.89600 55.98600 38.85400
H  35.21800 56.18500 40.60500
H  36.25200 57.01500 39.41100
H  36.25400 62.09100 40.92900
H  34.65500 61.74600 41.48400
H  34.93900 62.24500 39.76900
H  31.19800 63.25100 39.09400
H  28.65800 63.43900 40.64700
H  30.23600 64.41000 41.55300
H  31.94700 64.39100 41.13000
H  31.36800 63.00400 41.97700
H  28.20400 63.12700 37.83700
H  29.60200 64.21300 38.00300
H  26.77000 64.69100 38.37000
H  28.11100 65.87900 38.03900
H  27.67400 65.26400 39.66200
H  24.55000 60.75900 38.35400
H  24.51100 60.93400 40.20700
H  23.63100 59.60800 39.43600
H  25.81400 55.39000 38.25500
H  23.44400 52.73700 40.86100
H  25.03300 52.34000 41.43500
H  24.37600 51.56700 39.99300
Mg -10.92700 16.88600 42.82000
C  -7.38300 16.73900 42.18000
C  -10.78300 20.14700 41.71200
C  -14.22000 16.90500 42.75500
C  -10.84800 13.39800 43.09300
N  -9.22600 18.33200 42.21700
C  -7.91300 18.00600 42.02000
C  -7.18500 19.28400 41.45700
C  -8.24400 20.39900 41.52100
C  -9.50000 19.56300 41.82400
C  -7.88200 21.43700 42.58600
C  -6.68000 18.94700 39.99700
C  -5.15900 19.23600 39.81300
H  -4.60200 19.63200 38.49500
N  -12.39300 18.39000 42.54600
C  -12.10800 19.61600 41.95100
C  -13.40300 20.22500 41.63000
C  -14.44300 19.35900 42.16100
C  -13.71600 18.19400 42.59000
C  -13.49400 21.57000 41.01600
C  -15.97300 19.63400 42.11300
O  -16.40900 20.75000 41.73000
C  -17.03600 18.74100 42.67100
N  -12.33400 15.32400 42.67900
C  -13.63400 15.64600 42.89600
C  -14.39200 14.47200 43.29200
C  -13.41000 13.33300 43.37800
C  -12.10900 14.06700 43.02300
C  -15.24900 14.59200 44.59200
C  -13.78200 12.07600 42.41500
C  -14.73800 11.10900 43.13200
N  -9.47100 15.36900 42.76300
C  -9.59700 13.99800 43.00400
C  -8.25400 13.40500 43.17400
C  -7.37800 14.45900 42.85400
C  -8.17800 15.61000 42.61500
C  -7.83100 12.05300 43.44300
C  -6.00400 14.75400 42.62300
O  -5.04600 13.93000 42.67900
C  -5.95700 16.23200 42.23300
C  -5.16100 17.00400 43.14700
O  -4.08400 17.55800 42.92000
O  -5.79700 17.05500 44.41500
C  -4.99400 17.52800 45.57200
H  -10.76600 21.18900 41.38500
H  -15.28200 16.90000 43.00900
H  -10.79700 12.33100 43.31900
H  -6.32900 19.40100 42.12100
H  -8.33000 20.98600 40.60600
H  -6.87800 21.81300 42.39000
H  -7.67400 20.84800 43.47900
H  -8.63000 22.22400 42.68900
H  -7.30800 19.44500 39.25800
H  -6.76800 17.86700 39.87600
H  -4.58400 18.41600 40.24300
H  -5.01100 20.10600 40.45300
H  -12.51900 21.92600 40.68100
H  -13.96300 22.26700 41.71000
H  -14.19900 21.59100 40.18500
H  -16.91600 17.80800 42.11900
H  -18.02100 19.12500 42.40100
H  -16.87200 18.61300 43.74100
H  -15.19100 14.34300 42.56100
H  -13.24700 12.92100 44.37400
H  -15.05600 15.49800 45.16700
H  -15.00200 13.68000 45.13500
H  -16.32400 14.57800 44.40900
H  -12.80000 11.65500 42.19900
H  -14.20900 12.53000 41.52100
H  -15.65800 10.96400 42.56600
H  -14.99600 11.41700 44.14500
H  -14.24400 10.15000 43.28800
H  -7.15300 11.68400 42.67400
H  -8.62000 11.30100 43.47400
H  -7.21700 12.07900 44.34200
H  -5.46700 16.18800 41.26000
H  -4.03100 17.01900 45.61800
H  -5.44300 17.28800 46.53500
H  -4.79200 18.59000 45.43500

