158

Mg 24.65000 -4.43400 46.21700
C  26.94000 -2.23300 44.78100
C  22.28900 -3.40700 43.97200
C  22.84900 -7.21300 46.91500
C  27.36400 -5.83800 48.19400
N  24.72800 -3.05200 44.48100
C  25.68800 -2.18400 44.08700
C  25.22600 -1.19700 42.98300
C  23.66700 -1.42200 43.09600
C  23.55400 -2.71700 43.90600
C  22.83600 -0.27800 43.73700
C  25.76300 -1.59600 41.59300
C  26.05000 -0.41600 40.64600
H  25.58800 -0.54400 39.16900
N  22.74500 -5.18500 45.63400
C  21.98000 -4.67200 44.61100
C  20.77600 -5.51600 44.47300
C  20.85900 -6.65200 45.34100
C  22.19500 -6.33300 46.03100
C  19.67800 -5.14600 43.57200
C  19.87600 -7.80400 45.44400
O  18.91500 -7.97300 44.68800
C  20.07600 -8.88700 46.50300
N  25.01900 -6.16600 47.53600
C  24.09300 -7.08500 47.61700
C  24.54200 -8.28900 48.48400
C  25.96700 -7.76700 49.01200
C  26.13200 -6.50000 48.17500
C  23.54100 -8.95000 49.47600
C  27.10500 -8.74100 48.96500
C  28.26800 -8.55900 49.92200
N  26.69000 -4.08700 46.58400
C  27.62400 -4.69300 47.46200
C  28.88600 -3.96300 47.25600
C  28.63200 -2.91100 46.33600
C  27.29400 -3.07700 45.85400
C  30.15300 -4.27400 48.00900
C  29.29600 -1.78100 45.62000
O  30.45000 -1.43000 45.71000
C  28.26000 -1.33500 44.61700
C  28.02100 0.11400 44.89400
O  27.41200 0.60800 45.85400
O  28.51100 0.76400 43.81300
C  28.29000 2.22700 43.62000
H  21.55700 -2.99000 43.27700
H  22.42700 -8.20100 47.11300
H  28.22500 -6.12400 48.80300
H  25.43200 -0.19300 43.35400
H  23.30300 -1.73000 42.11600
H  21.82600 -0.27100 43.32500
H  23.14000 0.74800 43.53200
H  22.79100 -0.52200 44.79800
H  25.05700 -2.06600 40.90800
H  26.67600 -2.16900 41.75400
H  27.12600 -0.26300 40.73000
H  25.49600 0.43700 41.03800
H  19.74100 -4.05900 43.59900
H  18.70300 -5.40000 43.98900
H  19.78900 -5.61800 42.59500
H  20.18600 -8.45000 47.49500
H  20.96300 -9.43400 46.18200
H  19.18600 -9.51600 46.52600
H  24.72500 -9.15500 47.84800
H  26.03200 -7.43400 50.04800
H  22.59800 -8.40500 49.43500
H  23.94400 -8.88300 50.48700
H  23.29000 -10.00200 49.34300
H  27.51000 -8.74100 47.95300
H  26.78700 -9.77900 49.06500
H  28.49700 -9.52700 50.36700
H  28.26300 -7.80900 50.71300
H  29.08500 -8.31200 49.24400
H  30.63500 -5.17800 47.63600
H  29.95300 -4.33100 49.07900
H  30.88600 -3.47000 47.95300
H  28.73700 -1.40400 43.64000
H  29.17700 2.78400 43.32000
H  27.82000 2.70000 44.48200
H  27.68400 2.39700 42.73100
Mg 17.58300 0.03500 28.11800
C  16.57800 1.73300 31.12400
C  19.62100 -2.01500 29.97200
C  18.90200 -1.05200 25.29900
C  16.05200 2.77700 26.42000
N  17.93000 -0.11300 30.31700
C  17.41400 0.67600 31.36300
C  17.96800 0.10100 32.73500
C  19.17900 -0.75100 32.26400
C  18.90600 -1.09100 30.74900
C  20.65500 -0.15200 32.36800
C  16.80200 -0.63500 33.46600
C  16.55800 -0.50500 35.01400
H  17.64500 0.23000 35.81400
N  18.91100 -1.53900 27.67500
C  19.64200 -2.23800 28.54200
C  20.15100 -3.43700 27.81500
C  20.11800 -3.05800 26.39200
C  19.28800 -1.81800 26.35100
C  20.99900 -4.51100 28.59400
C  20.63100 -3.75800 25.15200
O  20.53000 -3.33100 23.97900
C  21.42200 -5.08200 25.51100
N  17.55700 0.81100 26.16400
C  18.12700 0.09200 25.12100
C  17.93500 0.90600 23.81800
C  16.96100 2.04100 24.20400
C  16.78500 1.80900 25.66400
C  19.25600 1.50500 23.25900
C  15.60400 2.03600 23.45700
C  15.57500 1.59100 22.00500
N  16.55500 1.80700 28.60900
C  15.92000 2.77600 27.79900
C  15.17800 3.67800 28.63800
C  15.46400 3.33400 29.89500
C  16.23700 2.18300 29.84800
C  14.17700 4.82200 28.17200
C  15.07000 3.64500 31.26000
O  14.33500 4.46100 31.67200
C  15.96100 2.66800 32.13800
C  16.95100 3.49700 32.88500
O  18.01000 3.95100 32.56100
O  16.23000 4.00500 33.90300
C  16.92700 4.98200 34.76500
H  20.24300 -2.60600 30.64700
H  19.31500 -1.31800 24.32300
H  15.59300 3.63900 25.93100
H  18.30700 0.93800 33.34600
H  19.17900 -1.60000 32.94700
H  21.17700 -0.86700 33.00400
H  20.57000 0.76400 32.95400
H  21.21700 -0.01800 31.44400
H  16.97000 -1.66400 33.14700
H  15.87800 -0.43300 32.92400
H  16.26300 -1.43200 35.50500
H  15.64200 0.06700 35.15900
H  22.07500 -4.38700 28.46900
H  20.64800 -5.47900 28.23600
H  20.66000 -4.46500 29.62900
H  20.78800 -5.94700 25.70400
H  22.18000 -4.95600 26.28400
H  21.86800 -5.33000 24.54800
H  17.60700 0.16500 23.08900
H  17.26600 3.08500 24.28000
H  20.11900 1.24200 23.87100
H  19.11900 2.56700 23.06000
H  19.48900 1.05400 22.29500
H  15.11100 3.00200 23.56300
H  14.96600 1.29700 23.94200
H  15.25400 2.36300 21.30600
H  14.78200 0.84300 22.02700
H  16.49400 1.15100 21.61800
H  14.39900 5.02700 27.12500
H  14.51500 5.65500 28.78800
H  13.15100 4.52200 28.38400
H  15.27500 2.16900 32.82200
H  16.96300 6.01300 34.41200
H  17.95100 4.69900 35.01100
H  16.40300 5.00300 35.72100

