158

Mg 36.31800 2.29300 30.25400
C  33.88400 3.27900 32.37400
C  38.69100 2.34300 32.71600
C  38.57800 1.37300 27.90800
C  33.95300 2.64700 27.54100
N  36.26700 2.81100 32.27700
C  35.17400 3.17000 33.00400
C  35.48400 3.30600 34.41100
C  37.05300 3.29500 34.41800
C  37.39200 2.76900 33.06900
C  37.78300 4.63900 34.69600
C  34.84300 2.26500 35.30600
C  34.72600 2.65300 36.77500
H  35.30800 3.97200 37.26600
N  38.25100 1.70500 30.32400
C  39.09800 1.81600 31.43100
C  40.39000 1.33700 31.10700
C  40.46600 1.22600 29.67300
C  39.04800 1.43700 29.20500
C  41.45900 1.23600 32.14400
C  41.68800 0.86800 28.80900
O  41.63100 0.93500 27.59200
C  42.92800 0.52000 29.58700
N  36.26500 2.21900 27.95000
C  37.38000 1.77000 27.28300
C  37.06100 1.45700 25.83400
C  35.47200 1.68100 25.76700
C  35.20300 2.18200 27.16400
C  37.79900 2.19700 24.70900
C  34.71500 0.43600 25.34500
C  33.24800 0.65400 24.88100
N  34.38500 2.82600 29.97100
C  33.53100 2.95800 28.85000
C  32.23100 3.33800 29.31800
C  32.28600 3.41600 30.67200
C  33.57300 3.09600 31.01300
C  30.93400 3.62400 28.45100
C  31.53300 3.86300 31.82100
O  30.41500 4.34100 31.94100
C  32.51400 3.62200 33.02600
C  32.38300 4.81000 34.01300
O  32.83100 5.89000 33.83900
O  31.66100 4.35900 35.10800
C  31.34400 5.38600 36.14200
H  39.45600 2.41900 33.49200
H  39.40900 1.05000 27.27800
H  33.14400 2.71100 26.81000
H  35.06500 4.28100 34.66000
H  37.41300 2.59600 35.17300
H  38.62500 4.51000 35.37600
H  37.03900 5.24800 35.21000
H  38.12700 5.11700 33.77900
H  35.46200 1.36900 35.34800
H  33.90000 1.98300 34.83700
H  34.93400 1.83900 37.46900
H  33.66700 2.88100 36.89800
H  41.36900 0.29500 32.68800
H  41.35800 2.03500 32.87900
H  42.49900 1.40200 31.86300
H  43.48400 1.36300 29.99700
H  43.54000 -0.06200 28.89700
H  42.68500 -0.21000 30.35900
H  37.24800 0.38700 25.74400
H  35.17500 2.48300 25.09200
H  38.16200 1.51900 23.93600
H  38.58500 2.78000 25.18700
H  37.05000 2.78800 24.18100
H  34.66800 -0.37900 26.06800
H  35.34300 -0.03700 24.59000
H  33.00400 0.20900 23.91600
H  32.90400 1.68500 24.79100
H  32.67000 0.05400 25.58400
H  31.36300 4.00400 27.52400
H  30.16500 4.20000 28.96600
H  30.42100 2.75100 28.04700
H  32.26200 2.70100 33.55200
H  30.62700 6.10700 35.74900
H  32.20700 5.94300 36.50600
H  30.97400 4.82500 37.00000
Mg 35.30300 49.01000 25.93800
C  35.72100 47.02600 28.78200
C  34.03900 51.55000 28.00400
C  34.50300 50.77500 23.26000
C  36.48400 46.40900 24.05100
N  34.89200 49.23400 28.16100
C  35.27500 48.31200 29.10100
C  35.09900 48.89100 30.47700
C  34.35400 50.24600 30.21600
C  34.39300 50.41100 28.68000
C  32.92300 50.37100 30.89500
C  36.41700 49.11500 31.27300
C  36.34200 48.94800 32.80200
H  34.99400 48.92800 33.48100
N  34.45300 50.88300 25.62500
C  34.05900 51.80300 26.58600
C  33.83300 53.11000 26.03300
C  33.87800 52.92100 24.59800
C  34.30700 51.49100 24.43900
C  33.60700 54.41000 26.84400
C  33.70900 53.97600 23.53700
O  33.85900 53.70000 22.36800
C  33.31900 55.43500 23.93600
N  35.44700 48.68700 23.91700
C  34.93500 49.46400 23.00200
C  34.96500 48.83800 21.62700
C  35.74000 47.50500 21.87800
C  35.97100 47.57200 23.38100
C  33.63700 48.66700 20.85500
C  37.03000 47.26000 21.05900
C  38.32100 47.81300 21.68600
N  35.89600 47.03800 26.31600
C  36.39500 46.12000 25.44700
C  36.75400 44.94300 26.08600
C  36.55700 45.15300 27.46900
C  36.07600 46.49500 27.53000
C  37.28600 43.65400 25.38300
C  36.52900 44.67600 28.84000
O  36.79100 43.57500 29.37600
C  36.03000 45.93800 29.74800
C  34.85700 45.49200 30.53900
O  33.71400 45.40000 30.08800
O  35.25300 45.27900 31.86200
C  34.14700 44.84600 32.67800
H  33.84900 52.37000 28.69900
H  34.19300 51.33100 22.37300
H  36.99800 45.66500 23.44000
H  34.50800 48.12600 30.98300
H  34.92800 50.98200 30.77900
H  32.14000 50.63800 30.18500
H  32.90600 51.23600 31.55800
H  32.66600 49.45100 31.41900
H  36.75700 50.12400 31.03600
H  37.18800 48.46600 30.85600
H  37.06900 49.59000 33.29900
H  36.77300 47.94800 32.85500
H  32.73400 54.98100 26.52800
H  34.46300 55.08200 26.77200
H  33.45100 54.14900 27.89100
H  34.00100 55.74300 24.72900
H  32.30900 55.41500 24.34400
H  33.44700 56.12100 23.09900
H  35.51200 49.49000 20.94600
H  35.06800 46.65200 21.78800
H  33.54500 47.63000 20.53000
H  33.44800 49.36000 20.03500
H  32.81000 48.78400 21.55500
H  36.90700 47.85700 20.15600
H  37.04700 46.18600 20.87200
H  39.06800 47.31200 21.07100
H  38.42200 47.59300 22.74900
H  38.48500 48.87000 21.47600
H  37.37200 42.88500 26.15000
H  38.16200 43.91500 24.78900
H  36.43400 43.33700 24.78200
H  36.83300 46.23800 30.42100
H  33.31400 45.54600 32.74300
H  34.46900 44.73800 33.71400
H  33.72500 43.85300 32.52500

