158

Mg 44.41900 5.34800 47.08800
C  42.25100 8.06400 46.54700
C  41.63600 3.25300 46.06300
C  46.45600 2.77100 47.06000
C  47.11200 7.47900 47.04200
N  42.13700 5.65200 46.29000
C  41.53500 6.88100 46.32800
C  40.08300 6.73700 45.88100
C  39.87600 5.20900 45.95900
C  41.30000 4.62300 46.03900
C  39.03900 4.68100 47.18800
C  39.65800 7.42800 44.50900
C  40.66600 7.38500 43.30000
H  40.17700 7.59800 41.86300
N  44.06400 3.28600 46.78400
C  42.85900 2.63400 46.31900
C  43.17800 1.19800 46.24700
C  44.55900 1.07700 46.68200
C  45.08900 2.40400 46.86700
C  42.10200 0.15600 45.87000
C  45.28700 -0.24100 46.95700
O  44.78300 -1.34400 46.73900
C  46.67800 -0.25500 47.52000
N  46.49500 5.15300 47.20800
C  47.08600 3.93400 47.20900
C  48.56100 4.10000 47.27700
C  48.81100 5.60200 47.40100
C  47.43100 6.14000 47.16600
C  49.21200 3.13600 48.39300
C  49.89700 6.18700 46.39000
C  51.05800 6.94200 47.03100
N  44.70400 7.33800 47.05700
C  45.83500 8.08400 46.84400
C  45.51600 9.48300 46.81500
C  44.16400 9.48000 46.76200
C  43.67600 8.15300 46.72000
C  46.45800 10.58200 46.78100
C  43.08400 10.43500 46.69100
O  43.11600 11.65200 46.77500
C  41.81200 9.54900 46.54600
C  40.76500 9.82400 47.68400
O  41.01400 10.12000 48.85500
O  39.46800 9.61800 47.22400
C  38.39800 10.06700 48.06200
H  40.80600 2.55100 45.95500
H  47.20700 1.99400 46.90300
H  48.03400 8.06300 47.06000
H  39.54000 7.13700 46.73700
H  39.33800 4.90100 45.06200
H  39.50100 3.92400 47.82300
H  38.15700 4.16800 46.80400
H  38.74100 5.51600 47.82200
H  39.40300 8.45800 44.75600
H  38.86100 6.86800 44.02000
H  41.39000 6.57200 43.36700
H  41.21900 8.29700 43.52300
H  42.26300 -0.44900 44.97800
H  41.09100 0.55400 45.77800
H  42.12300 -0.56200 46.69000
H  46.82900 -1.23600 47.97100
H  46.78200 0.53000 48.27000
H  47.47500 -0.25700 46.77700
H  48.86700 3.84100 46.26400
H  49.02500 5.86700 48.43600
H  49.58900 2.17000 48.05700
H  48.46200 2.76400 49.09200
H  50.04600 3.56400 48.94900
H  49.37700 6.79700 45.65200
H  50.28800 5.41000 45.73300
H  51.96900 6.35900 46.89100
H  50.81900 7.03800 48.09000
H  51.36100 7.93200 46.69000
H  47.42500 10.25600 47.16400
H  46.13400 11.45800 47.34400
H  46.62400 10.82100 45.73100
H  41.28700 9.58100 45.59200
H  38.60700 11.05200 48.48000
H  38.16400 9.28900 48.78900
H  37.53500 10.23500 47.41900
Mg 49.53700 45.62000 41.45800
C  46.17900 45.72200 40.32600
C  49.55900 42.17500 40.57000
C  52.89000 45.61600 41.47300
C  49.44600 49.17200 41.60100
N  48.04900 44.18200 40.50200
C  46.82200 44.49200 40.15000
C  46.19900 43.30100 39.47700
C  46.91200 42.12900 40.14100
C  48.29600 42.87400 40.40900
C  46.23500 41.42500 41.31100
C  46.23800 43.36500 37.83800
C  44.88600 43.24300 37.16900
H  44.68800 44.26200 36.02100
N  51.00900 44.09000 41.07000
C  50.86300 42.72100 40.81200
C  52.11900 42.06700 40.79000
C  53.06500 43.05200 41.08600
C  52.33100 44.37600 41.17800
C  52.24700 40.62100 40.49200
C  54.53100 42.74500 41.12700
O  54.95600 41.61800 40.82800
C  55.51500 43.78100 41.52100
N  50.99600 47.22300 41.49600
C  52.32400 46.90600 41.64600
C  53.17400 48.15500 41.71400
C  52.06500 49.30800 41.81500
C  50.75000 48.59500 41.62800
C  54.17000 48.05400 42.87800
C  52.27300 50.52900 40.90000
C  52.13900 51.93500 41.56500
N  48.09800 47.13900 41.37700
C  48.19900 48.56900 41.51000
C  46.87900 49.15900 41.40500
C  46.09400 48.04800 40.89800
C  46.82500 46.84900 40.97500
C  46.65700 50.68000 41.45500
C  44.75500 47.69200 40.39300
O  43.75900 48.40700 40.13200
C  44.78300 46.17500 40.02200
C  43.71200 45.61600 40.84400
O  43.61700 45.52000 42.06000
O  42.68000 45.32000 39.93400
C  41.38200 45.16800 40.52300
H  49.38200 41.10800 40.42100
H  53.98000 45.60800 41.41900
H  49.50800 50.24700 41.78400
H  45.19600 43.36800 39.89800
H  47.13600 41.30700 39.46200
H  45.19000 41.71800 41.21600
H  46.62300 41.70100 42.29100
H  46.16400 40.35400 41.11800
H  46.78600 42.50400 37.45500
H  46.80200 44.24700 37.53500
H  44.13500 43.54000 37.90000
H  44.60400 42.23900 36.85200
H  52.73500 40.60200 39.51800
H  51.31500 40.06100 40.42500
H  52.92800 40.05800 41.13200
H  55.15200 44.20800 42.45600
H  55.64900 44.57900 40.79100
H  56.51000 43.33800 41.56400
H  53.74700 48.32900 40.80300
H  52.09000 49.72200 42.82300
H  54.02100 47.07700 43.33800
H  54.24200 48.92900 43.52300
H  55.11500 48.22500 42.36200
H  51.53200 50.60400 40.10500
H  53.23700 50.43100 40.40100
H  53.14000 52.12800 41.95000
H  51.49200 51.85600 42.43900
H  51.86100 52.72500 40.86800
H  46.54800 51.08900 42.45900
H  45.67500 50.72100 40.98500
H  47.45600 51.13900 40.87300
H  44.77200 46.07100 38.93700
H  41.31000 44.27800 41.14900
H  40.65300 45.04200 39.72200
H  41.18100 46.03600 41.15000

