158

Mg 43.76400 3.77600 46.68100
C  41.50200 6.70500 46.48800
C  40.98700 1.78100 46.40100
C  45.80000 1.21400 46.14200
C  46.37700 6.01400 46.77100
N  41.52600 4.28800 46.36000
C  40.80500 5.48200 46.49200
C  39.31500 5.20100 46.61100
C  39.26100 3.63400 46.78300
C  40.70500 3.15400 46.51800
C  38.71900 3.00800 48.08100
C  38.38400 5.75200 45.43100
C  38.83700 5.25500 44.01300
H  39.17100 6.39500 42.96700
N  43.44000 1.71800 46.19900
C  42.23400 1.11200 46.14600
C  42.50600 -0.29800 45.99900
C  43.81600 -0.52400 45.72300
C  44.44300 0.82900 45.95500
C  41.37100 -1.38300 45.90000
C  44.47000 -1.85500 45.27000
O  43.81900 -2.89200 45.22100
C  45.91200 -1.93600 44.89400
N  45.84200 3.59600 46.25500
C  46.43000 2.39400 46.38700
C  47.97200 2.52200 46.70600
C  48.09100 4.12000 46.83400
C  46.71600 4.66600 46.60300
C  48.44200 1.77500 47.94400
C  49.16000 4.74400 46.08100
C  50.56100 4.99900 46.68500
N  43.96400 5.93700 46.47100
C  45.08100 6.65100 46.61700
C  44.78500 8.05500 46.56200
C  43.37100 8.15500 46.58500
C  42.91000 6.83000 46.44700
C  45.77800 9.15700 46.72300
C  42.21400 9.04900 46.60000
O  42.12100 10.30100 46.57300
C  40.91000 8.08900 46.64000
C  40.30900 8.31700 47.90200
O  40.65500 7.69400 48.91200
O  39.28300 9.23400 47.76700
C  38.51300 9.28900 49.04500
H  40.05900 1.20500 46.40100
H  46.56100 0.44800 45.98100
H  47.24800 6.65900 46.90800
H  39.03700 5.65600 47.56200
H  38.64200 3.29500 45.95200
H  38.22500 3.77700 48.67500
H  39.48700 2.53000 48.69100
H  37.96500 2.25900 47.84000
H  38.28200 6.83100 45.54500
H  37.37700 5.42200 45.68700
H  38.06600 4.57800 43.64400
H  39.70800 4.60500 44.09500
H  41.21500 -1.38900 44.82200
H  40.44100 -1.06400 46.37000
H  41.68200 -2.38400 46.20000
H  46.60600 -2.06200 45.72500
H  46.09500 -0.96100 44.44200
H  46.09500 -2.69900 44.13800
H  48.57000 2.25300 45.83500
H  48.38700 4.29900 47.86800
H  49.02300 0.90100 47.65100
H  47.56400 1.34000 48.42300
H  49.04300 2.33700 48.65900
H  48.70300 5.66600 45.72300
H  49.31900 4.14900 45.18100
H  50.78200 4.15800 47.34300
H  50.61300 5.88400 47.31900
H  51.36300 5.09900 45.95400
H  46.59500 9.04200 46.01000
H  46.27100 8.94200 47.67100
H  45.49000 10.19600 46.56100
H  40.40200 8.23900 45.68700
H  39.08300 9.23700 49.97200
H  37.69300 8.57400 49.11700
H  37.91800 10.19000 49.19300
Mg 48.27500 45.64500 43.48300
C  44.85600 45.63600 42.63300
C  48.51400 42.61400 42.13500
C  51.69900 46.13100 43.57800
C  47.92000 49.02700 44.13800
N  46.78500 44.23500 42.66600
C  45.44600 44.39700 42.42000
C  44.80000 43.10000 41.79400
C  46.02400 42.07700 41.93900
C  47.19800 42.99300 42.25000
C  45.73200 40.86500 42.86600
C  44.37600 43.41400 40.33900
C  43.04800 42.82600 39.79800
H  43.24300 41.96600 38.58100
N  49.83900 44.49700 43.05500
C  49.71800 43.26500 42.53800
C  51.08500 42.72100 42.40300
C  52.02300 43.60500 42.80000
C  51.24600 44.79800 43.25100
C  51.20600 41.35700 41.73900
C  53.50800 43.31900 42.81200
O  53.99200 42.27000 42.40800
C  54.49300 44.21300 43.43900
N  49.64100 47.40800 43.72800
C  50.95500 47.28800 43.76700
C  51.64400 48.60000 44.07000
C  50.43700 49.54800 44.30700
C  49.24900 48.69300 44.01800
C  52.79200 48.63100 45.02200
C  50.40400 50.80300 43.45100
C  50.20500 52.15200 44.23300
N  46.80400 47.11000 43.30600
C  46.74300 48.39800 43.78500
C  45.41700 48.94400 43.88000
C  44.64800 47.92900 43.27800
C  45.52300 46.81500 43.05500
C  44.99600 50.33000 44.40700
C  43.40100 47.58900 42.70200
O  42.40700 48.29300 42.50400
C  43.50100 46.09700 42.28000
C  42.34700 45.31000 42.79800
O  41.68900 44.60500 42.08700
O  42.22900 45.46300 44.20900
C  41.11700 44.78800 44.80700
H  48.66600 41.56100 41.88500
H  52.78300 46.11100 43.70800
H  47.70500 50.02400 44.53000
H  43.96800 42.83300 42.44600
H  46.19500 41.67800 40.94000
H  44.66300 40.70700 42.72400
H  45.88800 41.01000 43.93500
H  46.28200 39.98800 42.52700
H  45.12700 43.02100 39.65400
H  44.26600 44.45800 40.04700
H  42.30500 43.60300 39.61500
H  42.61400 42.26400 40.62500
H  50.43900 41.14100 40.99600
H  51.31000 40.57300 42.48800
H  52.18700 41.43800 41.27100
H  54.88400 44.93600 42.72400
H  55.32900 43.56900 43.71300
H  54.11500 44.60600 44.38300
H  52.03500 48.84400 43.08300
H  50.38000 49.77400 45.37200
H  52.92400 47.66300 45.50600
H  52.80400 49.47800 45.70800
H  53.68300 48.65300 44.39400
H  49.81200 50.59300 42.56100
H  51.35500 50.95800 42.94200
H  51.21400 52.56100 44.29000
H  49.83500 51.98500 45.24500
H  49.51900 52.82400 43.71900
H  43.98300 50.30200 44.00500
H  45.55700 51.20200 44.07200
H  45.10200 50.36100 45.49200
H  43.23700 46.10300 41.22200
H  41.00500 44.70900 45.88800
H  41.05900 43.71400 44.63000
H  40.20200 45.27200 44.46400

