158

Mg 25.43400 1.22600 30.09900
C  27.73200 1.04400 32.76800
C  22.96100 1.45600 32.33800
C  23.47900 1.32400 27.47300
C  28.24100 0.59300 27.87800
N  25.41000 1.16100 32.32300
C  26.43300 1.23900 33.20600
C  25.88300 1.49500 34.64600
C  24.35200 1.29800 34.50500
C  24.20100 1.29300 32.96500
C  23.67200 0.06000 35.17800
C  26.29800 2.86200 35.09900
C  27.10500 2.95100 36.40800
H  26.45000 3.74800 37.55400
N  23.44900 1.44100 29.91900
C  22.53900 1.45400 30.92800
C  21.20300 1.60700 30.38100
C  21.35400 1.60800 28.98200
C  22.84000 1.48000 28.71300
C  19.94300 1.77800 31.20700
C  20.27600 1.65200 27.85700
O  20.52600 1.74800 26.68900
C  18.80100 1.59500 28.20200
N  25.83100 0.79400 27.93800
C  24.77900 1.02600 27.06300
C  25.25300 1.14600 25.61900
C  26.81500 1.04300 25.80200
C  26.97400 0.81200 27.30900
C  24.61200 0.09900 24.59900
C  27.63300 2.26900 25.28300
C  29.07000 2.09500 24.61600
N  27.48400 0.87700 30.21200
C  28.48400 0.51900 29.23400
C  29.71200 0.34500 29.87700
C  29.41700 0.58100 31.24000
C  28.07600 0.87700 31.39700
C  31.12900 0.16200 29.28600
C  30.04500 0.66500 32.60800
O  31.16700 0.46200 32.92200
C  29.02000 1.13000 33.60900
C  28.93200 0.12100 34.68800
O  28.33900 -0.95000 34.64300
O  29.55100 0.54800 35.84200
C  29.34800 -0.18400 37.09900
H  22.06400 1.53600 32.95500
H  22.91700 1.45300 26.54500
H  29.11800 0.58000 27.22800
H  26.33400 0.72700 35.27500
H  23.82800 2.24400 34.64000
H  22.86700 0.45600 35.79700
H  24.38500 -0.52800 35.75500
H  23.11000 -0.63000 34.54700
H  25.38500 3.44800 35.20800
H  26.92500 3.24400 34.29400
H  27.93500 3.59300 36.11300
H  27.54300 2.00000 36.71000
H  19.32500 2.61400 30.88000
H  20.16700 1.84000 32.27100
H  19.42700 0.82000 31.25700
H  18.34000 2.51600 28.55800
H  18.61700 0.77600 28.89700
H  18.22700 1.23000 27.35000
H  25.00800 2.12900 25.21800
H  27.26700 0.20600 25.26900
H  23.98200 -0.61800 25.12500
H  25.40000 -0.50300 24.14700
H  23.98100 0.57600 23.84900
H  27.78700 2.98800 26.08800
H  26.99500 2.78700 24.56600
H  29.47800 1.10200 24.80000
H  29.75300 2.77700 25.12200
H  28.94300 2.32000 23.55700
H  31.33600 0.95900 28.57300
H  31.17100 -0.71100 28.63500
H  31.76000 0.14400 30.17400
H  29.13800 2.14100 33.99900
H  30.34900 -0.20200 37.52900
H  28.98000 -1.20000 36.95300
H  28.77600 0.37100 37.84200
Mg 46.90800 16.30100 27.66900
C  45.11700 15.99700 30.68400
C  49.49500 17.88000 29.44600
C  48.55900 16.57700 24.84700
C  44.05900 14.94100 26.04600
N  47.28100 16.85800 29.86900
C  46.41700 16.60500 30.87100
C  46.98500 17.16200 32.17300
C  48.22200 18.00200 31.77600
C  48.33400 17.58600 30.28100
C  47.97300 19.53300 32.04300
C  47.17600 15.99900 33.20800
C  47.35100 16.44300 34.65300
H  47.23200 17.94900 35.08900
N  48.76200 17.06000 27.24500
C  49.67600 17.63600 28.04100
C  50.93200 17.83600 27.35600
C  50.68000 17.55800 26.02700
C  49.24300 17.07900 25.99300
C  52.16300 18.31600 28.05800
C  51.66800 17.49100 24.77300
O  51.33600 17.15900 23.65200
C  53.01100 18.02400 24.94300
N  46.30400 15.94500 25.70800
C  47.20400 16.12200 24.66700
C  46.60100 15.70800 23.31200
C  45.25300 14.99400 23.83100
C  45.21300 15.23500 25.29100
C  46.54500 16.93100 22.35900
C  45.31600 13.46700 23.49200
C  44.50200 13.17500 22.22300
N  45.02100 15.51700 28.18400
C  43.94800 15.08100 27.42600
C  42.80100 14.82800 28.23800
C  43.20900 15.13200 29.55300
C  44.54000 15.62200 29.45400
C  41.45200 14.27100 27.79000
C  42.83100 15.11800 30.84500
O  41.81000 14.56100 31.31100
C  43.98400 15.76300 31.74600
C  43.46100 16.95700 32.39900
O  43.26700 18.05600 31.88600
O  43.17400 16.62900 33.73400
C  42.81400 17.71900 34.63600
H  50.15200 18.49700 30.06400
H  49.17100 16.40200 23.95900
H  43.26700 14.49600 25.44000
H  46.16800 17.77400 32.55500
H  49.06900 17.79800 32.43100
H  48.87900 20.09500 32.27100
H  47.28200 19.66100 32.87600
H  47.52500 19.93100 31.13200
H  48.09500 15.49300 32.91300
H  46.32100 15.32400 33.16700
H  48.39000 16.23100 34.90700
H  46.64600 15.83400 35.21800
H  51.91900 19.37800 28.02400
H  53.11200 17.95600 27.66000
H  52.19100 18.14600 29.13400
H  53.46700 17.28300 25.60000
H  53.02700 19.04100 25.33500
H  53.61400 17.94000 24.03900
H  47.22500 14.94100 22.85300
H  44.55000 15.58100 23.24000
H  47.20200 17.69900 22.76700
H  45.52700 17.30600 22.25400
H  46.87900 16.71700 21.34400
H  44.87700 12.95100 24.34500
H  46.30700 13.01400 23.48500
H  45.15000 12.56600 21.59200
H  44.31600 14.09700 21.67200
H  43.54800 12.67000 22.37200
H  40.64200 14.64900 28.41300
H  41.42800 13.19200 27.93800
H  41.14500 14.38300 26.75000
H  44.09500 14.99800 32.51500
H  41.86900 18.10600 34.25400
H  43.59500 18.46700 34.49500
H  42.82400 17.53700 35.71000

