158

Mg 25.67300 -0.24000 28.64600
C  27.51700 -0.68000 31.58100
C  22.76800 -0.38600 30.52200
C  23.92800 -0.31100 25.77700
C  28.62400 -0.48800 26.87200
N  25.25700 -0.72500 30.88600
C  26.11100 -0.57700 31.82700
C  25.50300 -0.23900 33.20000
C  24.01700 -0.16000 32.86800
C  23.95300 -0.49800 31.27900
C  23.02500 -1.00700 33.61000
C  26.15700 1.08200 33.86800
C  26.78800 0.93200 35.24400
H  26.32600 1.86300 36.33800
N  23.67900 -0.34800 28.20800
C  22.65600 -0.29500 29.14300
C  21.35300 -0.01200 28.42400
C  21.70100 -0.06700 26.98800
C  23.14800 -0.30300 26.92900
C  20.08200 0.23400 29.18000
C  20.77300 0.12100 25.80500
O  21.11200 0.07400 24.62100
C  19.26900 0.20800 25.95600
N  26.20000 -0.61000 26.60400
C  25.26400 -0.32300 25.63400
C  25.96200 -0.13500 24.27100
C  27.41900 -0.01100 24.62200
C  27.44700 -0.44200 26.14500
C  25.58000 -1.14000 23.15200
C  27.98300 1.45500 24.45200
C  29.51900 1.57900 24.32700
N  27.70300 -0.68500 29.11000
C  28.75900 -0.74900 28.25900
C  29.95100 -1.04100 29.08600
C  29.52700 -0.96300 30.40900
C  28.10900 -0.76300 30.34100
C  31.40200 -1.22400 28.60200
C  29.95000 -1.06300 31.77100
O  31.04400 -1.25800 32.23000
C  28.68300 -0.74100 32.50700
C  28.46700 -1.71900 33.57600
O  27.91800 -2.80400 33.42300
O  29.02300 -1.30500 34.78400
C  28.75500 -2.21300 35.92800
H  21.86300 -0.14000 31.08100
H  23.35100 -0.23200 24.85300
H  29.61200 -0.41400 26.41300
H  25.75200 -1.15400 33.73700
H  23.53200 0.81400 32.80900
H  22.88900 -0.45400 34.54000
H  23.59000 -1.91800 33.80600
H  22.08900 -1.32600 33.15200
H  25.43600 1.89800 33.91300
H  26.90800 1.46100 33.17400
H  27.80600 1.16200 34.92700
H  26.79900 -0.10300 35.58700
H  19.85600 1.26900 29.43700
H  19.99600 -0.45600 30.01900
H  19.20100 -0.01300 28.58800
H  19.03200 1.06300 26.58900
H  18.90300 -0.72900 26.37600
H  18.86600 0.23800 24.94400
H  25.55100 0.81000 23.91500
H  28.01000 -0.78500 24.13200
H  26.39400 -1.77000 22.79300
H  25.14100 -0.59900 22.31400
H  24.78000 -1.84100 23.39100
H  27.57100 2.03600 25.27700
H  27.44800 1.85700 23.59300
H  29.85900 2.27900 25.09000
H  29.80200 1.92100 23.33200
H  30.02100 0.62700 24.50200
H  31.28000 -2.11800 27.99100
H  31.96100 -1.44900 29.50900
H  31.77600 -0.38100 28.02000
H  28.77600 0.22300 33.00800
H  27.92300 -1.96800 36.58800
H  29.62900 -2.22600 36.57800
H  28.70200 -3.26300 35.63900
Mg 35.37600 1.21300 29.25800
C  33.30500 2.29300 31.85400
C  37.83200 0.87500 31.63700
C  37.73600 0.46500 26.84200
C  32.95300 1.84500 26.96300
N  35.56200 1.76900 31.50800
C  34.55000 1.98200 32.31300
C  34.98600 1.91300 33.76200
C  36.52300 1.75100 33.67100
C  36.68800 1.45800 32.20100
C  37.56100 2.75300 34.32400
C  34.18200 0.88900 34.61600
C  33.97400 1.14300 36.10700
H  34.72000 2.29100 36.74800
N  37.48400 0.83400 29.20700
C  38.25900 0.64400 30.27800
C  39.53500 0.09200 29.85300
C  39.60200 0.17500 28.47200
C  38.23500 0.50300 28.11800
C  40.60200 -0.26800 30.91300
C  40.76900 -0.07400 27.49800
O  40.58100 0.08200 26.29900
C  42.01400 -0.58100 27.94000
N  35.27600 1.15000 27.19900
C  36.41200 0.87400 26.39100
C  36.02100 0.67600 24.92000
C  34.49300 1.10600 24.98700
C  34.21300 1.32600 26.49000
C  36.81000 1.39600 23.79200
C  33.52000 0.15600 24.27800
C  33.12000 -1.14500 25.05600
N  33.50100 2.00700 29.29600
C  32.64400 2.14100 28.27900
C  31.39200 2.54400 28.78900
C  31.56300 2.68200 30.18400
C  32.83700 2.23400 30.49300
C  30.08500 2.66800 28.05800
C  30.90500 2.95300 31.46600
O  29.72200 3.20800 31.77700
C  31.99500 2.63400 32.55600
C  32.00200 3.85500 33.43200
O  32.72100 4.78000 33.34900
O  31.10300 3.66200 34.51100
C  31.06000 4.83100 35.45400
H  38.48000 0.75200 32.50700
H  38.44100 0.09800 26.09400
H  32.16800 2.08600 26.24400
H  34.78000 2.87000 34.24200
H  36.66900 0.79500 34.17400
H  38.20800 2.29000 35.07000
H  36.91600 3.50600 34.77400
H  38.11100 3.36000 33.60500
H  34.71200 -0.06400 34.62300
H  33.21300 0.68800 34.15900
H  34.06800 0.21900 36.67700
H  32.89900 1.31400 36.16500
H  40.20900 -0.37500 31.92400
H  41.50900 0.32700 30.80700
H  41.00600 -1.22900 30.59300
H  42.56100 0.25700 28.37300
H  42.62400 -0.97700 27.12900
H  41.88200 -1.39800 28.64900
H  36.00000 -0.37300 24.62600
H  34.35800 2.06100 24.47800
H  37.07000 0.67800 23.01400
H  37.69900 1.94700 24.10000
H  36.14400 2.14400 23.36300
H  34.01200 -0.21000 23.37700
H  32.66700 0.72300 23.90500
H  33.92600 -1.55300 25.66500
H  32.78500 -1.81100 24.26100
H  32.18800 -1.01200 25.60600
H  29.29800 2.33500 28.73500
H  29.96800 2.08900 27.14200
H  29.90700 3.69600 27.74500
H  31.58600 1.78200 33.09900
H  31.90400 4.73500 36.13600
H  30.12600 4.71700 36.00400
H  31.05400 5.78800 34.93200

