158

Mg 23.80600 -5.35700 45.44100
C  26.00300 -2.94100 44.14700
C  21.31800 -4.05700 43.47500
C  22.18300 -8.07300 45.98800
C  26.63300 -6.70200 47.18900
N  23.70700 -3.61900 44.17600
C  24.71100 -2.79900 43.77600
C  24.09500 -1.77900 42.71300
C  22.57900 -1.94100 42.87400
C  22.49900 -3.28500 43.59900
C  21.77000 -0.87000 43.69900
C  24.68400 -2.09500 41.27800
C  25.16400 -0.86500 40.42500
H  24.67200 -0.78300 38.96600
N  21.85600 -5.99700 44.88400
C  21.06500 -5.35700 43.98900
C  19.94400 -6.23700 43.66400
C  20.13800 -7.43900 44.34000
C  21.43000 -7.24800 45.11400
C  18.83900 -5.89300 42.60200
C  19.11900 -8.57400 44.31600
O  18.06100 -8.44700 43.61300
C  19.39500 -9.87400 45.07700
N  24.41100 -7.17300 46.35800
C  23.45000 -8.12300 46.52300
C  23.96700 -9.42800 47.18800
C  25.26900 -8.79200 47.84400
C  25.48400 -7.48200 47.11700
C  23.03400 -10.09600 48.24400
C  26.54200 -9.80100 47.85500
C  27.39800 -9.65800 49.15700
N  25.96800 -4.92100 45.67500
C  26.86700 -5.52100 46.43300
C  28.05900 -4.84200 46.33000
C  27.82000 -3.78200 45.43200
C  26.48900 -3.88100 45.05700
C  29.27300 -5.12500 47.07700
C  28.35000 -2.57300 44.81500
O  29.50400 -2.09000 44.80700
C  27.23300 -2.07400 43.88400
C  26.86400 -0.66200 44.22600
O  26.60100 -0.28300 45.34800
O  27.03400 0.06400 43.07900
C  26.78500 1.55900 43.24000
H  20.54900 -3.55400 42.88400
H  21.52700 -8.94300 46.06200
H  27.34500 -7.05500 47.93700
H  24.27000 -0.72300 42.91700
H  22.14000 -1.97500 41.87700
H  22.38900 -0.15000 44.23500
H  21.13000 -1.37100 44.42600
H  21.22100 -0.27200 42.97100
H  23.81900 -2.45700 40.72300
H  25.29900 -2.99500 41.28800
H  26.20500 -1.09300 40.19400
H  25.09300 0.07200 40.97700
H  18.64700 -6.57300 41.77300
H  19.02500 -4.95400 42.07900
H  17.90200 -5.91800 43.15700
H  19.16000 -9.66700 46.12100
H  20.43500 -10.18600 44.97700
H  18.69300 -10.57600 44.62800
H  24.21500 -10.02400 46.31000
H  25.07700 -8.45100 48.86100
H  21.99700 -9.83300 48.03500
H  23.27600 -9.92100 49.29300
H  22.95200 -11.16900 48.07500
H  27.19800 -9.58500 47.01300
H  26.12800 -10.80700 47.77400
H  28.45300 -9.81500 48.93100
H  27.16800 -10.42900 49.89200
H  27.16900 -8.70300 49.63000
H  29.54800 -4.15800 47.49700
H  30.06400 -5.37700 46.36900
H  29.15800 -5.81500 47.91300
H  27.53300 -2.21400 42.84500
H  26.49300 1.81300 44.25900
H  25.93100 1.79300 42.60400
H  27.70300 1.99000 42.84200
Mg 50.95500 46.55100 41.35600
C  47.86000 47.71300 40.31600
C  50.15800 43.45700 40.25800
C  54.13800 45.70800 41.71600
C  51.85700 49.95400 41.81300
N  49.21300 45.65300 40.35300
C  48.03800 46.32700 40.06100
C  47.06600 45.31800 39.38800
C  47.71300 43.93900 39.50700
C  49.11900 44.34600 40.00600
C  47.02400 42.97400 40.49700
C  46.80000 45.71100 37.94000
C  45.39800 45.46900 37.32300
H  45.49000 44.43000 36.27000
N  51.99400 44.85500 41.01800
C  51.49000 43.63300 40.65100
C  52.44800 42.57600 40.82200
C  53.62500 43.24900 41.28900
C  53.26300 44.66600 41.35500
C  52.33100 41.11300 40.40300
C  54.93300 42.51600 41.56000
O  55.01900 41.27600 41.39400
C  56.24600 43.20300 41.87400
N  52.73100 47.67900 41.58600
C  53.87600 47.07600 41.73900
C  55.03800 48.01300 42.00100
C  54.32000 49.38300 42.02200
C  52.87300 49.03200 41.86700
C  55.82500 47.77300 43.29700
C  54.71700 50.69900 41.25700
C  55.05700 51.97600 42.05200
N  50.05900 48.51200 41.25400
C  50.51000 49.78900 41.52300
C  49.49600 50.76600 41.36800
C  48.46300 50.01100 40.82000
C  48.85700 48.67200 40.81500
C  49.57200 52.26600 41.65100
C  47.15000 50.09000 40.27700
O  46.51800 51.08300 40.05300
C  46.73200 48.64800 39.83400
C  45.48000 48.26500 40.60300
O  45.42100 48.24800 41.82800
O  44.40100 48.04000 39.73400
C  43.12300 48.10500 40.47700
H  49.93900 42.40300 40.07600
H  55.17800 45.39400 41.83100
H  52.10900 51.00300 41.98400
H  46.12100 45.40300 39.92300
H  47.82900 43.49000 38.52100
H  47.00200 41.95400 40.11500
H  45.97200 43.18000 40.69800
H  47.52400 42.93000 41.46500
H  47.51300 45.18600 37.30400
H  47.06000 46.75200 37.74900
H  45.12400 46.41800 36.86100
H  44.56100 45.28900 37.99700
H  53.10200 40.81300 39.69400
H  51.38400 40.93900 39.89200
H  52.29100 40.52700 41.32100
H  56.15400 43.76700 42.80100
H  56.56400 43.95800 41.15500
H  57.10400 42.53300 41.92900
H  55.74500 48.00400 41.17200
H  54.19200 49.55500 43.09000
H  55.53600 46.79300 43.67800
H  55.54900 48.51700 44.04400
H  56.89300 47.62900 43.13100
H  54.06300 51.00200 40.43900
H  55.66200 50.39700 40.80600
H  54.63200 51.83600 43.04600
H  54.44700 52.78400 41.64900
H  56.12400 52.16400 41.93200
H  50.58400 52.47200 42.00100
H  48.81100 52.55400 42.37600
H  49.45900 52.75900 40.68600
H  46.56000 48.56500 38.76100
H  42.79900 47.09800 40.74100
H  42.48900 48.81000 39.93800
H  43.12700 48.50000 41.49300

