158

Mg 30.32100 58.21000 40.02100
C  27.54900 56.08900 39.28800
C  32.37300 55.62900 38.93500
C  32.68900 60.33500 40.15800
C  27.87000 60.74600 40.50000
N  30.02300 56.18400 39.03100
C  28.79400 55.52400 38.87200
C  29.05500 54.07500 38.47700
C  30.57100 53.88200 38.56600
C  31.01300 55.32000 38.89400
C  31.08000 52.83500 39.68000
C  28.44300 53.53100 37.08400
C  28.05200 54.55700 36.02200
H  28.30700 54.21100 34.56300
N  32.37700 57.96300 39.82200
C  33.03300 56.84500 39.37000
C  34.46600 57.07000 39.30000
C  34.67000 58.51600 39.55700
C  33.27100 59.00600 39.86100
C  35.43400 56.00200 38.66900
C  35.97700 59.27300 39.54900
O  37.02500 58.63300 39.35200
C  36.09700 60.68800 39.87300
N  30.27100 60.31000 40.18700
C  31.46100 60.96500 40.32500
C  31.30100 62.44500 40.69000
C  29.74400 62.52700 41.12900
C  29.25400 61.11600 40.55500
C  32.24300 63.00400 41.76300
C  29.10700 63.79400 40.59000
C  28.50300 64.70300 41.73700
N  28.12500 58.42100 40.03200
C  27.31800 59.46200 40.21500
C  25.88200 59.06100 40.15800
C  25.94200 57.74000 39.73500
C  27.31400 57.39800 39.66400
C  24.68500 60.00900 40.30300
C  25.17700 56.53200 39.45300
O  23.92900 56.38900 39.46700
C  26.17400 55.43800 39.08200
C  25.95900 54.33200 40.05000
O  26.17600 54.45700 41.25400
O  25.53400 53.19900 39.36400
C  25.09000 52.13900 40.26500
H  33.03900 54.80200 38.68100
H  33.45900 61.10300 40.25400
H  27.12700 61.52200 40.69400
H  28.47000 53.50700 39.20100
H  30.97300 53.59000 37.59500
H  30.23300 52.38800 40.20000
H  31.68900 53.22700 40.49400
H  31.74300 52.06500 39.28600
H  27.44800 53.14800 37.30900
H  28.94400 52.63900 36.70700
H  28.58400 55.48600 36.22500
H  26.99700 54.82900 36.00100
H  35.36400 56.25600 37.61100
H  34.96800 55.03000 38.83000
H  36.45400 56.07700 39.04800
H  37.07600 61.15400 39.75600
H  35.85700 60.72800 40.93600
H  35.39300 61.34600 39.36300
H  31.46000 63.09500 39.82900
H  29.67900 62.40200 42.21000
H  32.56100 62.18700 42.41000
H  31.80700 63.81400 42.34700
H  33.01900 63.41600 41.11800
H  28.27700 63.46900 39.96300
H  29.81400 64.42600 40.05200
H  28.98300 65.66600 41.56000
H  28.85900 64.34400 42.70200
H  27.42700 64.87500 41.68400
H  24.59600 60.45800 39.31300
H  24.99000 60.75500 41.03700
H  23.82300 59.40200 40.58000
H  26.12100 55.12100 38.04000
H  24.28400 52.40900 40.94700
H  25.91400 51.60600 40.74000
H  24.66400 51.45800 39.52900
Mg -5.03300 25.23900 26.22300
C  -3.58600 26.55900 29.12800
C  -6.83400 23.02500 28.21100
C  -6.00400 23.61100 23.40000
C  -2.72500 27.15900 24.42300
N  -5.18700 24.95100 28.41100
C  -4.52000 25.58100 29.41700
C  -5.14400 25.22700 30.77300
C  -5.97700 23.92600 30.48300
C  -5.97000 23.95000 28.94400
C  -5.26400 22.66800 31.08800
C  -5.92300 26.36200 31.42000
C  -5.51100 26.81100 32.89100
H  -5.12800 25.71000 33.88000
N  -6.32300 23.67700 25.84000
C  -7.03900 22.94600 26.80300
C  -7.90000 21.93700 26.08500
C  -7.74100 22.13400 24.66500
C  -6.63600 23.17300 24.55100
C  -8.86000 20.97900 26.83000
C  -8.53900 21.55200 23.46600
O  -8.30000 21.87100 22.34000
C  -9.73500 20.63600 23.74700
N  -4.47600 25.34600 24.21600
C  -5.04700 24.60800 23.22600
C  -4.37800 24.77600 21.89400
C  -3.54200 26.08600 22.13800
C  -3.54400 26.21100 23.68800
C  -3.54600 23.55200 21.36600
C  -4.04900 27.40800 21.48900
C  -3.22800 28.01300 20.32200
N  -3.46600 26.65400 26.61600
C  -2.63800 27.36000 25.81400
C  -1.73600 28.20400 26.58200
C  -2.04500 27.93800 27.83700
C  -3.08400 26.95000 27.83200
C  -0.89400 29.22000 25.95100
C  -1.70000 28.26900 29.24200
O  -0.84900 29.04200 29.70600
C  -2.73700 27.35200 30.09500
C  -1.87100 26.45300 31.01600
O  -1.35600 25.35000 30.77000
O  -1.86900 27.11900 32.25800
C  -1.15100 26.47500 33.38600
H  -7.27700 22.22300 28.80500
H  -6.27900 23.13700 22.45500
H  -2.06400 27.80700 23.84300
H  -4.31600 25.06500 31.46200
H  -7.04200 23.91000 30.71600
H  -6.15000 22.07700 31.31900
H  -4.64900 22.83700 31.97200
H  -4.58700 22.23600 30.35200
H  -6.98500 26.11400 31.40100
H  -5.91400 27.29300 30.85200
H  -6.41100 27.19400 33.37200
H  -4.76800 27.60900 32.89000
H  -8.73000 19.97000 26.43900
H  -9.90900 21.26900 26.78300
H  -8.51700 20.91600 27.86300
H  -10.45500 21.04900 24.45300
H  -9.32600 19.68300 24.08400
H  -10.17500 20.52800 22.75500
H  -5.11900 25.00600 21.12900
H  -2.55700 25.94300 21.69400
H  -3.61400 22.66300 21.99300
H  -2.52100 23.91100 21.27100
H  -4.02100 23.21800 20.44300
H  -4.29500 28.14800 22.25000
H  -5.06400 27.16400 21.17700
H  -2.45300 27.29100 20.06700
H  -2.96300 29.02900 20.61800
H  -3.77300 28.16900 19.39200
H  -0.23400 28.68100 25.27100
H  -0.42800 29.75700 26.77700
H  -1.57300 29.79900 25.32500
H  -3.40800 27.91400 30.74500
H  -0.12000 26.46600 33.03300
H  -1.42000 25.44700 33.63300
H  -1.33400 27.13300 34.23500

