158

Mg 47.01500 34.36100 27.23200
C  45.58100 32.55600 29.84500
C  47.11500 37.14200 29.23000
C  47.93700 36.05600 24.55900
C  46.39400 31.52600 25.15900
N  46.39200 34.80500 29.27800
C  45.94300 33.84300 30.20500
C  46.10500 34.41200 31.67200
C  46.30800 35.90500 31.40100
C  46.58500 36.02500 29.87700
C  45.11400 36.88300 31.74600
C  47.26500 33.68300 32.43500
C  47.00900 33.26000 33.85800
H  47.67800 34.14900 34.93800
N  47.44300 36.30300 26.95400
C  47.51900 37.31000 27.86700
C  48.06200 38.54700 27.27700
C  48.40200 38.18900 25.92200
C  47.92200 36.78100 25.73500
C  48.14700 39.77200 28.12200
C  49.20300 38.99200 24.91900
O  49.65700 38.52200 23.87900
C  49.68900 40.35100 25.38400
N  46.96400 33.87400 25.11100
C  47.53700 34.71900 24.28100
C  47.64000 34.17900 22.85100
C  47.36100 32.69200 23.07900
C  46.85200 32.64300 24.48600
C  46.64800 34.78000 21.89800
C  48.66900 31.70600 22.95100
C  50.06400 32.32300 23.18300
N  46.33200 32.34000 27.45900
C  46.04000 31.40100 26.51100
C  45.48400 30.26500 27.10800
C  45.22500 30.67900 28.45200
C  45.74300 31.98000 28.54800
C  45.12900 28.99600 26.41400
C  44.70900 30.21700 29.74400
O  44.29200 29.13000 30.09400
C  44.84800 31.48100 30.61400
C  45.32300 31.05200 31.96000
O  46.43600 30.59200 32.16800
O  44.35700 31.28700 32.89700
C  44.57000 30.72800 34.24700
H  47.20000 38.02100 29.87200
H  48.34200 36.49500 23.64500
H  46.24100 30.68800 24.47500
H  45.17100 34.12600 32.15700
H  47.16100 36.24400 31.98900
H  44.22000 36.32700 32.02600
H  44.96100 37.49300 30.85500
H  45.30600 37.60200 32.54200
H  48.15500 34.31200 32.44200
H  47.54800 32.73800 31.97100
H  47.43300 32.25800 33.92000
H  45.94400 33.25100 34.09000
H  48.20100 40.65500 27.48400
H  48.86700 39.80900 28.93900
H  47.20900 39.96600 28.64200
H  50.29800 40.91100 24.67400
H  50.12000 40.34600 26.38500
H  48.78500 40.94100 25.53800
H  48.62600 34.37200 22.42900
H  46.57500 32.23500 22.47700
H  47.15400 35.20400 21.03000
H  46.18800 35.57800 22.48100
H  45.85700 34.07800 21.63500
H  48.66700 31.25600 21.95800
H  48.57900 30.86000 23.63300
H  50.28400 32.72200 22.19300
H  50.72300 31.50900 23.48300
H  50.01400 33.09000 23.95500
H  44.63000 28.26700 27.05400
H  46.09900 28.56800 26.16300
H  44.62900 29.20500 25.46800
H  43.80200 31.74600 30.76600
H  45.15600 29.81100 34.19100
H  43.57100 30.58900 34.66200
H  45.19500 31.37700 34.85900
Mg 16.65300 51.89500 25.27300
C  18.15400 50.57300 28.10200
C  14.10900 53.12300 27.28100
C  14.83900 52.34400 22.37600
C  18.98400 50.20900 23.34200
N  16.21200 51.78600 27.40600
C  17.02000 51.28700 28.38000
C  16.50800 51.62400 29.79000
C  15.08700 52.22100 29.47500
C  15.12500 52.40500 27.92700
C  13.87900 51.26200 29.77800
C  17.50900 52.55900 30.63300
C  17.94900 52.30000 32.07400
H  16.93200 51.52500 32.96600
N  14.75100 52.69900 24.82400
C  13.89300 53.25000 25.83800
C  12.78200 53.85900 25.11600
C  12.95600 53.61000 23.71000
C  14.20700 52.87600 23.53900
C  11.72800 54.59300 25.80900
C  11.98800 53.77500 22.50000
O  12.23800 53.45300 21.29600
C  10.58000 54.34900 22.69800
N  16.75200 51.25500 23.10300
C  15.98600 51.61700 22.14000
C  16.64500 51.47100 20.77800
C  17.82900 50.59600 21.07400
C  17.86200 50.64300 22.61600
C  15.70700 50.91400 19.66600
C  19.19200 51.02600 20.39600
C  19.56100 50.11900 19.21000
N  18.22600 50.57500 25.59600
C  19.13500 50.09600 24.69300
C  20.16500 49.39500 25.43500
C  19.84400 49.52400 26.76100
C  18.64000 50.26200 26.81800
C  21.09300 48.53500 24.69200
C  20.15300 49.24800 28.10400
O  21.07700 48.61300 28.60900
C  19.05500 49.85700 29.08700
C  18.43200 48.79000 29.88600
O  17.34900 48.29600 29.66900
O  19.09600 48.53900 31.07500
C  18.63600 47.55500 32.00100
H  13.43200 53.70900 27.90600
H  14.48700 52.82100 21.45900
H  19.79600 49.78000 22.75100
H  16.51200 50.67800 30.33100
H  14.80800 53.17600 29.92000
H  13.24700 51.15200 28.89600
H  13.17600 51.74900 30.45300
H  14.21000 50.28600 30.13400
H  16.95800 53.49700 30.69400
H  18.33600 52.75600 29.95000
H  18.06600 53.21800 32.65100
H  18.95900 51.89000 32.05800
H  10.73500 54.61500 25.35900
H  12.05700 55.62000 25.96600
H  11.69800 54.20000 26.82500
H  10.02700 54.34300 21.75800
H  10.70700 55.35800 23.08800
H  9.97700 53.83800 23.44800
H  16.97400 52.45400 20.44100
H  17.55000 49.56300 20.86700
H  14.81100 50.57600 20.18800
H  16.11500 50.09500 19.07300
H  15.50600 51.75000 18.99600
H  20.08400 50.97200 21.02100
H  18.90500 51.91200 19.83000
H  19.49900 50.66500 18.26900
H  18.87100 49.27500 19.21800
H  20.56300 49.70500 19.33000
H  21.65000 49.10400 23.94800
H  20.51800 47.78400 24.15100
H  21.92800 48.13100 25.26500
H  19.50300 50.54600 29.80200
H  19.55200 47.02600 32.26400
H  18.01300 46.82200 31.48900
H  18.15300 47.97500 32.88300

