158

Mg 1.98900 -1.30700 43.58600
C  5.43700 -1.40300 42.88200
C  1.78700 1.55100 41.76700
C  -1.30300 -1.85300 43.25700
C  2.31900 -4.71900 44.60600
N  3.41000 -0.11800 42.36500
C  4.77000 -0.28500 42.29700
C  5.42000 0.73600 41.26700
C  4.30500 1.84800 41.29700
C  3.10100 1.13000 41.91900
C  4.70200 3.13100 42.09600
C  5.75500 0.12700 39.81600
C  7.03800 0.67500 39.11800
H  6.93500 1.22000 37.71200
N  0.40500 -0.15400 42.82300
C  0.55900 1.01100 42.16000
C  -0.75000 1.64400 41.96900
C  -1.68700 0.54500 42.07500
C  -0.89300 -0.56100 42.66800
C  -0.95700 3.01100 41.37800
C  -3.13600 0.58600 41.70000
O  -3.61900 1.58400 41.18700
C  -3.96700 -0.68200 41.85300
N  0.68800 -3.14200 43.75600
C  -0.65700 -2.88600 43.83700
C  -1.33500 -4.09600 44.43600
C  -0.20000 -5.00900 44.98300
C  1.00500 -4.27200 44.46600
C  -2.45700 -3.82600 45.47500
C  -0.23400 -6.52700 44.41100
C  0.24000 -7.70700 45.31800
N  3.52100 -2.71300 43.93000
C  3.49200 -4.07700 44.19000
C  4.85900 -4.46000 44.52400
C  5.66200 -3.47300 43.96100
C  4.79800 -2.41800 43.64600
C  5.24900 -5.78400 45.11200
C  7.04900 -3.15700 43.55800
O  8.11700 -3.73000 43.74600
C  6.88400 -1.85100 42.70900
C  7.87200 -0.75100 43.27200
O  8.93000 -0.46800 42.78500
O  7.41400 -0.30000 44.40900
C  8.08200 0.80300 45.08800
H  1.77100 2.57600 41.39000
H  -2.37200 -1.98600 43.43000
H  2.34900 -5.70400 45.07700
H  6.41300 0.95600 41.66000
H  4.09800 2.11700 40.26100
H  4.03600 3.35700 42.92900
H  4.57500 3.97900 41.42200
H  5.71700 3.20700 42.48300
H  5.00200 0.42200 39.08500
H  6.03800 -0.92400 39.88000
H  7.80800 -0.09700 39.13800
H  7.51600 1.45500 39.71100
H  -0.17100 3.68500 41.71900
H  -1.87200 3.56000 41.60300
H  -0.80700 2.93100 40.30200
H  -4.94700 -0.36900 41.49300
H  -4.11100 -0.85600 42.91900
H  -3.50800 -1.55600 41.39000
H  -1.75200 -4.65300 43.59700
H  -0.18100 -5.09300 46.06900
H  -2.30800 -2.84700 45.92900
H  -2.48900 -4.56900 46.27200
H  -3.33900 -3.89300 44.83800
H  0.30700 -6.53900 43.46500
H  -1.29100 -6.69700 44.20600
H  -0.58900 -8.38500 45.11600
H  0.11600 -7.47400 46.37600
H  1.20300 -8.04200 44.93400
H  5.13600 -6.51300 44.31000
H  4.74200 -6.07100 46.03300
H  6.30300 -5.90300 45.36500
H  7.29700 -2.03700 41.71700
H  7.85300 1.78000 44.66300
H  9.11800 0.51800 45.27100
H  7.69200 0.90800 46.10100
Mg 36.40800 2.00200 30.07800
C  33.89900 2.72400 32.29400
C  38.62600 2.09900 32.60300
C  38.89000 1.39600 27.82600
C  34.10400 2.29100 27.47900
N  36.26400 2.45800 32.21400
C  35.11500 2.62800 32.94200
C  35.42200 2.65700 34.41900
C  36.96500 2.70700 34.48300
C  37.28300 2.46300 32.97600
C  37.54600 4.01900 34.95600
C  34.77200 1.48200 35.13000
C  34.62200 1.51900 36.67400
H  35.43400 2.56200 37.50900
N  38.51500 1.80400 30.22000
C  39.23600 1.80700 31.35700
C  40.57000 1.61900 31.09300
C  40.70100 1.32900 29.64900
C  39.33100 1.47400 29.18700
C  41.70500 1.79800 32.08000
C  41.89900 0.90500 28.69100
O  41.72900 0.54500 27.54500
C  43.29600 0.84600 29.32200
N  36.43900 1.69800 27.96000
C  37.59200 1.60300 27.27300
C  37.30600 1.58500 25.78100
C  35.77100 1.65500 25.64700
C  35.41000 1.92100 27.13700
C  38.04700 2.66100 25.02900
C  35.11400 0.33000 25.13700
C  33.89000 0.48100 24.18700
N  34.38100 2.35200 29.85900
C  33.59500 2.41900 28.80400
C  32.21300 2.73100 29.14700
C  32.26900 2.88500 30.59800
C  33.60000 2.63800 30.92500
C  31.20400 2.79100 28.17600
C  31.52200 3.11000 31.83100
O  30.31400 3.30700 32.02600
C  32.59400 3.08900 32.92300
C  32.59400 4.39800 33.60500
O  33.30100 5.31600 33.22600
O  31.74700 4.49000 34.68000
C  31.85800 5.75000 35.52800
H  39.30700 2.17500 33.45400
H  39.58400 1.32000 26.98700
H  33.41500 2.26200 26.63300
H  34.91800 3.50200 34.88800
H  37.23400 1.84100 35.08900
H  36.91600 4.50500 35.70000
H  37.63200 4.77400 34.17500
H  38.56800 4.01200 35.33200
H  35.45900 0.63900 35.05200
H  33.87800 1.13800 34.61100
H  34.80100 0.52600 37.08600
H  33.58300 1.65800 36.97100
H  42.00100 0.83100 32.48600
H  41.50600 2.48200 32.90500
H  42.59700 2.16800 31.57400
H  43.39500 0.18600 30.18400
H  43.60600 1.86600 29.55200
H  44.01100 0.58000 28.54300
H  37.70800 0.63600 25.42500
H  35.47500 2.48300 25.00200
H  38.60600 2.26200 24.18300
H  38.56900 3.37100 25.67100
H  37.30200 3.31600 24.57700
H  34.75700 -0.21600 26.01100
H  35.84200 -0.36800 24.72400
H  34.13200 0.12000 23.18700
H  33.69300 1.53400 23.98400
H  33.01700 -0.06000 24.55000
H  31.08200 1.86700 27.61200
H  31.43400 3.55800 27.43600
H  30.27800 3.08500 28.67200
H  32.40700 2.32000 33.67200
H  31.12900 6.46800 35.15000
H  32.85000 6.20000 35.48700
H  31.65300 5.66700 36.59500

