158

Mg 0.58700 8.02000 27.22000
C  1.70000 10.14500 29.83900
C  0.74400 5.50400 29.45600
C  -0.09000 6.03300 24.65300
C  0.95700 10.66800 24.96400
N  1.06200 7.90700 29.43800
C  1.34700 8.92600 30.35800
C  1.12400 8.41600 31.82200
C  1.23700 6.87800 31.61000
C  1.04900 6.70800 30.07500
C  2.57400 6.22100 32.14500
C  -0.23800 8.87100 32.35500
C  -0.33400 8.82400 33.91000
H  0.90400 8.36200 34.78300
N  0.39700 5.93700 27.05700
C  0.46800 5.08000 28.10000
C  0.23500 3.73300 27.54600
C  0.00300 3.89600 26.14100
C  0.14300 5.36800 25.87500
C  0.14600 2.43300 28.36500
C  -0.24400 2.84800 25.04500
O  -0.56200 3.18700 23.90700
C  -0.30700 1.35000 25.34300
N  0.62600 8.27300 25.06900
C  0.08600 7.37000 24.30500
C  -0.27500 7.83200 22.90300
C  -0.13300 9.34400 23.01800
C  0.50400 9.48100 24.39900
C  0.49800 7.20800 21.75100
C  -1.42800 10.09900 22.86300
C  -1.32700 11.50000 22.27800
N  1.15400 10.02600 27.31200
C  1.36900 10.97200 26.34300
C  1.63200 12.27900 26.94000
C  1.76800 11.96500 28.30400
C  1.59800 10.53800 28.45100
C  1.96200 13.61000 26.27900
C  2.19400 12.56100 29.53000
O  2.47200 13.76100 29.77300
C  1.95500 11.45500 30.59500
C  2.97100 11.37700 31.65500
O  4.09100 10.93800 31.53100
O  2.41600 11.99700 32.85600
C  3.31600 12.09700 33.98200
H  0.78100 4.68400 30.17700
H  -0.36500 5.44400 23.77600
H  0.97000 11.56000 24.33400
H  1.93900 8.69900 32.48800
H  0.43200 6.53100 32.25800
H  3.24700 5.92500 31.34100
H  2.27200 5.35600 32.73500
H  3.12700 6.91800 32.77500
H  -1.06800 8.29600 31.94400
H  -0.23400 9.91800 32.05000
H  -1.14900 8.11300 34.04700
H  -0.71000 9.78800 34.25400
H  1.03300 1.82200 28.19700
H  -0.72600 1.82600 28.12100
H  0.16700 2.53500 29.45000
H  -0.09300 0.79700 24.42800
H  -1.31100 1.17700 25.73000
H  0.39300 1.09600 26.13800
H  -1.32700 7.59500 22.74800
H  0.54500 9.70000 22.24200
H  -0.14800 6.82500 20.96100
H  1.16500 6.38900 22.02100
H  1.16600 7.97400 21.35700
H  -1.83900 10.16000 23.87100
H  -2.02200 9.45500 22.21400
H  -1.05400 12.16200 23.10000
H  -2.17400 11.77000 21.64800
H  -0.51300 11.49200 21.55400
H  1.23400 13.90100 25.52200
H  2.89200 13.32100 25.79100
H  2.11000 14.38100 27.03600
H  0.95600 11.72300 30.94000
H  4.29100 12.43800 33.63500
H  3.45800 11.10300 34.40700
H  2.74600 12.68700 34.70000
Mg 54.00200 24.82700 45.47400
C  51.39200 27.08800 44.70100
C  52.02200 22.25800 44.44200
C  56.83100 22.85500 45.64100
C  55.94900 27.54600 46.52500
N  52.05000 24.78200 44.38300
C  51.09600 25.79600 44.27700
C  49.78300 25.21000 43.70700
C  49.97000 23.67900 43.95500
C  51.50100 23.51900 44.25500
C  49.14100 23.12300 45.10000
C  49.61400 25.45300 42.15900
C  48.08400 25.40300 41.65100
H  47.87900 25.10600 40.12400
N  54.35600 22.81800 45.04700
C  53.39000 21.95600 44.75100
C  54.00900 20.60500 44.63600
C  55.41900 20.76200 44.85500
C  55.61100 22.20900 45.19400
C  53.41300 19.43300 44.01700
C  56.43400 19.58800 44.78300
O  56.09100 18.43200 44.69400
C  57.90700 19.78300 44.79600
N  56.06300 25.09800 46.13800
C  57.04700 24.14300 46.11200
C  58.35400 24.71200 46.65200
C  58.07600 26.24900 46.53800
C  56.59800 26.33500 46.39400
C  58.53700 24.28000 48.11800
C  58.60600 26.79400 45.18300
C  59.75300 27.80800 45.37200
N  53.68800 26.86400 45.70400
C  54.62100 27.81700 46.14100
C  53.94500 29.17100 46.25600
C  52.70200 28.93300 45.66100
C  52.60000 27.54100 45.31000
C  54.56000 30.46400 46.87800
C  51.45900 29.50900 45.27800
O  51.09500 30.62900 45.46000
C  50.53900 28.32600 44.62600
C  50.17000 28.73400 43.27900
O  51.01400 28.76700 42.35700
O  48.86800 28.90400 43.20300
C  48.32900 29.19300 41.85400
H  51.38000 21.38600 44.29500
H  57.67200 22.20000 45.87700
H  56.58100 28.37300 46.85700
H  48.87000 25.52800 44.21000
H  49.90000 23.03700 43.07700
H  49.83600 22.94500 45.92100
H  48.75300 22.17600 44.72500
H  48.31600 23.75300 45.43200
H  50.26800 24.73800 41.65800
H  49.99700 26.42600 41.85000
H  47.39700 26.21800 41.87600
H  47.77500 24.51500 42.20300
H  54.01300 19.19800 43.13700
H  52.40900 19.68700 43.67700
H  53.45600 18.56200 44.66900
H  58.21700 20.64700 44.20900
H  58.42400 18.87000 44.50200
H  58.14700 19.82300 45.85900
H  59.14800 24.35800 45.99400
H  58.36600 26.85100 47.39900
H  58.49300 23.19200 48.14200
H  57.75400 24.69600 48.75200
H  59.48400 24.54100 48.59100
H  57.84500 27.32400 44.61000
H  58.98700 26.02800 44.50800
H  60.48500 27.59500 44.59400
H  60.24500 27.82500 46.34500
H  59.45300 28.85600 45.34900
H  55.64400 30.56900 46.92000
H  54.23700 30.42100 47.91800
H  54.17900 31.29400 46.28300
H  49.61300 28.27600 45.20100
H  48.02900 30.24100 41.87600
H  47.38900 28.65600 41.72000
H  48.92900 28.84500 41.01400

