158

Mg 8.38600 3.10300 27.58700
C  10.19100 1.78300 30.45500
C  6.53200 5.07700 29.90500
C  6.52100 3.96000 25.08700
C  10.14600 0.68300 25.72000
N  8.42600 3.32800 29.93100
C  9.32900 2.82500 30.85300
C  9.27400 3.60300 32.12000
C  8.03900 4.59200 31.95200
C  7.60700 4.34500 30.50700
C  6.90900 4.45500 32.99700
C  10.61700 4.39900 32.36000
C  11.21200 4.12400 33.73100
H  10.85000 5.02600 34.92900
N  6.82200 4.37400 27.47000
C  6.14800 5.01700 28.47200
C  5.03900 5.72000 27.92600
C  5.06500 5.57900 26.53000
C  6.21000 4.66100 26.25700
C  4.02900 6.37200 28.79500
C  4.10100 6.25100 25.53300
O  4.10100 5.92200 24.36000
C  3.22700 7.33700 25.86200
N  8.48900 2.56200 25.69200
C  7.51800 2.95300 24.86700
C  7.83100 2.39000 23.40000
C  9.01300 1.48400 23.54000
C  9.27500 1.56100 25.07300
C  6.51500 1.73100 22.83600
C  10.30200 1.87200 22.80600
C  10.71400 1.09200 21.54000
N  9.84600 1.49800 27.93000
C  10.43000 0.63800 27.03500
C  11.33800 -0.23100 27.70000
C  11.32500 0.23000 29.06900
C  10.32000 1.24800 29.14600
C  12.10800 -1.25900 27.04500
C  11.97400 0.11000 30.31500
O  12.86800 -0.65000 30.67300
C  11.22800 1.06600 31.32000
C  10.52800 0.21800 32.29400
O  9.78100 -0.71600 32.11900
O  10.93000 0.59400 33.49800
C  10.32800 -0.06000 34.69700
H  6.09900 5.79000 30.61000
H  5.97000 4.23700 24.18600
H  10.64500 -0.00700 25.03800
H  9.03500 3.03300 33.01800
H  8.36300 5.63300 31.92300
H  6.00700 4.17200 32.45500
H  6.78100 5.42300 33.48100
H  7.15000 3.67200 33.71500
H  10.46100 5.47400 32.26600
H  11.36600 4.22300 31.58700
H  12.29000 3.97000 33.68200
H  10.80600 3.18600 34.10900
H  4.10400 7.44500 28.61800
H  4.08900 6.05300 29.83600
H  3.01100 6.11900 28.49900
H  3.80100 8.12600 26.34700
H  2.35900 6.89200 26.34800
H  2.99900 7.80000 24.90200
H  7.95800 3.24500 22.73700
H  8.68000 0.46800 23.32500
H  5.80900 1.71200 23.66600
H  6.69300 0.74600 22.40400
H  5.98800 2.34900 22.10900
H  11.10700 1.84100 23.54100
H  10.23500 2.92600 22.53700
H  10.90700 1.83200 20.76300
H  9.95400 0.37600 21.22600
H  11.61100 0.48100 21.63400
H  11.44000 -2.06500 26.73900
H  12.93300 -1.70400 27.60100
H  12.51300 -0.91700 26.09200
H  11.81800 1.88300 31.73400
H  9.30400 -0.41500 34.57400
H  10.22500 0.76800 35.39800
H  11.03000 -0.68100 35.25300
Mg 29.91100 57.21600 41.11100
C  27.05000 55.82300 39.65600
C  31.83000 55.04400 39.29900
C  32.61900 59.23500 41.72300
C  27.86100 59.89500 42.31600
N  29.41400 55.66500 39.53800
C  28.22200 55.15300 39.24500
C  28.32800 53.81700 38.45600
C  29.88200 53.61800 38.35300
C  30.43500 54.82700 39.14200
C  30.45200 52.21700 38.86200
C  27.51500 53.81600 37.12100
C  27.29100 55.09400 36.33300
H  27.76000 55.08100 34.82700
N  31.90200 57.00700 40.79700
C  32.49500 56.03400 40.04400
C  33.94500 56.24400 39.99500
C  34.25700 57.47300 40.71600
C  32.88300 57.99500 41.10800
C  34.85300 55.28500 39.39800
C  35.62300 58.03400 40.86400
O  36.62600 57.47500 40.45700
C  35.84200 59.37100 41.43700
N  30.14500 59.25500 41.90700
C  31.38300 59.84900 42.06000
C  31.32100 61.36300 42.49200
C  29.88400 61.40900 43.02400
C  29.20700 60.15000 42.36400
C  32.53900 61.78900 43.42700
C  29.21800 62.72300 42.75200
C  28.63300 63.42300 43.90700
N  27.88000 57.69800 41.11400
C  27.21800 58.77200 41.68500
C  25.81100 58.53500 41.55500
C  25.66900 57.38500 40.79800
C  26.93600 56.96600 40.47000
C  24.69300 59.39400 42.10100
C  24.74100 56.51900 40.13400
O  23.51200 56.49800 40.05800
C  25.62500 55.41300 39.36200
C  25.34100 54.04400 39.95200
O  25.79000 53.53200 40.99300
O  24.33900 53.51000 39.24800
C  23.94400 52.16800 39.70400
H  32.44700 54.39500 38.67400
H  33.43000 59.95800 41.83500
H  27.27900 60.69600 42.77700
H  27.96400 52.99000 39.06500
H  30.18800 53.62400 37.30700
H  31.11900 52.27400 39.72300
H  31.07100 51.73000 38.10900
H  29.63300 51.56000 39.15400
H  26.53100 53.41800 37.36900
H  27.87700 52.98500 36.51600
H  27.74900 55.92400 36.87200
H  26.22000 55.27800 36.25000
H  35.80400 55.74700 39.13200
H  34.45800 54.92000 38.45000
H  35.03400 54.43700 40.05800
H  35.39200 60.10700 40.77100
H  36.91300 59.52700 41.56700
H  35.35800 59.55300 42.39700
H  31.43600 61.98800 41.60700
H  29.93300 61.27900 44.10500
H  33.26800 62.41000 42.90500
H  33.06100 60.91200 43.80900
H  32.13200 62.32600 44.28400
H  28.47500 62.52400 41.97900
H  29.87000 63.43300 42.24500
H  27.61100 63.69300 43.63900
H  29.28400 64.26100 44.15400
H  28.56800 62.84200 44.82700
H  24.24200 60.01100 41.32400
H  25.04400 60.01600 42.92400
H  23.89400 58.81700 42.56600
H  25.25600 55.47500 38.33800
H  23.24500 51.79300 38.95700
H  23.48500 52.21800 40.69200
H  24.84600 51.55800 39.75000

