158

Mg 53.85700 23.92900 43.73700
C  51.06600 26.07200 43.24100
C  51.93300 21.29700 42.71900
C  56.64500 21.91100 44.04600
C  55.69600 26.62900 44.82500
N  51.77000 23.78700 42.89800
C  50.81800 24.79800 42.65700
C  49.54900 24.18000 42.01200
C  49.78500 22.66300 42.26300
C  51.30100 22.55500 42.64700
C  48.95900 22.03600 43.41200
C  49.28600 24.61300 40.57200
C  50.48400 24.61600 39.63600
H  50.13600 24.93400 38.17300
N  54.26100 21.91400 43.34300
C  53.30700 21.00000 42.99100
C  53.95200 19.71700 42.83100
C  55.23900 19.85400 43.21500
C  55.43900 21.26900 43.48400
C  53.20300 18.43100 42.42400
C  56.23300 18.69000 43.16900
O  55.83400 17.54600 43.07400
C  57.67300 19.00400 42.97100
N  55.83300 24.25100 44.22100
C  56.79700 23.28000 44.26200
C  58.11800 23.76000 44.94200
C  57.83100 25.30100 45.07800
C  56.38300 25.43700 44.60000
C  58.54700 23.12100 46.29900
C  58.84300 26.30900 44.37200
C  59.80200 27.13300 45.28000
N  53.47800 25.87000 44.18000
C  54.31800 26.88500 44.64900
C  53.59900 28.06600 44.89700
C  52.34200 27.83600 44.29400
C  52.30700 26.46000 43.90100
C  54.12200 29.31300 45.43400
C  50.93900 28.34800 44.11200
O  50.34500 29.40200 44.38000
C  50.22300 27.30700 43.19400
C  50.00800 27.90400 41.87000
O  50.91300 28.21100 41.14700
O  48.68400 28.13300 41.61700
C  48.30500 28.68100 40.31800
H  51.39500 20.40400 42.39400
H  57.54300 21.37800 44.36500
H  56.43100 27.36900 45.14600
H  48.63500 24.51000 42.50700
H  49.71500 21.96200 41.43100
H  48.36900 22.78500 43.94100
H  49.60300 21.51800 44.12200
H  48.38300 21.25800 42.91000
H  48.81500 25.58500 40.42600
H  48.58900 23.89300 40.14200
H  50.84900 23.59000 39.66900
H  51.16000 25.35500 40.06500
H  53.23700 17.61600 43.14700
H  53.63500 18.15500 41.46200
H  52.14700 18.56900 42.18700
H  58.25900 18.99600 43.89000
H  57.89900 19.88300 42.36800
H  57.97400 18.24500 42.24900
H  58.89600 23.65000 44.18600
H  57.70900 25.59800 46.12000
H  57.83200 22.35300 46.59300
H  58.61500 23.84200 47.11400
H  59.52000 22.67600 46.09000
H  58.28700 26.92500 43.66500
H  59.39600 25.62000 43.73400
H  59.94600 28.17900 45.00800
H  60.73800 26.58300 45.18700
H  59.51200 27.01300 46.32300
H  53.49400 30.13800 45.09900
H  55.16300 29.49700 45.16900
H  54.10300 29.32500 46.52300
H  49.34100 27.24000 43.83200
H  49.12900 28.92400 39.64700
H  47.60300 29.50700 40.43400
H  47.69200 27.83300 40.01300
Mg 6.67800 53.74900 41.14600
C  6.58200 50.12300 41.37000
C  10.18000 53.36100 40.59000
C  6.83200 57.03100 40.38800
C  3.38600 53.82700 41.59000
N  8.19900 51.98900 40.90200
C  7.92100 50.64700 41.15700
C  9.22400 49.82100 40.82100
C  10.33800 50.86200 41.09900
C  9.54500 52.21700 40.85100
C  11.09400 50.88700 42.52300
C  9.34900 49.21200 39.41100
C  8.85500 50.09500 38.25900
H  7.54000 49.78600 37.58200
N  8.28900 55.03900 40.50000
C  9.65100 54.68600 40.48800
C  10.36300 55.84900 40.25000
C  9.45400 56.94000 39.91100
C  8.14200 56.38000 40.22600
C  11.94600 55.84200 40.03500
C  9.83000 58.40000 39.36700
O  10.98800 58.68300 39.28900
C  8.68000 59.40400 39.01900
N  5.36700 55.17300 40.81700
C  5.59900 56.49000 40.69700
C  4.35400 57.31800 40.85900
C  3.19500 56.32000 40.99000
C  4.02400 55.00800 41.18500
C  4.41500 58.23900 42.13900
C  2.29600 56.35500 39.71400
C  0.77600 56.39600 39.92500
N  5.16600 52.34900 41.38500
C  3.84400 52.51400 41.63700
C  3.21900 51.23100 42.01500
C  4.29400 50.28100 41.85900
C  5.41100 50.97900 41.46900
C  1.80200 51.04400 42.49400
C  4.54700 48.91900 41.99900
O  3.87100 47.99900 42.45100
C  6.05500 48.76300 41.67300
C  6.04500 47.87600 40.54900
O  5.66900 48.20500 39.44200
O  6.31200 46.61700 40.94000
C  6.22600 45.65400 39.85200
H  11.25400 53.16700 40.55800
H  6.94600 58.10000 40.19800
H  2.30900 54.00100 41.61800
H  9.16900 49.03000 41.56800
H  11.14300 50.78300 40.36900
H  10.70800 51.73900 43.08200
H  12.18200 50.82400 42.56700
H  10.75300 50.01500 43.08100
H  8.72100 48.32100 39.37300
H  10.41300 48.97900 39.37400
H  9.60800 49.98700 37.47800
H  8.77600 51.14600 38.53500
H  12.42200 55.07900 40.65100
H  12.36900 56.77500 40.40800
H  12.27100 55.77100 38.99700
H  8.21600 59.70100 39.96000
H  7.94800 58.98600 38.32800
H  9.16500 60.27100 38.57200
H  4.34200 57.94600 39.96900
H  2.66400 56.39500 41.93900
H  4.88700 59.19100 41.89500
H  5.04400 57.63600 42.79300
H  3.43100 58.30200 42.60400
H  2.53800 55.51200 39.06700
H  2.56700 57.27100 39.18800
H  0.23000 55.52200 39.57000
H  0.44200 57.29800 39.41200
H  0.51800 56.52000 40.97700
H  1.75500 50.10700 43.04900
H  1.04500 51.01300 41.71000
H  1.54500 51.84600 43.18700
H  6.57100 48.23800 42.47700
H  6.52300 44.62700 40.06800
H  6.73400 45.97700 38.94300
H  5.17800 45.67700 39.55400

