158

Mg 2.08600 -0.66000 44.23200
C  5.41500 0.44700 44.04300
C  1.15200 2.10400 42.32500
C  -0.80100 -2.15300 43.63000
C  3.34700 -3.74200 45.35700
N  3.19400 1.07100 43.24100
C  4.50900 1.30400 43.30100
C  4.84400 2.64700 42.63600
C  3.41700 3.21000 42.34800
C  2.53900 2.10300 42.61200
C  3.10500 4.50800 43.11700
C  5.67100 2.39500 41.31300
C  6.98100 3.21400 41.27300
H  7.90700 2.89500 40.03100
N  0.40000 -0.02400 43.30100
C  0.16200 1.14400 42.61100
C  -1.18700 1.22300 42.26600
C  -1.84900 0.03200 42.75200
C  -0.71900 -0.80200 43.24600
C  -1.75100 2.46000 41.56200
C  -3.37700 -0.21200 42.73200
O  -4.09100 0.65300 42.17400
C  -3.98700 -1.45600 43.32700
N  1.32500 -2.69800 44.42000
C  0.09100 -3.04800 44.15200
C  -0.18400 -4.53500 44.39500
C  1.19800 -4.98700 44.99400
C  2.06000 -3.75800 44.89400
C  -1.35100 -4.86700 45.33000
C  1.94800 -6.26900 44.43100
C  2.53600 -7.25300 45.46900
N  4.00400 -1.47600 44.65300
C  4.31500 -2.66600 45.27300
C  5.66400 -2.66500 45.60600
C  6.20100 -1.45900 45.11300
C  5.17200 -0.81800 44.53300
C  6.47900 -3.76100 46.23600
C  7.36100 -0.60900 45.05400
O  8.49000 -0.76500 45.55200
C  6.88400 0.70100 44.32500
C  7.18500 1.86400 45.17400
O  6.43900 2.34600 46.01700
O  8.37200 2.39700 44.61400
C  8.71600 3.75700 45.11200
H  0.93700 2.99300 41.72800
H  -1.78200 -2.50900 43.30900
H  3.72900 -4.67700 45.77200
H  5.41500 3.31200 43.28400
H  3.29600 3.44400 41.29100
H  3.92800 4.90000 43.71400
H  2.24800 4.50900 43.79000
H  2.85500 5.34700 42.46800
H  5.05500 2.69600 40.46600
H  5.82400 1.32800 41.15200
H  7.48100 2.98100 42.21300
H  6.86900 4.29800 41.25300
H  -2.76500 2.69800 41.88100
H  -1.88300 2.16900 40.52000
H  -1.18000 3.35100 41.82400
H  -5.03200 -1.21800 43.12900
H  -3.75200 -1.50100 44.39000
H  -3.75300 -2.26600 42.63700
H  -0.34600 -5.10000 43.47700
H  1.09900 -5.08700 46.07500
H  -1.08700 -5.07000 46.36800
H  -1.97400 -5.66600 44.92700
H  -1.96400 -3.97600 45.46800
H  2.68000 -6.01900 43.66200
H  1.09300 -6.78800 43.99800
H  2.28200 -8.28600 45.23200
H  2.21800 -7.05600 46.49300
H  3.61500 -7.13600 45.36400
H  6.71300 -4.41800 45.39800
H  5.95700 -4.35100 46.98900
H  7.37900 -3.37400 46.71500
H  7.44200 0.95100 43.42300
H  9.73000 4.04300 44.83500
H  8.58400 3.91400 46.18300
H  8.07100 4.39400 44.50700
Mg 17.18400 -0.33600 28.01200
C  16.09700 1.70500 30.66400
C  19.16000 -2.05600 30.47800
C  18.73200 -1.98300 25.53300
C  15.79700 1.82600 25.70600
N  17.74200 -0.08000 30.33000
C  16.95600 0.69600 31.15800
C  17.32100 0.40600 32.67700
C  18.56100 -0.60200 32.57400
C  18.45900 -0.99000 31.08700
C  19.96000 0.01000 32.94000
C  16.15100 0.02900 33.65100
C  16.15300 0.73300 35.04900
H  17.43300 1.32000 35.71600
N  18.62300 -1.88600 28.02700
C  19.32200 -2.44900 29.11100
C  20.23700 -3.45200 28.58200
C  20.16600 -3.35100 27.11600
C  19.06900 -2.41400 26.84000
C  20.94600 -4.43500 29.60500
C  21.13900 -4.22100 26.01700
O  21.06700 -4.06900 24.80800
C  22.19700 -5.16100 26.65700
N  17.31700 -0.01900 25.91200
C  17.99500 -0.88500 25.16600
C  17.86500 -0.56100 23.68300
C  16.69300 0.57900 23.69400
C  16.61000 0.83300 25.19100
C  19.15800 -0.15900 22.98700
C  15.39100 0.37900 22.96900
C  14.30000 -0.47000 23.64600
N  16.05800 1.29800 28.09400
C  15.52500 2.07700 27.03700
C  14.62200 3.10700 27.59500
C  14.85900 3.07700 28.99800
C  15.75100 1.94700 29.26400
C  13.79200 4.05700 26.78800
C  14.50500 3.65300 30.35700
O  13.74000 4.54300 30.69300
C  15.39700 2.83300 31.41800
C  16.29500 3.77400 32.18900
O  17.27800 4.28500 31.73500
O  15.89000 3.91800 33.52200
C  16.86200 4.79700 34.25600
H  19.82800 -2.51300 31.21200
H  19.26500 -2.54600 24.76500
H  15.21900 2.34000 24.93500
H  17.69100 1.36800 33.03300
H  18.39500 -1.42700 33.26700
H  19.89700 0.97900 33.43500
H  20.58600 0.11500 32.05500
H  20.38700 -0.68400 33.66500
H  16.14000 -1.05700 33.73200
H  15.29600 0.32500 33.04200
H  15.53300 0.10600 35.69000
H  15.56800 1.63700 34.88000
H  22.00900 -4.19900 29.56800
H  20.70400 -5.45600 29.31000
H  20.68900 -4.38300 30.66300
H  22.67500 -5.69900 25.83800
H  21.71300 -5.80700 27.39000
H  22.95100 -4.54000 27.14100
H  17.50100 -1.46900 23.20100
H  17.01000 1.56500 23.35500
H  19.97000 -0.02900 23.70100
H  19.07600 0.82000 22.51400
H  19.47300 -0.83900 22.19600
H  15.59900 -0.13300 22.02900
H  15.00100 1.37700 22.76700
H  13.45700 0.10700 24.02600
H  14.71700 -1.05300 24.46600
H  13.80900 -0.97400 22.81300
H  14.07300 3.93600 25.74100
H  13.89200 5.08500 27.13500
H  12.72000 3.87500 26.72000
H  14.61000 2.50200 32.09600
H  16.43000 5.78300 34.08700
H  17.85200 4.62100 33.83500
H  16.69500 4.70000 35.32900

