158

Mg 54.75200 23.75200 45.43100
C  52.29400 25.88700 44.26300
C  52.85400 21.04200 44.27700
C  57.46900 21.70900 45.73700
C  56.73600 26.59600 46.13300
N  52.81400 23.53700 44.36500
C  51.96800 24.53700 44.02200
C  50.67900 24.03200 43.41700
C  50.73800 22.49400 43.88200
C  52.22800 22.28900 44.22400
C  49.81300 22.16600 45.04300
C  50.53400 24.21700 41.93900
C  51.72100 24.19300 41.09100
H  52.49600 22.90300 40.71400
N  55.15200 21.61700 44.96900
C  54.21300 20.68400 44.57500
C  54.88500 19.44900 44.50600
C  56.21200 19.62300 44.89300
C  56.36900 21.08300 45.16500
C  54.16900 18.16300 44.02600
C  57.26700 18.54600 44.84800
O  57.02600 17.36600 44.61900
C  58.70600 18.90900 45.09600
N  56.83900 24.12300 45.68500
C  57.64800 23.09600 46.04600
C  58.99300 23.59700 46.58500
C  58.76500 25.19700 46.74900
C  57.37700 25.37300 46.10600
C  59.57100 22.87300 47.83800
C  59.81500 26.13900 46.21000
C  60.99500 26.62500 47.08700
N  54.64900 25.89900 45.24100
C  55.53200 26.91000 45.61600
C  54.81300 28.17800 45.50600
C  53.56300 27.81300 44.91400
C  53.50000 26.37700 44.80000
C  55.37900 29.46900 45.97100
C  52.34400 28.35400 44.40600
O  51.96600 29.55900 44.32400
C  51.46100 27.13300 43.97200
C  51.21800 27.38000 42.52700
O  51.94900 27.35500 41.55300
O  49.90500 27.60400 42.36400
C  49.39300 28.08500 41.05100
H  52.16800 20.32700 43.81800
H  58.25700 21.05300 46.11200
H  57.24200 27.43500 46.61600
H  49.84600 24.55800 43.88300
H  50.42100 21.85600 43.05700
H  48.87100 22.68300 44.85900
H  50.16200 22.38900 46.05100
H  49.57200 21.11100 44.91300
H  49.77100 24.95700 41.69800
H  49.93300 23.35900 41.63700
H  52.38400 24.87500 41.62400
H  51.56300 24.58900 40.08800
H  54.75100 17.68900 43.23600
H  53.14100 18.19200 43.66600
H  54.34800 17.54900 44.90800
H  59.01400 19.81700 44.57700
H  59.30500 18.09000 44.69600
H  58.75400 18.98800 46.18200
H  59.67400 23.30100 45.78700
H  58.61500 25.33100 47.82000
H  59.68600 23.41200 48.77900
H  60.55500 22.44100 47.65900
H  58.88700 22.04500 48.02900
H  59.21000 26.96200 45.82900
H  60.40200 25.63700 45.44000
H  60.66900 26.54200 48.12300
H  61.18200 27.64400 46.74500
H  61.84100 25.94400 46.98900
H  56.29200 29.71400 45.42800
H  55.64600 29.32800 47.01800
H  54.62600 30.24700 45.84300
H  50.53500 27.12100 44.54600
H  49.99100 28.92800 40.70600
H  48.40700 28.54800 41.09600
H  49.50400 27.26200 40.34500
Mg 48.61500 44.95300 43.00900
C  45.18200 44.80100 42.47100
C  48.64300 41.65000 42.34200
C  51.93900 45.14500 43.20800
C  48.38500 48.39500 43.19900
N  47.10700 43.43700 42.32400
C  45.81700 43.54800 42.23600
C  45.00700 42.28100 41.97300
C  46.15500 41.24400 42.16300
C  47.39800 42.17300 42.16300
C  46.09200 40.48100 43.49700
C  44.29400 42.14700 40.52300
C  44.83700 42.99400 39.31800
H  44.77500 42.31000 37.91300
N  50.08000 43.63000 42.75100
C  49.89000 42.25100 42.59900
C  51.18900 41.51700 42.64500
C  52.14600 42.54300 42.92700
C  51.41700 43.90000 42.97600
C  51.30300 40.02400 42.53000
C  53.62800 42.25400 43.06000
O  54.05500 41.17100 42.76200
C  54.58000 43.36300 43.37800
N  49.98900 46.57900 42.98200
C  51.31900 46.39600 43.21900
C  52.10200 47.74200 43.44000
C  50.95600 48.82200 43.50200
C  49.67200 47.88900 43.14000
C  53.00300 47.77800 44.71800
C  51.16200 50.06400 42.56900
C  50.94400 51.45800 43.27500
N  47.10500 46.36200 42.97500
C  47.15100 47.68000 43.00200
C  45.80700 48.25100 42.82100
C  45.01300 47.15300 42.73900
C  45.83000 46.02300 42.68700
C  45.44700 49.71600 42.69900
C  43.67800 46.70300 42.60200
O  42.64000 47.38200 42.46400
C  43.74600 45.16100 42.45500
C  43.06000 44.48300 43.51100
O  42.12100 43.75800 43.30500
O  43.76100 44.68000 44.71300
C  43.42600 43.63200 45.70300
H  48.53600 40.57200 42.21000
H  53.02700 45.24200 43.20000
H  48.24000 49.47300 43.29900
H  44.26300 42.25300 42.76800
H  46.13800 40.51200 41.35600
H  45.17200 40.42500 44.07900
H  46.84300 40.82600 44.20700
H  46.30600 39.44000 43.25400
H  43.22300 42.34100 40.58800
H  44.35900 41.11000 40.19400
H  45.90900 43.09100 39.49600
H  44.32700 43.95700 39.27300
H  51.52000 39.78700 41.48900
H  50.49800 39.33900 42.79900
H  52.16100 39.68500 43.11100
H  54.23500 44.04100 44.15900
H  54.77100 43.89700 42.44700
H  55.55800 42.97500 43.66300
H  52.74000 47.97400 42.58700
H  50.76400 49.14400 44.52600
H  54.02100 48.16600 44.68900
H  53.14100 46.78800 45.15300
H  52.50600 48.25800 45.56100
H  50.53400 50.03800 41.67900
H  52.21100 49.98700 42.28500
H  50.61400 51.38600 44.31100
H  50.17100 51.97600 42.70800
H  51.88000 52.01700 43.28800
H  45.66800 50.09700 41.70200
H  46.07400 50.23100 43.42700
H  44.37600 49.77500 42.89300
H  43.26700 44.88300 41.51600
H  42.42600 43.79800 46.10500
H  44.20500 43.74400 46.45700
H  43.53200 42.67100 45.20100

