158

Mg 1.68500 41.63400 25.66100
C  2.59300 42.02600 29.14400
C  -1.52900 40.68100 26.78400
C  1.04600 40.59300 22.54800
C  5.02300 42.27200 24.89600
N  0.71300 41.44700 27.70200
C  1.23800 41.75500 28.95900
C  0.23100 41.51300 30.10800
C  -1.12000 41.09200 29.28300
C  -0.65300 41.05300 27.80200
C  -1.75700 39.72200 29.75000
C  0.03900 42.71900 31.06600
C  0.27600 42.39800 32.56700
H  -0.13100 40.96300 33.02000
N  -0.02500 40.80500 24.84200
C  -1.26300 40.47800 25.39300
C  -2.14800 40.01700 24.36500
C  -1.47000 40.15800 23.16900
C  -0.07100 40.52900 23.48000
C  -3.60100 39.69400 24.65900
C  -2.07200 40.09700 21.73000
O  -1.43300 40.23100 20.72400
C  -3.53400 39.75800 21.50600
N  2.88800 41.38800 24.04300
C  2.35200 40.97800 22.82900
C  3.39100 40.88000 21.66000
C  4.58500 41.63700 22.32700
C  4.18200 41.78000 23.87300
C  3.54900 39.48200 21.15700
C  4.78700 43.06300 21.76400
C  5.40900 43.18000 20.30900
N  3.51900 42.20600 26.76500
C  4.79800 42.40900 26.28600
C  5.61900 42.79200 27.39000
C  4.86100 42.56600 28.54200
C  3.57300 42.26100 28.11900
C  7.11800 42.99600 27.35200
C  4.87400 42.55700 29.98500
O  5.81400 42.76700 30.71300
C  3.34400 42.11300 30.45200
C  3.67600 40.81400 31.25100
O  3.58400 39.68400 30.88900
O  4.13000 41.17800 32.52800
C  4.56900 39.93700 33.31100
H  -2.56500 40.43900 27.03100
H  1.02200 40.25800 21.50900
H  6.00600 42.52400 24.49400
H  0.65000 40.68700 30.68200
H  -1.80000 41.93100 29.43100
H  -1.24300 39.29600 30.61100
H  -1.56700 38.91700 29.04000
H  -2.83700 39.74800 29.89600
H  -0.97800 43.10000 30.96700
H  0.61700 43.56700 30.69700
H  -0.41500 43.10100 33.03300
H  1.29500 42.57100 32.91300
H  -4.24200 40.56500 24.51800
H  -3.75000 39.32600 25.67400
H  -3.94100 38.96400 23.92500
H  -3.86900 39.93200 20.48300
H  -4.09700 40.41700 22.16600
H  -3.68300 38.69300 21.68800
H  3.07800 41.53100 20.84400
H  5.56000 41.14800 22.33500
H  2.78700 39.30100 20.40000
H  3.47200 38.75600 21.96600
H  4.55800 39.27200 20.80200
H  5.30300 43.70500 22.47900
H  3.81300 43.53600 21.64100
H  5.23500 42.28000 19.71800
H  6.46600 43.44300 20.35500
H  4.82600 43.99700 19.88300
H  7.43300 43.48900 26.43200
H  7.58900 42.01800 27.45200
H  7.40300 43.51600 28.26600
H  2.94400 42.78600 31.21100
H  5.54400 40.25000 33.68600
H  4.88400 39.07100 32.73000
H  4.00100 39.71600 34.21500
Mg -6.01900 25.35700 25.54800
C  -4.63900 26.30800 28.62300
C  -8.10700 23.30500 27.44500
C  -6.97400 23.94400 22.69600
C  -3.61600 27.17700 23.89600
N  -6.40100 24.89900 27.74400
C  -5.85400 25.64800 28.74400
C  -6.32800 25.09300 30.11300
C  -7.20300 23.96400 29.75500
C  -7.20400 24.02000 28.22200
C  -6.76300 22.58000 30.22800
C  -7.01400 26.16100 31.09000
C  -6.50000 26.20800 32.56400
H  -6.04100 25.02800 33.44100
N  -7.39900 23.82700 25.10700
C  -8.25100 23.25700 26.03000
C  -9.21400 22.34200 25.26400
C  -8.85400 22.52100 23.86600
C  -7.70300 23.42600 23.81200
C  -10.35300 21.53900 26.01300
C  -9.50500 21.92000 22.68900
O  -8.96600 21.86200 21.59800
C  -10.85900 21.35800 22.85500
N  -5.23000 25.27200 23.68000
C  -5.89500 24.72900 22.62000
C  -5.17000 25.02000 21.20900
C  -4.26200 26.20600 21.56500
C  -4.36700 26.22800 23.17400
C  -4.41700 23.82700 20.60900
C  -4.33400 27.50200 20.78300
C  -3.08800 27.92300 20.00300
N  -4.41800 26.49100 26.06100
C  -3.51200 27.23100 25.31100
C  -2.62400 28.00100 26.20600
C  -2.96600 27.55200 27.45700
C  -4.01600 26.65600 27.40700
C  -1.51100 28.91900 25.80700
C  -2.67300 27.68000 28.89500
O  -1.83300 28.39600 29.46000
C  -3.76900 26.91100 29.74200
C  -3.11400 25.97100 30.68200
O  -2.89800 24.77700 30.48000
O  -2.83600 26.65100 31.86800
C  -2.34100 25.84500 32.96700
H  -8.60900 22.61900 28.12900
H  -7.33000 23.65800 21.70400
H  -2.84800 27.72200 23.34300
H  -5.46400 24.68500 30.63800
H  -8.21600 24.15100 30.11300
H  -7.57700 22.12700 30.79400
H  -5.81400 22.62600 30.76300
H  -6.73500 21.89000 29.38500
H  -8.06500 25.87600 31.15400
H  -7.08700 27.17900 30.70800
H  -7.30200 26.73200 33.08200
H  -5.66100 26.89400 32.44400
H  -11.34900 21.96900 25.90800
H  -10.30600 21.54100 27.10200
H  -10.42000 20.48100 25.75700
H  -11.61300 22.04600 23.23800
H  -10.90200 20.40900 23.38800
H  -11.24100 21.17600 21.85000
H  -5.95000 25.33900 20.51900
H  -3.25200 25.80500 21.48900
H  -4.13700 23.14700 21.41300
H  -3.62100 24.30600 20.03900
H  -5.08800 23.22300 19.99800
H  -4.56000 28.33000 21.45500
H  -5.24400 27.46700 20.18500
H  -2.82200 27.05600 19.39900
H  -2.29300 28.17800 20.70500
H  -3.11700 28.82300 19.39000
H  -1.82800 29.92500 25.53200
H  -1.04300 28.48500 24.92300
H  -0.72700 29.07500 26.54700
H  -4.43700 27.58200 30.28300
H  -1.27400 26.03500 33.08800
H  -2.33100 24.76400 32.82700
H  -2.83400 26.13100 33.89600

