158

Mg 9.13900 3.20700 27.58000
C  10.15800 1.59700 30.57900
C  7.56200 5.47300 29.51300
C  7.96500 4.55500 24.76400
C  10.20300 0.39100 25.90900
N  9.01500 3.54500 29.73000
C  9.55400 2.86800 30.79700
C  9.26900 3.42400 32.18900
C  8.36400 4.64100 31.80000
C  8.29300 4.62700 30.26800
C  6.96400 4.77900 32.45500
C  10.58300 3.59400 33.05200
C  10.58600 4.74800 34.09600
H  11.19900 4.36800 35.52300
N  7.87100 4.74000 27.22900
C  7.32500 5.58400 28.10200
C  6.62600 6.64900 27.35700
C  6.91700 6.45900 25.95000
C  7.66500 5.24800 25.94000
C  5.83100 7.78900 28.09200
C  6.49900 7.26500 24.66100
O  6.81100 6.89300 23.58800
C  5.64000 8.47100 24.81700
N  9.21900 2.65800 25.62600
C  8.68900 3.35400 24.63300
C  8.95900 2.80900 23.17300
C  9.64900 1.42200 23.59400
C  9.74900 1.49900 25.11900
C  7.78000 2.74800 22.23500
C  11.06900 1.22500 22.88300
C  11.16000 0.16800 21.80200
N  10.09800 1.38700 28.05900
C  10.44700 0.33500 27.24000
C  11.07700 -0.69500 28.01900
C  11.00400 -0.27200 29.35700
C  10.42600 0.99100 29.33400
C  11.87200 -1.80400 27.42800
C  11.29100 -0.59500 30.76400
O  11.74700 -1.59000 31.30300
C  10.78800 0.62000 31.60600
C  9.75500 0.14600 32.58600
O  8.62100 -0.09800 32.27800
O  10.19700 0.10500 33.84000
C  9.13700 0.06000 34.88100
H  6.96600 6.16800 30.10700
H  7.78100 4.95200 23.76300
H  10.66000 -0.41500 25.33200
H  8.54400 2.70200 32.56500
H  8.83200 5.56900 32.12900
H  6.20500 4.49400 31.72600
H  6.68800 5.80600 32.69500
H  6.88600 4.19100 33.37000
H  11.42700 3.76000 32.38400
H  10.76800 2.61800 33.50000
H  9.55700 4.99000 34.36200
H  11.12800 5.64900 33.80800
H  6.48300 8.66300 28.06400
H  5.45300 7.48500 29.06800
H  4.90400 8.03700 27.57600
H  4.77000 8.02600 25.30000
H  5.45300 8.85200 23.81300
H  6.18600 9.26500 25.32700
H  9.64100 3.45600 22.62100
H  9.09000 0.57000 23.20900
H  8.02400 3.38100 21.38200
H  6.87500 3.22400 22.61000
H  7.48500 1.72700 21.99200
H  11.80400 1.05500 23.67000
H  11.24100 2.18400 22.39200
H  10.80800 -0.80200 22.15200
H  12.16400 -0.08900 21.46400
H  10.52700 0.41200 20.94900
H  12.45900 -1.45000 26.58100
H  11.15100 -2.49400 26.99000
H  12.56600 -2.16700 28.18700
H  11.65300 1.15800 31.99500
H  8.53400 0.96800 34.91100
H  9.44100 0.06600 35.92700
H  8.49700 -0.78400 34.62600
Mg -0.33800 43.86800 26.35200
C  1.82400 43.51700 29.03500
C  -2.80400 42.26100 28.22200
C  -2.09300 43.71600 23.55100
C  2.41100 45.00300 24.44700
N  -0.42100 43.00100 28.38500
C  0.49600 43.12300 29.38100
C  -0.00000 42.72800 30.74700
C  -1.38800 42.04000 30.35800
C  -1.58800 42.42800 28.86500
C  -1.51500 40.53600 30.81700
C  -0.21100 43.94300 31.73500
C  0.73900 43.94500 32.94200
H  0.62300 42.92100 34.04400
N  -2.28700 43.18600 26.01300
C  -3.12300 42.56400 26.85500
C  -4.34800 42.24500 26.17200
C  -4.09600 42.59400 24.75100
C  -2.77300 43.17900 24.67700
C  -5.41000 41.40500 26.69200
C  -5.02000 42.35100 23.57400
O  -4.55000 42.35900 22.46700
C  -6.41800 41.97800 23.60500
N  0.06500 44.44400 24.29900
C  -0.89400 44.32800 23.37500
C  -0.42900 45.06500 22.14500
C  1.00300 45.59700 22.53000
C  1.15800 44.99400 23.83200
C  -0.53700 44.27100 20.79600
C  0.95700 47.20800 22.50400
C  1.11900 47.85600 21.08500
N  1.74300 44.19700 26.61500
C  2.70200 44.57400 25.74300
C  3.88300 44.55100 26.40200
C  3.69100 44.25900 27.72800
C  2.30000 43.91900 27.79300
C  5.31800 44.78200 25.86300
C  4.33600 44.01300 28.96100
O  5.46600 44.15500 29.39700
C  3.06400 43.68200 29.97100
C  3.41600 42.41300 30.57500
O  3.26800 41.27300 30.18800
O  4.18000 42.68400 31.72500
C  4.65900 41.54800 32.55800
H  -3.56500 41.87200 28.90200
H  -2.75700 43.83900 22.69300
H  3.29600 45.37900 23.92800
H  0.69800 42.01200 31.17900
H  -2.24100 42.59800 30.74300
H  -0.65700 40.12300 31.34700
H  -1.52100 39.90600 29.92700
H  -2.44400 40.33600 31.35100
H  -1.25400 43.97100 32.04900
H  -0.01500 44.82200 31.12000
H  0.87600 44.89500 33.45800
H  1.72200 43.96500 32.47200
H  -6.39100 41.87900 26.72800
H  -5.23300 41.08300 27.71800
H  -5.37100 40.53700 26.03300
H  -7.03700 42.43800 24.37600
H  -6.41100 40.89700 23.74900
H  -6.85100 42.14400 22.61900
H  -1.14300 45.88900 22.14100
H  1.79900 45.18500 21.91000
H  -1.15800 44.87500 20.13500
H  -0.97900 43.31100 21.06500
H  0.39600 44.09500 20.26100
H  1.82800 47.46300 23.10600
H  0.06800 47.57500 23.01700
H  1.18400 47.11000 20.29400
H  2.07100 48.38700 21.06100
H  0.37900 48.63200 20.88700
H  5.45800 45.86200 25.80700
H  5.43900 44.43400 24.83700
H  6.07300 44.25500 26.44700
H  2.99200 44.52500 30.65800
H  4.97900 41.83300 33.56000
H  5.42600 41.06300 31.95400
H  3.86500 40.81700 32.71000

