158

Mg 40.77800 9.26300 30.30300
C  42.63800 10.23100 33.10400
C  38.16600 8.54400 32.53300
C  39.03600 8.04000 27.64000
C  43.53200 9.79300 28.29500
N  40.53500 9.33900 32.59800
C  41.32700 9.93900 33.55800
C  40.63900 10.09600 34.89000
C  39.32000 9.35000 34.66300
C  39.35600 9.06700 33.17900
C  39.18400 7.94500 35.28800
C  40.42700 11.63200 35.18500
C  39.94400 11.94200 36.63200
H  40.93100 12.71500 37.55600
N  38.88400 8.46600 30.06700
C  38.01700 8.17300 31.11300
C  36.85100 7.52000 30.54500
C  37.06200 7.44400 29.13400
C  38.40900 7.98000 28.86800
C  35.56600 7.14400 31.39600
C  36.13100 6.91200 28.03400
O  36.42300 6.82300 26.86500
C  34.68700 6.44600 28.33800
N  41.28000 8.75900 28.28500
C  40.35100 8.48800 27.39400
C  40.86200 8.77000 25.94600
C  42.31800 9.23300 26.15300
C  42.33200 9.27900 27.69400
C  40.68000 7.62400 24.87800
C  42.78300 10.65900 25.52900
C  42.14200 11.16600 24.25600
N  42.73200 9.83000 30.56200
C  43.77100 10.08000 29.64700
C  44.99200 10.44700 30.34600
C  44.55700 10.58000 31.65900
C  43.17900 10.22600 31.78900
C  46.35600 10.56700 29.84800
C  44.99200 10.91300 33.01700
O  46.06300 11.33800 33.37000
C  43.81100 10.80500 33.95700
C  44.09500 9.93300 35.15400
O  44.80200 8.93200 35.19000
O  43.73600 10.60300 36.32700
C  44.07400 9.97200 37.60200
H  37.30900 8.57600 33.20900
H  38.41900 7.87900 26.75300
H  44.36300 9.91200 27.59600
H  41.33300 9.48200 35.46400
H  38.46400 9.97100 34.92800
H  39.89300 7.72100 36.08500
H  39.25600 7.13600 34.56100
H  38.21400 7.92400 35.78300
H  39.79300 12.07400 34.41600
H  41.39700 12.11100 35.04700
H  39.64100 11.03500 37.15600
H  39.01900 12.46200 36.38200
H  35.71000 7.26400 32.46900
H  35.31700 6.10000 31.20400
H  34.65500 7.65200 31.08200
H  34.17000 7.38900 28.51000
H  34.63000 5.96700 29.31500
H  34.24100 5.83500 27.55300
H  40.30600 9.66200 25.65900
H  42.94300 8.36600 25.94400
H  40.07500 8.13400 24.12900
H  40.13300 6.72700 25.16700
H  41.64500 7.28900 24.49900
H  43.86900 10.69000 25.45000
H  42.45700 11.45200 26.20300
H  41.50500 10.40000 23.81300
H  42.93400 11.48700 23.57900
H  41.52900 12.03800 24.48300
H  46.85300 9.59700 29.82100
H  46.91900 11.34500 30.36300
H  46.27200 10.94500 28.82900
H  43.62800 11.82700 34.28900
H  43.80100 10.51100 38.51000
H  45.13700 9.73400 37.62100
H  43.47900 9.06000 37.65000
Mg 50.26400 45.76800 41.13400
C  47.34000 47.41200 39.87900
C  48.89300 42.79500 40.35400
C  53.41700 44.36900 41.21200
C  51.66500 48.85200 41.78800
N  48.45000 45.24700 40.03800
C  47.29500 45.99600 39.77300
C  46.17200 45.15800 39.15300
C  46.55100 43.72400 39.66800
C  48.09600 43.89900 40.02900
C  45.76300 43.40400 40.92200
C  46.16600 45.24400 37.59400
C  44.75600 45.24400 37.05700
H  44.53300 44.28200 35.89000
N  51.05300 43.80000 40.77800
C  50.26500 42.70600 40.60400
C  51.05300 41.54600 40.55600
C  52.41100 41.94600 40.74000
C  52.35500 43.41600 40.91700
C  50.38500 40.15500 40.54100
C  53.57600 40.96800 40.85900
O  53.41400 39.75800 40.68300
C  54.89900 41.55600 41.28100
N  52.32400 46.51600 41.31700
C  53.40100 45.76100 41.36200
C  54.70800 46.59300 41.74200
C  54.07100 47.97200 41.86900
C  52.58900 47.77500 41.76500
C  55.45500 46.18100 42.97700
C  54.65400 48.99700 40.91700
C  55.64800 49.98300 41.39900
N  49.69600 47.73100 40.96300
C  50.31000 48.88500 41.26800
C  49.50400 50.07400 41.00300
C  48.36800 49.53400 40.37900
C  48.51200 48.06200 40.43700
C  49.88500 51.51700 41.40800
C  47.12900 49.92700 39.75500
O  46.66800 51.05100 39.49100
C  46.39800 48.49400 39.38200
C  45.16800 48.39400 40.16700
O  45.04500 48.30000 41.37900
O  44.11100 48.19700 39.23600
C  42.76000 47.88200 39.72200
H  48.38600 41.82800 40.38500
H  54.43300 43.97400 41.14500
H  52.21900 49.72700 42.13300
H  45.20000 45.48600 39.52200
H  46.24200 42.98500 38.92900
H  46.40500 43.24800 41.78900
H  45.19300 42.49300 40.73900
H  45.05700 44.18800 41.19400
H  46.66200 44.39400 37.12600
H  46.73000 46.03500 37.09900
H  44.60500 46.21000 36.57500
H  43.94800 45.12300 37.77900
H  50.48500 39.76400 39.52900
H  49.32900 40.23800 40.79900
H  50.92200 39.57300 41.29000
H  54.60700 42.04300 42.21200
H  55.35000 42.23200 40.55500
H  55.60200 40.77600 41.57500
H  55.43900 46.59600 40.93400
H  54.35900 48.33800 42.85500
H  54.80000 46.28700 43.84200
H  56.31100 46.83500 43.14200
H  55.87100 45.18900 42.80200
H  53.88700 49.56300 40.38800
H  55.08400 48.50100 40.04600
H  56.56300 50.10500 40.82000
H  55.88900 49.85000 42.45400
H  55.15000 50.95300 41.38300
H  49.11400 51.67900 42.16100
H  49.87300 52.23300 40.58600
H  50.88600 51.54300 41.83900
H  46.12500 48.47000 38.32700
H  42.64000 46.84400 40.03200
H  41.92100 47.84000 39.02800
H  42.52000 48.55400 40.54600

