158

Mg 44.71100 4.51600 48.16200
C  42.24100 6.88200 47.47400
C  42.25600 1.98800 48.17900
C  47.11100 2.16700 48.27000
C  47.20600 6.95600 47.60800
N  42.49300 4.48200 47.79200
C  41.73100 5.55800 47.60600
C  40.30000 5.16300 47.38500
C  40.19100 3.62800 47.78100
C  41.71900 3.27400 47.93100
C  39.38700 3.40500 49.10700
C  40.05400 5.38300 45.83400
C  39.00300 6.44600 45.51300
H  39.32000 7.36600 44.31900
N  44.67800 2.32700 48.24100
C  43.60100 1.51100 48.23400
C  44.08900 0.16500 48.21200
C  45.51400 0.13000 48.19900
C  45.85600 1.58200 48.26500
C  43.05100 -1.01900 47.97800
C  46.33200 -1.14000 48.12700
O  45.78500 -2.24800 48.08400
C  47.86600 -1.12300 48.11000
N  46.85400 4.59200 47.65200
C  47.54500 3.51400 48.15900
C  49.04200 3.77300 48.38400
C  49.11200 5.33900 48.07000
C  47.66200 5.66800 47.79000
C  49.72100 3.34500 49.73300
C  50.08100 5.92900 46.99700
C  51.45800 6.22100 47.42600
N  44.71000 6.50100 47.68100
C  45.88800 7.40600 47.57100
C  45.27100 8.74400 47.35400
C  43.87000 8.54000 47.46200
C  43.56500 7.17700 47.55800
C  46.00900 9.99200 46.93700
C  42.65000 9.23700 47.32900
O  42.44400 10.43200 47.08600
C  41.53200 8.19100 47.33000
C  40.58200 8.50000 48.43100
O  40.57700 8.00500 49.53900
O  39.62900 9.37600 47.94100
C  38.67900 9.92700 48.95200
H  41.45400 1.25600 48.07000
H  47.94300 1.52300 48.56000
H  48.02800 7.67500 47.61000
H  39.58300 5.81700 47.88200
H  39.82900 3.00700 46.96200
H  38.68800 2.60000 48.88000
H  38.87200 4.33000 49.36400
H  39.96200 3.04400 49.96000
H  39.67900 4.45900 45.39300
H  41.00900 5.66600 45.39200
H  38.69500 6.95900 46.42500
H  38.14700 5.93400 45.07400
H  43.32600 -1.61700 47.10900
H  42.02200 -0.70300 47.81000
H  43.11200 -1.55100 48.92700
H  48.24000 -0.55300 47.26000
H  48.34600 -2.10200 48.09700
H  48.04100 -0.54000 49.01400
H  49.62200 3.24200 47.63000
H  49.45200 5.67300 49.05100
H  50.48200 4.07100 50.01900
H  50.37100 2.51600 49.45400
H  49.11400 3.14100 50.61500
H  49.58700 6.72900 46.44500
H  50.13100 5.08200 46.31400
H  51.71600 7.24800 47.17000
H  52.21000 5.65400 46.87900
H  51.72600 6.03800 48.46700
H  46.85000 10.31100 47.55300
H  45.25700 10.78200 46.93500
H  46.42900 9.68500 45.97900
H  41.19400 8.15500 46.29500
H  37.70900 10.30800 48.63000
H  39.21800 10.78700 49.35100
H  38.51200 9.28000 49.81300
Mg -4.29400 25.47700 26.21300
C  -2.99700 26.82800 29.17500
C  -6.20400 23.37100 28.08000
C  -5.06900 23.85400 23.36400
C  -2.29000 27.62100 24.38200
N  -4.39100 25.02100 28.33300
C  -3.90200 25.75900 29.37200
C  -4.34500 25.26300 30.77700
C  -5.30000 24.05600 30.35200
C  -5.30300 24.16300 28.82600
C  -4.99200 22.66000 31.08700
C  -5.21500 26.39700 31.40200
C  -5.27000 26.61700 32.96500
H  -4.89500 25.39300 33.85200
N  -5.57900 23.92900 25.74900
C  -6.32600 23.26500 26.68100
C  -7.29700 22.41100 25.98900
C  -6.98300 22.52100 24.54800
C  -5.81500 23.46100 24.50600
C  -8.44300 21.52100 26.72100
C  -7.67300 21.90700 23.30700
O  -7.34700 22.20300 22.13200
C  -8.80200 20.96400 23.51100
N  -3.67400 25.72000 24.11500
C  -4.13900 24.86600 23.17600
C  -3.49300 25.18200 21.84400
C  -2.74700 26.52000 22.14300
C  -2.88700 26.65500 23.58300
C  -2.71400 23.90200 21.22100
C  -3.36100 27.73800 21.35500
C  -2.37200 28.62800 20.64000
N  -2.87300 26.86000 26.63400
C  -2.21300 27.73600 25.83100
C  -1.41500 28.66800 26.55600
C  -1.69400 28.30700 27.86800
C  -2.59100 27.25300 27.88500
C  -0.47400 29.78200 26.08700
C  -1.36500 28.61700 29.18700
O  -0.55300 29.44000 29.61500
C  -2.26500 27.72600 30.15500
C  -1.42700 26.98500 31.12500
O  -0.68300 25.98500 30.94700
O  -1.79700 27.49100 32.34700
C  -1.06900 26.82400 33.41500
H  -6.84800 22.74600 28.70200
H  -5.29400 23.33800 22.42900
H  -1.64600 28.30100 23.82100
H  -3.60600 24.81400 31.44200
H  -6.34100 24.29900 30.56600
H  -4.81700 21.97400 30.25800
H  -5.93400 22.43900 31.58800
H  -4.11700 22.77900 31.72600
H  -6.25200 26.35400 31.07000
H  -4.91100 27.33500 30.93900
H  -6.26200 27.03900 33.12400
H  -4.54800 27.38000 33.25500
H  -9.37700 21.70100 26.18800
H  -8.51100 21.87500 27.75000
H  -8.10600 20.48400 26.72300
H  -8.37700 20.09600 24.01500
H  -9.15700 20.68300 22.52000
H  -9.68800 21.40900 23.96400
H  -4.39700 25.35600 21.26000
H  -1.72100 26.23400 21.91200
H  -3.19200 23.48000 20.33700
H  -2.54000 23.08500 21.92100
H  -1.72500 24.26600 20.94300
H  -4.10800 28.28000 21.93500
H  -4.00900 27.26400 20.61800
H  -1.32800 28.54700 20.94300
H  -2.67500 29.66700 20.76500
H  -2.39800 28.43000 19.56800
H  -1.13900 30.54300 25.67800
H  0.24000 29.38300 25.36700
H  0.07700 30.16700 26.94400
H  -2.95800 28.31100 30.75900
H  -1.24500 25.75000 33.35000
H  -1.41300 27.18600 34.38400
H  -0.02200 27.03200 33.19700

