158

Mg 26.78800 49.86600 26.38500
C  24.81600 50.83800 28.93700
C  29.31400 49.08200 28.69300
C  29.00700 49.31600 23.79700
C  24.56100 51.12500 24.07000
N  26.99900 49.80400 28.61700
C  25.98200 50.25900 29.38900
C  26.38300 50.10400 30.90900
C  27.99200 49.83100 30.88400
C  28.10700 49.50000 29.33700
C  28.85400 51.08300 31.16300
C  25.64500 48.85700 31.56000
C  25.10200 49.01600 33.03000
H  26.07000 49.50000 34.12700
N  28.81300 49.15600 26.26100
C  29.64000 48.82500 27.34600
C  30.86000 48.32700 26.86400
C  30.82000 48.44000 25.42500
C  29.51200 49.01000 25.10900
C  31.99700 47.79500 27.71300
C  31.91200 48.16100 24.37400
O  31.82800 48.30000 23.13900
C  33.19600 47.67700 24.89400
N  26.77800 50.21000 24.18000
C  27.78200 49.77400 23.34000
C  27.34900 49.75700 21.85200
C  25.85800 50.27500 21.99700
C  25.65000 50.49800 23.50900
C  28.14500 50.69100 20.89000
C  24.75100 49.28800 21.49300
C  23.63200 49.88300 20.56100
N  25.05300 50.79800 26.46200
C  24.26600 51.38800 25.45200
C  23.08600 52.01600 25.99500
C  23.28400 51.80800 27.40200
C  24.41900 51.05900 27.61100
C  21.91600 52.50400 25.24700
C  22.64400 51.93600 28.62100
O  21.54900 52.41300 28.88600
C  23.66100 51.42300 29.73000
C  24.02100 52.46900 30.72700
O  24.85300 53.37100 30.57500
O  23.30700 52.31900 31.89400
C  23.76000 53.12400 33.10800
H  30.07600 48.83700 29.43600
H  29.59400 49.02700 22.92300
H  23.83100 51.44000 23.32200
H  26.24200 51.04300 31.44400
H  28.27300 49.00400 31.53700
H  28.29300 51.88000 31.65100
H  29.34800 51.50200 30.28700
H  29.58200 50.92700 31.95900
H  26.25500 47.95500 31.60200
H  24.74000 48.64100 30.99200
H  24.71600 48.06400 33.39400
H  24.20100 49.62800 32.98700
H  32.86200 48.45500 27.64600
H  32.28700 46.78000 27.43900
H  31.81200 47.76800 28.78700
H  33.63600 48.50600 25.44900
H  34.01500 47.66200 24.17500
H  33.04700 46.72200 25.39700
H  27.47800 48.75200 21.45000
H  25.70100 51.21300 21.46500
H  29.16900 50.83600 21.23600
H  27.73000 51.68900 21.03200
H  27.99000 50.41900 19.84600
H  24.42400 48.63500 22.30300
H  25.33700 48.64200 20.83900
H  23.80800 50.95700 20.50300
H  22.68900 49.64300 21.05300
H  23.73600 49.39200 19.59400
H  21.94500 52.39400 24.16300
H  21.77500 53.56000 25.47700
H  21.05400 51.94100 25.60400
H  23.16000 50.58400 30.21500
H  24.83100 52.95300 33.21500
H  23.18300 52.74900 33.95300
H  23.59800 54.17500 32.87100
Mg 0.53200 43.32100 26.01200
C  1.87500 43.18300 29.29200
C  -2.45100 42.13400 27.30500
C  -0.53600 42.58200 22.83800
C  3.71400 44.03600 24.77800
N  -0.24300 42.95000 28.05900
C  0.49000 43.00700 29.25200
C  -0.32500 42.59900 30.42900
C  -1.75000 42.19200 29.75300
C  -1.45400 42.39200 28.26100
C  -2.13000 40.68500 30.04000
C  -0.52500 43.82100 31.42400
C  -0.69600 43.44200 32.90200
H  -1.78900 42.47700 33.36800
N  -1.28900 42.53200 25.17300
C  -2.40700 42.15600 25.92800
C  -3.44200 41.82100 24.98500
C  -2.92900 41.97300 23.68600
C  -1.54500 42.35400 23.82500
C  -4.83000 41.49900 25.47600
C  -3.66500 41.99100 22.37600
O  -3.07300 42.19800 21.32900
C  -5.09600 41.70600 22.31400
N  1.44500 43.27600 24.11600
C  0.83000 42.87200 22.96700
C  1.71300 43.10300 21.74500
C  2.83000 44.04900 22.34000
C  2.67600 43.76900 23.88800
C  2.26000 41.88900 21.02400
C  2.71400 45.51100 21.99100
C  3.57300 46.02400 20.90800
N  2.46300 43.59300 26.77000
C  3.72700 43.84600 26.19900
C  4.77900 43.72100 27.26400
C  4.04000 43.57800 28.47600
C  2.63200 43.45800 28.13300
C  6.22400 43.87000 26.92500
C  4.27000 43.44200 29.87200
O  5.30000 43.27700 30.53400
C  2.86900 43.17200 30.52100
C  2.97300 41.75200 30.96700
O  2.70100 40.76000 30.28000
O  3.20100 41.79200 32.31400
C  2.85800 40.63100 32.99900
H  -3.43200 41.90900 27.72900
H  -0.83800 42.26600 21.83700
H  4.68100 44.36600 24.39100
H  0.10300 41.73500 30.93800
H  -2.61400 42.82900 29.94600
H  -1.80900 40.08600 29.18700
H  -3.21700 40.70700 30.12800
H  -1.69600 40.25700 30.94300
H  -1.28200 44.52400 31.07600
H  0.39800 44.40000 31.45600
H  -0.84700 44.31500 33.53700
H  0.29200 43.08500 33.19600
H  -5.48100 42.32100 25.77300
H  -4.81300 40.75800 26.27500
H  -5.40800 40.92700 24.75000
H  -5.16800 40.65400 22.59000
H  -5.44900 41.69600 21.28300
H  -5.62200 42.35000 23.01900
H  1.10500 43.67400 21.04300
H  3.78100 43.62500 22.01700
H  1.84700 40.93700 21.35800
H  3.34000 41.83600 21.16100
H  2.26600 42.11100 19.95700
H  2.83700 46.10900 22.89400
H  1.66200 45.66600 21.75300
H  3.02700 46.27000 19.99700
H  4.19300 45.21400 20.52400
H  4.25400 46.83900 21.15000
H  6.64000 43.11300 26.26000
H  6.66400 43.64800 27.89700
H  6.44700 44.87900 26.57800
H  2.51400 43.83100 31.31300
H  2.74900 41.01700 34.01300
H  3.64100 39.88300 32.86800
H  1.91200 40.18700 32.68800

