158

Mg 26.75700 0.82800 29.31300
C  28.45900 1.01700 32.35100
C  23.82700 1.73700 31.09300
C  24.98900 0.62500 26.43100
C  29.55000 -0.21800 27.74300
N  26.20500 1.40200 31.51500
C  27.04100 1.34700 32.61600
C  26.34900 1.65800 34.02500
C  24.87300 1.69000 33.49100
C  24.98800 1.58900 31.91000
C  24.01700 0.54700 34.08900
C  26.82700 3.02200 34.53900
C  27.50300 3.00500 35.90000
H  26.82600 3.67100 37.04400
N  24.65000 1.07900 28.86600
C  23.63400 1.41900 29.69700
C  22.43300 1.58900 28.99100
C  22.75800 1.33300 27.63200
C  24.18100 0.90400 27.57300
C  21.06400 1.85400 29.69900
C  21.88600 1.43100 26.35900
O  22.27200 1.20900 25.17200
C  20.44500 1.91900 26.54800
N  27.22700 0.38800 27.40100
C  26.34400 0.32200 26.35200
C  27.01800 0.09800 25.03100
C  28.54200 -0.22400 25.41200
C  28.49300 0.04900 26.90900
C  26.33500 -0.94500 24.12300
C  29.55700 0.64300 24.55400
C  30.53900 -0.21000 23.71700
N  28.56700 0.36900 29.93700
C  29.65000 -0.00600 29.12100
C  30.84100 0.01800 29.92600
C  30.49400 0.36600 31.16200
C  29.03100 0.57000 31.14300
C  32.13200 -0.27500 29.42700
C  30.92100 0.77200 32.47500
O  32.05000 0.89800 32.98900
C  29.65000 0.95300 33.35300
C  29.69200 -0.13500 34.41200
O  29.35600 -1.29500 34.19800
O  30.16500 0.32600 35.64700
C  29.88100 -0.51600 36.79000
H  23.01300 2.05100 31.75000
H  24.41700 0.64600 25.50100
H  30.52500 -0.38500 27.28100
H  26.63400 0.88500 34.73900
H  24.32500 2.60200 33.73000
H  23.27500 1.08400 34.68000
H  24.75700 -0.13200 34.51300
H  23.61800 -0.04900 33.26900
H  26.07000 3.80300 34.60200
H  27.60500 3.29900 33.82800
H  28.46700 3.49400 35.76300
H  27.72000 1.97700 36.19000
H  20.51500 2.61300 29.14100
H  21.12400 2.06500 30.76600
H  20.55700 0.90300 29.53800
H  20.01700 1.82200 25.55100
H  20.54000 2.96800 26.82500
H  19.83800 1.43300 27.31200
H  26.97500 1.07500 24.54800
H  28.71100 -1.28900 25.25000
H  25.58900 -1.46600 24.72300
H  27.12400 -1.58500 23.72700
H  25.83800 -0.38600 23.33000
H  30.06000 1.26300 25.29600
H  28.97700 1.15400 23.78600
H  31.54500 0.15100 23.93000
H  30.38800 0.01900 22.66200
H  30.46500 -1.28800 23.85900
H  32.56200 0.57600 28.89900
H  31.98900 -1.10300 28.73100
H  32.82500 -0.59700 30.20400
H  29.91400 1.85600 33.90400
H  29.48600 0.06300 37.62400
H  30.79300 -0.94500 37.20400
H  29.09700 -1.23900 36.56900
Mg 36.13200 2.92800 30.52500
C  33.46400 3.85500 32.57600
C  38.24200 3.33300 33.19900
C  38.75600 2.28400 28.38800
C  34.01500 2.95700 27.68800
N  35.89600 3.72300 32.51100
C  34.67600 3.82300 33.20400
C  34.87700 3.81900 34.70200
C  36.37600 4.20000 34.79000
C  36.91700 3.79300 33.44500
C  36.52700 5.63100 35.10700
C  34.56900 2.40200 35.33000
C  34.09200 2.35200 36.79800
H  34.90500 3.28600 37.77900
N  38.14400 2.50000 30.81600
C  38.82500 2.76000 31.99300
C  40.13000 2.17500 31.75500
C  40.24100 1.81600 30.39400
C  39.02000 2.25100 29.78900
C  41.20500 2.17100 32.76000
C  41.42700 1.00700 29.63000
O  41.39400 0.78000 28.41600
C  42.73200 0.64200 30.33700
N  36.40500 2.82700 28.38700
C  37.56200 2.58800 27.72100
C  37.41500 2.32900 26.23000
C  35.88200 2.35500 26.03800
C  35.37600 2.68000 27.50000
C  38.17600 3.42100 25.44000
C  35.37500 0.95600 25.58700
C  33.96600 1.00700 24.96500
N  34.20200 3.40400 30.16600
C  33.43000 3.20100 28.97700
C  32.03400 3.45700 29.33500
C  32.05400 3.75100 30.72100
C  33.33100 3.62800 31.17700
C  30.83500 3.38400 28.45500
C  31.22400 4.18700 31.86500
O  30.03200 4.39100 31.88000
C  32.11000 4.22000 33.12000
C  32.03200 5.55600 33.80200
O  32.27900 6.66500 33.32500
O  31.73200 5.35900 35.12500
C  31.84500 6.57600 35.90400
H  38.95500 3.30800 34.02600
H  39.58000 1.94500 27.75600
H  33.27800 2.95000 26.88300
H  34.28800 4.59000 35.19800
H  36.95200 3.67200 35.55000
H  36.93900 6.29000 34.34200
H  37.14300 5.74100 36.00000
H  35.56800 6.08900 35.34800
H  35.41500 1.74300 35.13000
H  33.68800 2.01100 34.82100
H  34.23500 1.31700 37.10800
H  33.06800 2.69900 36.93800
H  41.59700 1.16100 32.88300
H  40.77800 2.43500 33.72800
H  42.04400 2.81800 32.50400
H  43.35000 1.54000 30.33700
H  43.35700 -0.02300 29.74000
H  42.73100 0.13700 31.30300
H  37.68500 1.30000 25.99300
H  35.55900 3.15700 25.37400
H  39.19900 3.06000 25.33500
H  38.16200 4.39400 25.93200
H  37.75500 3.33400 24.43900
H  35.37500 0.21400 26.38500
H  35.98400 0.47900 24.81900
H  33.59700 2.02000 24.80200
H  33.13200 0.55200 25.49900
H  33.95500 0.43700 24.03600
H  31.17100 2.75200 27.63200
H  30.45700 4.31900 28.04200
H  30.01400 2.89900 28.98300
H  31.63600 3.47400 33.75800
H  30.90000 7.11000 35.80300
H  32.74300 7.19100 35.84600
H  31.81100 6.22400 36.93500

