158

Mg 31.18600 58.74300 40.73600
C  28.75100 56.41000 39.66800
C  33.57200 56.33700 39.88200
C  33.36200 61.16100 40.98500
C  28.54500 61.05900 41.17800
N  31.11600 56.54000 40.02400
C  30.00600 55.81900 39.60000
C  30.48500 54.49600 38.85500
C  31.91500 54.37800 39.43300
C  32.25700 55.85800 39.81300
C  32.13900 53.45000 40.71200
C  30.52700 54.58000 37.29000
C  29.60800 53.63700 36.44600
H  28.47900 54.35000 35.60700
N  33.12400 58.72200 40.61200
C  33.96400 57.68400 40.31200
C  35.36100 58.10100 40.38500
C  35.34600 59.45000 40.84100
C  33.88200 59.79400 40.85000
C  36.44100 57.16200 39.89900
C  36.52500 60.31100 41.27000
O  37.64900 59.80300 41.23900
C  36.40200 61.70600 41.80200
N  30.91000 60.81900 40.85700
C  31.99900 61.56800 41.06800
C  31.64900 63.02800 41.46400
C  30.09600 62.97900 41.74000
C  29.84400 61.55900 41.16500
C  32.38900 63.76000 42.61700
C  29.38300 64.03400 40.95400
C  28.09800 64.54900 41.72800
N  29.02900 58.76600 40.63200
C  28.15400 59.77100 40.83800
C  26.85100 59.21200 40.75700
C  26.98800 57.94200 40.22900
C  28.37200 57.70800 40.14700
C  25.55100 59.89300 41.16800
C  26.28900 56.70000 39.74900
O  25.11000 56.52900 39.44200
C  27.45700 55.66300 39.37700
C  27.32800 54.50000 40.29700
O  28.01400 54.25300 41.25700
O  26.08600 53.99500 40.12100
C  25.53700 52.84300 40.84500
H  34.23300 55.47900 39.74600
H  34.00500 62.01600 41.20600
H  27.79000 61.81300 41.41000
H  29.98600 53.58900 39.19800
H  32.65200 54.12100 38.67300
H  31.42500 52.62600 40.71100
H  32.01000 54.07000 41.59900
H  33.13000 52.99600 40.73100
H  31.54100 54.36100 36.95600
H  30.30200 55.60700 37.00300
H  28.97900 52.98400 37.05000
H  30.19300 53.01300 35.77100
H  36.16500 56.77100 38.91900
H  36.72800 56.44500 40.66800
H  37.33600 57.77200 39.77500
H  37.33500 61.93300 42.31700
H  35.57100 61.66500 42.50700
H  36.19400 62.36000 40.95500
H  31.85400 63.63500 40.58200
H  29.83500 62.99300 42.79900
H  32.85800 63.01900 43.26400
H  31.79100 64.41900 43.24700
H  33.17200 64.38500 42.18900
H  28.95800 63.72100 40.00100
H  30.07200 64.83700 40.69200
H  27.19700 64.23700 41.19800
H  28.10500 65.63800 41.71700
H  28.01200 64.08000 42.70800
H  25.42400 60.84500 40.65300
H  25.55600 60.01400 42.25100
H  24.77200 59.24400 40.76600
H  27.50300 55.33500 38.33900
H  24.65600 52.38000 40.39900
H  25.19100 53.29600 41.77400
H  26.30300 52.20900 41.29100
Mg -4.72400 25.28800 26.31600
C  -3.55700 26.75800 29.25600
C  -6.92100 23.44300 28.07600
C  -5.69200 23.99400 23.36800
C  -2.31500 27.23400 24.52900
N  -5.14100 25.12600 28.41900
C  -4.58700 25.80300 29.44700
C  -5.17300 25.45500 30.77900
C  -5.83800 24.08700 30.30400
C  -6.02800 24.21800 28.84300
C  -5.11800 22.81400 30.66100
C  -6.10700 26.61500 31.39100
C  -6.21700 26.66600 32.96200
H  -5.64900 25.46800 33.72300
N  -6.09000 23.84200 25.82800
C  -6.99300 23.31600 26.66500
C  -7.96500 22.60200 25.89200
C  -7.61700 22.70600 24.50500
C  -6.44200 23.61700 24.52600
C  -9.02600 21.83700 26.59800
C  -8.34200 22.12900 23.30100
O  -7.96900 22.42200 22.19900
C  -9.55000 21.22800 23.39600
N  -3.99000 25.57800 24.14600
C  -4.54900 24.74500 23.17200
C  -4.01400 25.23000 21.77200
C  -2.97400 26.32400 22.15900
C  -3.01500 26.36500 23.66900
C  -3.49600 23.99700 20.95900
C  -3.25800 27.64100 21.39200
C  -2.17100 28.27400 20.61400
N  -3.28800 26.78500 26.75000
C  -2.36900 27.41200 25.96600
C  -1.57200 28.24200 26.78300
C  -2.00500 28.03100 28.11000
C  -2.95600 27.07600 28.03500
C  -0.60600 29.23900 26.20400
C  -1.88400 28.51500 29.44500
O  -1.17300 29.39200 29.95200
C  -2.87900 27.66100 30.26800
C  -2.05200 26.81600 31.15000
O  -1.41900 25.85100 30.85400
O  -2.06900 27.36700 32.39200
C  -1.14200 26.92400 33.41500
H  -7.57700 22.74700 28.60300
H  -5.92600 23.48200 22.43200
H  -1.52500 27.91100 24.19800
H  -4.25400 25.25300 31.32700
H  -6.85100 24.09200 30.70700
H  -5.13500 22.20600 29.75700
H  -5.68900 22.30200 31.43500
H  -4.06800 23.00900 30.88300
H  -7.12400 26.37300 31.08200
H  -5.88000 27.61600 31.02400
H  -7.20600 26.90600 33.35100
H  -5.60800 27.52700 33.23900
H  -9.99500 21.80300 26.10000
H  -9.31600 22.11400 27.61200
H  -8.63800 20.81900 26.59000
H  -9.48700 20.53800 24.23800
H  -9.49700 20.66800 22.46200
H  -10.38300 21.92700 23.48000
H  -4.93000 25.70800 21.42700
H  -1.95200 26.10800 21.84700
H  -2.43100 24.08500 20.74300
H  -4.17800 23.83000 20.12500
H  -3.65000 23.03700 21.45100
H  -3.66700 28.37100 22.09100
H  -4.08200 27.51400 20.69000
H  -1.88700 27.66700 19.75400
H  -1.36600 28.63500 21.25300
H  -2.49800 29.20200 20.14500
H  0.30800 28.78600 25.81800
H  -0.41600 29.82700 27.10200
H  -1.05000 29.82400 25.39900
H  -3.59800 28.31700 30.76000
H  -1.38300 25.88600 33.64600
H  -1.39600 27.49500 34.30800
H  -0.06700 26.97800 33.24700

