158

Mg 25.84000 0.79800 29.63400
C  27.92300 0.52400 32.56400
C  23.11100 0.83000 31.66000
C  24.00000 1.08500 26.85200
C  28.61600 -0.08000 27.76500
N  25.63000 0.70700 31.84200
C  26.56800 0.75500 32.84400
C  25.90200 0.89800 34.20300
C  24.37700 0.81500 33.94200
C  24.38500 0.69700 32.39700
C  23.63400 -0.37200 34.68300
C  26.37400 2.12000 35.06500
C  26.62200 1.87500 36.53000
H  26.27200 2.97300 37.52900
N  23.83200 1.01200 29.30400
C  22.87500 1.02500 30.27500
C  21.58100 1.27100 29.63000
C  21.81100 1.41400 28.23100
C  23.22200 1.14400 28.05400
C  20.25200 1.48400 30.39700
C  20.87900 1.83200 27.10700
O  21.22600 2.04200 25.91800
C  19.49900 2.35300 27.41300
N  26.29600 0.58200 27.63000
C  25.31400 0.73000 26.66100
C  25.98300 0.75900 25.30800
C  27.44500 0.42900 25.60400
C  27.50500 0.30500 27.07600
C  25.26500 -0.04300 24.18800
C  28.39700 1.48700 25.07300
C  28.28800 2.86800 25.83000
N  27.83300 0.26800 30.01800
C  28.83000 -0.03500 29.16600
C  30.03100 -0.35600 29.92600
C  29.71400 -0.03200 31.22800
C  28.40600 0.31800 31.25400
C  31.40100 -0.76000 29.30200
C  30.34300 0.01900 32.53900
O  31.49000 -0.13600 32.91500
C  29.16100 0.41200 33.47400
C  29.14000 -0.56800 34.64600
O  28.61100 -1.70500 34.70100
O  29.80000 0.02700 35.68500
C  29.97000 -0.66100 36.94000
H  22.27800 0.94000 32.35700
H  23.43400 1.19800 25.92500
H  29.43400 -0.48900 27.16900
H  26.13900 -0.04800 34.69000
H  23.93700 1.75100 34.28400
H  23.63500 -1.33400 34.17000
H  22.58000 -0.10800 34.76300
H  24.11100 -0.53900 35.64900
H  25.60900 2.89600 35.05400
H  27.30200 2.48800 34.62500
H  27.67400 1.72200 36.76800
H  26.03400 1.01700 36.85700
H  20.47500 1.35600 31.45600
H  19.59600 0.68500 30.05100
H  19.67700 2.39800 30.24300
H  19.72700 3.26000 27.97300
H  18.95000 1.65400 28.04400
H  18.93800 2.68800 26.54100
H  25.87300 1.81200 25.04800
H  27.74900 -0.56300 25.27000
H  24.29800 -0.38400 24.56100
H  25.90600 -0.84400 23.82000
H  25.02600 0.65900 23.39000
H  28.18900 1.61900 24.01100
H  29.36600 0.98900 25.10400
H  29.28800 3.26300 26.01000
H  27.70700 2.78300 26.74900
H  27.77300 3.55200 25.15600
H  31.33500 -1.82000 29.05800
H  32.21000 -0.54000 29.99900
H  31.50900 -0.20000 28.37300
H  29.45200 1.34600 33.95600
H  30.04000 -1.71600 36.67500
H  29.23900 -0.40000 37.70600
H  30.90900 -0.33000 37.38500
Mg 48.44200 34.28400 27.81600
C  46.40200 32.70000 30.17800
C  48.66800 36.95400 29.98800
C  49.82500 36.15800 25.26400
C  47.45600 31.81900 25.57200
N  47.78000 34.66900 29.91400
C  47.04800 33.83500 30.68200
C  47.09100 34.31300 32.10600
C  47.28800 35.85200 31.89600
C  47.98500 35.83600 30.53000
C  45.96100 36.77700 31.87500
C  48.33100 33.56200 32.78800
C  48.18100 33.49400 34.32400
H  47.21300 34.49000 35.02800
N  49.27200 36.18500 27.69700
C  49.34100 37.11500 28.75400
C  50.19600 38.18400 28.33500
C  50.47500 37.99800 27.00700
C  49.88900 36.74200 26.57300
C  50.64300 39.32200 29.22600
C  51.30000 38.87500 26.06200
O  51.21200 38.72000 24.84600
C  52.21300 39.97300 26.60100
N  48.47500 34.11300 25.77000
C  49.17100 34.96200 24.94600
C  49.32100 34.33000 23.53900
C  48.70400 32.92400 23.67900
C  48.13300 32.93500 25.10500
C  48.82900 35.26400 22.41600
C  49.63500 31.74900 23.36500
C  50.52000 31.79200 22.05800
N  47.30000 32.47800 27.85100
C  46.99000 31.61300 26.84700
C  46.10600 30.58400 27.31300
C  45.87200 30.94500 28.71800
C  46.52400 32.15700 28.91100
C  45.68800 29.39400 26.48500
C  45.21900 30.53000 29.90900
O  44.54800 29.59100 30.30000
C  45.38800 31.78800 30.84200
C  45.57100 31.44000 32.29700
O  46.39100 30.75500 32.83500
O  44.49200 32.01400 32.92600
C  44.34300 31.59400 34.38300
H  48.64200 37.76100 30.72300
H  50.34400 36.62500 24.42400
H  47.19000 30.99100 24.91100
H  46.10500 34.24400 32.56500
H  48.02100 36.17300 32.63600
H  45.88500 37.38400 32.77700
H  45.11300 36.10500 31.74500
H  45.91900 37.45700 31.02400
H  49.25600 34.08900 32.55200
H  48.35200 32.49800 32.55100
H  49.17100 33.80400 34.65800
H  47.94500 32.51000 34.72900
H  51.70900 39.31300 29.45200
H  50.11900 39.25300 30.17900
H  50.36100 40.24500 28.71900
H  51.64600 40.78600 27.05500
H  52.72200 40.39600 25.73500
H  52.83500 39.44100 27.32100
H  50.38400 34.22200 23.32300
H  47.83300 32.77200 23.04200
H  48.47200 34.51900 21.70600
H  49.51900 35.97300 21.96000
H  47.94600 35.87700 22.59600
H  49.07100 30.81600 23.39100
H  50.36400 31.68200 24.17200
H  50.32800 32.63900 21.39900
H  50.20800 30.98400 21.39700
H  51.57600 31.63000 22.27600
H  46.39000 29.20900 25.67200
H  44.75300 29.57800 25.95600
H  45.64100 28.47400 27.06800
H  44.46700 32.34000 30.66000
H  44.30300 30.53300 34.63200
H  43.54600 32.04400 34.97400
H  45.26500 32.00900 34.79000

