158

Mg 52.47600 23.66700 44.56300
C  49.51400 25.46400 44.01700
C  50.73800 20.71000 43.68300
C  55.45500 22.14100 44.19200
C  54.05400 26.60700 45.42600
N  50.32300 23.16300 43.88100
C  49.31200 24.06500 43.75200
C  48.02200 23.27500 43.49600
C  48.35300 21.76000 43.47600
C  49.91000 21.87500 43.74900
C  47.54000 20.94500 44.44100
C  47.06300 23.79400 42.34600
C  47.67500 23.93300 40.93200
H  47.55800 22.71800 39.93900
N  53.03300 21.69000 44.12700
C  52.14400 20.65100 43.78600
C  52.98900 19.42100 43.63700
C  54.33000 19.81200 43.69500
C  54.36000 21.26300 44.00500
C  52.35700 18.05800 43.32600
C  55.46600 18.91800 43.23000
O  55.27900 17.72700 43.04100
C  56.75800 19.48700 42.93700
N  54.45900 24.34100 44.59500
C  55.46700 23.45000 44.42400
C  56.75900 24.22500 44.83500
C  56.44100 25.75100 44.83100
C  54.88500 25.60100 45.03200
C  57.47300 23.65200 46.05100
C  56.77200 26.59600 43.55800
C  58.14100 27.28100 43.47200
N  51.88900 25.66200 44.74500
C  52.60500 26.69000 45.27000
C  51.75200 27.83000 45.51400
C  50.52900 27.44800 44.91900
C  50.66900 26.10500 44.46500
C  52.09100 29.20900 45.99900
C  49.14400 27.82000 44.61800
O  48.52800 28.86600 44.92400
C  48.55000 26.65400 43.88000
C  48.39100 27.09300 42.51300
O  49.19200 26.91900 41.60100
O  47.18100 27.72200 42.32700
C  46.72300 27.79300 40.92100
H  50.18800 19.78700 43.49000
H  56.48900 21.79600 44.11600
H  54.53400 27.47700 45.88100
H  47.50100 23.60700 44.39400
H  48.22900 21.42500 42.44600
H  47.30100 19.97500 44.00500
H  46.66700 21.55300 44.68000
H  48.16300 20.74100 45.31100
H  46.73100 24.78900 42.64000
H  46.12900 23.23300 42.36400
H  48.72000 24.18400 41.10900
H  47.14400 24.79700 40.53300
H  52.63900 17.22700 43.97300
H  52.53000 17.77700 42.28700
H  51.27300 17.96500 43.40200
H  57.38100 18.78700 42.37900
H  57.33400 19.52900 43.86100
H  56.69100 20.39900 42.34400
H  57.37000 24.11700 43.93800
H  56.85800 26.18700 45.73900
H  58.37400 23.11500 45.75400
H  56.83700 22.88800 46.49600
H  57.68500 24.42300 46.79200
H  56.02500 27.37400 43.40100
H  56.79400 25.97900 42.66000
H  58.60600 26.82500 42.59800
H  58.77400 27.08300 44.33800
H  58.10000 28.36900 43.42600
H  53.06600 29.56900 45.67300
H  52.02500 29.34600 47.07900
H  51.33100 29.85800 45.56500
H  47.56500 26.41900 44.28300
H  45.91000 27.06700 40.87700
H  47.49600 27.73000 40.15500
H  46.22600 28.76100 40.85800
Mg -1.12900 43.96100 25.17900
C  1.28500 43.51700 27.57300
C  -3.59500 43.36300 27.60000
C  -3.38900 43.74900 22.77400
C  1.44700 44.24500 22.80600
N  -1.13300 43.40100 27.32300
C  -0.02800 43.53200 28.09500
C  -0.39000 43.50100 29.59200
C  -1.93700 43.26300 29.61000
C  -2.26500 43.34100 28.06200
C  -2.30900 41.97500 30.31700
C  -0.05800 44.79200 30.33600
C  0.12000 44.66300 31.85800
H  0.17000 43.26500 32.49500
N  -3.20000 43.62300 25.19800
C  -4.02000 43.37300 26.29900
C  -5.44900 43.24600 25.84000
C  -5.36700 43.26900 24.41000
C  -3.97500 43.52200 24.02900
C  -6.70900 43.18900 26.76000
C  -6.52300 43.17700 23.41700
O  -6.38400 43.49200 22.28300
C  -7.95200 42.74400 23.84900
N  -0.97300 44.15700 23.12900
C  -2.06800 43.92200 22.35300
C  -1.67600 43.90500 20.80100
C  -0.21700 44.48700 20.89700
C  0.15200 44.35000 22.33700
C  -1.94100 42.59500 19.98800
C  0.07400 45.92300 20.26500
C  -0.01900 47.16900 21.10300
N  0.94000 43.84500 25.10900
C  1.87300 44.01900 24.08900
C  3.22200 43.83700 24.62400
C  3.01600 43.65800 26.00300
C  1.68400 43.69400 26.17900
C  4.42000 43.74700 23.81000
C  3.69900 43.29600 27.28000
O  4.83800 43.00900 27.53700
C  2.56500 43.27300 28.35800
C  2.58400 41.94700 29.09500
O  1.97100 40.93400 28.77300
O  3.44900 41.95800 30.14300
C  3.67400 40.68100 30.78700
H  -4.40000 43.44300 28.33300
H  -4.09400 43.56000 21.96200
H  2.28100 44.28500 22.10200
H  0.12400 42.61500 29.96600
H  -2.41800 44.15300 30.01700
H  -3.11800 41.49800 29.76400
H  -2.75000 42.20700 31.28600
H  -1.49400 41.26400 30.45800
H  -0.78400 45.59800 30.22400
H  0.89300 45.15500 29.94700
H  -0.40300 45.52300 32.27500
H  1.04200 45.16500 32.14800
H  -6.48700 43.69200 27.70200
H  -6.98700 42.17200 27.03500
H  -7.56700 43.68600 26.30800
H  -8.68700 43.50400 24.11400
H  -7.85700 42.02000 24.65900
H  -8.40100 42.22800 23.00000
H  -2.33600 44.63400 20.33100
H  0.45100 43.77500 20.41300
H  -2.48000 41.95800 20.69000
H  -0.93700 42.26900 19.71400
H  -2.45300 42.86000 19.06300
H  -0.62000 46.03600 19.43300
H  1.08600 45.78300 19.88500
H  0.84800 47.80600 20.92800
H  -0.03800 46.91900 22.16400
H  -0.93500 47.73400 20.93100
H  4.51700 42.67600 23.63000
H  5.37900 43.96900 24.27700
H  4.37000 44.06000 22.76700
H  2.63200 44.02200 29.14800
H  3.92800 39.88300 30.09000
H  2.82500 40.45000 31.43100
H  4.54700 40.85400 31.41700

