158

Mg 9.06300 3.41900 27.02200
C  10.35100 2.14200 30.07700
C  7.40900 5.86100 28.96400
C  7.78300 4.87600 24.21800
C  10.58600 0.92600 25.29400
N  8.80000 3.72800 29.23100
C  9.46200 3.16200 30.28400
C  9.20600 3.95400 31.62900
C  8.07900 4.92000 31.21600
C  8.07900 4.82500 29.65800
C  6.76300 4.74300 31.92900
C  10.37900 4.56600 32.40800
C  10.75200 4.04400 33.74700
H  11.19100 5.03900 34.82500
N  7.80500 5.04900 26.62700
C  7.29600 5.95000 27.61300
C  6.51800 6.92100 26.95000
C  6.74600 6.78600 25.58100
C  7.41100 5.49900 25.39600
C  5.67200 7.93900 27.64900
C  6.37400 7.69100 24.42400
O  6.66400 7.39400 23.28000
C  5.68700 9.03400 24.72500
N  8.98200 2.80200 24.98500
C  8.51100 3.65000 23.99800
C  8.89800 3.01400 22.60200
C  9.64200 1.66700 22.99300
C  9.79800 1.80700 24.50500
C  7.63900 2.82800 21.67200
C  10.91900 1.33100 22.23400
C  10.89900 0.00400 21.40500
N  10.17200 1.79800 27.51900
C  10.76400 0.89500 26.74100
C  11.57800 -0.01700 27.53900
C  11.39500 0.43100 28.83700
C  10.60300 1.54400 28.80400
C  12.39200 -1.22300 27.04500
C  11.85900 0.19400 30.22200
O  12.61100 -0.61400 30.71900
C  11.21500 1.34100 31.10200
C  10.39800 0.64400 32.16800
O  9.25900 0.28800 32.07300
O  11.32800 0.44600 33.18300
C  10.65500 -0.03300 34.43800
H  6.93900 6.62500 29.58700
H  7.46700 5.32800 23.27600
H  10.98200 0.13700 24.65200
H  8.91100 3.08100 32.21100
H  8.32600 5.97600 31.32500
H  6.27200 3.80900 31.65700
H  6.14400 5.61900 31.73400
H  7.03500 4.82700 32.98200
H  10.14300 5.62000 32.55400
H  11.30900 4.60700 31.84100
H  11.60700 3.38300 33.60800
H  9.86800 3.51000 34.09600
H  6.13100 8.89600 27.89600
H  5.42800 7.55100 28.63800
H  4.77100 8.00200 27.04000
H  6.28200 9.67800 25.37300
H  4.74500 8.79300 25.21900
H  5.33800 9.54800 23.82900
H  9.66400 3.63500 22.13600
H  8.97700 0.80500 22.92900
H  7.45700 1.78100 21.42800
H  7.80700 3.30500 20.70700
H  6.72700 3.25500 22.08800
H  11.88200 1.34900 22.74400
H  11.05200 2.09300 21.46600
H  10.84700 0.25000 20.34500
H  9.94500 -0.50300 21.55200
H  11.67600 -0.70000 21.70500
H  12.45500 -1.27900 25.95900
H  12.03600 -2.13500 27.52400
H  13.42000 -1.04000 27.35900
H  11.94300 2.08700 31.42200
H  9.93600 -0.83800 34.28400
H  10.17800 0.77100 34.99900
H  11.50600 -0.37000 35.02900
Mg -11.18200 16.42300 41.27800
C  -7.86300 15.26800 41.03200
C  -10.35100 19.35600 39.92400
C  -14.42100 17.04400 40.98200
C  -12.13900 13.04800 42.13100
N  -9.26200 17.16500 40.58900
C  -8.00900 16.56400 40.53200
C  -6.96800 17.58200 40.09600
C  -7.82600 18.91400 39.95100
C  -9.23800 18.44900 40.07800
C  -7.47600 19.90700 41.15600
C  -6.28500 17.15900 38.71500
C  -4.74100 16.92600 38.64300
H  -4.23200 16.70200 37.17200
N  -12.27300 18.01100 40.69000
C  -11.73900 19.16500 40.16200
C  -12.77400 20.13100 39.94600
C  -13.95000 19.57500 40.34300
C  -13.61200 18.15200 40.77700
C  -12.51100 21.53400 39.52900
C  -15.34000 20.26900 40.51600
O  -15.57200 21.28400 39.87500
C  -16.40400 19.70400 41.25300
N  -13.02000 15.20400 41.28700
C  -14.22300 15.74900 41.13900
C  -15.38100 14.71300 41.09900
C  -14.71800 13.43300 41.70300
C  -13.15800 13.87200 41.57800
C  -16.71600 15.22600 41.80800
C  -15.09600 12.06600 41.28000
C  -15.41100 11.00500 42.44000
N  -10.27500 14.54300 41.61100
C  -10.77100 13.31800 42.00200
C  -9.61900 12.41400 42.20500
C  -8.47400 13.12500 41.88000
C  -8.90900 14.39900 41.45000
C  -9.65400 11.02300 42.68000
C  -7.02900 13.10100 41.75900
O  -6.20900 12.18500 41.93800
C  -6.54500 14.48700 41.18000
C  -5.54700 15.17300 42.07200
O  -5.77400 16.00000 42.97000
O  -4.26200 14.80700 41.78700
C  -3.25700 15.48700 42.66900
H  -9.93800 20.35400 39.76300
H  -15.49500 17.20100 40.86400
H  -12.44500 12.03400 42.39700
H  -6.15600 17.58700 40.82200
H  -7.66400 19.44600 39.01400
H  -6.79700 20.68800 40.81400
H  -6.82300 19.40000 41.86600
H  -8.38700 20.19300 41.68200
H  -6.58300 17.87700 37.95000
H  -6.69200 16.18100 38.46000
H  -4.52700 16.06600 39.27700
H  -4.32500 17.78900 39.16500
H  -12.99100 21.70000 38.56500
H  -11.47300 21.86600 39.51500
H  -13.09100 22.20800 40.16000
H  -17.34200 20.25500 41.31800
H  -16.12100 19.34700 42.24300
H  -16.57400 18.78300 40.69500
H  -15.58800 14.59400 40.03500
H  -14.88600 13.43400 42.78000
H  -16.58000 16.14700 42.37500
H  -16.69400 14.48400 42.60600
H  -17.65600 15.11100 41.26800
H  -14.46200 11.64600 40.49900
H  -16.04100 12.13300 40.74300
H  -14.78700 11.10300 43.32800
H  -15.36200 9.96300 42.12400
H  -16.47000 11.11900 42.66700
H  -8.77300 10.88300 43.30600
H  -9.63400 10.24300 41.91900
H  -10.60100 10.89000 43.20300
H  -6.06900 14.39500 40.20300
H  -2.38100 15.71300 42.06000
H  -3.07000 14.83200 43.52000
H  -3.58400 16.47000 43.00700

