158

Mg 49.40000 35.98200 27.44400
C  47.06700 34.90700 29.82800
C  49.99500 38.82400 29.07100
C  51.33300 37.08000 24.75700
C  48.38500 33.27400 25.36200
N  48.58200 36.73100 29.19300
C  47.64800 36.19800 30.07500
C  47.49300 37.09800 31.26900
C  48.31200 38.37800 30.88100
C  48.97600 37.94000 29.61400
C  47.42000 39.71100 30.78700
C  47.79500 36.52500 32.81800
C  46.85000 36.57100 33.93500
H  46.89800 37.86000 34.79000
N  50.61500 37.64800 27.02200
C  50.73600 38.73200 27.87800
C  51.76600 39.63100 27.37400
C  52.24800 39.09400 26.13200
C  51.36700 37.88900 25.91100
C  52.22500 40.84200 28.09500
C  53.24400 39.64100 25.13500
O  53.51000 39.13100 24.03400
C  54.18500 40.75300 25.58000
N  49.81600 35.28900 25.32600
C  50.63400 35.91900 24.49400
C  50.76900 35.17400 23.19300
C  49.87000 33.92400 23.41800
C  49.30200 34.15200 24.78700
C  50.47800 35.92200 21.99600
C  50.45300 32.48600 23.26600
C  50.71600 32.12900 21.86500
N  48.16600 34.28600 27.55300
C  47.79500 33.32000 26.68600
C  46.82400 32.43200 27.21700
C  46.48600 33.00500 28.44500
C  47.32000 34.13500 28.61500
C  46.28100 31.26800 26.46600
C  45.57300 32.92800 29.61000
O  44.70000 32.18400 29.99800
C  46.07700 34.03000 30.60700
C  46.73500 33.29100 31.78400
O  47.83700 32.86600 31.94000
O  45.80000 33.22000 32.81800
C  46.23100 32.53200 34.10300
H  50.21000 39.74600 29.61500
H  51.98800 37.33200 23.92000
H  47.99300 32.52600 24.67000
H  46.42200 37.29400 31.20700
H  49.04400 38.50000 31.67900
H  46.63900 39.63100 31.54400
H  47.09300 39.83000 29.75400
H  48.10200 40.52500 31.03000
H  48.70300 37.05400 33.10700
H  48.05000 35.48100 32.63500
H  46.99900 35.70400 34.57900
H  45.85200 36.50000 33.50300
H  51.59200 41.70000 27.86600
H  53.26600 41.04600 27.84500
H  52.23100 40.77600 29.18300
H  53.71600 41.71700 25.77600
H  54.90400 40.98200 24.79300
H  54.75000 40.39200 26.43900
H  51.84100 35.01300 23.08300
H  49.15800 33.93100 22.59200
H  50.18300 36.93600 22.26400
H  49.70800 35.45400 21.38200
H  51.45400 36.02400 21.52300
H  49.66100 31.81100 23.59100
H  51.31000 32.35800 23.92700
H  51.58000 31.46800 21.78000
H  50.99500 32.95600 21.21300
H  49.87000 31.56600 21.47200
H  45.76600 31.50000 25.53400
H  45.57900 30.85300 27.18900
H  47.10600 30.62300 26.16400
H  45.19000 34.50000 31.03000
H  45.59400 32.99600 34.85600
H  47.24900 32.75100 34.42400
H  46.02500 31.46200 34.12100
Mg 26.79000 49.93300 26.67600
C  24.77700 51.27800 29.23800
C  29.08700 48.87700 29.04000
C  28.86900 49.24800 24.15000
C  24.46900 51.55600 24.37800
N  26.99600 50.15700 28.82100
C  25.95900 50.55100 29.64600
C  26.24600 50.21200 31.12800
C  27.64800 49.60900 31.08600
C  27.96600 49.46600 29.59200
C  28.78200 50.37700 31.90000
C  25.14800 49.28100 31.78100
C  24.39300 49.78800 33.01600
H  24.98600 49.55200 34.38100
N  28.70900 49.07000 26.64400
C  29.46300 48.71600 27.73200
C  30.71700 48.11000 27.23200
C  30.76100 48.33500 25.77500
C  29.39100 48.91800 25.47100
C  31.82100 47.49700 28.02800
C  31.82100 47.92100 24.76800
O  31.61300 48.02800 23.57100
C  33.12200 47.46400 25.25500
N  26.63400 50.29200 24.65300
C  27.64900 49.88200 23.75500
C  27.23200 50.18900 22.20800
C  25.84200 50.93500 22.41700
C  25.62500 50.93000 23.90900
C  28.23100 50.92800 21.34000
C  24.66300 50.27700 21.54100
C  24.29100 48.86700 22.00300
N  25.03300 51.21900 26.71400
C  24.12800 51.64700 25.71100
C  23.01400 52.33100 26.27000
C  23.23100 52.12700 27.67200
C  24.45700 51.50100 27.88900
C  21.87000 53.00500 25.58600
C  22.66300 52.36800 28.97900
O  21.58100 52.97100 29.20500
C  23.62300 51.85800 30.02200
C  24.10200 52.95700 30.93900
O  25.04000 53.80200 30.87700
O  23.31500 52.76500 32.03500
C  23.41800 53.68200 33.13800
H  29.77100 48.30900 29.67400
H  29.53800 49.22800 23.28700
H  23.80400 51.99900 23.63400
H  26.16000 51.16900 31.64300
H  27.69200 48.59600 31.48600
H  28.38400 51.24700 32.42200
H  29.63800 50.65300 31.28400
H  29.23600 49.83600 32.73100
H  25.56700 48.34800 32.15900
H  24.48600 48.98500 30.96700
H  23.31800 49.65100 32.90400
H  24.48500 50.87400 33.01400
H  31.54700 47.43700 29.08100
H  32.84100 47.88000 28.06100
H  31.93000 46.50600 27.59000
H  33.47100 48.25100 25.92400
H  33.71100 47.29100 24.35400
H  33.08900 46.50000 25.76200
H  27.05400 49.25700 21.67200
H  25.83300 51.93700 21.99000
H  29.18300 50.87600 21.86900
H  27.90400 51.91900 21.02600
H  28.26900 50.34000 20.42300
H  25.10300 50.13700 20.55300
H  23.85800 51.01000 21.49500
H  23.25900 48.71000 22.31700
H  24.89000 48.46800 22.82200
H  24.41000 48.11600 21.22200
H  22.18200 53.51500 24.67500
H  21.41500 53.76600 26.22100
H  21.14000 52.26200 25.26400
H  23.09500 51.14500 30.65500
H  24.13100 53.33900 33.88800
H  22.41400 53.71200 33.56300
H  23.60400 54.73200 32.91400

