158

Mg -10.74700 38.34600 41.74300
C  -8.93900 35.60500 40.78500
C  -8.33200 40.43700 40.16900
C  -12.91800 40.90800 41.98600
C  -13.39500 36.12700 42.72900
N  -8.93300 38.01800 40.58700
C  -8.43000 36.80400 40.23800
C  -7.15400 36.94100 39.46100
C  -6.79700 38.45200 39.46200
C  -8.10300 39.04600 40.13000
C  -5.53900 38.92100 40.24700
C  -7.30600 36.34400 38.02400
C  -6.23800 35.26000 37.65400
H  -5.18700 35.61700 36.59500
N  -10.55600 40.40300 41.35400
C  -9.57200 41.06900 40.63900
C  -9.88300 42.49800 40.51700
C  -11.09700 42.72300 41.16100
C  -11.55600 41.31500 41.61900
C  -8.89900 43.49200 39.96300
C  -11.81500 44.14700 41.32800
O  -11.39100 45.15300 40.79600
C  -13.02200 44.23900 42.22000
N  -12.91500 38.40900 42.12500
C  -13.51300 39.64500 42.26900
C  -15.02500 39.46000 42.63800
C  -15.09600 37.91900 42.92200
C  -13.72400 37.45100 42.55900
C  -15.70900 40.42500 43.73600
C  -16.28700 37.20700 42.19300
C  -16.18500 36.94700 40.66200
N  -11.04500 36.22600 41.85600
C  -12.19800 35.52200 42.34600
C  -11.71700 34.14400 42.57800
C  -10.37400 34.10500 41.97400
C  -10.07900 35.39900 41.54400
C  -12.48000 33.00600 43.20900
C  -9.19300 33.26600 41.60700
O  -8.96200 32.06800 41.81000
C  -8.28300 34.20300 40.75500
C  -6.89400 34.20900 41.34500
O  -5.91100 33.52700 40.95800
O  -6.77300 35.19700 42.32900
C  -5.40000 35.44900 42.75200
H  -7.65400 41.03900 39.56000
H  -13.69300 41.67700 41.97000
H  -14.08100 35.42000 43.20000
H  -6.25600 36.55200 39.94200
H  -6.65700 38.92200 38.48800
H  -5.68900 39.93800 40.60800
H  -4.63400 38.90100 39.64000
H  -5.47700 38.30000 41.14000
H  -7.21400 37.16000 37.30700
H  -8.34000 36.06500 37.82500
H  -6.87000 34.41600 37.37700
H  -5.71200 34.99100 38.57000
H  -9.03400 44.40300 40.54500
H  -9.02200 43.57600 38.88300
H  -7.96800 42.96300 40.16400
H  -12.96900 43.52200 43.04000
H  -13.91400 44.03300 41.62900
H  -13.07500 45.25500 42.61100
H  -15.63700 39.77700 41.79300
H  -15.14000 37.92300 44.01100
H  -16.35800 39.90500 44.44100
H  -16.37400 41.14100 43.25200
H  -15.02500 40.91400 44.42900
H  -17.18400 37.80500 42.35300
H  -16.50900 36.28900 42.73900
H  -16.44800 37.89000 40.18300
H  -16.86000 36.13400 40.39700
H  -15.19500 36.59300 40.37500
H  -12.12800 32.01500 42.92400
H  -13.55300 32.98600 43.01800
H  -12.32200 33.06300 44.28600
H  -8.38100 33.90400 39.71200
H  -4.84900 34.52000 42.90000
H  -5.36100 35.94200 43.72300
H  -4.92000 36.07600 42.00100
Mg -11.76400 16.91300 40.81700
C  -8.59000 15.54900 40.13800
C  -10.68400 19.90100 39.89900
C  -15.00200 17.86900 40.87600
C  -13.00300 13.50100 40.90000
N  -9.83900 17.57700 39.85600
C  -8.63400 16.92500 39.88900
C  -7.43300 17.89100 39.64000
C  -8.18800 19.29200 39.97000
C  -9.67300 18.96300 39.82200
C  -7.89400 19.84600 41.43100
C  -6.88400 17.76400 38.27400
C  -5.43100 18.14100 38.11000
H  -4.49500 17.07700 37.40600
N  -12.75500 18.70300 40.41900
C  -12.12000 19.80500 40.00100
C  -13.14100 20.88800 39.80600
C  -14.39900 20.25500 40.13200
C  -14.11600 18.89500 40.52000
C  -12.75600 22.24100 39.20000
C  -15.76400 20.98400 40.03200
O  -15.80300 22.12600 39.64200
C  -17.04800 20.34200 40.35400
N  -13.68500 15.83200 40.81300
C  -14.83400 16.49400 41.04600
C  -16.04100 15.53200 41.38900
C  -15.42900 14.14700 41.06500
C  -13.90800 14.45900 40.92900
C  -16.55400 15.65000 42.81300
C  -15.99100 13.33100 39.85900
C  -16.80900 12.06000 40.08700
N  -11.06500 14.88100 40.68300
C  -11.62300 13.65300 40.86600
C  -10.52600 12.67200 40.88400
C  -9.31900 13.36100 40.69800
C  -9.71200 14.70100 40.42600
C  -10.65300 11.25900 41.14800
C  -7.83100 13.26100 40.59300
O  -7.24300 12.17600 40.72900
C  -7.26200 14.63500 40.28600
C  -6.31800 14.97900 41.41600
O  -6.53200 15.00500 42.64200
O  -5.05900 15.20200 40.84300
C  -4.01900 15.85800 41.70000
H  -10.30400 20.92300 39.83800
H  -16.04100 18.18700 40.99000
H  -13.49000 12.52400 40.92100
H  -6.62500 17.81800 40.36800
H  -7.79500 20.00200 39.24300
H  -7.46000 20.84200 41.52200
H  -7.29700 19.10300 41.96000
H  -8.81300 19.85800 42.01700
H  -7.59200 18.33000 37.66900
H  -6.96700 16.72500 37.95300
H  -5.12700 18.45200 39.10900
H  -5.37800 19.09000 37.57600
H  -12.83600 22.20100 38.11400
H  -11.74900 22.51700 39.51100
H  -13.45700 23.03200 39.46700
H  -17.22000 19.55700 39.61800
H  -17.90400 21.01300 40.27500
H  -17.04000 20.01800 41.39400
H  -16.84300 15.67500 40.66500
H  -15.62900 13.44900 41.87800
H  -15.97700 16.49700 43.18300
H  -16.22900 14.83300 43.45600
H  -17.63000 15.77100 42.93900
H  -15.14900 13.06100 39.22200
H  -16.70300 13.96900 39.33600
H  -17.18800 11.91100 41.09800
H  -16.38300 11.07000 39.92500
H  -17.70100 11.97500 39.46500
H  -11.47000 10.87200 40.54000
H  -10.92100 11.10900 42.19400
H  -9.73000 10.70800 40.96400
H  -6.67000 14.43700 39.39200
H  -4.18300 16.91900 41.51600
H  -2.98400 15.54900 41.55100
H  -4.15500 15.67800 42.76600

