158

Mg 27.26600 50.52500 26.25000
C  25.15400 51.64600 28.96000
C  29.48700 49.46300 28.46700
C  29.36400 50.03700 23.63600
C  25.02200 52.18200 24.04000
N  27.22600 50.53600 28.43800
C  26.31500 50.99400 29.37300
C  26.75100 50.56000 30.78600
C  28.22100 50.08100 30.56600
C  28.31700 50.04500 29.06100
C  29.33100 51.04800 31.10600
C  25.76100 49.57800 31.46200
C  24.99900 49.89400 32.75200
H  25.73500 50.44700 33.98000
N  29.10800 49.81400 26.05800
C  29.81400 49.31000 27.13300
C  31.07600 48.80200 26.59900
C  31.14800 49.08900 25.26200
C  29.92000 49.71900 24.90800
C  32.07500 48.03000 27.43400
C  32.24400 48.79200 24.20700
O  32.16800 49.14000 23.02600
C  33.49400 48.14000 24.63800
N  27.23600 51.17000 24.16600
C  28.20600 50.71300 23.30700
C  27.74200 50.90500 21.84300
C  26.37400 51.63000 21.94100
C  26.15200 51.60400 23.48300
C  28.76700 51.69700 20.93000
C  25.20900 50.88500 21.17800
C  24.70200 51.55800 19.87900
N  25.46700 51.67400 26.42100
C  24.67900 52.22100 25.39100
C  23.53200 52.96200 26.02200
C  23.72300 52.67900 27.38200
C  24.79500 51.98200 27.55200
C  22.47600 53.72600 25.26300
C  23.09000 52.90900 28.68000
O  22.05800 53.51400 29.00000
C  24.01700 52.29200 29.72700
C  24.49200 53.42400 30.58300
O  25.57000 54.02500 30.43000
O  23.75100 53.39200 31.75200
C  24.42700 53.94200 32.91800
H  30.15500 49.07200 29.23800
H  29.95900 49.94900 22.72400
H  24.34200 52.73500 23.38800
H  26.75300 51.42000 31.45600
H  28.32800 49.05800 30.92700
H  29.65400 50.55200 32.02200
H  28.99400 52.03200 31.43300
H  30.21000 51.20000 30.48000
H  26.47100 48.85900 31.87200
H  25.11500 49.16700 30.68500
H  24.59800 48.97000 33.16700
H  24.11100 50.49600 32.55600
H  31.84500 48.35200 28.44900
H  33.11500 48.33200 27.30400
H  31.96300 46.96200 27.24900
H  33.90800 48.90700 25.29300
H  34.05200 47.95300 23.72100
H  33.19900 47.20400 25.11300
H  27.64200 49.96000 21.31100
H  26.47500 52.66300 21.60700
H  29.66100 52.11200 21.39600
H  28.24000 52.53500 20.47500
H  29.09100 50.95100 20.20500
H  24.33000 50.54600 21.72700
H  25.55600 49.92800 20.78700
H  24.92200 50.99900 18.97000
H  25.22600 52.51200 19.83700
H  23.62600 51.69200 19.99900
H  22.91600 54.47400 24.60200
H  21.85800 54.25500 25.98700
H  21.86800 52.99500 24.73000
H  23.41700 51.55900 30.26700
H  24.40200 55.00700 32.69100
H  25.44700 53.57100 33.01700
H  23.84200 53.85800 33.83400
Mg -11.51500 38.32000 42.05200
C  -9.25600 35.81600 41.43700
C  -9.52000 40.35200 39.91600
C  -14.07100 40.63800 41.77800
C  -13.82000 35.99800 43.13400
N  -9.61100 38.10600 40.76700
C  -8.95300 36.95400 40.65600
C  -7.72900 37.04500 39.78000
C  -7.76500 38.59800 39.38800
C  -8.99700 39.05800 40.01400
C  -6.51700 39.52800 39.83200
C  -7.77700 36.12500 38.58800
C  -6.50400 35.19300 38.34500
H  -5.45500 35.94200 37.56600
N  -11.74800 40.24900 41.13600
C  -10.77400 40.87200 40.41200
C  -11.23000 42.25000 40.22900
C  -12.54600 42.36500 40.65200
C  -12.82000 41.05400 41.24400
C  -10.38200 43.29000 39.65900
C  -13.39000 43.64900 40.55600
O  -12.92800 44.62800 40.09300
C  -14.78300 43.74300 40.93500
N  -13.69500 38.29900 42.30700
C  -14.49700 39.40000 42.22700
C  -15.94000 39.05100 42.57300
C  -15.86700 37.48400 42.82900
C  -14.40200 37.20600 42.77200
C  -16.71400 39.89600 43.67500
C  -16.74200 36.58600 41.85700
C  -17.52000 35.39900 42.41500
N  -11.51700 36.36700 42.39600
C  -12.47500 35.54300 42.96100
C  -11.94100 34.22000 43.25000
C  -10.68800 34.30400 42.66100
C  -10.48500 35.62200 42.10800
C  -12.58100 32.99100 43.69600
C  -9.48400 33.53200 42.35400
O  -9.20300 32.38400 42.55500
C  -8.51300 34.55200 41.59400
C  -7.22500 34.70900 42.34000
O  -6.30600 33.89700 42.22900
O  -7.09400 35.83300 43.14100
C  -5.80800 36.11800 43.72600
H  -8.89200 41.00400 39.30500
H  -14.80700 41.43100 41.92300
H  -14.59800 35.30800 43.46600
H  -6.79400 36.87100 40.31300
H  -7.91400 38.74400 38.31800
H  -6.75800 40.43200 40.39200
H  -5.89000 39.76000 38.97100
H  -5.84200 38.99200 40.49800
H  -7.84900 36.84000 37.76900
H  -8.68900 35.53600 38.49500
H  -6.83000 34.33200 37.76100
H  -5.99400 34.86200 39.25000
H  -10.12700 44.08900 40.35500
H  -11.00700 43.78000 38.91200
H  -9.50600 42.92400 39.12400
H  -14.79200 43.50500 41.99900
H  -15.29700 42.92200 40.43600
H  -15.19300 44.70000 40.61300
H  -16.51500 39.15700 41.65300
H  -16.24200 37.42700 43.85100
H  -16.03600 40.56800 44.20200
H  -17.31500 39.21900 44.28300
H  -17.44900 40.47400 43.11400
H  -16.04700 36.18200 41.12100
H  -17.41100 37.29200 41.36500
H  -17.54100 35.40300 43.50500
H  -17.26200 34.44400 41.95700
H  -18.60000 35.48000 42.29700
H  -11.83900 32.30700 44.10900
H  -13.05700 32.51600 42.83900
H  -13.28300 33.22400 44.49800
H  -8.25500 34.13600 40.62000
H  -5.22800 36.77400 43.07700
H  -5.30900 35.17100 43.93000
H  -5.97000 36.58500 44.69800

