158

Mg 9.36600 47.17200 28.01600
C  7.46100 46.99300 31.02300
C  12.13100 47.50100 29.90900
C  10.92600 47.88600 25.23900
C  6.17100 47.45000 26.22300
N  9.71000 47.44500 30.27900
C  8.84000 47.15900 31.20100
C  9.55200 47.32500 32.59500
C  10.95800 47.51600 32.18700
C  10.97000 47.44800 30.67600
C  11.49400 48.95100 32.61300
C  9.20900 46.05600 33.42400
C  10.22200 45.52700 34.49000
H  9.68300 44.75700 35.72900
N  11.24900 47.44900 27.64500
C  12.26200 47.57500 28.51900
C  13.52400 47.79600 27.76500
C  13.21000 47.68200 26.35500
C  11.76700 47.57500 26.34900
C  14.86200 47.88600 28.42700
C  14.11200 47.69400 25.05200
O  13.60700 47.68400 23.94400
C  15.52800 47.62600 25.06500
N  8.63800 47.53700 25.91200
C  9.56100 47.86800 25.02300
C  8.88200 48.29600 23.76200
C  7.36100 48.21400 23.95600
C  7.35600 47.66900 25.44800
C  9.33400 49.67700 23.14600
C  6.49600 47.27300 22.93900
C  6.58900 47.79100 21.48500
N  7.26800 47.28200 28.47000
C  6.16400 47.26200 27.65100
C  4.95100 47.20700 28.45100
C  5.40400 47.02800 29.73900
C  6.82200 47.06400 29.71800
C  3.55500 47.36500 27.99100
C  4.99400 46.82200 31.09800
O  3.87900 46.59900 31.56100
C  6.29800 46.80800 32.00600
C  6.18800 45.40500 32.62100
O  6.34800 44.39400 31.96900
O  5.66800 45.50600 33.88400
C  5.69300 44.24400 34.59300
H  13.03500 47.58100 30.51600
H  11.45400 48.27100 24.36300
H  5.18100 47.32100 25.78000
H  9.13900 48.17600 33.13500
H  11.59700 46.77300 32.66400
H  10.73700 49.45800 33.21100
H  11.77900 49.55400 31.75100
H  12.39100 48.82800 33.22000
H  9.13900 45.14900 32.82400
H  8.23800 46.13000 33.91400
H  10.67900 46.42000 34.91600
H  11.14400 45.07200 34.12800
H  15.33500 46.90700 28.50700
H  14.72100 48.32300 29.41600
H  15.52800 48.44100 27.76700
H  15.80500 47.09800 25.97800
H  16.14200 48.52600 25.09800
H  15.90200 47.05400 24.21500
H  9.07400 47.47200 23.07400
H  6.88700 49.19600 23.94500
H  10.18800 50.06800 23.70000
H  8.59000 50.47100 23.22000
H  9.60000 49.59300 22.09200
H  5.48000 47.20500 23.32900
H  6.84000 46.24100 22.87700
H  7.21100 48.68000 21.38400
H  5.60300 48.12600 21.16200
H  6.99900 47.01900 20.83400
H  3.42800 48.07300 27.17100
H  3.10500 47.89300 28.83200
H  3.16400 46.35500 27.87500
H  6.31500 47.60400 32.75100
H  5.37900 44.31400 35.63500
H  6.67800 43.77800 34.57800
H  5.09400 43.48600 34.08800
Mg -0.73000 44.25900 26.33900
C  1.77400 43.64400 28.75300
C  -3.07000 43.81300 28.91100
C  -3.20300 44.64600 24.06300
C  1.69000 44.28700 23.81100
N  -0.64200 43.67900 28.49600
C  0.49500 43.64900 29.30300
C  0.10100 43.51600 30.80000
C  -1.43500 43.30200 30.72900
C  -1.76700 43.59800 29.30600
C  -1.92800 42.05100 31.35600
C  0.50900 44.73900 31.77200
C  0.44600 44.52000 33.27900
H  0.39800 43.12200 33.95700
N  -2.89500 44.23700 26.44800
C  -3.64300 44.07800 27.61200
C  -5.03300 44.35200 27.28800
C  -5.09600 44.64000 25.87700
C  -3.68300 44.43300 25.38900
C  -6.11500 44.32800 28.29500
C  -6.32600 45.03500 25.00400
O  -6.28100 45.02600 23.78400
C  -7.54500 45.57300 25.70000
N  -0.76900 44.28100 24.21700
C  -1.90600 44.60300 23.53300
C  -1.62800 44.81000 22.03100
C  -0.12400 44.90600 22.03300
C  0.32700 44.35000 23.40600
C  -2.20900 43.67600 21.11300
C  0.43400 46.29200 21.78800
C  1.57700 46.32100 20.71200
N  1.37900 44.00300 26.25200
C  2.18700 44.02700 25.13400
C  3.55600 43.80200 25.55800
C  3.45800 43.71700 26.96900
C  2.10500 43.76100 27.34900
C  4.75200 43.97200 24.56300
C  4.20200 43.52800 28.20200
O  5.37200 43.39400 28.35900
C  3.14000 43.46200 29.42800
C  3.29600 42.25900 30.20200
O  3.09400 41.10200 29.79100
O  3.85300 42.51900 31.45900
C  4.18900 41.43700 32.34200
H  -3.85300 43.80800 29.67200
H  -3.88300 44.82800 23.22900
H  2.40400 44.36100 22.98700
H  0.73000 42.66800 31.06800
H  -1.92600 44.10200 31.28400
H  -1.22100 41.63400 32.07300
H  -1.93300 41.30200 30.56400
H  -2.96900 42.10200 31.67700
H  -0.02400 45.63300 31.44900
H  1.53400 44.89800 31.43700
H  -0.31000 45.18800 33.69200
H  1.40200 44.97400 33.54100
H  -7.03700 44.14300 27.74400
H  -6.09200 45.22700 28.91000
H  -5.94400 43.37400 28.79400
H  -8.14300 46.06500 24.93300
H  -7.14500 46.40600 26.27800
H  -8.20000 44.90100 26.25400
H  -1.99100 45.77100 21.66700
H  0.19200 44.11200 21.35600
H  -2.41600 44.00400 20.09400
H  -3.07500 43.12600 21.47900
H  -1.49500 42.85500 21.04600
H  0.92200 46.68700 22.67800
H  -0.28200 47.10600 21.68000
H  1.30900 46.83600 19.79000
H  1.81500 45.28900 20.45700
H  2.46800 46.78000 21.14000
H  4.75300 43.22400 23.77000
H  5.63100 43.85700 25.19800
H  4.74100 44.97300 24.13200
H  3.44600 44.33200 30.00800
H  5.27800 41.43000 32.29400
H  3.79500 40.45300 32.08700
H  3.80900 41.63700 33.34400

