158

Mg 50.92200 45.64700 42.45500
C  47.74600 46.72400 41.05300
C  49.99400 42.53900 41.09300
C  54.06200 44.72700 42.76300
C  51.72700 49.02300 42.80100
N  49.13800 44.77300 41.01700
C  47.94500 45.40200 40.86500
C  46.99700 44.37500 40.29500
C  47.55600 43.04400 40.71900
C  49.01000 43.46100 40.99400
C  46.92800 42.31700 42.04000
C  46.71700 44.57600 38.79300
C  45.36300 44.42200 38.16000
H  45.33400 43.53300 36.94100
N  51.92900 43.88600 41.92100
C  51.31400 42.68700 41.52300
C  52.36500 41.70200 41.66100
C  53.58000 42.31000 42.10900
C  53.20600 43.66500 42.38000
C  52.22700 40.27800 41.21700
C  54.88200 41.52300 42.41500
O  54.99700 40.32100 42.12900
C  56.05300 42.05700 43.06300
N  52.64600 46.69600 42.72100
C  53.81800 46.06800 42.96000
C  55.00700 47.04800 43.26300
C  54.21400 48.45600 43.15000
C  52.80500 48.10100 42.87200
C  55.67000 46.73700 44.59100
C  54.89300 49.43200 42.07800
C  55.27000 50.81000 42.61700
N  49.90400 47.56900 42.28900
C  50.37300 48.84000 42.47200
C  49.27100 49.74600 42.29700
C  48.24100 49.00400 41.72000
C  48.66800 47.66900 41.68800
C  49.36300 51.26900 42.46500
C  46.93500 49.03700 41.24200
O  46.09100 49.96200 41.18800
C  46.56700 47.57800 40.71300
C  45.36100 47.09200 41.43500
O  45.27200 46.84500 42.63700
O  44.25200 47.09700 40.58600
C  42.83800 46.94200 41.07900
H  49.87700 41.46800 40.91400
H  55.08500 44.56700 43.10700
H  52.10000 50.04700 42.87300
H  46.06000 44.37000 40.85100
H  47.48600 42.25100 39.97400
H  46.29900 41.48100 41.73300
H  46.25500 43.03700 42.50600
H  47.69500 41.96300 42.72800
H  47.50900 44.03800 38.27200
H  46.94800 45.62200 38.59200
H  44.64900 45.24500 38.13400
H  44.84900 43.73200 38.82900
H  52.69500 39.61600 41.94700
H  52.80400 40.20200 40.29500
H  51.25400 39.90100 40.90500
H  55.78100 42.65700 43.93100
H  56.60300 42.65000 42.33200
H  56.74200 41.26100 43.34400
H  55.73400 46.95000 42.45700
H  54.39200 48.89100 44.13400
H  56.66300 46.32400 44.41600
H  55.13500 46.01700 45.21100
H  55.73800 47.67500 45.14200
H  54.15200 49.66400 41.31300
H  55.70500 49.06800 41.44900
H  54.63500 51.52500 42.09200
H  56.29000 51.16600 42.47600
H  54.96600 50.91600 43.65800
H  50.37900 51.66000 42.51200
H  48.97200 51.49000 43.45800
H  48.83800 51.71000 41.61800
H  46.30200 47.66600 39.65900
H  42.76400 47.34800 42.08800
H  42.47200 45.92100 41.19400
H  42.17300 47.50800 40.42700
Mg 35.24800 47.40900 25.19700
C  35.92300 45.80000 28.06600
C  34.01300 50.05500 27.08100
C  34.53500 49.17200 22.30200
C  36.28400 44.66500 23.36900
N  34.87900 47.78000 27.42900
C  35.33000 46.97900 28.38400
C  35.12400 47.68200 29.72100
C  34.17300 48.93000 29.32500
C  34.33100 48.93000 27.87200
C  32.67000 48.91500 29.79700
C  36.39300 48.12200 30.50900
C  36.34400 47.96900 31.97800
H  35.16400 47.94300 32.95600
N  34.42900 49.35700 24.78200
C  34.05600 50.30500 25.69700
C  33.72100 51.54600 25.03100
C  33.78000 51.27600 23.61500
C  34.27900 49.91300 23.49500
C  33.43400 52.92200 25.67400
C  33.53200 52.20200 22.44600
O  33.47200 51.74400 21.32500
C  33.32300 53.68300 22.68700
N  35.33900 46.89700 23.14200
C  34.98000 47.81800 22.11600
C  35.34700 47.17100 20.75200
C  36.12500 45.86700 21.10800
C  35.87800 45.74700 22.61700
C  34.14000 46.86400 19.78800
C  37.61500 45.86200 20.76100
C  38.63700 46.12300 21.88300
N  35.92100 45.55300 25.61400
C  36.32500 44.49900 24.73900
C  36.66200 43.41500 25.52600
C  36.62700 43.86900 26.87500
C  36.03800 45.11500 26.81200
C  37.23400 42.08900 24.95600
C  36.85300 43.54800 28.24300
O  37.31300 42.51500 28.70400
C  36.39100 44.75200 29.10400
C  35.32000 44.32200 30.07400
O  34.18100 43.98000 29.74700
O  35.68800 44.49700 31.40500
C  34.69000 44.12200 32.41000
H  33.67600 50.96200 27.58800
H  34.37500 49.56900 21.29700
H  36.62900 43.80300 22.79400
H  34.60300 47.04900 30.43900
H  34.59500 49.86700 29.68900
H  32.46200 49.70500 30.51800
H  32.18600 48.01400 30.17300
H  32.12200 49.26600 28.92200
H  36.66900 49.15500 30.29700
H  37.18000 47.49900 30.08400
H  36.99500 48.71800 32.42900
H  36.80600 46.98400 32.03600
H  34.02400 53.75100 25.28100
H  33.73100 52.93500 26.72300
H  32.36700 53.10700 25.55200
H  34.09500 54.07200 23.35100
H  32.39800 53.71000 23.26400
H  33.28600 54.23200 21.74700
H  36.17700 47.76600 20.37200
H  35.63700 45.07600 20.53800
H  33.41300 47.67300 19.72200
H  33.72100 45.94400 20.19700
H  34.43400 46.61000 18.76900
H  37.77300 46.44300 19.85300
H  37.69800 44.87600 20.30400
H  38.97600 45.19100 22.33500
H  38.19300 46.65300 22.72500
H  39.50000 46.71900 21.58600
H  36.42100 41.37100 24.84900
H  37.91100 41.76500 25.74600
H  37.70700 42.35500 24.01000
H  37.25400 45.04300 29.70400
H  34.71000 43.04000 32.53600
H  33.70300 44.50900 32.15800
H  34.96700 44.34400 33.44100

