158

Mg 35.56600 1.54500 28.86700
C  33.44400 2.60100 31.30400
C  38.10400 1.30900 31.12800
C  37.80600 1.22000 26.19100
C  33.02400 1.81600 26.49600
N  35.71400 1.74300 31.01000
C  34.68900 2.20700 31.84200
C  35.11600 2.28100 33.30500
C  36.69000 2.01100 33.16100
C  36.80900 1.61500 31.67400
C  37.43700 3.22900 33.43200
C  34.37900 1.30000 34.31600
C  33.81800 1.93500 35.70500
H  34.51400 3.21400 36.26600
N  37.67500 1.27600 28.67200
C  38.52700 1.08900 29.77300
C  39.75800 0.48300 29.28600
C  39.74900 0.60200 27.85300
C  38.31800 1.04400 27.48700
C  40.89800 0.00200 30.17300
C  40.86100 0.40200 26.86500
O  40.67600 0.64900 25.67700
C  42.19900 -0.18400 27.37300
N  35.40600 1.68100 26.65200
C  36.50100 1.49600 25.79300
C  36.01000 1.71300 24.36700
C  34.45100 1.50600 24.39200
C  34.24400 1.68600 25.92800
C  36.36400 3.12200 23.77000
C  34.00500 0.06000 24.02700
C  33.03300 0.01900 22.78400
N  33.61000 1.97800 28.89100
C  32.69500 2.10400 27.78600
C  31.45900 2.69500 28.24200
C  31.70500 2.93000 29.61400
C  33.02000 2.49200 29.92300
C  30.14500 2.96400 27.52900
C  31.11400 3.42000 30.88000
O  30.00100 3.74100 31.21000
C  32.24300 3.28400 32.04100
C  32.58300 4.70000 32.46200
O  33.54500 5.35500 32.10600
O  31.64900 5.13200 33.37300
C  31.98000 6.36100 34.02200
H  38.88200 1.13300 31.87300
H  38.50200 1.33200 25.35700
H  32.23200 1.88700 25.74800
H  34.96800 3.29000 33.68900
H  37.06800 1.13400 33.68700
H  36.84700 4.02500 33.88600
H  37.93800 3.68900 32.58000
H  38.18100 2.94500 34.17600
H  35.04700 0.51700 34.67400
H  33.52100 0.95400 33.74100
H  33.79700 1.10700 36.41400
H  32.78500 2.21900 35.50200
H  41.80400 0.60000 30.06900
H  41.21600 -1.02500 29.99500
H  40.70800 0.03000 31.24600
H  42.91700 0.58000 27.67200
H  42.52000 -0.71800 26.47800
H  42.23700 -1.01400 28.07900
H  36.52600 0.96300 23.76800
H  33.91800 2.28500 23.84600
H  37.38600 3.02500 23.40200
H  36.30900 3.84000 24.58800
H  35.77500 3.48000 22.92500
H  33.53900 -0.32500 24.93400
H  34.91800 -0.48600 23.79100
H  33.23800 -0.85500 22.16600
H  33.24500 0.89600 22.17300
H  31.97300 -0.02600 23.03400
H  30.01500 2.31100 26.66500
H  30.19900 4.01000 27.22900
H  29.40300 2.75200 28.29900
H  31.85800 2.69700 32.87400
H  33.00800 6.39600 34.38300
H  31.29000 6.67000 34.80700
H  31.85400 7.16600 33.29800
Mg -2.35600 35.35300 26.38800
C  -3.46400 33.54200 29.20000
C  -0.95800 37.65600 28.54500
C  -1.34300 37.04900 23.63300
C  -4.09500 33.12000 24.40000
N  -2.24700 35.50200 28.70300
C  -2.57700 34.56700 29.65500
C  -2.03600 34.93300 31.08200
C  -1.44800 36.36500 30.79500
C  -1.53900 36.55900 29.25100
C  -2.16300 37.51300 31.63800
C  -1.14800 33.90000 31.88900
C  -1.78700 33.18200 33.04700
H  -1.08600 33.25200 34.39400
N  -1.31600 37.26600 26.10900
C  -0.73700 38.00400 27.14100
C  0.00700 39.05000 26.51700
C  0.07500 38.68500 25.08700
C  -0.85000 37.59700 24.84200
C  0.86100 40.02000 27.35200
C  0.97100 39.27200 24.02100
O  1.04900 38.73800 22.88400
C  1.84400 40.55100 24.30100
N  -2.60200 35.01700 24.26300
C  -2.20100 35.99700 23.37500
C  -2.63900 35.61300 21.98600
C  -3.27000 34.15500 22.06700
C  -3.43400 34.13400 23.61200
C  -3.55200 36.69200 21.20200
C  -2.54700 32.94800 21.46600
C  -1.70300 32.21000 22.41600
N  -3.49400 33.73200 26.64300
C  -4.13800 32.92600 25.79700
C  -4.95500 31.96100 26.44100
C  -4.65600 32.17900 27.81100
C  -3.79600 33.25000 27.85100
C  -5.68700 30.82600 25.69700
C  -4.88800 31.66100 29.15000
O  -5.54600 30.67900 29.37300
C  -4.24300 32.58000 30.13400
C  -5.34200 33.25400 30.88700
O  -6.01000 34.12500 30.40700
O  -5.50100 32.70700 32.16500
C  -6.50400 33.33800 32.99900
H  -0.32900 38.27300 29.19000
H  -1.00400 37.38700 22.65200
H  -4.57100 32.42100 23.70900
H  -2.97500 34.98600 31.63300
H  -0.38900 36.39300 31.05300
H  -1.39600 38.03000 32.21600
H  -2.93000 37.12700 32.31000
H  -2.55900 38.11400 30.82000
H  -0.18400 34.28500 32.22000
H  -0.94500 33.06400 31.21900
H  -1.89800 32.14700 32.72300
H  -2.82900 33.50000 33.03100
H  0.26500 40.14300 28.25600
H  0.98300 40.99900 26.88800
H  1.83800 39.54600 27.44900
H  1.13400 41.32700 24.58900
H  2.48500 40.74200 23.44000
H  2.51100 40.32700 25.13300
H  -1.74300 35.48400 21.37800
H  -4.26800 34.19400 21.63000
H  -4.62100 36.49000 21.26500
H  -3.27000 36.92300 20.17500
H  -3.49600 37.56100 21.85800
H  -1.99500 33.24600 20.57500
H  -3.31600 32.22800 21.18600
H  -1.29800 32.72000 23.28900
H  -0.73200 31.95900 21.98900
H  -2.09800 31.29700 22.86200
H  -6.50500 30.39900 26.27700
H  -5.03000 29.95700 25.68900
H  -5.98000 31.04500 24.67000
H  -3.58200 31.98500 30.76400
H  -7.50300 32.94000 32.82300
H  -6.56800 34.41900 32.87900
H  -6.19900 33.22000 34.03900

