158

Mg 45.33700 3.82700 47.62800
C  43.46500 6.80600 47.04200
C  42.39900 2.05400 46.94000
C  47.13400 1.04100 47.18800
C  48.17000 5.71600 48.07400
N  43.19300 4.37800 47.19100
C  42.69600 5.64300 46.96800
C  41.19500 5.57900 46.55400
C  40.82400 4.06300 46.83700
C  42.20800 3.44400 47.08300
C  39.83100 3.79600 48.02200
C  40.87100 6.01100 45.03900
C  39.88800 7.19500 44.91300
H  38.82900 7.09600 43.75600
N  44.85300 1.79100 47.07300
C  43.56200 1.27800 46.89200
C  43.69900 -0.03500 46.45400
C  45.02200 -0.40900 46.40900
C  45.74300 0.80500 46.92900
C  42.55100 -0.97600 46.12400
C  45.61300 -1.84800 46.13000
O  44.82600 -2.71200 45.69000
C  47.03400 -2.22000 46.40900
N  47.32300 3.44500 47.69700
C  47.82700 2.15500 47.60200
C  49.21700 2.10100 48.14100
C  49.69900 3.64300 48.30200
C  48.31600 4.30400 48.02200
C  49.34300 1.22900 49.41300
C  50.78500 3.93500 47.23300
C  52.24300 3.98700 47.76600
N  45.83600 5.80700 47.59100
C  47.00800 6.46500 47.80000
C  46.82400 7.90200 47.65600
C  45.47200 8.04900 47.44500
C  44.90300 6.77500 47.39400
C  47.88700 8.96600 47.64900
C  44.42300 9.04000 47.18900
O  44.56500 10.23200 47.16900
C  43.08100 8.22600 47.04300
C  42.27000 8.59300 48.23600
O  42.02600 7.84100 49.20800
O  41.63200 9.85600 48.02400
C  40.30300 10.01400 48.52900
H  41.50100 1.47100 46.72700
H  47.75400 0.14500 47.26300
H  49.04800 6.27900 48.39700
H  40.61500 6.15700 47.27300
H  40.37700 3.66600 45.92500
H  39.01800 3.14900 47.68900
H  39.28300 4.71900 48.21100
H  40.34000 3.42800 48.91300
H  40.48300 5.12800 44.53100
H  41.77400 6.37600 44.54900
H  40.42000 8.12600 44.71800
H  39.34700 7.36000 45.84500
H  42.69200 -1.37700 45.12000
H  41.61500 -0.42000 46.07400
H  42.59300 -1.80200 46.83400
H  47.57100 -1.44700 45.85900
H  47.35800 -3.18500 46.01900
H  47.33100 -2.00600 47.43600
H  49.81600 1.68900 47.32900
H  50.09300 3.89700 49.28500
H  49.94200 0.32000 49.46500
H  48.38000 0.90800 49.81100
H  49.68000 1.85700 50.23800
H  50.64900 4.98600 46.98000
H  50.69200 3.27600 46.37000
H  52.62900 5.00700 47.77800
H  52.95600 3.50300 47.09800
H  52.41800 3.61600 48.77500
H  48.62400 8.64200 48.38500
H  47.51000 9.94600 47.94000
H  48.34700 8.91800 46.66200
H  42.53600 8.42700 46.12000
H  39.80800 10.78700 47.94200
H  40.44400 10.36500 49.55200
H  39.87400 9.01300 48.55300
Mg 16.96200 51.52200 25.48200
C  18.77800 50.27100 28.33800
C  14.44600 52.44500 27.64600
C  15.67400 52.98000 22.97800
C  19.54700 50.22600 23.56800
N  16.64500 51.26500 27.68800
C  17.46000 50.75500 28.66000
C  16.91500 51.21100 30.02800
C  15.41200 51.41000 29.78000
C  15.51000 51.74300 28.25400
C  14.57300 50.10600 30.04900
C  17.67100 52.47000 30.56400
C  17.98800 52.48700 32.10500
H  17.02100 51.84700 33.17100
N  15.18600 52.65100 25.29500
C  14.29300 52.91500 26.28500
C  13.25000 53.76900 25.67900
C  13.58000 53.93300 24.27300
C  14.86200 53.24700 24.12700
C  12.00000 54.07900 26.36000
C  12.85200 54.73700 23.14800
O  13.23400 54.82300 21.99600
C  11.70300 55.54700 23.51700
N  17.49500 51.45200 23.59300
C  16.82400 52.25000 22.74000
C  17.44700 52.29800 21.31800
C  18.69800 51.37100 21.54900
C  18.58800 50.97500 23.00900
C  16.52400 51.89200 20.16200
C  20.03100 52.03100 21.19800
C  20.48200 51.58300 19.87600
N  18.69900 50.26900 25.80500
C  19.70700 49.90100 24.91800
C  20.80500 49.26600 25.56700
C  20.53800 49.35700 26.90900
C  19.22800 50.01100 27.01500
C  22.06600 48.78000 24.82100
C  21.04600 49.07000 28.28000
O  22.09500 48.57500 28.75500
C  19.82600 49.66900 29.29300
C  19.35800 48.61000 30.06400
O  19.05000 47.44100 29.72100
O  19.42700 48.92800 31.42600
C  18.95800 47.93200 32.39200
H  13.66600 52.88300 28.27200
H  15.28300 53.49500 22.09800
H  20.32700 49.85700 22.89900
H  17.07800 50.32700 30.64500
H  15.00700 52.25500 30.33800
H  13.61900 50.30500 30.53700
H  15.09200 49.43600 30.73500
H  14.28900 49.72000 29.07000
H  17.08200 53.36600 30.36900
H  18.60000 52.52300 29.99500
H  18.01800 53.53900 32.39000
H  18.92700 51.96100 32.27900
H  11.19200 53.73600 25.71300
H  11.94500 55.16800 26.38900
H  11.86000 53.58700 27.32200
H  10.87400 54.90200 23.81000
H  11.40300 56.15600 22.66300
H  11.94300 56.14300 24.39800
H  17.62800 53.35100 21.10200
H  18.55500 50.40800 21.06100
H  15.48900 52.20400 20.30200
H  16.54300 50.81200 20.01900
H  16.79400 52.40900 19.24100
H  20.84500 51.73400 21.86000
H  19.83200 53.10100 21.15300
H  21.17200 50.77800 20.12900
H  21.12400 52.26200 19.31600
H  19.75600 51.13400 19.19700
H  22.27400 49.47600 24.00800
H  21.80400 47.78900 24.45000
H  22.92600 48.52400 25.43900
H  20.29300 50.43500 29.91300
H  18.21100 48.33700 33.07500
H  19.82500 47.63200 32.98100
H  18.63300 46.96500 32.00800

