158

Mg -0.58400 7.37600 26.45900
C  0.20300 9.23000 29.30000
C  -0.22100 4.48300 28.59200
C  -1.17800 5.41500 23.95800
C  -0.14800 10.09300 24.48500
N  -0.11500 6.96700 28.67800
C  0.00400 7.93700 29.64700
C  0.03000 7.34200 31.02000
C  0.07600 5.78800 30.79600
C  -0.04500 5.76700 29.28400
C  1.24400 5.03900 31.41200
C  -1.24800 7.72700 31.84700
C  -1.00800 8.07400 33.28200
H  0.27500 7.52100 33.89800
N  -0.58200 5.26400 26.28300
C  -0.44900 4.26600 27.20900
C  -0.49600 2.97900 26.55100
C  -0.85600 3.22200 25.22200
C  -0.94200 4.67100 25.10300
C  -0.22500 1.61500 27.20800
C  -1.26600 2.18300 24.11200
O  -1.76500 2.41400 23.01100
C  -1.15700 0.72600 24.44000
N  -0.40700 7.67900 24.45200
C  -0.96600 6.75800 23.63900
C  -1.28900 7.33600 22.23500
C  -0.86900 8.87100 22.40900
C  -0.53600 8.88800 23.84300
C  -0.63500 6.57500 21.05100
C  -1.99300 9.85800 22.05400
C  -3.20500 10.15900 22.94900
N  -0.13300 9.33800 26.77500
C  0.01700 10.32100 25.87600
C  0.37300 11.47300 26.56800
C  0.44500 11.11100 27.91200
C  0.10500 9.76300 27.96200
C  0.54100 12.81700 25.91900
C  0.80700 11.59100 29.19400
O  1.24400 12.63000 29.53500
C  0.44000 10.45900 30.23600
C  1.54200 10.37400 31.17900
O  2.60300 9.83800 30.91900
O  1.35800 11.03300 32.36800
C  2.49700 11.12100 33.36300
H  -0.05500 3.71800 29.35400
H  -1.45100 4.84900 23.06400
H  -0.08100 10.98300 23.85500
H  0.94000 7.64900 31.53600
H  -0.79000 5.31900 31.26300
H  1.92700 5.66500 31.98700
H  1.81000 4.50000 30.65200
H  0.88900 4.31400 32.14300
H  -2.04400 6.98600 31.77400
H  -1.67500 8.62200 31.39500
H  -1.83500 7.65800 33.85800
H  -1.11300 9.15600 33.35700
H  0.28400 1.71900 28.16600
H  0.41400 0.94300 26.63600
H  -1.13600 1.03700 27.36500
H  -1.64700 0.40100 25.35800
H  -0.09700 0.48200 24.50600
H  -1.50200 0.19400 23.55300
H  -2.35600 7.17000 22.08900
H  0.06800 9.14700 21.92600
H  0.28800 6.10600 21.39400
H  -0.35400 7.29500 20.28300
H  -1.33400 5.80700 20.72200
H  -2.36700 9.61400 21.06000
H  -1.37300 10.72700 21.83400
H  -3.04500 11.18900 23.26800
H  -3.23700 9.48800 23.80700
H  -4.21000 9.91500 22.60400
H  0.50500 13.57900 26.69700
H  -0.17900 13.10000 25.15100
H  1.54900 12.94000 25.52300
H  -0.48900 10.78500 30.70300
H  3.43000 10.71600 32.97100
H  2.21500 10.66600 34.31300
H  2.74400 12.18000 33.44200
Mg 49.75400 35.73600 28.35900
C  47.31400 34.24200 30.46100
C  49.86800 38.25700 30.38000
C  51.85100 37.12900 26.05500
C  49.32800 32.99100 26.12500
N  48.54100 36.23900 30.09100
C  47.76200 35.47000 30.91700
C  47.54000 36.13800 32.25000
C  47.99500 37.62700 31.97300
C  48.91100 37.38200 30.80200
C  46.99200 38.76500 31.77900
C  48.20000 35.27400 33.33500
C  49.15800 35.82600 34.34900
H  48.60700 37.01700 35.12000
N  50.74500 37.42800 28.25900
C  50.68800 38.39600 29.25300
C  51.63300 39.49200 28.97900
C  52.17600 39.14000 27.68400
C  51.56500 37.87100 27.27100
C  51.77100 40.62100 29.83800
C  53.18100 39.92900 26.83400
O  53.44900 39.58100 25.68900
C  54.04700 41.00600 27.37000
N  50.33800 35.22400 26.32700
C  51.24800 35.97300 25.62800
C  51.67500 35.34900 24.35800
C  50.91400 33.98900 24.37600
C  50.17200 34.02000 25.70700
C  51.58500 36.29300 23.07700
C  51.65400 32.67500 24.13100
C  50.95800 31.80500 23.07200
N  48.51900 34.06300 28.22100
C  48.58600 32.95300 27.31400
C  47.68800 31.88900 27.78100
C  47.24000 32.35000 29.01300
C  47.72300 33.64400 29.19000
C  47.47000 30.60600 27.08400
C  46.42500 32.01000 30.12400
O  45.67800 31.05200 30.36900
C  46.39300 33.16600 31.12300
C  46.92300 32.62900 32.39800
O  48.04500 32.22900 32.60800
O  45.92600 32.71600 33.35800
C  46.36300 32.16400 34.64500
H  50.04300 38.91300 31.23500
H  52.72300 37.43700 25.47500
H  49.30800 32.13300 25.44900
H  46.47700 36.08000 32.48500
H  48.66000 38.03300 32.73600
H  47.20600 39.13800 30.77800
H  47.17000 39.56500 32.49700
H  45.99500 38.34000 31.89800
H  48.89100 34.58200 32.85400
H  47.41100 34.92600 34.00200
H  50.08400 36.11900 33.85300
H  49.53400 35.09600 35.06500
H  52.79400 40.86700 30.12000
H  51.16800 40.49400 30.73800
H  51.36900 41.49400 29.32200
H  54.25100 40.89800 28.43500
H  53.50400 41.92300 27.14300
H  55.06800 40.84300 27.02600
H  52.72300 35.10500 24.53200
H  50.02900 34.06100 23.74400
H  51.36500 35.66900 22.21100
H  52.53100 36.82100 22.96000
H  50.85900 37.09200 23.23000
H  51.73500 32.13900 25.07700
H  52.68600 32.83500 23.81800
H  51.54900 31.58000 22.18400
H  49.95700 32.06300 22.72700
H  50.78600 30.83700 23.54400
H  48.35100 30.31800 26.50900
H  46.57000 30.85700 26.52400
H  47.16500 29.96500 27.91200
H  45.35100 33.48000 31.17000
H  45.49600 32.09700 35.30200
H  47.21900 32.69300 35.06300
H  46.65000 31.12400 34.48700

