158

Mg 8.73100 48.06900 26.54200
C  6.82200 47.75400 29.38900
C  11.49200 48.93200 28.53100
C  10.70800 48.43300 23.75200
C  5.98200 47.81400 24.52400
N  8.95900 48.64600 28.72100
C  8.12700 48.25800 29.69100
C  8.77800 48.45000 31.05200
C  10.15200 49.18700 30.74900
C  10.26700 48.84100 29.26900
C  10.04900 50.70000 30.98500
C  8.94100 47.19600 31.99600
C  8.54400 47.52100 33.45900
H  8.78900 46.38300 34.50400
N  10.91000 48.49000 26.23900
C  11.83400 48.79400 27.22400
C  13.09400 48.81200 26.59700
C  12.88500 48.61900 25.20000
C  11.44600 48.56900 24.98500
C  14.38500 48.93100 27.32100
C  13.89400 48.57900 24.12000
O  13.60100 48.55600 22.94700
C  15.39600 48.46600 24.47900
N  8.40600 48.26200 24.39800
C  9.32700 48.36900 23.43300
C  8.70700 47.91900 22.03300
C  7.20800 47.80600 22.34600
C  7.18100 47.97200 23.83600
C  9.06200 48.90700 20.92000
C  6.62100 46.44100 21.85100
C  5.49700 46.47800 20.79900
N  6.82900 47.88600 26.87900
C  5.83700 47.68200 25.93400
C  4.56800 47.31300 26.63100
C  4.95200 47.28000 27.95500
C  6.31100 47.67200 28.09200
C  3.23600 47.10600 25.97200
C  4.47300 46.99100 29.33400
O  3.40000 46.53000 29.66800
C  5.72800 47.22700 30.27300
C  5.97300 45.98800 30.99500
O  6.47000 44.97500 30.50500
O  5.50600 46.13300 32.29100
C  5.66000 44.94400 33.13900
H  12.37200 49.06500 29.16400
H  11.30100 48.41600 22.83500
H  5.12700 47.63500 23.87000
H  8.17800 49.16200 31.61800
H  11.00100 48.80500 31.31600
H  9.03000 51.07700 31.07300
H  10.54800 51.34500 30.26200
H  10.55300 50.81500 31.94500
H  10.01500 47.00800 32.02600
H  8.52800 46.21500 31.76200
H  7.45900 47.59100 33.38000
H  8.91300 48.46900 33.85100
H  15.05800 48.08700 27.17200
H  14.24900 49.10500 28.38900
H  15.04900 49.70200 26.92900
H  15.48300 47.60400 25.14000
H  15.81000 49.29400 25.05400
H  15.96100 48.33300 23.55600
H  9.13400 46.95400 21.76100
H  6.62500 48.61500 21.90400
H  8.17300 49.14200 20.33400
H  9.71800 48.44400 20.18300
H  9.52000 49.77600 21.39100
H  6.11000 45.98600 22.70000
H  7.37000 45.70600 21.55600
H  4.61400 45.99500 21.21800
H  5.83200 45.80500 20.00900
H  5.17600 47.42400 20.36400
H  3.22100 46.73700 24.94600
H  2.87800 48.12900 25.86400
H  2.55700 46.55100 26.62000
H  5.54600 48.00600 31.01300
H  6.61400 44.65400 33.57900
H  5.32200 44.08900 32.55300
H  4.97700 44.99900 33.98800
Mg -5.78200 25.13700 25.39100
C  -4.02800 26.44400 28.09200
C  -7.20000 22.83400 27.60600
C  -7.13700 23.50700 22.69200
C  -3.97800 27.23400 23.28500
N  -5.58600 24.75900 27.59700
C  -4.88100 25.43300 28.51100
C  -5.28900 25.01200 29.88600
C  -5.92300 23.63200 29.65700
C  -6.28700 23.74200 28.18400
C  -5.18200 22.37100 30.10700
C  -6.17200 26.04100 30.55100
C  -6.19500 26.09100 32.11600
H  -5.51200 25.00600 32.98100
N  -7.09200 23.52700 25.19900
C  -7.59100 22.75800 26.20900
C  -8.51800 21.78500 25.71100
C  -8.54400 21.97700 24.27700
C  -7.54100 23.09100 23.94400
C  -9.04200 20.61100 26.49100
C  -9.35600 21.15800 23.26700
O  -9.42100 21.35400 22.05400
C  -10.30200 20.01400 23.72600
N  -5.44100 25.24000 23.32000
C  -6.20700 24.46300 22.42200
C  -5.90400 24.87200 21.01200
C  -5.05600 26.18400 21.14000
C  -4.76700 26.22600 22.63200
C  -5.22600 23.89800 20.01700
C  -5.84100 27.38900 20.50500
C  -7.02900 28.02600 21.13700
N  -4.34600 26.54900 25.66400
C  -3.64900 27.22500 24.67500
C  -2.79400 28.16400 25.25200
C  -2.83300 27.89800 26.63500
C  -3.84000 26.88400 26.82200
C  -1.96800 29.32700 24.65200
C  -2.34400 28.21400 27.93500
O  -1.53000 29.06600 28.24900
C  -3.13800 27.31900 28.97400
C  -2.16400 26.54000 29.85300
O  -1.38900 25.63600 29.51300
O  -2.41900 26.97300 31.14800
C  -1.59500 26.33300 32.18300
H  -7.51000 22.14300 28.39200
H  -7.49600 22.99200 21.79800
H  -3.33900 27.79700 22.60200
H  -4.41900 24.94000 30.53800
H  -6.82800 23.58900 30.26200
H  -5.08000 21.67000 29.27800
H  -5.77600 21.81800 30.83400
H  -4.25300 22.68100 30.58600
H  -7.19000 25.87200 30.19800
H  -5.82200 27.01800 30.21700
H  -7.21900 26.03100 32.48600
H  -5.84500 27.04400 32.51300
H  -8.71900 20.74500 27.52300
H  -8.73000 19.65500 26.07200
H  -10.13100 20.65500 26.53300
H  -11.13200 20.42300 24.30100
H  -9.62100 19.32300 24.22400
H  -10.68400 19.46800 22.86300
H  -6.83400 25.04000 20.46900
H  -4.21200 26.16400 20.45000
H  -5.51000 22.84600 20.03700
H  -4.15600 23.97600 20.21000
H  -5.63300 24.14400 19.03600
H  -6.00600 27.17300 19.44900
H  -5.04300 28.12800 20.42700
H  -6.80800 28.98300 21.60900
H  -7.45800 27.28400 21.81100
H  -7.85000 28.21600 20.44500
H  -0.94800 28.99100 24.46900
H  -1.97700 30.15200 25.36400
H  -2.44800 29.60700 23.71400
H  -3.78400 27.91900 29.61600
H  -1.72600 26.92900 33.08600
H  -0.55100 26.44100 31.89100
H  -1.72000 25.25400 32.28300

