158

Mg -0.23600 7.66900 27.12300
C  0.88300 9.95000 29.53200
C  -0.41700 5.15900 29.32700
C  -1.06800 5.55600 24.61200
C  0.61600 10.11400 24.58900
N  0.07200 7.58500 29.17500
C  0.50100 8.67700 29.98500
C  0.27900 8.28200 31.46400
C  0.09900 6.69300 31.31600
C  -0.10900 6.44700 29.86300
C  1.16600 5.85900 32.01000
C  -0.97100 9.03200 32.11700
C  -1.03300 9.11100 33.69900
H  0.14100 8.62400 34.58700
N  -0.81900 5.61900 26.96300
C  -0.79000 4.74200 28.02800
C  -1.28400 3.44600 27.60900
C  -1.40700 3.50900 26.24700
C  -1.07200 4.92600 25.86500
C  -1.56200 2.22700 28.55000
C  -1.61000 2.36100 25.21800
O  -1.47500 2.58900 24.02500
C  -1.93700 1.00000 25.70000
N  -0.02700 7.78900 24.88400
C  -0.61600 6.79000 24.14800
C  -0.86300 7.15500 22.69900
C  -0.33500 8.61500 22.62200
C  0.12100 8.89900 24.09300
C  -0.18000 6.19800 21.77000
C  -1.18300 9.78300 22.03600
C  -0.45300 10.94500 21.26900
N  0.71000 9.56300 27.01400
C  0.92300 10.44700 25.96300
C  1.43800 11.74300 26.52400
C  1.33700 11.57700 27.89300
C  0.93800 10.26600 28.19200
C  1.77900 12.95500 25.76000
C  1.48300 12.34200 29.04600
O  1.67600 13.55300 29.27800
C  1.21700 11.29900 30.21800
C  2.31400 11.29300 31.16300
O  3.32500 10.63500 31.03000
O  2.01700 12.05600 32.27900
C  2.88600 11.92900 33.50700
H  -0.60600 4.43200 30.12000
H  -1.46500 4.86800 23.86300
H  0.82200 10.90900 23.86800
H  1.20000 8.44100 32.02700
H  -0.81600 6.36000 31.80600
H  0.58200 5.27000 32.71700
H  1.95200 6.44400 32.48800
H  1.49000 5.05800 31.34500
H  -1.77500 8.35400 31.83100
H  -1.29700 9.98400 31.69800
H  -1.96700 8.61100 33.95500
H  -0.99200 10.18900 33.85400
H  -1.68800 2.63300 29.55300
H  -0.78700 1.48800 28.75500
H  -2.49400 1.71200 28.31600
H  -2.15700 0.30800 24.88700
H  -2.79500 1.13400 26.35900
H  -1.01300 0.63000 26.14600
H  -1.92400 7.27600 22.48100
H  0.62800 8.63700 22.11200
H  0.36300 5.41300 22.29400
H  0.44800 6.76100 21.07900
H  -1.00500 5.77200 21.19900
H  -1.71900 10.16400 22.90500
H  -1.92500 9.29900 21.40000
H  -0.76500 10.85000 20.22900
H  0.62000 10.82500 21.41900
H  -0.67300 11.85600 21.82500
H  1.24100 13.76600 26.25100
H  1.40500 12.81600 24.74500
H  2.83500 13.22500 25.75700
H  0.25800 11.58300 30.65000
H  3.86700 11.50000 33.30400
H  2.31900 11.42800 34.29100
H  3.11100 12.94300 33.83700
Mg 50.17600 45.66400 42.28100
C  47.06900 46.41400 40.77600
C  49.72500 42.40500 40.91400
C  53.47900 45.10200 42.42900
C  50.66900 49.06800 42.87700
N  48.48800 44.50000 41.00700
C  47.33300 45.07300 40.49200
C  46.53700 44.07000 39.66400
C  47.31100 42.70800 40.03800
C  48.64800 43.17600 40.68700
C  46.44900 41.79500 41.00100
C  46.51900 44.50500 38.23200
C  45.16400 44.39900 37.46900
H  45.17500 43.91200 36.00400
N  51.46200 43.98600 41.89600
C  51.06100 42.75500 41.42800
C  52.18100 41.89100 41.49400
C  53.27000 42.63600 42.02200
C  52.73600 43.94800 42.13900
C  52.18100 40.33100 41.21900
C  54.61700 42.06800 42.31100
O  54.96100 40.94500 41.97900
C  55.60900 42.92900 42.96900
N  51.83500 46.97000 42.67800
C  53.12300 46.44200 42.65500
C  54.19300 47.56900 42.87600
C  53.26400 48.83200 43.09600
C  51.83000 48.27700 42.92500
C  55.17000 47.27700 44.04300
C  53.65900 50.11000 42.23600
C  54.66800 51.03600 42.91600
N  49.11500 47.43100 41.97500
C  49.45200 48.72700 42.27100
C  48.32100 49.59500 41.90400
C  47.38300 48.73800 41.29500
C  47.90800 47.39100 41.37300
C  48.27700 51.00200 42.02500
C  46.20100 48.70300 40.54600
O  45.42800 49.58900 40.12100
C  45.95300 47.25400 40.31600
C  44.69700 46.84200 40.89800
O  44.52600 46.59200 42.08900
O  43.67600 46.75500 39.96100
C  42.39200 46.38700 40.45000
H  49.57100 41.35300 40.66600
H  54.56500 45.07900 42.31900
H  50.86700 50.12700 43.05100
H  45.53600 44.01100 40.09100
H  47.44700 42.00000 39.22000
H  46.52400 40.76700 40.64700
H  45.41900 42.14200 41.07600
H  46.84500 41.73700 42.01500
H  47.23300 43.86700 37.71200
H  46.90300 45.51900 38.11200
H  44.62500 45.34600 37.49600
H  44.60000 43.65600 38.03200
H  52.64000 40.27000 40.23300
H  51.17100 39.92900 41.13700
H  52.74000 39.71100 41.92000
H  56.42900 42.42000 43.47600
H  55.13000 43.53900 43.73500
H  55.97200 43.64600 42.23200
H  54.68300 47.61000 41.90300
H  53.22400 49.15500 44.13700
H  54.93600 47.75500 44.99400
H  56.21600 47.31900 43.73900
H  55.01800 46.22500 44.28600
H  52.79400 50.62300 41.81700
H  54.15100 49.72500 41.34200
H  54.31100 52.04800 43.10400
H  55.51700 51.23200 42.26100
H  55.14200 50.73500 43.85000
H  47.94000 51.35000 43.00200
H  47.61600 51.52300 41.33300
H  49.31000 51.24700 41.77600
H  45.72100 47.18000 39.25400
H  42.00400 47.06300 41.21100
H  42.27700 45.42300 40.94600
H  41.70500 46.40400 39.60400

