158

Mg -1.95300 17.60700 27.94500
C  -2.48700 15.69000 30.75800
C  -2.71700 20.42400 29.97700
C  -1.69900 19.43400 25.19800
C  -1.37100 14.63500 26.02200
N  -2.52900 18.00200 30.06800
C  -2.55700 17.05000 31.07800
C  -2.75400 17.68600 32.41900
C  -3.07900 19.17100 32.14500
C  -2.77900 19.22200 30.62600
C  -4.55200 19.54700 32.43300
C  -1.57900 17.45300 33.42300
C  -1.99700 17.01100 34.85000
H  -0.89400 16.96900 35.94700
N  -2.05400 19.65200 27.61200
C  -2.45200 20.60700 28.56200
C  -2.37300 21.90000 27.87300
C  -2.02100 21.61800 26.51100
C  -1.89800 20.23500 26.37500
C  -2.39800 23.19000 28.70500
C  -1.74800 22.53700 25.35000
O  -1.47600 22.19300 24.24700
C  -1.73300 24.06500 25.50200
N  -1.77700 17.10200 25.85800
C  -1.50700 18.07300 24.96300
C  -1.11100 17.40000 23.63300
C  -0.84800 15.90900 23.89900
C  -1.27300 15.88700 25.36700
C  -2.15700 17.66700 22.55200
C  0.64500 15.44800 23.73200
C  1.73000 16.04500 24.66200
N  -2.02900 15.58600 28.21900
C  -1.81700 14.48800 27.35700
C  -1.98500 13.28200 28.11400
C  -2.28000 13.71700 29.40700
C  -2.18000 15.13700 29.45100
C  -1.81600 11.82600 27.67600
C  -2.55500 13.27000 30.74000
O  -2.65500 12.14300 31.16900
C  -2.57400 14.51000 31.65500
C  -1.43000 14.28000 32.52400
O  -0.27400 14.51000 32.23000
O  -1.82500 13.74300 33.74300
C  -0.78100 13.19300 34.63900
H  -3.06900 21.27400 30.56500
H  -1.57100 20.01300 24.28200
H  -1.25500 13.79800 25.33200
H  -3.70300 17.30200 32.79200
H  -2.28400 19.77400 32.58300
H  -4.89600 20.15700 31.59800
H  -4.55100 20.20600 33.30100
H  -5.20100 18.67200 32.45900
H  -1.01800 18.38500 33.48800
H  -0.96900 16.65300 33.00400
H  -2.49000 16.04100 34.90400
H  -2.71400 17.75900 35.18600
H  -3.20000 23.91300 28.55400
H  -1.49800 23.80100 28.63600
H  -2.33300 22.96000 29.76800
H  -1.95000 24.41100 24.49100
H  -0.80100 24.47000 25.89500
H  -2.60400 24.38500 26.07400
H  -0.20400 17.83200 23.21100
H  -1.39700 15.20600 23.27200
H  -2.98200 16.95600 22.53200
H  -1.73000 17.55500 21.55500
H  -2.59500 18.65000 22.72600
H  1.00000 15.75400 22.74800
H  0.68500 14.36800 23.87400
H  2.04600 16.99500 24.23100
H  2.64200 15.44800 24.68200
H  1.29000 16.13500 25.65500
H  -1.10300 11.67200 26.86500
H  -2.84100 11.63600 27.35800
H  -1.57400 11.16600 28.50900
H  -3.46000 14.51500 32.28900
H  0.25500 13.35800 34.34200
H  -0.94600 12.13700 34.85400
H  -1.05200 13.67600 35.57800
Mg 8.96900 4.12800 27.86400
C  10.32700 2.39300 30.58700
C  7.14000 6.01000 30.10900
C  7.30000 5.73800 25.25200
C  10.21400 1.78200 25.68500
N  8.68100 4.07000 30.08900
C  9.47800 3.41800 30.99000
C  9.17200 3.94200 32.43500
C  8.12400 5.01300 32.19900
C  7.97000 5.08200 30.68400
C  6.69600 4.77300 32.93400
C  10.44900 4.39200 33.26900
C  10.28600 5.44400 34.41400
H  10.83900 5.24400 35.78600
N  7.58300 5.81100 27.72800
C  7.03100 6.45500 28.74900
C  6.22300 7.54200 28.24100
C  6.21200 7.42200 26.82500
C  7.06100 6.29700 26.49900
C  5.47500 8.61000 29.16400
C  5.51100 8.26600 25.84100
O  5.75000 8.06200 24.66800
C  4.77500 9.51200 26.27300
N  8.74600 3.74300 25.74900
C  8.01400 4.56400 24.91900
C  8.05100 4.04800 23.47500
C  8.94000 2.78700 23.55300
C  9.36500 2.75200 25.02300
C  6.62800 3.80900 22.83800
C  10.12500 2.81100 22.59900
C  10.42400 1.42000 22.03400
N  10.02900 2.46300 28.07400
C  10.58200 1.66100 27.06500
C  11.54100 0.78200 27.71100
C  11.48200 1.06900 29.04700
C  10.50100 2.04900 29.22900
C  12.22400 -0.35300 26.88200
C  12.00300 0.72900 30.36200
O  12.92700 -0.06200 30.68300
C  11.28900 1.66100 31.42400
C  10.82400 0.89900 32.58900
O  9.87200 0.08800 32.59700
O  11.77300 0.97200 33.58600
C  11.50200 0.26100 34.79300
H  6.72700 6.81000 30.72600
H  6.91500 6.20600 24.34300
H  10.66400 1.07600 24.98400
H  8.69500 3.13600 32.99300
H  8.46800 6.03400 32.36500
H  6.70000 4.32200 33.92700
H  6.11300 4.19100 32.22000
H  6.21000 5.73500 33.09900
H  11.21300 4.79500 32.60400
H  10.81000 3.56400 33.88000
H  9.21200 5.48700 34.59400
H  10.77000 6.32800 33.99800
H  4.41800 8.68900 28.91200
H  5.87000 9.62100 29.06400
H  5.59800 8.19300 30.16400
H  3.74000 9.43500 26.60800
H  4.76800 10.15600 25.39300
H  5.41000 10.06500 26.96500
H  8.54500 4.87500 22.96500
H  8.36300 1.89000 23.32800
H  5.88200 3.75400 23.63200
H  6.55400 2.85000 22.32600
H  6.38900 4.66700 22.21000
H  10.97800 3.07300 23.22500
H  9.94500 3.48800 21.76400
H  11.30200 1.09000 22.58900
H  10.65000 1.48400 20.97000
H  9.65600 0.64800 22.07900
H  13.15200 -0.58800 27.40300
H  12.53600 -0.16300 25.85500
H  11.53100 -1.19400 26.90100
H  12.06400 2.29600 31.85200
H  10.90100 0.97500 35.35500
H  12.39800 0.06400 35.38200
H  10.97700 -0.69400 34.81000

