158

Mg 25.81200 0.83100 29.29900
C  27.84800 0.31500 32.18400
C  23.10800 0.91800 31.38600
C  23.98400 1.28000 26.61400
C  28.71100 0.19100 27.22200
N  25.56000 0.61600 31.48300
C  26.50700 0.57000 32.46100
C  25.83600 0.74100 33.89200
C  24.25300 0.58900 33.55100
C  24.34200 0.73200 32.03200
C  23.57100 -0.71800 34.10300
C  26.34600 2.03500 34.67000
C  26.50900 1.80100 36.21800
H  25.78200 2.82400 37.16300
N  23.78400 1.18300 29.11200
C  22.80900 1.21700 30.02000
C  21.54500 1.48700 29.42700
C  21.76800 1.46800 28.02200
C  23.24600 1.23000 27.83400
C  20.20600 1.47600 30.14800
C  20.71300 1.58900 26.91800
O  20.99000 1.47900 25.70400
C  19.22500 1.81600 27.19200
N  26.31400 0.70200 27.20000
C  25.30700 1.07300 26.31000
C  25.82300 1.29900 24.87500
C  27.25800 0.73900 25.05400
C  27.48000 0.48000 26.56300
C  24.99000 0.73500 23.69200
C  28.36700 1.61100 24.43800
C  28.42400 3.04900 24.96700
N  27.84000 0.20500 29.59000
C  28.86900 0.06200 28.66900
C  30.12600 -0.22800 29.42100
C  29.75900 0.01600 30.82200
C  28.42100 0.24400 30.84300
C  31.38000 -0.54800 28.79800
C  30.31500 0.04900 32.20500
O  31.44600 -0.08000 32.61700
C  29.04800 0.38400 33.07800
C  29.07000 -0.49700 34.27100
O  28.58000 -1.61400 34.28900
O  29.77700 0.03200 35.27300
C  29.87600 -0.83300 36.46300
H  22.20100 0.96400 31.99200
H  23.31600 1.61200 25.81600
H  29.67300 0.15100 26.70800
H  26.09700 -0.15300 34.45800
H  23.66000 1.45200 33.85300
H  24.33600 -1.39100 34.49200
H  22.80800 -1.22600 33.51400
H  22.98900 -0.45500 34.98600
H  25.61800 2.84600 34.70700
H  27.27400 2.38800 34.22000
H  27.59600 1.85100 36.28100
H  26.17200 0.80200 36.49500
H  19.55400 2.33800 30.01200
H  20.30200 1.42300 31.23300
H  19.65300 0.65300 29.69500
H  18.76000 1.04800 27.81000
H  18.53000 1.96600 26.36600
H  19.03400 2.75100 27.71900
H  25.84600 2.38700 24.81700
H  27.28300 -0.17200 24.45700
H  24.36900 -0.08500 24.05200
H  25.62700 0.32500 22.90800
H  24.36100 1.49900 23.23600
H  28.00400 1.64100 23.41000
H  29.31900 1.08300 24.37400
H  29.49700 3.24200 24.98000
H  27.96600 3.07000 25.95600
H  27.79700 3.67800 24.33600
H  31.56400 -0.19400 27.78400
H  31.46700 -1.63300 28.74600
H  32.15200 -0.06400 29.39700
H  29.09100 1.38700 33.50200
H  30.63000 -0.36200 37.09400
H  30.12400 -1.87700 36.27400
H  28.97600 -0.94500 37.06800
Mg 53.47200 24.35800 45.75600
C  51.05000 26.23800 44.32700
C  52.21600 21.64100 44.00300
C  56.36700 22.64000 46.39700
C  55.01000 27.37800 46.84400
N  52.02400 24.12300 44.19200
C  51.14400 24.99300 43.77000
C  50.37600 24.53600 42.57700
C  50.28900 22.99700 42.93800
C  51.60400 22.85900 43.75500
C  48.90300 22.60200 43.64000
C  51.01100 24.83900 41.30800
C  50.16800 25.09600 40.09900
H  50.91100 25.46700 38.82400
N  54.15100 22.38400 45.35000
C  53.46400 21.39500 44.68000
C  54.14900 20.14600 44.79000
C  55.36500 20.46700 45.45200
C  55.35000 21.87700 45.75800
C  53.56200 18.81300 44.24500
C  56.32800 19.46000 45.86800
O  55.95900 18.28000 45.83700
C  57.66100 19.74400 46.54800
N  55.36100 24.89300 46.59300
C  56.37600 23.96000 46.78000
C  57.57300 24.61100 47.47300
C  57.27600 26.13500 47.27000
C  55.75300 26.16400 46.87000
C  57.68700 24.13900 48.99000
C  58.16100 26.86500 46.18600
C  58.77000 28.14000 46.63600
N  53.04800 26.36100 45.79700
C  53.69100 27.48100 46.33000
C  52.79000 28.66300 46.35800
C  51.71400 28.13800 45.57500
C  51.99700 26.85400 45.19800
C  52.94300 29.96800 47.04600
C  50.49600 28.48600 44.98900
O  49.77000 29.50400 45.09500
C  49.98000 27.25900 44.11400
C  49.76800 27.71800 42.77200
O  50.61200 28.27100 42.08800
O  48.45700 27.70600 42.43000
C  48.05200 28.53500 41.25300
H  51.72400 20.77000 43.56800
H  57.30800 22.11900 46.59000
H  55.40000 28.28500 47.31000
H  49.42200 25.06300 42.55200
H  50.29700 22.41300 42.01800
H  48.28400 23.48800 43.78100
H  49.10700 22.19900 44.63200
H  48.36600 21.83500 43.08200
H  51.69200 24.04000 41.01500
H  51.65300 25.71900 41.31200
H  49.75500 26.00500 40.53700
H  49.29800 24.50500 39.81600
H  53.96000 17.89700 44.68000
H  53.75900 18.79300 43.17300
H  52.47800 18.76500 44.35000
H  57.43200 20.17900 47.52100
H  58.29400 20.35500 45.90500
H  58.15800 18.78200 46.67800
H  58.45600 24.36000 46.88500
H  57.33500 26.69700 48.20200
H  58.70200 23.83800 49.25100
H  56.95500 23.36800 49.23000
H  57.56600 24.94500 49.71400
H  57.65700 27.08900 45.24600
H  58.88000 26.14300 45.79900
H  59.67300 28.10000 46.02800
H  58.85600 28.18700 47.72100
H  58.12800 29.00000 46.44100
H  53.61600 29.82000 47.89100
H  51.99900 30.36500 47.42000
H  53.38500 30.78200 46.47200
H  49.07700 26.99500 44.66400
H  48.53700 28.14800 40.35700
H  48.32900 29.58300 41.37300
H  46.98500 28.56100 41.03200

