158

Mg 16.52100 -1.52800 28.19100
C  15.19900 0.56200 30.78300
C  18.29400 -3.21600 30.48200
C  17.96100 -3.43200 25.72000
C  14.89700 0.46900 25.86000
N  16.81300 -1.26900 30.25300
C  16.17700 -0.38800 31.18900
C  16.44600 -0.81500 32.64600
C  17.56900 -1.86800 32.52400
C  17.59000 -2.10100 30.98700
C  19.08300 -1.63600 32.95800
C  15.08200 -1.22900 33.28000
C  14.72500 -0.77800 34.69200
H  15.70600 0.04000 35.49700
N  17.77800 -3.17900 28.16400
C  18.42200 -3.72300 29.14600
C  19.23200 -4.89200 28.77600
C  19.03800 -5.06700 27.36300
C  18.22700 -3.80000 27.02000
C  20.01800 -5.72900 29.79300
C  19.67100 -6.01200 26.37600
O  19.57000 -5.87600 25.14900
C  20.50300 -7.20900 26.93100
N  16.40100 -1.44100 26.12100
C  17.05800 -2.37100 25.31600
C  16.71900 -2.10200 23.80900
C  15.65400 -0.93400 23.92800
C  15.63600 -0.61100 25.39300
C  17.96000 -1.83100 23.04100
C  14.28700 -1.51400 23.34500
C  14.20300 -1.52700 21.80500
N  15.37500 0.27100 28.25300
C  14.78900 0.90800 27.23800
C  13.96600 1.98700 27.75200
C  14.02200 1.86400 29.15100
C  14.97900 0.84400 29.44000
C  13.10000 2.76000 26.87700
C  13.65900 2.42500 30.38500
O  13.03600 3.41400 30.65500
C  14.36000 1.56700 31.49300
C  15.22700 2.54700 32.27700
O  16.41200 2.81200 32.00000
O  14.46400 3.03200 33.28700
C  14.96400 4.14300 34.12100
H  18.91200 -3.67100 31.25900
H  18.36000 -3.97500 24.86100
H  14.23900 1.01200 25.17900
H  16.86600 0.05100 33.15800
H  17.31300 -2.75900 33.09800
H  19.08000 -0.85500 33.71900
H  19.67700 -1.43200 32.06700
H  19.45200 -2.55600 33.41100
H  15.07800 -2.31700 33.35400
H  14.20600 -1.01000 32.67100
H  14.34400 -1.62000 35.27100
H  13.83800 -0.17000 34.51100
H  20.01000 -6.81100 29.66200
H  19.76900 -5.61500 30.84800
H  21.01800 -5.30900 29.69100
H  21.03900 -7.74700 26.14900
H  19.76500 -7.85500 27.40700
H  21.19300 -6.86000 27.69800
H  16.29300 -3.05500 23.49600
H  15.97300 -0.08800 23.31900
H  17.88200 -0.97100 22.37500
H  18.24800 -2.66900 22.40700
H  18.78500 -1.61900 23.72100
H  13.35800 -1.04500 23.66600
H  14.09400 -2.54400 23.64700
H  13.22000 -1.13700 21.54000
H  14.27100 -2.57400 21.51100
H  15.04900 -0.98900 21.37900
H  12.52500 2.10900 26.21900
H  13.76600 3.30200 26.20600
H  12.41300 3.43900 27.38200
H  13.65700 1.09900 32.18100
H  15.00100 3.85000 35.17000
H  14.30500 5.00500 34.01900
H  15.89500 4.60300 33.78800
Mg 17.06700 51.24900 25.92500
C  18.94700 50.16400 28.52800
C  14.39600 51.81300 28.00500
C  15.15300 52.26800 23.32800
C  19.54200 50.23600 23.60000
N  16.72700 51.06200 28.05900
C  17.70000 50.64000 28.97000
C  17.15400 50.88000 30.37600
C  15.55500 50.93200 30.17000
C  15.54200 51.31600 28.70000
C  14.86700 49.53700 30.38900
C  17.76500 52.11700 31.25100
C  18.14800 51.85400 32.73500
H  17.23700 52.48900 33.82500
N  15.13400 52.20100 25.75000
C  14.15000 52.30600 26.73300
C  12.98800 52.88100 26.21200
C  13.15200 52.99600 24.80900
C  14.59400 52.54500 24.57100
C  11.78600 53.21800 27.10600
C  12.34400 53.63300 23.76700
O  12.86100 53.91500 22.66900
C  10.89600 54.04200 23.96400
N  17.29300 51.14000 23.76100
C  16.38700 51.67400 22.90200
C  16.78700 51.57500 21.47600
C  18.27800 51.14900 21.57100
C  18.41900 50.83200 23.05000
C  15.90100 50.68800 20.62500
C  19.45700 52.04300 21.10800
C  20.27700 51.50200 19.96300
N  18.91000 50.34500 25.98900
C  19.80300 49.96200 24.99700
C  20.89500 49.35100 25.62100
C  20.68600 49.56700 26.97100
C  19.39900 50.05800 27.18800
C  22.08200 48.99500 24.86100
C  21.24300 49.31700 28.30100
O  22.25300 48.69900 28.69900
C  20.18000 49.78100 29.32300
C  19.83600 48.62400 30.21300
O  19.19400 47.68800 29.85000
O  20.24300 48.73600 31.50900
C  19.80400 47.67300 32.46200
H  13.58600 51.72100 28.73200
H  14.58600 52.48800 22.42100
H  20.28300 50.00200 22.83300
H  17.31500 49.98500 30.97800
H  15.17600 51.66300 30.88400
H  14.55300 49.47700 31.43100
H  15.49200 48.72300 30.02300
H  13.96000 49.46600 29.78700
H  16.97200 52.86000 31.33200
H  18.66200 52.55000 30.80800
H  19.14800 52.21900 32.96800
H  18.09200 50.78000 32.91300
H  11.20500 54.07300 26.75800
H  12.18600 53.38800 28.10500
H  11.18100 52.32000 27.23000
H  10.43700 53.27300 24.58500
H  10.50900 54.04600 22.94500
H  10.79300 55.04900 24.36800
H  16.74900 52.55400 20.99900
H  18.52000 50.21800 21.05900
H  15.51400 51.36600 19.86300
H  14.97600 50.49200 21.16600
H  16.34200 49.80100 20.17000
H  20.15100 52.20000 21.93400
H  19.00000 52.97100 20.76400
H  19.73300 50.72800 19.42200
H  21.26400 51.10900 20.20800
H  20.39100 52.36000 19.30100
H  22.90500 48.74700 25.53100
H  22.30500 49.76200 24.11900
H  21.91900 48.11000 24.24600
H  20.52100 50.65800 29.87300
H  20.35400 46.79100 32.13300
H  18.75200 47.44100 32.29700
H  20.03300 47.93500 33.49500

