158

Mg 1.98200 -2.13900 45.10400
C  5.41500 -1.58900 44.56100
C  1.31200 0.57000 43.10100
C  -1.27600 -3.02000 45.08100
C  2.78400 -4.94100 46.93700
N  3.23700 -0.87300 43.79500
C  4.65200 -0.72900 43.78500
C  5.13000 0.56300 43.05300
C  3.74600 1.23600 42.75600
C  2.62200 0.27700 43.26600
C  3.46300 2.65100 43.35400
C  5.92400 0.19500 41.73900
C  6.41200 1.37200 40.91500
H  6.26400 1.32800 39.46500
N  0.21500 -1.35200 44.21000
C  0.18900 -0.24000 43.43300
C  -1.17700 -0.00100 42.96900
C  -1.96700 -1.03900 43.53900
C  -1.02300 -1.87200 44.30500
C  -1.58900 1.13400 42.14000
C  -3.47500 -1.22000 43.25600
O  -4.16400 -0.37500 42.66600
C  -4.29000 -2.42400 43.81400
N  0.89500 -3.92500 45.68700
C  -0.46100 -3.97900 45.79300
C  -0.91700 -5.26400 46.46100
C  0.39600 -5.74600 47.12500
C  1.45500 -4.78500 46.58700
C  -2.21000 -5.20400 47.37300
C  0.73900 -7.23500 46.81600
C  0.52700 -8.29900 47.93100
N  3.77000 -3.09400 45.75000
C  3.91300 -4.21600 46.49600
C  5.32200 -4.45400 46.74900
C  5.94800 -3.38400 46.04000
C  4.96200 -2.62200 45.41600
C  6.01800 -5.52700 47.52800
C  7.26500 -2.69600 45.73700
O  8.39700 -2.89800 46.22900
C  6.88100 -1.52600 44.69100
C  7.35400 -0.21600 45.19400
O  7.03300 0.26300 46.29000
O  8.20300 0.39200 44.28000
C  8.41000 1.88700 44.35100
H  1.07000 1.51400 42.60900
H  -2.32800 -3.31400 45.07500
H  3.16400 -5.83000 47.44400
H  5.64600 1.27700 43.69600
H  3.63600 1.29300 41.67300
H  2.83400 3.25300 42.69800
H  4.37800 3.21200 43.54700
H  2.95900 2.42000 44.29200
H  5.14500 -0.32100 41.17800
H  6.74200 -0.42000 42.11300
H  7.48000 1.49300 41.09800
H  6.04000 2.31700 41.31200
H  -2.14000 0.79000 41.26400
H  -0.76200 1.73700 41.76600
H  -2.22600 1.77800 42.74600
H  -5.29500 -2.47400 43.39700
H  -4.40400 -2.32900 44.89400
H  -3.76600 -3.33200 43.51400
H  -1.17700 -5.88200 45.60200
H  0.28400 -5.57800 48.19600
H  -1.88100 -5.56300 48.34800
H  -2.91000 -5.91100 46.93000
H  -2.61800 -4.19900 47.49000
H  1.79100 -7.47100 46.65800
H  0.44900 -7.65500 45.85300
H  -0.38000 -8.76300 47.54500
H  0.58400 -7.78700 48.89100
H  1.33800 -9.02400 47.86000
H  6.85900 -5.93700 46.96900
H  5.40500 -6.42100 47.63800
H  6.36200 -5.09700 48.46900
H  7.35300 -1.73900 43.73200
H  9.03100 2.19300 45.19300
H  7.46100 2.38800 44.54100
H  8.98600 2.17400 43.47100
Mg 4.65300 54.20000 41.41700
C  3.57600 50.88600 41.13500
C  7.33500 53.23100 39.29700
C  5.57500 57.43200 41.12400
C  1.66400 55.00900 42.88400
N  5.30700 52.26600 40.23800
C  4.72000 51.10000 40.37300
C  5.47000 50.07800 39.55000
C  6.78100 50.74000 39.25800
C  6.48000 52.23600 39.58900
C  7.98600 50.06700 40.00800
C  4.64800 49.86800 38.13800
C  4.71700 48.42900 37.62800
H  5.38400 48.23200 36.31000
N  6.20900 55.18700 40.41700
C  7.25000 54.59000 39.65800
C  8.17400 55.56100 39.30800
C  7.78000 56.83800 39.80700
C  6.48800 56.58600 40.46500
C  9.38400 55.19900 38.50300
C  8.50100 58.20000 39.70500
O  9.57400 58.19300 39.14500
C  7.96700 59.39200 40.34300
N  3.75200 55.99500 41.85300
C  4.32100 57.17700 41.69900
C  3.45900 58.29700 42.41700
C  2.20500 57.50600 42.96800
C  2.55700 56.07900 42.49700
C  4.12900 59.23500 43.43200
C  0.75700 57.95700 42.55900
C  0.37700 57.35500 41.21600
N  2.97900 53.18800 42.01400
C  1.82000 53.60400 42.64500
C  1.00700 52.52900 43.01200
C  1.66600 51.37300 42.51100
C  2.80700 51.87500 41.84400
C  -0.28800 52.63600 43.70000
C  1.64900 49.90700 42.34700
O  0.81500 49.08200 42.69900
C  2.90200 49.51400 41.47900
C  2.53900 48.66100 40.40300
O  1.75500 48.94400 39.52700
O  3.05700 47.43300 40.61200
C  2.48600 46.29500 39.94000
H  8.24400 52.98300 38.74500
H  5.80800 58.49200 41.23900
H  0.75400 55.21500 43.45100
H  5.64300 49.12200 40.04400
H  7.15900 50.63200 38.24100
H  8.56700 50.82000 40.53900
H  8.70800 49.59100 39.34400
H  7.61500 49.41300 40.79700
H  5.02000 50.59200 37.41300
H  3.63200 50.24500 38.26000
H  3.66200 48.15800 37.59500
H  5.28000 47.79000 38.30800
H  9.94400 54.38600 38.96300
H  10.05900 55.98900 38.17300
H  9.03700 54.80300 37.54800
H  7.03100 59.72400 39.89300
H  8.65800 60.22000 40.18500
H  7.97200 59.21700 41.41900
H  3.04200 58.91700 41.62300
H  2.32900 57.48800 44.05100
H  5.10600 58.83400 43.70300
H  3.46200 59.43400 44.27100
H  4.41000 60.12700 42.87200
H  0.72700 59.03100 42.37500
H  0.07100 57.71600 43.37000
H  -0.28600 58.06400 40.72100
H  -0.34000 56.53600 41.27300
H  1.05100 57.10700 40.39600
H  -0.10200 52.24200 44.69900
H  -1.04900 52.15000 43.08900
H  -0.53500 53.67300 43.92500
H  3.56300 48.93600 42.12400
H  2.79400 46.24700 38.89500
H  1.41600 46.39700 40.11800
H  2.74200 45.31800 40.34900

