158

Mg 47.25700 25.22300 29.41500
C  47.74500 27.73400 31.92000
C  46.51200 23.04000 31.83300
C  47.24900 22.84900 27.00400
C  48.80300 27.49000 27.23700
N  47.19800 25.45100 31.56700
C  47.26200 26.54400 32.41200
C  46.97000 26.20400 33.90700
C  46.89100 24.65900 33.79100
C  46.80600 24.33700 32.28200
C  47.98900 23.79800 34.46000
C  45.72300 26.91500 34.51500
C  46.08600 27.84800 35.61700
H  45.17300 28.05200 36.78000
N  46.85800 23.29100 29.41700
C  46.55000 22.53800 30.52400
C  46.06000 21.28700 30.09600
C  46.19100 21.20700 28.65500
C  46.78500 22.54400 28.28800
C  45.64000 20.21900 31.02000
C  45.98300 20.01900 27.69000
O  46.23500 20.07700 26.52900
C  45.50700 18.68300 28.20000
N  47.95100 25.18500 27.48500
C  47.82600 24.11900 26.68200
C  48.30500 24.35200 25.27000
C  48.73600 25.85900 25.28800
C  48.43700 26.22000 26.75800
C  49.62100 23.49900 25.06100
C  47.84700 26.61100 24.28100
C  48.07200 26.26000 22.79900
N  48.04700 27.23300 29.47900
C  48.67700 28.01300 28.52500
C  48.98700 29.32800 29.07000
C  48.58300 29.23500 30.41000
C  48.07900 27.95000 30.62100
C  49.77100 30.40100 28.28200
C  48.59700 29.97300 31.67400
O  48.92800 31.12800 31.94500
C  48.06200 28.96400 32.73400
C  49.21100 28.70700 33.66000
O  50.28100 28.20300 33.28500
O  48.90700 29.08300 34.93200
C  49.92000 28.75900 35.96800
H  46.02500 22.38200 32.55600
H  47.10300 22.10700 26.21700
H  49.20400 28.14000 26.45600
H  47.91300 26.33700 34.43700
H  45.99700 24.17500 34.18300
H  48.52100 23.16200 33.75300
H  47.48900 23.23100 35.24600
H  48.81200 24.35900 34.90200
H  44.94200 26.22500 34.83400
H  45.28700 27.57300 33.76300
H  46.33100 28.81800 35.18400
H  47.02700 27.56400 36.08800
H  44.55000 20.22600 31.01100
H  45.97800 20.33400 32.05000
H  46.01200 19.26400 30.65000
H  46.29700 18.18900 28.76500
H  45.13500 18.14100 27.33000
H  44.62900 18.78500 28.83800
H  47.52800 24.16300 24.52900
H  49.73400 26.19500 25.00600
H  50.02400 23.04500 25.96600
H  50.39500 24.02200 24.50100
H  49.34400 22.68100 24.39600
H  47.82700 27.68900 24.43800
H  46.81800 26.26100 24.36500
H  48.80700 25.45900 22.72000
H  48.44000 27.20200 22.39000
H  47.19900 25.98400 22.20700
H  49.41400 30.38200 27.25200
H  50.78700 30.02100 28.17300
H  49.71000 31.36100 28.79500
H  47.23800 29.46700 33.24100
H  50.49800 29.66400 36.15500
H  50.60600 27.95200 35.70800
H  49.46200 28.42900 36.90000
Mg -1.74600 34.16500 27.36400
C  -3.50600 32.29300 29.65200
C  -0.34500 35.96100 29.89300
C  -0.54300 36.38100 25.00700
C  -3.77000 32.73400 24.88100
N  -1.85900 34.11000 29.43600
C  -2.60500 33.21400 30.27500
C  -2.36900 33.44800 31.84400
C  -1.43700 34.72300 31.79100
C  -1.23900 34.95900 30.27800
C  -2.05200 35.95200 32.57200
C  -1.84500 32.11700 32.48700
C  -2.72700 31.44800 33.57300
H  -1.96800 31.25600 34.86700
N  -0.42300 35.82900 27.42000
C  0.07400 36.39300 28.59100
C  0.97000 37.50300 28.16800
C  0.99300 37.53500 26.76100
C  -0.03300 36.60600 26.34500
C  1.86000 38.16300 29.14200
C  1.89200 38.37500 25.83800
O  1.70500 38.42200 24.60500
C  2.93300 39.21200 26.38900
N  -2.32900 34.59000 25.29500
C  -1.58100 35.44700 24.50800
C  -1.93100 35.44500 23.07400
C  -2.83200 34.17800 23.05700
C  -3.03600 33.84000 24.52200
C  -2.50800 36.76800 22.58200
C  -2.30900 32.95700 22.13500
C  -1.42000 31.96700 22.85400
N  -3.35900 32.80700 27.17400
C  -3.94100 32.23700 26.17500
C  -4.90900 31.25500 26.57500
C  -4.73900 31.20200 27.97000
C  -3.82600 32.16300 28.28900
C  -5.78500 30.47100 25.68300
C  -5.19800 30.51600 29.13100
O  -5.96100 29.53300 29.35000
C  -4.34100 31.18900 30.32200
C  -5.37200 31.81200 31.25300
O  -6.07700 32.79200 30.98500
O  -5.68600 30.93100 32.26100
C  -6.78400 31.36000 33.17400
H  -0.26500 36.58900 30.78200
H  -0.16300 37.00700 24.19700
H  -4.38700 32.31400 24.08400
H  -3.40800 33.53100 32.16100
H  -0.45900 34.52400 32.23000
H  -1.97700 35.66200 33.62000
H  -3.07600 36.16100 32.26300
H  -1.30200 36.74200 32.53100
H  -0.89800 32.33800 32.98000
H  -1.65100 31.39300 31.69600
H  -2.88900 30.43500 33.20500
H  -3.63300 32.01200 33.79400
H  1.80200 39.22100 28.88600
H  2.88200 37.80900 29.00900
H  1.42200 37.98400 30.12400
H  2.69900 39.82800 27.25800
H  3.34700 39.85800 25.61500
H  3.73700 38.54400 26.69700
H  -0.95800 35.28200 22.61200
H  -3.83700 34.45400 22.74000
H  -2.05000 37.03300 21.62900
H  -2.30200 37.58900 23.26900
H  -3.59400 36.69700 22.53200
H  -1.82500 33.37600 21.25300
H  -3.23600 32.43800 21.89100
H  -1.05400 32.34800 23.80700
H  -0.60500 31.80900 22.14900
H  -1.92500 31.02500 23.07100
H  -5.36300 29.59200 25.19600
H  -6.27000 31.13400 24.96600
H  -6.62800 30.05600 26.23500
H  -3.63300 30.46200 30.71800
H  -6.29500 32.00800 33.90000
H  -7.09800 30.39700 33.57800
H  -7.64900 31.84400 32.72000

