158

Mg 44.39900 4.15300 47.11300
C  42.63300 7.16500 47.50400
C  41.44400 2.67500 46.32400
C  46.10100 1.33900 46.37400
C  47.31200 6.07300 46.90100
N  42.28100 4.93000 46.78000
C  41.76800 6.14300 47.05700
C  40.24400 6.19200 46.70200
C  39.93300 4.70900 46.28200
C  41.26900 4.08100 46.58500
C  38.60700 4.11100 47.00000
C  39.91200 7.12000 45.53200
C  40.74800 7.14800 44.16700
H  39.97400 6.96500 42.85200
N  43.81500 2.19400 46.56800
C  42.54400 1.80000 46.32100
C  42.54700 0.41300 45.97400
C  43.84800 -0.11600 45.90000
C  44.68000 1.13900 46.27300
C  41.26000 -0.37000 45.60300
C  44.36300 -1.49000 45.64800
O  43.55800 -2.42500 45.50800
C  45.80800 -1.83100 45.69300
N  46.34700 3.80200 46.48700
C  46.84000 2.50300 46.48300
C  48.40300 2.55000 46.41200
C  48.75500 4.01000 46.68500
C  47.42900 4.69400 46.66000
C  49.08200 1.49500 47.35500
C  49.72100 4.64800 45.58400
C  51.13100 4.70900 46.15900
N  44.92300 6.20600 47.18400
C  46.12000 6.80700 47.14000
C  45.98300 8.24700 47.42500
C  44.59600 8.44300 47.57900
C  44.01800 7.16300 47.37100
C  47.09600 9.26900 47.62400
C  43.54300 9.44100 47.79200
O  43.60300 10.66300 47.89800
C  42.25000 8.58200 47.67300
C  41.54100 8.78400 48.91200
O  41.52900 8.07800 49.95000
O  40.91600 10.03200 48.81700
C  40.15700 10.48000 49.92900
H  40.52400 2.12100 46.12600
H  46.74000 0.45600 46.31500
H  48.16800 6.74200 47.00400
H  39.69900 6.59800 47.55400
H  39.74800 4.48700 45.23100
H  38.07900 4.80300 47.65600
H  38.86900 3.24500 47.60900
H  37.82100 3.94200 46.26300
H  39.95300 8.13500 45.92600
H  38.88500 7.00500 45.18400
H  41.45300 6.31700 44.14600
H  41.41800 8.00700 44.17300
H  40.27100 0.03500 45.81700
H  41.21300 -1.38500 45.99700
H  41.31800 -0.38600 44.51500
H  46.05000 -2.89200 45.63800
H  46.03600 -1.42500 46.67900
H  46.39200 -1.31700 44.93000
H  48.67400 2.29300 45.38900
H  48.98100 4.13800 47.74400
H  48.35900 1.12100 48.08000
H  49.93000 1.79400 47.97100
H  49.38200 0.57900 46.84600
H  49.32500 5.59400 45.21400
H  49.67700 4.07900 44.65500
H  51.73800 3.91500 45.72500
H  51.09600 4.47500 47.22300
H  51.59800 5.64600 45.85500
H  47.89500 9.13600 46.89500
H  47.64600 9.10500 48.55100
H  46.68900 10.27900 47.57300
H  41.75700 9.02200 46.80600
H  39.67400 9.63300 50.41600
H  39.45600 11.26900 49.65200
H  40.88800 10.87600 50.63300
Mg -11.22500 39.17300 41.69800
C  -9.41100 36.50700 40.83600
C  -8.96500 41.30600 40.01600
C  -13.40100 41.93900 41.88000
C  -13.72500 37.20000 42.98700
N  -9.42900 38.90500 40.48300
C  -8.82900 37.71600 40.28200
C  -7.53700 37.79000 39.46200
C  -7.41600 39.36900 39.26800
C  -8.64200 39.94100 40.05900
C  -6.06900 40.05500 39.48400
C  -7.47700 36.90400 38.15100
C  -6.21500 35.91800 38.02800
H  -5.04500 36.41800 37.23800
N  -11.12600 41.29500 41.22600
C  -10.04300 41.89700 40.62200
C  -10.28600 43.34100 40.61700
C  -11.54600 43.53500 41.27000
C  -12.10700 42.22500 41.47600
C  -9.37100 44.34900 40.05000
C  -12.20900 44.86300 41.50100
O  -11.66300 45.88300 40.96300
C  -13.43400 45.11400 42.46100
N  -13.43300 39.50600 42.14300
C  -13.97300 40.69900 42.23300
C  -15.49400 40.52000 42.67500
C  -15.50900 39.01300 43.10200
C  -14.15000 38.52300 42.70000
C  -15.97200 41.58300 43.68200
C  -16.69900 38.13000 42.53000
C  -17.99000 37.97800 43.32300
N  -11.51900 37.25600 41.80300
C  -12.49600 36.58400 42.54100
C  -12.18900 35.19000 42.66600
C  -10.95200 35.09500 41.98200
C  -10.61000 36.40000 41.50700
C  -12.98400 34.13800 43.32500
C  -9.91800 34.21600 41.71500
O  -9.77900 33.03000 42.04100
C  -8.82200 35.06700 40.86300
C  -7.50200 34.86200 41.61400
O  -6.75400 33.88000 41.48300
O  -7.18500 36.01100 42.23800
C  -5.87000 36.13500 42.89300
H  -8.15500 41.90700 39.59700
H  -14.08200 42.78200 41.74900
H  -14.34500 36.60000 43.65600
H  -6.77000 37.49400 40.17700
H  -7.71800 39.44200 38.22400
H  -5.49800 39.43200 38.79600
H  -5.65500 39.98600 40.49000
H  -6.22900 41.08900 39.17700
H  -7.32200 37.61900 37.34300
H  -8.31800 36.23000 37.99200
H  -6.52600 35.02600 37.48300
H  -5.96900 35.71400 39.07000
H  -8.39000 43.87600 40.00000
H  -9.33300 45.19400 40.73700
H  -9.63600 44.71200 39.05700
H  -13.48900 46.18100 42.67700
H  -13.15900 44.52600 43.33600
H  -14.34600 44.77600 41.96900
H  -16.04800 40.68000 41.75100
H  -15.49500 38.94700 44.19000
H  -15.09300 42.12500 44.03100
H  -16.53200 41.12700 44.49900
H  -16.66900 42.27300 43.20600
H  -16.44100 37.10600 42.25800
H  -16.95800 38.51200 41.54200
H  -18.82700 38.46700 42.82500
H  -17.72200 38.43600 44.27600
H  -18.22400 36.93700 43.54600
H  -12.44500 33.25000 42.99500
H  -14.01500 34.12800 42.96900
H  -12.97100 34.14400 44.41500
H  -8.67700 34.69300 39.85000
H  -5.67600 37.19200 43.07400
H  -5.13900 35.87200 42.12800
H  -5.88100 35.44800 43.73900

