158

Mg -1.92700 16.58300 26.36600
C  -2.18300 14.52500 29.19900
C  -2.31900 19.35000 28.30400
C  -1.81800 18.28400 23.50400
C  -1.82600 13.59700 24.45200
N  -2.17400 16.88400 28.55700
C  -2.27800 15.89400 29.51700
C  -2.69700 16.55600 30.84900
C  -2.46700 18.09400 30.63400
C  -2.30500 18.12000 29.07700
C  -3.67600 19.06300 31.11100
C  -2.17800 15.89400 32.08500
C  -1.93200 16.82700 33.25700
H  -1.45900 16.08700 34.42800
N  -1.91600 18.53000 26.00900
C  -2.16800 19.52500 26.90400
C  -2.20400 20.85700 26.22900
C  -2.02500 20.55300 24.79200
C  -1.93400 19.06200 24.70000
C  -2.48200 22.18700 26.96600
C  -2.03300 21.50500 23.60800
O  -1.84500 21.10100 22.47400
C  -2.32200 22.94900 23.75300
N  -1.99300 16.01400 24.24300
C  -1.89700 16.94600 23.22600
C  -2.02600 16.31200 21.84500
C  -1.84000 14.80600 22.10700
C  -1.88200 14.78900 23.69100
C  -3.24500 16.68200 20.92000
C  -0.50600 14.26400 21.52700
C  0.74100 14.82600 22.24000
N  -2.13000 14.51100 26.67000
C  -1.97700 13.41000 25.77200
C  -2.03600 12.16600 26.51500
C  -2.10800 12.54100 27.83100
C  -2.10200 13.97000 27.91100
C  -1.98300 10.81000 25.97100
C  -2.25500 11.99900 29.15600
O  -2.36300 10.82800 29.54600
C  -2.34000 13.27400 30.06700
C  -1.22600 13.11100 31.11900
O  -0.10800 13.58300 30.87100
O  -1.58100 12.51700 32.26900
C  -0.56900 12.44000 33.36200
H  -2.33800 20.28600 28.86500
H  -1.86900 18.76200 22.52400
H  -1.62300 12.74200 23.80400
H  -3.75900 16.31200 30.83600
H  -1.58200 18.51100 31.11400
H  -4.30800 19.42200 30.30000
H  -3.37600 19.90700 31.73200
H  -4.28600 18.37400 31.69500
H  -1.16500 15.70200 31.73000
H  -2.67000 14.99500 32.45500
H  -2.87600 17.33300 33.46100
H  -1.15000 17.55500 33.04100
H  -3.35000 22.76100 26.64100
H  -1.70200 22.94300 26.86800
H  -2.63700 22.03200 28.03400
H  -2.36300 23.54100 22.83900
H  -1.65700 23.31800 24.53400
H  -3.35000 22.99200 24.11400
H  -1.20300 16.71200 21.25300
H  -2.68900 14.24000 21.72100
H  -4.12400 16.87200 21.53600
H  -3.39600 15.94700 20.12900
H  -3.19000 17.61600 20.36200
H  -0.42600 14.57900 20.48700
H  -0.50400 13.17400 21.52700
H  1.30700 15.37700 21.48900
H  1.29000 14.00000 22.69200
H  0.57200 15.57500 23.01400
H  -1.24500 10.27500 26.56900
H  -1.74200 10.76800 24.90900
H  -2.96200 10.36300 26.14500
H  -3.31100 13.29100 30.56300
H  -1.02900 12.70900 34.31300
H  0.30400 13.02000 33.06500
H  -0.27100 11.39400 33.43000
Mg -10.74900 40.59500 41.25300
C  -9.62500 37.42400 40.06800
C  -7.99900 41.96800 39.48800
C  -12.31100 43.54400 41.01900
C  -13.69700 39.00800 42.19500
N  -9.01400 39.77000 39.90800
C  -8.75800 38.44800 39.64100
C  -7.41700 38.35200 38.97400
C  -6.81600 39.76600 38.94500
C  -8.00700 40.60000 39.43700
C  -5.45000 40.03400 39.72800
C  -7.51100 37.61100 37.65200
C  -6.54900 36.38600 37.40400
H  -5.59600 36.51200 36.14100
N  -10.21000 42.51200 40.50700
C  -9.01600 42.82400 39.93500
C  -8.97000 44.27500 39.77000
C  -10.23600 44.80400 40.12500
C  -10.96900 43.59600 40.57300
C  -7.72500 44.98300 39.22900
C  -10.58400 46.26500 40.11000
O  -9.83900 47.15300 39.67900
C  -11.97700 46.80200 40.49800
N  -12.74100 41.16200 41.38700
C  -13.14900 42.46500 41.36800
C  -14.63700 42.61900 41.82200
C  -15.08800 41.14700 42.06400
C  -13.76700 40.36400 41.87800
C  -14.84300 43.48200 43.04700
C  -16.21800 40.57600 41.13700
C  -15.88900 39.63400 40.00500
N  -11.51000 38.65700 41.25100
C  -12.66500 38.14200 41.77500
C  -12.64300 36.68900 41.84700
C  -11.48100 36.37000 41.17200
C  -10.80600 37.61800 40.79700
C  -13.70200 35.68100 42.29500
C  -10.72100 35.31900 40.67500
O  -10.86900 34.06100 40.85700
C  -9.56600 35.89900 39.83200
C  -8.37200 35.18800 40.35100
O  -7.95200 35.29100 41.48700
O  -7.97200 34.28600 39.41700
C  -7.00500 33.29300 39.85400
H  -7.01800 42.30000 39.14100
H  -12.83000 44.49000 40.85200
H  -14.60100 38.59600 42.64900
H  -6.84000 37.69200 39.62100
H  -6.61200 40.07700 37.92000
H  -5.13300 39.20100 40.35600
H  -5.54200 40.92600 40.34700
H  -4.54700 40.20600 39.14300
H  -7.40100 38.40900 36.91800
H  -8.54400 37.28900 37.51700
H  -7.06300 35.46600 37.12600
H  -5.98400 36.15700 38.30800
H  -7.79500 45.16600 38.15700
H  -6.89900 44.29400 39.40600
H  -7.48500 45.92400 39.72400
H  -12.12800 46.63300 41.56400
H  -12.56700 46.14800 39.85600
H  -12.14400 47.84300 40.22200
H  -15.15600 43.00600 40.94500
H  -15.30800 40.95100 43.11300
H  -15.51100 44.28600 42.73900
H  -13.87500 43.84500 43.39400
H  -15.47400 42.91000 43.72700
H  -16.71400 41.48400 40.79700
H  -16.95500 40.06500 41.75700
H  -16.39800 38.69400 40.21300
H  -14.84700 39.34300 39.87300
H  -16.24000 40.06900 39.06900
H  -13.93800 36.02800 43.30100
H  -13.35600 34.65000 42.22000
H  -14.54300 35.89600 41.63500
H  -9.74500 35.84400 38.75800
H  -6.06500 33.84000 39.92600
H  -6.80800 32.46400 39.17400
H  -7.36300 32.83100 40.77500

