158

Mg 24.27000 -4.91200 46.24900
C  26.39700 -2.77900 44.55800
C  21.76100 -4.15800 43.84200
C  22.55800 -7.63900 47.16500
C  26.96100 -6.06100 48.23300
N  24.10900 -3.61500 44.38500
C  25.04600 -2.74400 44.02900
C  24.54900 -1.93800 42.84700
C  23.05400 -2.16400 42.87400
C  22.92100 -3.34700 43.80100
C  22.24400 -0.90300 43.24400
C  25.23600 -2.36400 41.56000
C  25.78000 -1.19500 40.72900
H  25.07600 -0.84900 39.43100
N  22.30200 -5.65800 45.72900
C  21.47300 -5.25300 44.68500
C  20.29500 -6.14300 44.66900
C  20.48500 -7.13000 45.64000
C  21.88100 -6.87000 46.22100
C  19.15600 -5.95800 43.63300
C  19.52600 -8.24800 45.86900
O  18.47600 -8.20300 45.20500
C  19.69100 -9.33500 46.88700
N  24.72300 -6.56400 47.61300
C  23.80500 -7.51500 47.77800
C  24.33100 -8.57400 48.87300
C  25.71500 -8.05500 49.16700
C  25.82400 -6.80100 48.30000
C  23.46100 -8.87000 50.17100
C  26.91600 -9.11700 48.87900
C  27.83700 -9.21700 50.06500
N  26.24600 -4.49300 46.47800
C  27.21100 -4.92700 47.36500
C  28.42300 -4.14400 47.25200
C  28.15200 -3.32600 46.06000
C  26.79900 -3.48600 45.68800
C  29.63600 -4.30100 48.03800
C  28.75300 -2.36700 45.17700
O  29.88200 -1.92900 45.19200
C  27.59300 -1.90900 44.14400
C  27.30400 -0.47100 44.39900
O  26.38900 -0.06600 45.04700
O  28.27500 0.25200 43.74200
C  28.10300 1.70800 44.04900
H  21.02600 -3.91900 43.07100
H  21.95600 -8.47800 47.52000
H  27.76300 -6.41500 48.88300
H  24.66800 -0.88400 43.09900
H  22.63800 -2.56100 41.94900
H  22.71800 -0.13300 42.63500
H  22.50900 -0.67300 44.27600
H  21.17000 -0.98600 43.08100
H  24.49800 -2.89600 40.96000
H  26.08200 -3.03200 41.72200
H  26.78100 -1.49300 40.41600
H  25.85700 -0.34100 41.40200
H  19.29200 -6.61800 42.77600
H  19.24500 -4.92900 43.28600
H  18.19200 -6.24600 44.05100
H  19.62500 -9.02800 47.93100
H  20.66000 -9.81600 46.75300
H  18.89000 -10.07000 46.80500
H  24.42800 -9.50100 48.30700
H  25.73800 -7.67900 50.19000
H  22.46100 -8.44500 50.08600
H  23.95000 -8.59400 51.10500
H  23.37100 -9.91000 50.48500
H  27.55900 -8.70500 48.10100
H  26.51900 -10.09000 48.58900
H  28.52800 -10.02200 49.81700
H  27.31400 -9.41500 51.00000
H  28.35400 -8.25700 50.05900
H  30.38800 -4.94700 47.58500
H  29.49700 -4.65600 49.06000
H  30.10600 -3.31800 48.04200
H  27.94700 -2.08200 43.12700
H  27.33200 2.01600 43.34300
H  29.11000 2.11300 43.95000
H  27.75800 1.90500 45.06400
Mg 50.91500 45.47500 41.45200
C  47.77000 46.40900 40.15200
C  50.22700 42.16700 40.47400
C  54.28600 44.63900 41.72500
C  51.80300 48.78300 41.62700
N  49.18600 44.43600 40.35600
C  47.97100 44.93500 40.02900
C  47.00100 43.89700 39.34500
C  47.77400 42.58000 39.60300
C  49.19000 43.09000 40.20300
C  47.09900 41.66400 40.63200
C  46.71600 44.23300 37.81800
C  45.25700 43.99200 37.45400
H  44.66900 44.41300 36.14700
N  52.07100 43.58400 41.30400
C  51.56500 42.38300 40.83000
C  52.62500 41.46200 40.95500
C  53.81400 42.11100 41.37800
C  53.45700 43.50500 41.49200
C  52.34000 39.94400 40.74700
C  55.19400 41.49600 41.64800
O  55.41100 40.31500 41.45000
C  56.43500 42.11700 42.33000
N  52.80200 46.50800 41.71600
C  54.03700 45.94400 41.86600
C  55.09200 47.03200 42.17400
C  54.30100 48.35600 41.98400
C  52.87600 47.85500 41.64500
C  55.76200 46.97000 43.59900
C  54.70300 49.37400 40.84600
C  54.82500 50.80200 41.21500
N  49.98800 47.22000 41.24500
C  50.45200 48.50900 41.36300
C  49.32200 49.45600 41.05500
C  48.27000 48.67500 40.65100
C  48.70000 47.34700 40.80100
C  49.44700 50.99300 40.96200
C  47.01800 48.69300 40.03600
O  46.29100 49.61200 39.63800
C  46.53000 47.25100 39.84200
C  45.41600 46.98200 40.82700
O  45.56800 46.59700 41.97700
O  44.26400 47.21900 40.14200
C  43.07500 47.16300 41.02600
H  50.00400 41.13300 40.19900
H  55.30100 44.29800 41.93800
H  52.10100 49.81600 41.44000
H  46.14300 43.94900 40.01500
H  48.03500 42.08200 38.66900
H  46.01000 41.64700 40.67400
H  47.45200 42.01200 41.60300
H  47.41900 40.62400 40.70100
H  47.20200 43.46300 37.21900
H  47.17500 45.19000 37.57000
H  44.65100 44.53000 38.18400
H  45.17100 42.91400 37.58600
H  52.01800 39.86400 39.70900
H  51.70900 39.56400 41.55100
H  53.19200 39.26400 40.73400
H  56.24500 42.67100 43.24900
H  56.86300 42.77000 41.57000
H  57.21300 41.38600 42.55200
H  55.94000 46.87600 41.50800
H  54.09300 48.99600 42.84200
H  55.39700 47.77600 44.23700
H  56.82500 47.10400 43.39900
H  55.59500 45.97500 44.01100
H  54.05000 49.39900 39.97400
H  55.68500 49.08000 40.47500
H  54.34400 51.02000 42.16800
H  54.24400 51.34500 40.46900
H  55.84700 51.17900 41.17500
H  48.67400 51.41600 41.60300
H  49.29400 51.38100 39.95400
H  50.34400 51.36900 41.45300
H  46.35700 47.07600 38.78100
H  42.90300 46.17800 41.45800
H  42.23400 47.37500 40.36500
H  43.16700 47.86500 41.85400

