158

Mg 49.71700 45.54900 41.07100
C  46.57600 47.23900 40.50300
C  48.36300 42.80900 39.78200
C  52.80400 44.34100 41.11700
C  51.02100 48.82000 41.87700
N  47.61500 45.09600 40.32100
C  46.47700 45.93900 40.12100
C  45.40300 45.20000 39.44700
C  45.95800 43.73100 39.36400
C  47.43300 43.86700 39.81200
C  45.16600 42.61800 40.04000
C  45.08700 45.75600 37.99700
C  43.86500 45.12700 37.32800
H  44.01400 44.11100 36.17700
N  50.51000 43.85700 40.44500
C  49.76600 42.80600 39.97900
C  50.66300 41.69200 39.71000
C  51.93900 42.13800 40.08600
C  51.78600 43.48700 40.56200
C  50.28800 40.38900 38.99500
C  53.25200 41.34400 39.91400
O  53.22800 40.17400 39.58500
C  54.58900 42.00100 40.03600
N  51.57500 46.40700 41.48700
C  52.70000 45.62800 41.57500
C  53.96900 46.51800 41.89300
C  53.39000 47.91100 41.85800
C  51.93100 47.69100 41.83000
C  54.80800 46.09800 43.26800
C  53.95200 48.86200 40.67800
C  54.76900 50.05000 41.23000
N  48.97600 47.54300 41.35500
C  49.60700 48.73200 41.68700
C  48.76500 49.81900 41.83400
C  47.46000 49.28200 41.42100
C  47.69000 47.92100 41.15600
C  49.12900 51.16800 42.32800
C  46.07300 49.54400 41.21000
O  45.39100 50.49800 41.51500
C  45.55100 48.35400 40.35300
C  44.27600 47.96400 40.96900
O  44.12600 47.14100 41.89200
O  43.26500 48.40200 40.13100
C  41.94900 48.28500 40.78800
H  47.96100 41.86600 39.40600
H  53.84500 44.01400 41.11300
H  51.52000 49.71000 42.26600
H  44.52000 45.18900 40.08500
H  45.98500 43.30500 38.36200
H  44.12600 42.93400 39.95900
H  45.39200 42.49000 41.09900
H  45.33600 41.62500 39.62300
H  45.89800 45.53500 37.30400
H  44.80800 46.81000 37.97400
H  43.24000 45.99400 37.11200
H  43.24600 44.67100 38.10100
H  49.23600 40.10800 39.05100
H  50.80700 39.53400 39.42800
H  50.57200 40.52500 37.95200
H  54.92400 42.19900 41.05500
H  54.61300 42.87400 39.38400
H  55.24600 41.27200 39.56200
H  54.66900 46.35500 41.07400
H  53.50800 48.33700 42.85400
H  54.53600 45.11900 43.66300
H  54.56100 46.72700 44.12200
H  55.88700 46.16500 43.12600
H  53.10100 49.29500 40.15200
H  54.57900 48.28700 39.99800
H  54.43200 51.05200 40.96500
H  55.78200 50.12500 40.83300
H  54.89200 50.06600 42.31300
H  50.09600 51.47200 41.92700
H  49.14100 51.26400 43.41400
H  48.48800 51.96100 41.94400
H  45.40600 48.87000 39.40400
H  41.47900 47.45200 40.26600
H  41.36000 49.19100 40.64700
H  41.99500 47.99200 41.83700
Mg -2.79200 34.17000 26.77400
C  -4.66500 32.47800 29.22100
C  -1.92700 36.58400 29.17800
C  -1.24200 35.81300 24.38600
C  -4.09500 32.01600 24.32300
N  -3.33800 34.48400 28.91000
C  -4.02400 33.61100 29.72600
C  -3.92200 34.01000 31.20200
C  -3.32200 35.46800 31.03500
C  -2.84100 35.53800 29.62300
C  -4.34700 36.57600 31.36000
C  -3.10000 33.03000 31.97700
C  -3.82800 32.29400 33.06000
H  -4.30100 33.01900 34.26600
N  -1.69200 35.98100 26.79000
C  -1.46000 36.80300 27.86000
C  -0.49200 37.79100 27.47800
C  -0.30000 37.61900 26.03100
C  -1.07200 36.41800 25.68900
C  -0.07800 38.94600 28.33000
C  0.45700 38.48400 25.10700
O  0.50000 38.22400 23.94900
C  1.12800 39.79600 25.59500
N  -2.64400 33.84700 24.64400
C  -1.90500 34.66500 23.90400
C  -1.64200 34.20800 22.43400
C  -2.42400 32.82500 22.52000
C  -3.10100 32.91000 23.91200
C  -2.12900 35.11800 21.29600
C  -1.51800 31.53000 22.41800
C  -2.04200 30.37500 21.52700
N  -4.12100 32.66400 26.70700
C  -4.43400 31.78300 25.64600
C  -5.27800 30.80300 26.20100
C  -5.37700 30.97600 27.54300
C  -4.66200 32.12600 27.82700
C  -5.75400 29.68700 25.38800
C  -6.01300 30.45700 28.73900
O  -6.74200 29.49700 28.81800
C  -5.57300 31.43500 29.92400
C  -6.82000 32.06500 30.59600
O  -7.35300 33.14100 30.25700
O  -7.24500 31.30300 31.70200
C  -8.03700 32.00100 32.66300
H  -1.62300 37.25900 29.98000
H  -0.72400 36.22200 23.51600
H  -4.32800 31.21800 23.61400
H  -4.88000 34.06000 31.71900
H  -2.54300 35.69100 31.76400
H  -4.56800 37.16400 30.46900
H  -3.86500 37.28500 32.03400
H  -5.22700 36.13200 31.82400
H  -2.27400 33.48600 32.52400
H  -2.57900 32.25400 31.41700
H  -3.29400 31.40500 33.39600
H  -4.71600 31.78200 32.68700
H  0.97900 38.82900 28.57100
H  -0.63000 38.98600 29.26900
H  -0.14900 39.92300 27.85100
H  0.41300 40.58400 25.83200
H  1.81300 40.27900 24.89800
H  1.72700 39.58700 26.48100
H  -0.60000 33.93200 22.27100
H  -3.19000 32.82500 21.74400
H  -2.45100 36.06600 21.72600
H  -2.94600 34.63200 20.76200
H  -1.31900 35.30700 20.59100
H  -1.27100 31.22800 23.43600
H  -0.52700 31.88700 22.13800
H  -2.42100 29.56400 22.14900
H  -1.15000 30.16100 20.93900
H  -2.87700 30.70100 20.90700
H  -5.12300 29.33100 24.57400
H  -6.65500 30.01000 24.86600
H  -6.03800 28.88900 26.07400
H  -4.97200 30.88600 30.64900
H  -8.83500 32.60800 32.23400
H  -7.38400 32.65800 33.23800
H  -8.42200 31.33800 33.43800

