158

Mg 24.99700 -7.48200 47.37200
C  27.04200 -5.05000 45.83800
C  22.38300 -6.26200 45.24900
C  23.08500 -10.31000 47.94100
C  27.74600 -8.98700 48.71100
N  24.77200 -5.81200 45.63000
C  25.75900 -4.94100 45.28100
C  25.18000 -3.93400 44.27300
C  23.57800 -4.14700 44.31200
C  23.51700 -5.44000 45.15500
C  22.91800 -3.00200 45.06100
C  25.86000 -4.19600 42.87200
C  26.55200 -2.98800 42.18200
H  25.75100 -2.26200 41.06600
N  22.93400 -8.15100 46.72900
C  22.07600 -7.53600 45.96100
C  20.81200 -8.12200 46.01700
C  20.91200 -9.25900 46.82400
C  22.35600 -9.31400 47.21700
C  19.65500 -7.47300 45.30200
C  19.91600 -10.32400 47.12100
O  18.82700 -10.27500 46.49700
C  20.11100 -11.32400 48.21900
N  25.37300 -9.33200 48.20200
C  24.45700 -10.33100 48.32000
C  25.02000 -11.49200 49.18700
C  26.52100 -11.18900 49.08600
C  26.54900 -9.71500 48.63900
C  24.41300 -11.65400 50.68600
C  27.40200 -12.15700 48.11300
C  28.54700 -13.06400 48.85500
N  26.91800 -6.96300 47.58000
C  27.96900 -7.72700 48.13100
C  29.22200 -6.99600 48.01200
C  28.84900 -5.93100 47.17800
C  27.47000 -5.98000 46.83400
C  30.54500 -7.31100 48.61000
C  29.30300 -4.70900 46.51000
O  30.41400 -4.21400 46.50500
C  28.16900 -4.17300 45.53700
C  27.98900 -2.75400 45.78600
O  27.32000 -2.31100 46.72800
O  28.76200 -2.02300 44.91600
C  28.78000 -0.55500 45.22100
H  21.52200 -5.85200 44.71800
H  22.57000 -11.23700 48.20100
H  28.60200 -9.57100 49.05600
H  25.49300 -2.99300 44.72400
H  23.17200 -4.22400 43.30400
H  22.69500 -3.40800 46.04800
H  21.99400 -2.72700 44.55300
H  23.47900 -2.12600 45.38500
H  25.04100 -4.51100 42.22600
H  26.63700 -4.95300 42.98200
H  27.49200 -3.34400 41.76100
H  26.84100 -2.20900 42.88700
H  18.68700 -7.97100 45.34400
H  19.97800 -7.40000 44.26400
H  19.43800 -6.51900 45.78200
H  19.17200 -11.65200 48.66500
H  20.74300 -10.70300 48.85300
H  20.55500 -12.20200 47.74800
H  24.88600 -12.42200 48.63400
H  27.03300 -11.17800 50.04700
H  25.16500 -11.37900 51.42600
H  24.13400 -12.69800 50.83000
H  23.54700 -11.00200 50.79300
H  27.83300 -11.49000 47.36600
H  26.80000 -12.90600 47.59800
H  28.41700 -12.92000 49.92800
H  29.50500 -12.70800 48.47500
H  28.44700 -14.14100 48.72000
H  30.93600 -8.19200 48.10000
H  30.54700 -7.46900 49.68800
H  31.22600 -6.49100 48.37800
H  28.54000 -4.33400 44.52500
H  27.73900 -0.23700 45.27600
H  29.43000 0.02000 44.56100
H  29.06900 -0.32900 46.24800
Mg 30.73300 57.75000 39.38700
C  27.95600 55.70300 38.57100
C  32.77600 55.00200 38.20800
C  33.39100 59.72600 39.53800
C  28.55000 60.36600 39.88300
N  30.35000 55.63700 38.45200
C  29.18100 54.99200 38.46200
C  29.31200 53.50500 38.16900
C  30.87300 53.33900 38.14800
C  31.41900 54.80800 38.25500
C  31.33400 52.49000 39.30700
C  28.62000 52.96000 36.92500
C  29.03500 53.70400 35.61500
H  27.92000 54.42100 34.74400
N  32.81200 57.40500 38.97900
C  33.45300 56.24800 38.54200
C  34.83300 56.52900 38.47500
C  35.05400 57.80700 39.05000
C  33.71200 58.44300 39.24300
C  35.86000 55.69900 37.86500
C  36.48600 58.41400 39.33300
O  37.48600 57.80500 38.94800
C  36.59800 59.68000 40.11000
N  30.92700 59.74700 39.62300
C  32.14400 60.36100 39.56400
C  32.05400 61.88600 39.69500
C  30.52200 62.09800 39.76100
C  29.90900 60.63000 39.78500
C  32.92600 62.58800 40.80100
C  29.95300 63.04800 38.66000
C  28.96600 64.12000 39.12300
N  28.65300 57.99300 39.26400
C  27.90500 59.17000 39.45300
C  26.50400 58.81000 39.22400
C  26.50900 57.46700 38.95400
C  27.82800 57.06800 38.89800
C  25.36700 59.68600 39.47400
C  25.60600 56.34700 38.66000
O  24.39000 56.25000 38.56900
C  26.52800 55.13500 38.35100
C  26.12700 54.04700 39.33800
O  26.65700 53.76000 40.42400
O  25.16300 53.27700 38.69400
C  24.80000 52.08700 39.35600
H  33.32000 54.06700 38.05500
H  34.22600 60.41200 39.69400
H  27.90400 61.21200 40.12600
H  28.77100 53.01000 38.97500
H  31.23500 52.88100 37.22700
H  32.22300 51.93800 39.00400
H  30.61900 51.76100 39.68800
H  31.67000 52.97500 40.22300
H  27.53400 52.92900 37.01100
H  28.98100 51.93300 36.89600
H  29.51200 52.95600 34.98100
H  29.75900 54.49300 35.81700
H  36.63500 55.27800 38.50600
H  36.33100 56.29400 37.08200
H  35.35300 54.93600 37.27500
H  35.79500 59.76000 40.84300
H  36.65600 60.45600 39.34700
H  37.53700 59.70100 40.66300
H  32.50700 62.38800 38.84000
H  30.24200 62.48900 40.73900
H  32.18000 63.18600 41.32300
H  33.73900 63.18800 40.39200
H  33.35400 61.91700 41.54500
H  29.76600 62.39700 37.80600
H  30.81100 63.68300 38.44000
H  29.48400 65.06600 39.27800
H  28.47200 63.78400 40.03500
H  28.26600 64.28600 38.30400
H  25.52500 60.57900 38.87100
H  25.16800 59.84700 40.53400
H  24.48500 59.10700 39.19900
H  26.15200 54.71100 37.42100
H  23.90300 51.61800 38.95100
H  24.73500 52.35600 40.41000
H  25.64500 51.40600 39.25000

