158

Mg 16.65200 -1.24300 28.10100
C  15.58200 1.02400 30.60800
C  18.40000 -2.75500 30.28500
C  18.03300 -2.88300 25.44800
C  14.81200 0.74500 25.75200
N  17.03700 -0.77800 30.24200
C  16.42900 0.01000 31.06500
C  16.88100 -0.21600 32.55400
C  17.92600 -1.37400 32.43100
C  17.76700 -1.68300 30.91300
C  19.33200 -1.16500 32.93900
C  15.68300 -0.58800 33.44900
C  15.60200 0.03900 34.89700
H  16.98600 0.59300 35.39900
N  17.96800 -2.72600 27.90000
C  18.57400 -3.23300 28.98700
C  19.46500 -4.37300 28.64100
C  19.50700 -4.26500 27.17900
C  18.46400 -3.26600 26.76100
C  20.09600 -5.41300 29.56700
C  20.33500 -5.09600 26.25200
O  20.30400 -4.89500 25.03100
C  21.26300 -6.14800 26.87200
N  16.41600 -1.12900 25.94700
C  17.18700 -1.84700 25.07800
C  16.84300 -1.44900 23.62500
C  15.70400 -0.38300 23.78300
C  15.59200 -0.29400 25.24700
C  18.06500 -1.01900 22.82400
C  14.32700 -0.85700 23.19200
C  14.07400 -0.41000 21.79300
N  15.39900 0.52700 28.11300
C  14.75200 1.18600 27.05200
C  14.04300 2.27800 27.62300
C  14.39300 2.32400 29.00100
C  15.16100 1.22700 29.25100
C  13.08100 3.15000 26.77600
C  14.02600 2.98800 30.17300
O  13.29500 3.98900 30.38200
C  14.75700 2.09400 31.32300
C  15.53000 3.08300 32.18000
O  16.71400 3.25800 32.26500
O  14.65800 3.64200 33.04900
C  15.18000 4.31900 34.22500
H  19.01800 -3.28600 31.01200
H  18.39100 -3.35600 24.53200
H  14.22600 1.28300 25.00400
H  17.41700 0.71200 32.75600
H  17.66100 -2.27500 32.98500
H  19.40600 -0.18500 33.41000
H  19.95500 -1.01300 32.05700
H  19.65800 -1.89500 33.68000
H  15.52000 -1.65800 33.57700
H  14.84200 -0.33000 32.80400
H  15.35500 -0.76600 35.59000
H  14.81800 0.79500 34.84700
H  21.18400 -5.37500 29.60700
H  19.73500 -6.34500 29.13100
H  19.75800 -5.34000 30.60000
H  22.07100 -5.66900 27.42500
H  21.62500 -6.65900 25.97900
H  20.73800 -6.89100 27.47300
H  16.49500 -2.38000 23.17900
H  16.14700 0.51100 23.34500
H  17.76300 -0.18100 22.19500
H  18.45800 -1.81600 22.19300
H  18.85700 -0.79900 23.53900
H  13.50700 -0.50400 23.81800
H  14.39100 -1.94200 23.10900
H  14.93900 0.11900 21.39300
H  13.18400 0.18300 21.58100
H  14.15800 -1.26700 21.12500
H  13.06000 2.72200 25.77400
H  13.46500 4.17000 26.79200
H  12.05600 3.12600 27.14600
H  14.06500 1.60800 32.01200
H  15.95400 3.70600 34.68700
H  14.38200 4.41000 34.96200
H  15.53300 5.32000 33.97400
Mg 45.60200 4.41200 47.37000
C  43.44100 7.11500 46.70600
C  43.05100 2.30200 46.79500
C  47.85100 1.76600 47.14800
C  48.36000 6.56700 47.09600
N  43.48700 4.69900 46.76100
C  42.77300 5.88600 46.67100
C  41.31200 5.62500 46.28300
C  41.14800 4.16900 46.68400
C  42.66100 3.66800 46.72000
C  40.30100 4.09100 47.94600
C  41.01900 5.98100 44.77000
C  39.96400 7.13200 44.65800
H  40.24600 8.23600 43.56300
N  45.45600 2.26200 47.22800
C  44.31000 1.62100 46.99100
C  44.54800 0.26300 47.02100
C  45.94200 0.05100 47.17100
C  46.49800 1.42800 47.17200
C  43.39500 -0.70700 47.10000
C  46.67900 -1.38000 47.17600
O  45.94200 -2.41100 47.04100
C  48.19600 -1.64100 47.40400
N  47.83700 4.13900 46.75500
C  48.46600 2.98200 47.08300
C  50.02700 3.16800 47.18700
C  50.10800 4.68400 47.06900
C  48.69700 5.21400 46.92400
C  50.83000 2.55500 48.36500
C  50.83000 5.09700 45.72300
C  52.38000 5.04900 45.62200
N  45.91700 6.35500 47.06200
C  47.06500 7.14100 47.02000
C  46.74300 8.54300 46.92200
C  45.30600 8.56900 46.86800
C  44.82900 7.17900 46.96100
C  47.76100 9.61600 46.64400
C  44.23900 9.47000 46.65200
O  44.17800 10.71600 46.49600
C  42.89300 8.55000 46.51500
C  41.98600 8.90200 47.64800
O  42.11600 8.47900 48.79400
O  40.85200 9.45000 47.03600
C  39.78200 9.85500 47.98400
H  42.31000 1.51200 46.65800
H  48.46900 0.87000 47.05800
H  49.21100 7.19800 47.36100
H  40.79100 6.30000 46.96200
H  40.55600 3.54500 46.01400
H  41.02200 3.89700 48.73900
H  39.63900 3.22500 47.95900
H  39.68900 4.93100 48.27600
H  40.85300 5.08700 44.16900
H  41.93600 6.37400 44.33200
H  39.73400 7.50100 45.65800
H  39.04600 6.63400 44.34800
H  43.37100 -1.27300 46.16900
H  42.42400 -0.30200 47.38500
H  43.68600 -1.30300 47.96500
H  48.48100 -1.16700 48.34300
H  48.65000 -1.24700 46.49400
H  48.34200 -2.71400 47.52900
H  50.30600 2.65900 46.26500
H  50.74600 5.11700 47.84000
H  50.10300 2.32100 49.14200
H  51.63700 3.10800 48.84600
H  51.22300 1.59900 48.01800
H  50.54900 6.13000 45.51900
H  50.37400 4.59200 44.87100
H  52.52800 4.18100 44.98100
H  52.77500 4.89700 46.62700
H  52.71900 5.94700 45.10600
H  48.76700 9.21400 46.52000
H  47.73800 10.29800 47.49400
H  47.56300 10.20400 45.74700
H  42.48600 8.69300 45.51400
H  40.07800 9.81500 49.03200
H  38.80600 9.41600 47.77700
H  39.59600 10.92100 47.85000

