158

Mg 47.31900 25.48900 28.78200
C  48.10000 27.80500 31.30600
C  46.05200 23.47900 31.19700
C  46.77700 23.38500 26.41500
C  49.12900 27.51500 26.45400
N  47.04900 25.69200 31.05800
C  47.48100 26.70400 31.86900
C  47.05100 26.47200 33.37200
C  46.60900 24.88000 33.31900
C  46.53700 24.66800 31.76700
C  47.65700 23.92600 34.05100
C  45.90900 27.48000 33.73800
C  45.74400 27.86400 35.19500
H  46.24600 26.94700 36.24500
N  46.53200 23.67700 28.81000
C  46.05100 23.00200 29.89700
C  45.45300 21.74200 29.45200
C  45.66900 21.69200 28.06100
C  46.35800 22.95400 27.71100
C  44.82500 20.67200 30.28900
C  45.17100 20.65000 27.08600
O  45.28100 20.83300 25.92700
C  44.44700 19.40100 27.49000
N  47.71400 25.49600 26.71900
C  47.46400 24.44900 26.00900
C  48.17900 24.54700 24.61700
C  48.50800 26.06300 24.48400
C  48.47700 26.38100 26.00700
C  49.38500 23.55200 24.53000
C  47.56000 26.91200 23.66100
C  47.83300 28.47000 23.62400
N  48.37400 27.22900 28.79000
C  49.04900 27.99000 27.76800
C  49.49000 29.28200 28.29400
C  49.10300 29.25500 29.68000
C  48.50700 27.99800 29.95100
C  50.23000 30.35900 27.51200
C  49.17100 30.03400 30.93700
O  49.62900 31.09100 31.28000
C  48.57200 29.02700 31.97900
C  49.56400 28.81400 33.06600
O  50.70800 28.32400 32.93000
O  48.97800 29.23900 34.23900
C  49.88400 29.30400 35.42300
H  45.70600 22.74500 31.92800
H  46.54000 22.75700 25.55400
H  49.75800 28.03200 25.72700
H  47.95400 26.66400 33.95000
H  45.58800 24.76600 33.68400
H  47.97400 23.22100 33.28200
H  47.14500 23.33800 34.81300
H  48.40800 24.61500 34.43600
H  45.00000 27.06100 33.30700
H  46.09800 28.39100 33.17000
H  44.73100 28.26400 35.24200
H  46.38300 28.74100 35.29400
H  43.77000 20.46100 30.11400
H  44.77400 21.05400 31.30900
H  45.39500 19.75900 30.11400
H  45.16300 18.98100 28.19700
H  44.27800 18.77600 26.61200
H  43.48600 19.68300 27.91900
H  47.39800 24.28100 23.90500
H  49.52200 26.24500 24.12800
H  49.18500 22.87700 23.69800
H  49.41800 22.93300 25.42700
H  50.32500 24.10200 24.47200
H  46.58900 26.70900 24.11200
H  47.71300 26.59100 22.63000
H  48.91400 28.56600 23.72300
H  47.24500 28.86900 24.45100
H  47.41200 28.93200 22.73100
H  50.94100 29.72700 26.98100
H  50.74300 31.05800 28.17400
H  49.51100 30.86500 26.86800
H  47.74100 29.50500 32.49700
H  49.29500 29.02800 36.29700
H  50.21100 30.33800 35.53500
H  50.78500 28.69000 35.40100
Mg 1.80800 41.43800 26.80200
C  3.36600 42.25200 29.92200
C  -0.79000 40.14800 28.54900
C  0.48400 40.62300 23.87100
C  4.83700 42.22400 25.28500
N  1.34700 41.25400 29.03300
C  2.07300 41.71700 30.10300
C  1.21400 41.71300 31.37200
C  -0.07600 40.84200 30.91300
C  0.14500 40.77300 29.41100
C  -0.14500 39.44400 31.63600
C  0.95600 43.15600 31.93700
C  1.31700 43.41400 33.38100
H  1.18800 42.35300 34.45200
N  0.05800 40.57300 26.21700
C  -0.85300 40.05800 27.08900
C  -1.98300 39.52500 26.22600
C  -1.53500 39.54500 24.88800
C  -0.27500 40.28500 24.97300
C  -3.18600 38.76200 26.81900
C  -2.20600 38.95100 23.64500
O  -1.63300 39.05200 22.57800
C  -3.56100 38.15200 23.76200
N  2.63000 41.32800 24.96100
C  1.84700 40.99200 23.88100
C  2.60800 41.24500 22.51100
C  3.99000 41.74800 22.95100
C  3.85900 41.68600 24.50200
C  2.63100 39.99700 21.61800
C  4.36700 43.19600 22.34900
C  3.75300 44.35200 23.05000
N  3.71000 42.12200 27.41000
C  4.81100 42.46800 26.66400
C  5.91300 42.85700 27.56300
C  5.30500 42.76800 28.82600
C  4.02000 42.35900 28.73100
C  7.33000 43.18200 27.32500
C  5.65400 42.80000 30.20500
O  6.73600 42.99500 30.66700
C  4.37600 42.57300 31.02600
C  4.75100 41.39400 31.82100
O  4.89100 40.25900 31.37200
O  4.71400 41.75800 33.11600
C  4.86700 40.69500 34.10300
H  -1.68500 39.79700 29.06800
H  0.04300 40.54200 22.87600
H  5.78200 42.53400 24.83300
H  1.69800 41.19200 32.19900
H  -1.03400 41.29200 31.17200
H  0.56100 39.35300 32.46200
H  -0.18000 38.62600 30.91700
H  -1.13400 39.19000 32.01500
H  -0.12600 43.28900 31.94500
H  1.39100 43.89500 31.26500
H  0.66200 44.24600 33.63900
H  2.37100 43.67900 33.46800
H  -3.34400 38.86300 27.89300
H  -3.13000 37.67400 26.83000
H  -4.15600 39.16500 26.52700
H  -3.57100 37.36100 24.51200
H  -3.70700 37.77600 22.74900
H  -4.43500 38.78600 23.90900
H  2.12100 42.04700 21.95600
H  4.82900 41.12500 22.64100
H  2.24100 39.17900 22.22300
H  3.67300 39.80900 21.35700
H  2.09400 40.17600 20.68600
H  3.84100 43.31700 21.40200
H  5.41300 43.36700 22.09500
H  3.05100 43.89400 23.74600
H  3.19400 45.10100 22.49000
H  4.57400 44.88200 23.53200
H  7.63600 42.84900 26.33300
H  7.82700 42.56800 28.07600
H  7.45000 44.24900 27.50800
H  4.11400 43.51900 31.50100
H  4.53000 39.76800 33.63900
H  4.40800 40.93800 35.06200
H  5.89400 40.66800 34.46700

