158

Mg 34.97600 2.28900 29.89400
C  32.68100 3.22600 32.34800
C  37.52200 2.81700 32.28600
C  37.09100 1.38900 27.52900
C  32.31900 2.40600 27.56000
N  35.05300 2.90800 32.08900
C  34.00800 3.11000 32.86300
C  34.34700 3.23400 34.32700
C  35.91000 3.45300 34.26300
C  36.23400 3.02100 32.80000
C  36.34200 4.88000 34.65900
C  33.81300 1.94900 35.10100
C  33.44800 2.17500 36.63500
H  34.33400 3.22400 37.25100
N  36.97800 2.07100 29.84700
C  37.81900 2.28300 30.92500
C  39.19800 1.87700 30.47300
C  39.04800 1.32100 29.16600
C  37.66200 1.55000 28.84000
C  40.40400 2.06200 31.41600
C  40.12200 0.63200 28.31500
O  39.84500 0.15000 27.24900
C  41.58300 0.42200 28.86200
N  34.79300 2.17300 27.77600
C  35.79300 1.60000 27.06300
C  35.49100 1.52400 25.57900
C  33.86500 1.55800 25.64400
C  33.60900 2.12600 27.04600
C  36.06400 2.67900 24.70000
C  33.14700 0.21900 25.31500
C  31.73100 0.23900 24.68900
N  32.88800 2.68500 29.89800
C  31.93800 2.70700 28.88700
C  30.65900 2.90200 29.42800
C  30.89900 3.16000 30.83700
C  32.27000 3.03800 31.00900
C  29.33100 3.18700 28.60600
C  30.21800 3.50600 32.12600
O  29.05100 3.61500 32.41900
C  31.43500 3.54400 33.17400
C  31.35100 4.82000 33.87000
O  31.58500 5.94200 33.44700
O  31.12200 4.62500 35.14900
C  30.90900 5.81900 36.05200
H  38.30400 2.97500 33.03200
H  37.81000 1.05200 26.77900
H  31.55800 2.24200 26.79500
H  33.91700 4.19200 34.62200
H  36.50700 2.81200 34.91200
H  36.87500 5.25300 33.78500
H  37.02300 4.88200 35.51100
H  35.55000 5.58100 34.92400
H  34.45700 1.07700 34.98100
H  32.91100 1.52800 34.65800
H  33.57300 1.28200 37.24800
H  32.45500 2.62400 36.67000
H  40.07300 2.85400 32.08800
H  41.36600 2.36600 31.00400
H  40.53600 1.13200 31.97100
H  41.59800 0.34000 29.94900
H  42.12500 1.35900 28.74000
H  42.07600 -0.44200 28.41600
H  35.99900 0.63900 25.19500
H  33.50200 2.36300 25.00400
H  36.94300 3.10400 25.18300
H  35.29900 3.44000 24.54700
H  36.31500 2.24600 23.73200
H  33.07300 -0.26600 26.28800
H  33.78100 -0.46200 24.74600
H  31.81300 -0.28900 23.73900
H  31.40200 1.26500 24.52700
H  30.98200 -0.25300 25.31000
H  29.40500 2.76100 27.60600
H  29.20000 4.26900 28.58900
H  28.47800 2.89400 29.21800
H  31.13200 2.82000 33.93000
H  29.83500 5.86900 36.23000
H  31.13700 6.81000 35.65800
H  31.33600 5.55500 37.01900
Mg 17.16800 52.58800 26.47700
C  19.01600 50.88800 29.08700
C  14.76300 53.20400 28.95200
C  15.46500 54.31400 24.22600
C  19.37200 51.43200 24.13300
N  16.87900 52.03100 28.77800
C  17.80300 51.46400 29.63900
C  17.35400 51.67600 31.13900
C  15.80900 52.12700 30.94700
C  15.78000 52.39100 29.45800
C  14.76600 51.19800 31.59100
C  18.17600 52.75100 31.81800
C  18.09300 52.89900 33.35900
H  17.11800 52.05800 34.17200
N  15.49400 53.83900 26.64500
C  14.63500 53.90000 27.70800
C  13.48000 54.72900 27.30600
C  13.73200 55.11700 25.93100
C  14.88000 54.40000 25.53600
C  12.30200 54.98900 28.17800
C  12.94900 56.05400 24.98800
O  13.29700 56.44100 23.88600
C  11.79800 56.83600 25.59100
N  17.29000 52.70800 24.42900
C  16.51700 53.56700 23.73600
C  16.74100 53.28100 22.17400
C  18.26500 52.86200 22.23800
C  18.34100 52.27500 23.65000
C  15.88300 52.21800 21.38700
C  19.24000 54.06600 22.12800
C  20.00900 54.16100 20.81400
N  18.80100 51.38000 26.44900
C  19.66200 51.03000 25.43900
C  20.65900 50.21300 25.98400
C  20.51000 50.14100 27.32200
C  19.33900 50.85400 27.64700
C  21.79500 49.52100 25.24500
C  21.12400 49.69100 28.65500
O  22.23000 49.17400 28.85800
C  20.15400 50.28000 29.81000
C  19.84900 49.23000 30.81900
O  19.44800 48.07900 30.58900
O  20.16400 49.64400 32.05900
C  19.75000 48.75700 33.14900
H  13.96100 53.47000 29.64400
H  14.91100 54.72800 23.38200
H  20.01700 50.98900 23.37100
H  17.48700 50.71400 31.63300
H  15.66800 53.04800 31.51400
H  15.18000 50.63300 32.42600
H  14.45700 50.42000 30.89400
H  13.85600 51.75600 31.81100
H  17.93300 53.71800 31.37800
H  19.22600 52.54300 31.61500
H  17.91400 53.94600 33.60200
H  19.05400 52.69500 33.83000
H  11.44700 55.03800 27.50400
H  12.53400 55.94800 28.64200
H  12.14300 54.18200 28.89200
H  10.91400 56.22500 25.77300
H  11.52800 57.56400 24.82600
H  12.16400 57.35400 26.47700
H  16.59200 54.22700 21.65400
H  18.50000 52.09000 21.50600
H  16.60400 51.67000 20.78000
H  15.05000 52.57800 20.78500
H  15.45600 51.49500 22.08200
H  19.90500 54.12300 22.99000
H  18.64100 54.97000 22.23700
H  19.85600 55.22800 20.65200
H  19.68500 53.51600 19.99700
H  21.05900 53.93600 20.99800
H  22.57000 50.28700 25.26200
H  21.54000 49.25800 24.21900
H  22.06100 48.59100 25.74800
H  20.70900 51.07400 30.30900
H  20.56400 48.03600 33.21800
H  18.73300 48.38200 33.03200
H  19.81900 49.42500 34.00800

