158

Mg 17.39200 -1.74600 27.93300
C  16.12300 0.39800 30.64200
C  19.14400 -3.38500 30.14600
C  18.70300 -3.29200 25.30300
C  15.59700 0.43700 25.68000
N  17.74300 -1.37200 30.11100
C  16.95100 -0.68200 31.01900
C  17.43600 -0.96500 32.42000
C  18.61800 -1.97100 32.23800
C  18.41200 -2.36000 30.73300
C  20.05800 -1.36100 32.38800
C  16.30500 -1.47800 33.32400
C  16.30400 -1.37800 34.87300
H  17.47000 -0.67200 35.52700
N  18.61000 -3.29400 27.72900
C  19.28300 -3.85100 28.78900
C  20.06600 -4.92500 28.26800
C  19.94700 -4.97600 26.85300
C  19.06800 -3.87300 26.55800
C  20.81000 -5.76500 29.33800
C  20.61800 -5.88800 25.87700
O  20.36000 -5.83500 24.65000
C  21.52300 -7.07600 26.31600
N  17.23700 -1.35600 25.87800
C  17.97200 -2.20700 24.98200
C  17.71800 -1.82400 23.55800
C  16.51500 -0.82500 23.68700
C  16.43400 -0.56900 25.20300
C  19.03000 -1.24100 22.91700
C  15.23300 -1.31800 23.02600
C  15.18700 -0.86100 21.48700
N  16.11700 -0.03000 28.06200
C  15.47200 0.64000 27.01400
C  14.94500 1.79500 27.65700
C  15.08400 1.72200 29.00100
C  15.82700 0.62900 29.26600
C  14.18100 2.88300 26.97000
C  14.76100 2.40600 30.22500
O  14.14800 3.48400 30.39200
C  15.43200 1.52200 31.36300
C  16.34400 2.38300 32.16500
O  17.52600 2.57900 31.89700
O  15.55100 2.95000 33.16300
C  16.19600 4.05900 33.85800
H  19.73200 -3.99800 30.83200
H  19.15200 -3.84000 24.47100
H  15.07100 0.98900 24.89800
H  17.86300 -0.02800 32.77600
H  18.44900 -2.77200 32.95700
H  20.82700 -1.96400 31.90600
H  20.42500 -1.36200 33.41500
H  20.06200 -0.37200 31.93000
H  15.88300 -2.45800 33.09900
H  15.46600 -0.80600 33.14700
H  16.34700 -2.38500 35.28900
H  15.41100 -1.04600 35.40200
H  20.74800 -6.79600 28.99000
H  20.49000 -5.83700 30.37800
H  21.86700 -5.49700 29.36600
H  22.15200 -6.80100 27.16200
H  22.26800 -7.24900 25.53900
H  20.98100 -8.00000 26.51800
H  17.57400 -2.69600 22.92100
H  16.78700 0.08500 23.15200
H  19.75500 -0.77200 23.58200
H  18.72900 -0.44000 22.24200
H  19.70500 -1.94800 22.43600
H  14.31600 -1.07100 23.56200
H  15.37000 -2.39500 22.92700
H  15.30900 -1.67400 20.77100
H  16.04000 -0.21900 21.26800
H  14.21600 -0.43200 21.23900
H  14.50400 3.04300 25.94200
H  14.25900 3.78900 27.57100
H  13.10500 2.71400 27.01300
H  14.66900 1.21700 32.07900
H  16.25100 4.97900 33.27600
H  17.06000 3.73100 34.43500
H  15.50300 4.33100 34.65400
Mg 48.53700 35.16700 26.50900
C  46.87100 33.68400 29.08400
C  48.78600 37.87800 28.34300
C  50.07600 36.55500 23.78900
C  47.93800 32.21600 24.60500
N  47.93800 35.65800 28.54500
C  47.41900 34.87000 29.43700
C  47.46100 35.46000 30.85600
C  47.79700 36.98700 30.53400
C  48.19100 36.81900 29.04100
C  46.72800 38.06500 30.83700
C  48.50200 34.75300 31.80600
C  48.24300 34.66200 33.35000
H  47.23500 35.64700 33.94600
N  49.33500 36.96200 26.13200
C  49.35900 38.00700 27.05400
C  50.02900 39.12500 26.52100
C  50.35400 38.78400 25.15300
C  49.94800 37.38800 24.96900
C  50.22500 40.28700 27.45300
C  51.10700 39.68200 24.14400
O  51.42100 39.25000 23.03300
C  51.46500 41.18100 24.45300
N  48.80800 34.51000 24.39300
C  49.59200 35.25900 23.55900
C  50.00300 34.36700 22.32800
C  49.22900 33.06700 22.51600
C  48.64600 33.21100 23.93100
C  49.93900 34.89600 20.95700
C  50.08000 31.71100 22.34300
C  49.96900 31.12700 20.94500
N  47.52900 33.32400 26.70700
C  47.39600 32.28800 25.84800
C  46.50800 31.28800 26.45200
C  46.25000 31.80900 27.71500
C  46.97000 33.08300 27.84100
C  46.15500 29.96100 25.79500
C  45.59500 31.57400 28.96600
O  44.89900 30.62000 29.26900
C  45.86300 32.86200 29.90600
C  46.26800 32.37500 31.25700
O  47.26600 31.68300 31.38600
O  45.38300 32.64300 32.25100
C  45.52100 31.98500 33.51700
H  48.83200 38.75100 28.99600
H  50.71700 36.90200 22.97600
H  47.76600 31.33000 23.99100
H  46.44000 35.40300 31.23200
H  48.70200 37.24900 31.08200
H  45.90100 37.55500 31.33200
H  46.38100 38.66300 29.99500
H  47.11500 38.72200 31.61600
H  49.50700 35.13000 31.61300
H  48.59400 33.72600 31.45400
H  49.25000 34.71700 33.76200
H  47.88500 33.65600 33.56800
H  49.27000 40.66500 27.82000
H  50.91300 41.05000 27.08900
H  50.70100 39.98500 28.38600
H  52.16300 41.19200 25.29100
H  50.50400 41.62900 24.70500
H  51.86100 41.58500 23.52200
H  51.05900 34.20600 22.54700
H  48.38400 33.09600 21.82800
H  49.22000 35.71400 20.90800
H  49.65000 34.12600 20.24200
H  50.92600 35.31200 20.75300
H  49.90600 31.01800 23.16600
H  51.14600 31.79300 22.55800
H  49.44600 31.70900 20.18600
H  49.47200 30.18800 21.19100
H  50.97900 30.88000 20.61900
H  47.05800 29.42600 25.50000
H  45.39100 29.94400 25.01800
H  45.72900 29.44300 26.65400
H  44.90700 33.38200 29.96000
H  44.51000 31.72700 33.83300
H  45.94500 32.74200 34.17700
H  46.10100 31.06300 33.55000

