158

Mg 47.24000 25.24100 28.18500
C  48.11900 27.53800 30.64800
C  46.19300 23.05200 30.55900
C  46.41700 23.08200 25.74200
C  48.50000 27.39700 25.73300
N  47.24200 25.27400 30.37000
C  47.53300 26.34700 31.17400
C  47.39400 26.03400 32.69800
C  46.84600 24.55600 32.57600
C  46.81900 24.26100 31.06300
C  47.65000 23.58400 33.40300
C  46.54500 27.16700 33.41600
C  45.83700 26.62600 34.69500
H  45.42300 27.63300 35.84000
N  46.43800 23.34900 28.13000
C  46.08100 22.57900 29.21400
C  45.63700 21.26100 28.82300
C  45.55600 21.27900 27.42300
C  46.16000 22.57200 27.00900
C  45.34000 20.09300 29.74700
C  45.04400 20.19400 26.50000
O  45.05100 20.36700 25.28600
C  44.54400 18.90100 27.03000
N  47.36900 25.21600 25.97900
C  47.02700 24.27600 25.27000
C  47.22400 24.43700 23.75500
C  47.69700 25.94300 23.67100
C  47.89900 26.24300 25.22600
C  48.15600 23.39800 23.06100
C  46.80100 26.94400 22.95000
C  47.32100 27.37800 21.51800
N  48.17000 27.04700 28.16600
C  48.56400 27.85300 27.13200
C  49.08900 29.09900 27.62200
C  48.97300 29.07400 28.97900
C  48.36900 27.76600 29.28200
C  49.73100 30.20300 26.91300
C  49.19300 29.74000 30.23900
O  49.65300 30.85000 30.49200
C  48.53100 28.88200 31.30000
C  49.49600 28.71800 32.37400
O  50.31700 27.83300 32.62900
O  49.11800 29.60200 33.37900
C  49.74700 29.48500 34.66700
H  45.69400 22.50600 31.36200
H  46.20100 22.36400 24.94800
H  48.84000 28.09900 24.96900
H  48.44500 26.14100 32.96400
H  45.82500 24.47600 32.95000
H  47.84400 22.71300 32.77700
H  47.08500 23.20500 34.25500
H  48.63700 23.97900 33.64600
H  45.91700 27.73300 32.72800
H  47.21900 27.91200 33.83700
H  46.49800 25.85900 35.09800
H  44.90900 26.15300 34.37300
H  46.04900 19.31800 29.45300
H  44.30400 19.76200 29.81700
H  45.63900 20.37300 30.75700
H  45.44700 18.61600 27.57000
H  44.29600 18.27600 26.17300
H  43.74200 19.05200 27.75300
H  46.27500 24.47200 23.22000
H  48.72400 25.90100 23.30600
H  49.03400 23.89700 22.65100
H  47.63300 23.06100 22.16500
H  48.45500 22.54700 23.67300
H  46.79200 27.77800 23.65100
H  45.77700 26.56900 22.92900
H  46.36900 27.37300 20.98800
H  48.01100 26.61300 21.16100
H  47.75000 28.37800 21.57800
H  49.36300 31.09200 27.42500
H  49.54600 30.29600 25.84300
H  50.80700 30.06800 27.02200
H  47.60300 29.36400 31.60700
H  49.25800 28.78500 35.34400
H  49.90500 30.43600 35.17600
H  50.81100 29.28700 34.53600
Mg -10.82500 39.06900 40.97400
C  -9.62400 35.94800 40.03200
C  -7.99000 40.44600 39.56600
C  -12.25700 42.07400 41.26600
C  -13.87700 37.60600 41.66600
N  -9.03800 38.25900 39.82700
C  -8.67800 36.97300 39.77600
C  -7.34000 36.71600 39.07000
C  -6.72700 38.15100 39.21300
C  -7.97400 39.04400 39.51100
C  -5.80600 38.38200 40.42700
C  -7.39100 36.14600 37.66400
C  -6.20800 35.25300 37.25700
H  -5.57800 35.51300 35.92200
N  -10.15700 41.02000 40.50000
C  -8.98400 41.35800 39.96100
C  -8.89500 42.79700 39.91300
C  -10.11500 43.40900 40.42400
C  -10.91200 42.13600 40.76200
C  -7.66000 43.47700 39.37100
C  -10.37700 44.86800 40.56000
O  -9.59400 45.71000 40.24100
C  -11.72500 45.30700 40.99500
N  -12.81300 39.78500 41.32400
C  -13.11900 41.06900 41.56300
C  -14.52400 41.26200 42.15400
C  -15.13600 39.84100 42.10500
C  -13.88800 39.02300 41.62300
C  -14.57400 41.90000 43.52700
C  -16.36900 39.75400 41.20000
C  -17.32200 38.57900 41.47400
N  -11.67400 37.12500 40.87000
C  -12.89100 36.62400 41.26500
C  -12.85800 35.20300 41.23600
C  -11.53600 34.87400 40.77800
C  -10.89900 36.07800 40.54300
C  -13.92600 34.29000 41.58300
C  -10.65400 33.80300 40.52500
O  -10.72400 32.58500 40.65200
C  -9.42100 34.44100 40.02200
C  -8.23900 33.97700 40.73100
O  -7.41100 33.18800 40.32000
O  -8.14000 34.56500 41.98600
C  -6.89300 34.28000 42.84500
H  -7.12300 40.90700 39.08700
H  -12.67700 43.02800 41.59100
H  -14.85100 37.25800 42.01600
H  -6.76300 36.06700 39.72800
H  -6.13700 38.49500 38.36400
H  -5.18500 39.27800 40.39600
H  -5.18300 37.48800 40.46400
H  -6.34800 38.51600 41.36300
H  -7.45000 37.00200 36.99200
H  -8.27200 35.57600 37.37000
H  -6.57000 34.22600 37.22100
H  -5.49600 35.29900 38.08100
H  -7.69700 44.56500 39.31700
H  -7.41000 43.13900 38.36500
H  -6.82700 43.18400 40.01100
H  -12.51600 44.96100 40.33100
H  -11.73000 46.39200 40.89100
H  -11.98700 45.04600 42.02000
H  -15.16000 41.78300 41.43900
H  -15.43200 39.56700 43.11700
H  -15.55200 42.38200 43.51800
H  -13.87000 42.68300 43.81200
H  -14.56800 41.21200 44.37200
H  -16.01600 39.61100 40.17900
H  -16.93500 40.68400 41.25200
H  -18.26600 38.99900 41.82100
H  -16.90700 37.90100 42.22000
H  -17.56500 38.07800 40.53700
H  -14.64200 34.40500 40.77000
H  -14.53500 34.75200 42.36000
H  -13.58000 33.26300 41.70200
H  -9.30500 34.09600 38.99500
H  -5.99300 34.74900 42.44700
H  -6.62000 33.22600 42.89800
H  -6.97300 34.61500 43.87900

