158

Mg 40.32600 7.36900 29.43500
C  41.95700 9.33000 31.89300
C  38.15400 6.20700 31.73100
C  38.79300 5.93100 26.86900
C  42.96100 8.30500 27.22100
N  40.07000 7.80300 31.55700
C  40.91800 8.54600 32.42900
C  40.42900 8.50100 33.91400
C  39.29700 7.38200 33.84200
C  39.14500 7.09200 32.27300
C  39.67800 6.14000 34.64100
C  39.97300 9.86800 34.53500
C  39.07700 9.78300 35.84300
H  39.45300 10.75100 36.98700
N  38.71300 6.23300 29.25800
C  37.89200 5.91100 30.33400
C  36.78700 5.15800 29.89000
C  36.91500 5.09000 28.46500
C  38.19200 5.71400 28.12700
C  35.62200 4.65300 30.74700
C  35.96300 4.52400 27.47400
O  36.25500 4.39900 26.29800
C  34.57700 4.04200 27.88900
N  40.95700 6.98300 27.36300
C  40.02400 6.51900 26.49900
C  40.53800 6.45700 25.04600
C  41.92700 7.07300 25.12000
C  41.97800 7.53700 26.63600
C  40.45900 4.99400 24.45500
C  42.28700 8.29200 24.14900
C  41.45400 9.62200 24.43200
N  42.09200 8.50300 29.50100
C  43.06800 8.77500 28.51500
C  43.98800 9.77100 29.01800
C  43.58300 9.97700 30.30100
C  42.43400 9.22300 30.55200
C  45.04000 10.42400 28.17000
C  43.88600 10.78000 31.47900
O  44.80400 11.57700 31.63100
C  42.91700 10.35100 32.57900
C  43.74100 9.62500 33.61300
O  44.33900 8.50600 33.54100
O  43.76200 10.44300 34.75900
C  44.26800 9.84600 36.00800
H  37.51200 5.68200 32.44100
H  38.25900 5.60900 25.97300
H  43.74600 8.70400 26.57600
H  41.30400 8.23200 34.50600
H  38.33800 7.78700 34.16600
H  39.23600 6.18600 35.63600
H  40.76200 6.16600 34.75600
H  39.31700 5.13800 34.41100
H  39.48900 10.31300 33.66600
H  40.83800 10.45100 34.85100
H  38.74100 8.80100 36.17400
H  38.18600 10.26600 35.44000
H  35.63800 4.86300 31.81600
H  35.64600 3.57000 30.63000
H  34.70100 5.13200 30.41300
H  34.04500 3.52800 27.08800
H  34.14000 5.00500 28.15200
H  34.72800 3.33600 28.70600
H  39.75200 7.04500 24.57200
H  42.76900 6.38300 25.06900
H  41.47500 4.67900 24.21800
H  39.79600 5.04300 23.59000
H  40.10300 4.30600 25.22100
H  41.98900 8.02100 23.13600
H  43.34100 8.57200 24.14400
H  40.82000 9.55400 25.31600
H  40.85300 9.68600 23.52500
H  42.02100 10.54400 24.56000
H  45.84700 9.69700 28.08500
H  45.29700 11.26000 28.82000
H  44.67000 10.75700 27.20100
H  42.39000 11.21200 32.99000
H  45.00300 9.07300 35.78400
H  43.58200 9.30900 36.66300
H  44.82500 10.59200 36.57500
Mg 45.43600 25.02100 28.33100
C  46.16300 27.03300 31.09800
C  44.48600 22.53100 30.43500
C  45.38800 22.88800 25.67000
C  46.74000 27.45500 26.22200
N  45.46200 24.81600 30.56800
C  45.68200 25.77700 31.50600
C  45.41700 25.30000 32.97800
C  44.99400 23.79600 32.70700
C  44.99900 23.67900 31.11600
C  45.73600 22.75200 33.48100
C  44.53200 26.11300 34.01700
C  45.11500 26.62800 35.34200
H  44.15800 26.82700 36.49200
N  45.09800 22.97200 28.07100
C  44.61500 22.14000 29.03800
C  44.28700 20.86300 28.47800
C  44.66400 20.92300 27.12000
C  45.02000 22.28100 26.90900
C  43.55800 19.82200 29.33100
C  44.64400 19.81600 26.07900
O  45.19200 19.85900 24.98000
C  43.97700 18.49100 26.48900
N  46.04900 25.15900 26.22400
C  45.86600 24.15500 25.39300
C  46.15900 24.54600 23.98200
C  46.43600 26.07100 24.09600
C  46.44100 26.26000 25.58700
C  47.33000 23.78500 23.32000
C  45.36700 26.92200 23.32800
C  45.95400 27.62600 22.07500
N  46.30000 26.91200 28.49400
C  46.82200 27.79300 27.58700
C  47.37900 28.97000 28.22500
C  47.11400 28.82000 29.60800
C  46.50000 27.46300 29.70600
C  47.91300 30.08400 27.52300
C  47.40400 29.31000 30.94700
O  48.04300 30.29400 31.33600
C  46.68200 28.22000 31.97100
C  47.74600 27.87300 32.90700
O  48.68100 27.06300 32.78000
O  47.53600 28.60900 34.04800
C  48.45100 28.34900 35.15300
H  44.32500 21.75900 31.19000
H  45.35700 22.20100 24.82100
H  47.14100 28.23400 25.57000
H  46.41900 25.43700 33.38600
H  43.97100 23.51900 32.96400
H  46.21600 22.13200 32.72400
H  45.03400 22.23600 34.13500
H  46.51000 23.21400 34.09400
H  43.62400 25.57300 34.28400
H  44.19700 27.03800 33.54700
H  45.38000 27.68200 35.26300
H  45.99300 26.05900 35.64600
H  42.78500 19.25800 28.80800
H  43.25800 20.29200 30.26800
H  44.24700 19.10700 29.78000
H  44.51500 17.92600 27.24900
H  44.14600 17.88600 25.59800
H  42.90400 18.55100 26.67400
H  45.33200 24.25400 23.33600
H  47.42300 26.32600 23.71100
H  48.26700 24.34200 23.34800
H  47.09800 23.67400 22.26100
H  47.66600 22.84000 23.74700
H  45.10100 27.78600 23.93700
H  44.45400 26.42700 22.99600
H  45.41900 27.40600 21.15100
H  47.01400 27.44000 21.90100
H  45.89100 28.71100 22.16600
H  47.69200 30.98700 28.09000
H  47.49000 30.02600 26.52000
H  48.97600 29.85800 27.43600
H  45.78000 28.57700 32.46800
H  49.49600 28.12700 34.93600
H  48.06500 27.54500 35.77900
H  48.25600 29.21900 35.78100

