158

Mg 43.31900 3.56200 47.32100
C  41.44400 6.57400 47.26300
C  40.44100 1.81000 47.27000
C  45.25200 0.94500 46.57800
C  46.26200 5.69000 46.88700
N  41.16700 4.19300 47.17200
C  40.63300 5.42600 47.25500
C  39.11000 5.26900 47.38600
C  38.87500 3.73700 47.60200
C  40.23900 3.20600 47.30500
C  38.29400 3.31700 48.98200
C  38.23500 5.97200 46.27600
C  38.93400 5.93200 44.90700
H  37.99300 6.38500 43.72800
N  42.90200 1.67500 46.92700
C  41.66800 1.07900 47.05400
C  41.82300 -0.36100 46.94700
C  43.18400 -0.65400 46.56700
C  43.84800 0.69200 46.67600
C  40.61000 -1.27700 47.09000
C  43.83100 -2.00200 46.24200
O  43.11700 -3.01500 46.28700
C  45.32700 -2.18900 45.85500
N  45.47700 3.43900 46.53200
C  45.99100 2.10100 46.65300
C  47.55000 2.20200 46.62500
C  47.85100 3.66900 46.49300
C  46.46800 4.32600 46.64400
C  48.17400 1.60900 47.95000
C  48.64600 3.98100 45.24000
C  49.92400 4.73300 45.40200
N  43.81600 5.62000 47.23900
C  45.03000 6.30800 47.12900
C  44.79300 7.76000 47.36600
C  43.38000 7.89200 47.32600
C  42.83900 6.59800 47.21200
C  45.79100 8.89100 47.51900
C  42.31900 8.86400 47.37900
O  42.31500 10.03000 47.66700
C  41.01000 8.03800 47.29400
C  40.13500 8.34400 48.51300
O  40.27300 7.95000 49.65000
O  39.21100 9.23800 48.04100
C  38.14100 9.43300 49.05600
H  39.47100 1.33800 47.43700
H  45.90500 0.07500 46.68500
H  47.13300 6.34400 46.81500
H  38.76000 5.80600 48.26800
H  38.20500 3.33800 46.84100
H  39.05800 2.99100 49.68900
H  37.52200 2.58600 48.74400
H  37.82900 4.23700 49.33700
H  38.23400 7.04200 46.48400
H  37.25500 5.51000 46.16100
H  39.20200 4.90800 44.64800
H  39.73000 6.67200 44.98600
H  40.28900 -1.63300 46.11100
H  39.75000 -0.77500 47.53400
H  40.72800 -2.14200 47.74200
H  45.90700 -2.09900 46.77400
H  45.61300 -1.52000 45.04400
H  45.46400 -3.19500 45.45800
H  47.89200 1.62800 45.76400
H  48.48400 4.00000 47.31600
H  48.53000 0.59200 47.78700
H  47.49700 1.73300 48.79600
H  49.03100 2.19800 48.27800
H  47.93300 4.56500 44.65800
H  48.99300 3.10800 44.68700
H  50.74300 4.17700 44.94700
H  50.21700 4.89500 46.43900
H  50.10900 5.67300 44.88200
H  45.27100 9.80100 47.81900
H  46.20300 8.92500 46.51100
H  46.55700 8.64900 48.25500
H  40.42500 8.34200 46.42600
H  38.44000 9.75000 50.05500
H  37.52300 8.54900 49.21300
H  37.38000 10.11000 48.66900
Mg 42.29900 41.62200 25.76800
C  41.26200 43.90800 28.18400
C  43.51200 39.68900 28.34500
C  43.55100 39.50000 23.44100
C  41.64900 44.05100 23.25800
N  42.20900 41.67600 28.02900
C  41.72500 42.70500 28.81800
C  41.91300 42.44600 30.35000
C  42.95200 41.27000 30.23700
C  42.89800 40.84500 28.82500
C  44.38700 41.70800 30.68900
C  40.58500 42.18700 31.05600
C  40.33400 43.00400 32.35900
H  41.27600 42.74300 33.51100
N  43.21000 39.82600 25.89000
C  43.65000 39.21000 27.01400
C  44.41700 38.03700 26.63900
C  44.34600 37.85600 25.23100
C  43.68800 39.10500 24.78900
C  45.17000 37.18600 27.65700
C  44.84500 36.71500 24.34700
O  44.88000 36.82000 23.09900
C  45.21800 35.33700 24.98700
N  42.50900 41.72900 23.62100
C  43.02000 40.68600 22.93400
C  42.93600 40.96600 21.43800
C  42.31400 42.38600 21.39800
C  42.13600 42.79300 22.84800
C  44.21400 40.79400 20.66100
C  40.93100 42.34200 20.79800
C  39.80800 41.55600 21.42000
N  41.51500 43.51300 25.66300
C  41.31400 44.43700 24.61000
C  40.86000 45.64000 25.13500
C  40.64800 45.49900 26.51800
C  41.21100 44.17800 26.82200
C  40.67600 46.96000 24.37800
C  40.31000 46.15800 27.73700
O  39.85200 47.31100 27.90900
C  40.72900 45.13800 28.88000
C  41.66900 45.75600 29.85500
O  42.86700 45.68900 29.86500
O  40.87100 46.34000 30.82000
C  41.75600 46.86800 31.93200
H  44.06200 39.11600 29.09400
H  44.04400 38.92400 22.65500
H  41.51700 44.84800 22.52400
H  42.34600 43.26500 30.92400
H  42.61600 40.48800 30.91900
H  45.03800 41.70500 29.81400
H  44.67900 40.93700 31.40300
H  44.43900 42.68100 31.17700
H  40.48700 41.12600 31.28900
H  39.78200 42.55500 30.41700
H  39.31600 42.74000 32.64300
H  40.28300 44.08100 32.20000
H  44.45300 36.43900 27.99800
H  45.57800 37.80500 28.45500
H  46.01300 36.66100 27.20800
H  44.56300 35.12900 25.83400
H  46.28500 35.37800 25.20700
H  44.98700 34.53900 24.28200
H  42.29800 40.19400 21.00800
H  42.89700 43.21700 21.00000
H  44.93400 41.58600 20.86400
H  44.00900 40.83300 19.59100
H  44.60500 39.80900 20.91800
H  41.06500 42.04500 19.75800
H  40.46800 43.32800 20.77000
H  39.46000 40.77200 20.74800
H  38.94200 42.20400 21.55900
H  40.11300 41.16500 22.39100
H  40.45700 47.76300 25.08200
H  39.78000 47.01300 23.76000
H  41.55300 47.09500 23.74500
H  39.80100 44.88000 29.38900
H  41.99000 45.89500 32.36400
H  41.08100 47.36900 32.62600
H  42.49100 47.54700 31.49900

