158

Mg 8.32300 2.97500 28.00600
C  9.95600 1.64400 30.91700
C  6.42900 4.86300 30.15500
C  6.90700 4.07800 25.26200
C  10.21000 0.65900 26.10300
N  8.21800 3.12500 30.30200
C  9.04600 2.64500 31.23100
C  8.73000 3.24200 32.61400
C  7.46400 4.15100 32.33100
C  7.39400 4.08500 30.85400
C  6.19000 3.80000 33.01600
C  9.98400 4.01100 33.20400
C  9.78400 4.65400 34.58300
H  10.73900 4.29800 35.77200
N  6.83100 4.30800 27.77700
C  6.17900 5.03200 28.75600
C  5.25700 6.01000 28.04000
C  5.41900 5.70700 26.66300
C  6.36100 4.60300 26.50900
C  4.29900 7.02300 28.73900
C  4.64100 6.37900 25.44100
O  4.70600 6.04800 24.23400
C  3.81200 7.55700 25.70300
N  8.66000 2.53300 25.97300
C  7.90200 3.13300 25.00300
C  8.43800 2.73500 23.62300
C  9.42300 1.59200 23.86400
C  9.49000 1.61000 25.38900
C  7.36200 2.32100 22.61300
C  10.75600 1.68900 23.08500
C  11.06200 0.45200 22.25900
N  9.70900 1.43900 28.38700
C  10.44000 0.57400 27.51700
C  11.22500 -0.33300 28.27100
C  11.11300 0.05800 29.59800
C  10.18600 1.13400 29.64000
C  12.04800 -1.39000 27.73200
C  11.58300 -0.17600 30.95700
O  12.41700 -0.94100 31.39600
C  10.90000 0.90400 31.85300
C  10.14600 0.11400 32.88400
O  9.02800 -0.41100 32.71400
O  10.93300 -0.03900 33.96200
C  10.48700 -0.85900 35.05200
H  5.83500 5.54900 30.76300
H  6.48600 4.45100 24.32600
H  10.77500 -0.13200 25.60600
H  8.56600 2.34000 33.20300
H  7.69500 5.18200 32.59800
H  6.40400 3.28200 33.95100
H  5.63600 3.05400 32.44700
H  5.58300 4.68100 33.22400
H  10.14500 4.73700 32.40600
H  10.87100 3.38000 33.18200
H  8.79600 4.61000 35.04100
H  10.09300 5.65900 34.29300
H  4.33000 6.97000 29.82700
H  3.26600 6.78400 28.48900
H  4.64800 8.03000 28.51200
H  3.38500 8.02000 24.81400
H  4.52700 8.31100 26.03300
H  2.98600 7.22900 26.33500
H  8.97800 3.55100 23.14300
H  8.91400 0.66200 23.61200
H  7.44900 1.27400 22.32400
H  7.40000 2.94300 21.71800
H  6.32800 2.35200 22.95800
H  11.56400 1.76300 23.81200
H  10.70400 2.50200 22.36000
H  10.22600 0.02400 21.70400
H  11.55900 -0.35400 22.79900
H  11.89000 0.74000 21.61200
H  12.50700 -1.11900 26.78100
H  11.31900 -2.18100 27.55700
H  12.86700 -1.60500 28.41800
H  11.63300 1.55700 32.32500
H  9.99300 -0.36900 35.89200
H  11.34900 -1.35200 35.50300
H  9.89900 -1.75200 34.84100
Mg 4.89400 54.71200 39.69600
C  5.32700 51.27900 39.00200
C  7.92100 55.27600 38.26000
C  4.06700 57.92600 39.69400
C  1.76700 53.86600 41.02700
N  6.28400 53.45900 38.62800
C  6.26600 52.06800 38.42200
C  7.47000 51.71300 37.54800
C  8.53000 52.71900 38.07100
C  7.56900 53.90800 38.31000
C  9.21300 52.36100 39.43400
C  7.17000 51.93100 36.03700
C  7.40400 50.69200 35.13100
H  6.37200 50.48300 34.01400
N  5.86200 56.45200 39.05100
C  7.09800 56.41400 38.44500
C  7.41800 57.74900 38.08500
C  6.32800 58.58100 38.52300
C  5.32900 57.70400 39.11200
C  8.61000 58.17200 37.26900
C  6.18600 60.14000 38.22000
O  7.10200 60.75500 37.62300
C  4.84600 60.89000 38.37800
N  3.09500 55.67300 40.12600
C  3.03200 57.04700 40.07700
C  1.71600 57.57800 40.74600
C  0.83200 56.27100 40.99000
C  1.94900 55.15300 40.72800
C  1.88500 58.46500 41.95500
C  -0.41500 56.14900 40.11500
C  -1.74900 55.97300 40.80800
N  3.66800 52.90100 40.06100
C  2.49100 52.71900 40.71000
C  2.30900 51.27600 40.95600
C  3.40400 50.63300 40.25800
C  4.15800 51.65300 39.70900
C  1.23000 50.58900 41.82700
C  4.12200 49.40200 39.95800
O  3.79500 48.23200 40.26500
C  5.42400 49.72200 39.15400
C  5.38500 48.98200 37.85800
O  4.51900 49.08700 36.98000
O  6.48000 48.12700 37.84000
C  6.44800 47.16700 36.65300
H  8.95900 55.52600 38.02800
H  3.69500 58.95200 39.64600
H  0.95900 53.62900 41.72200
H  7.79800 50.71700 37.84500
H  9.29700 53.02900 37.36100
H  9.19700 51.29900 39.67800
H  8.72200 53.02000 40.15100
H  10.22900 52.75100 39.37700
H  7.88800 52.64500 35.63400
H  6.11200 52.17500 35.94300
H  7.43200 49.78100 35.72800
H  8.40400 50.83300 34.72100
H  8.19200 58.81900 36.49700
H  9.02200 57.32000 36.72900
H  9.42800 58.50000 37.91100
H  4.93900 61.77600 37.75000
H  4.74700 61.14100 39.43400
H  3.93100 60.36700 38.10000
H  1.20200 58.13600 39.96300
H  0.58600 56.25300 42.05200
H  1.56400 59.44000 41.58900
H  2.92700 58.49500 42.27400
H  1.25200 58.18700 42.79800
H  -0.11600 55.25800 39.56200
H  -0.52800 56.93100 39.36400
H  -2.60600 56.33100 40.23800
H  -1.81500 56.40800 41.80500
H  -1.80300 54.89200 40.93900
H  1.28900 50.48100 42.91000
H  1.09000 49.54900 41.53100
H  0.26500 51.05200 41.61900
H  6.33600 49.41500 39.66600
H  6.79600 46.31100 37.23100
H  7.17300 47.38000 35.86900
H  5.46700 46.89500 36.26300

