158

Mg 49.66100 35.20800 28.01000
C  47.68100 33.65500 30.53600
C  49.86800 37.98900 30.01700
C  51.41900 36.70600 25.50400
C  48.98900 32.46800 25.90500
N  48.89200 35.64700 30.13100
C  48.27700 34.86500 31.00600
C  48.37200 35.41300 32.42400
C  48.78300 36.91900 32.13900
C  49.24800 36.87300 30.67300
C  47.75900 38.05900 32.63000
C  49.51500 34.58400 33.10700
C  49.48800 34.36800 34.61600
H  48.56800 35.21600 35.48700
N  50.57000 37.06600 27.86600
C  50.44700 38.08900 28.75100
C  51.12300 39.32200 28.19400
C  51.71400 38.92800 26.95100
C  51.20700 37.50000 26.67500
C  51.23500 40.66100 29.06500
C  52.73900 39.62700 26.03800
O  53.33800 39.08700 25.14100
C  53.28200 41.00200 26.43300
N  49.89000 34.75700 25.87000
C  50.90000 35.42700 25.17700
C  51.50100 34.57700 24.01100
C  50.68200 33.26700 24.04700
C  49.78900 33.45900 25.32000
C  51.45200 35.40500 22.66600
C  51.57400 31.98500 24.07900
C  50.98000 30.78900 23.36700
N  48.57500 33.44000 28.11000
C  48.35800 32.46900 27.16400
C  47.37200 31.59900 27.68000
C  47.08800 32.03300 29.02600
C  47.86100 33.15400 29.18100
C  46.91900 30.29600 26.95300
C  46.30400 31.71800 30.13400
O  45.50000 30.81100 30.30300
C  46.72800 32.73700 31.24300
C  47.48000 32.04600 32.34100
O  48.38600 31.25800 32.05700
O  47.02600 32.26400 33.57500
C  47.37500 31.21200 34.58000
H  49.93600 38.86600 30.66500
H  51.97700 37.13000 24.66600
H  48.78800 31.59200 25.28500
H  47.43300 35.25100 32.95400
H  49.66800 37.15500 32.73100
H  48.08700 38.43000 33.60100
H  46.74800 37.66200 32.73200
H  47.80800 38.88500 31.92100
H  50.40800 35.20600 33.04700
H  49.60600 33.63900 32.57200
H  50.49400 34.51100 35.01200
H  49.17500 33.34200 34.81200
H  50.65300 40.72200 29.98400
H  50.81100 41.41400 28.40000
H  52.26700 40.84600 29.36300
H  52.50700 41.71100 26.72400
H  53.78700 41.39600 25.55100
H  53.80300 40.70300 27.34200
H  52.54300 34.49400 24.32000
H  50.02800 33.21100 23.17600
H  50.88300 34.78800 21.97000
H  52.48500 35.60500 22.38100
H  50.98000 36.38200 22.76600
H  51.68200 31.75900 25.14000
H  52.58300 32.10400 23.68400
H  51.75700 30.24700 22.82900
H  50.11700 31.09200 22.77300
H  50.60100 30.16400 24.17500
H  47.72100 29.93200 26.31100
H  45.97000 30.53000 26.46900
H  46.74800 29.56700 27.74400
H  45.85000 33.28700 31.58300
H  47.08100 30.21100 34.26500
H  46.99200 31.47200 35.56800
H  48.45400 31.14200 34.71300
Mg 5.21700 53.90800 42.41400
C  4.58500 50.33600 41.63000
C  8.30500 53.42700 41.33200
C  5.57300 57.19500 42.74800
C  1.84400 54.06800 43.44600
N  6.24100 52.08900 41.40300
C  5.88700 50.77500 41.32900
C  7.05000 49.98000 40.77200
C  8.30100 50.96700 40.90300
C  7.56100 52.25300 41.16300
C  9.39900 50.64700 41.97900
C  6.88600 49.56200 39.30900
C  6.16000 50.37700 38.17800
H  7.02200 50.62500 36.90700
N  6.81300 55.13600 42.15800
C  8.01800 54.77400 41.76600
C  8.89400 55.83800 41.77100
C  8.08800 56.95400 42.13600
C  6.73300 56.45800 42.33100
C  10.33500 55.79900 41.26800
C  8.62000 58.38400 42.34200
O  9.78200 58.63000 41.94900
C  7.90700 59.49400 43.03100
N  3.81600 55.40400 42.88800
C  4.29200 56.67200 43.07700
C  3.15700 57.58300 43.51500
C  1.95100 56.63300 43.47700
C  2.54200 55.23800 43.29100
C  3.41000 58.34400 44.85900
C  0.76400 56.98800 42.40900
C  -0.06700 58.26500 42.78300
N  3.55800 52.50300 42.48500
C  2.32400 52.78500 43.02500
C  1.53700 51.56700 43.11800
C  2.40600 50.56900 42.56200
C  3.62300 51.20200 42.20800
C  -0.00600 51.57100 43.51000
C  2.53300 49.16700 42.22000
O  1.71800 48.28100 42.31800
C  3.88700 48.98600 41.60300
C  3.89300 48.33100 40.26700
O  3.34300 48.79700 39.29200
O  4.52900 47.12500 40.33600
C  4.62400 46.34000 39.12700
H  9.37800 53.28600 41.19100
H  5.81300 58.21600 43.05100
H  0.81400 54.22900 43.77100
H  7.20500 49.06600 41.34600
H  8.78300 51.16000 39.94500
H  9.05600 49.78400 42.55100
H  9.62500 51.47200 42.65400
H  10.28700 50.38300 41.40500
H  6.28900 48.65700 39.42200
H  7.82200 49.16700 38.91300
H  5.89600 51.35700 38.57500
H  5.24500 49.98200 37.73700
H  11.00400 56.47900 41.79600
H  10.41800 56.00800 40.20200
H  10.82700 54.84800 41.47300
H  8.62600 60.31000 43.09800
H  7.63300 59.23600 44.05400
H  7.03100 59.75100 42.43500
H  3.08200 58.37900 42.77500
H  1.45100 56.55000 44.44300
H  3.96900 59.27100 44.73100
H  3.90400 57.63600 45.52400
H  2.51200 58.60800 45.41700
H  0.18800 56.12600 42.07400
H  1.34500 57.45400 41.61300
H  0.05200 58.48600 43.84400
H  -1.12500 58.06700 42.61100
H  0.28400 59.09700 42.17300
H  -0.35500 50.69400 42.96500
H  -0.58000 52.48000 43.33100
H  -0.12200 51.24400 44.54300
H  4.29800 48.28200 42.32700
H  4.32300 46.84800 38.21100
H  4.00500 45.44300 39.14700
H  5.64400 46.04400 38.88300

