158

Mg 7.74900 2.73400 27.44300
C  9.07600 0.90100 30.16400
C  5.86900 4.57700 29.47800
C  6.24100 3.96400 24.73700
C  9.11800 0.26800 25.31300
N  7.53600 2.75800 29.53300
C  8.28100 2.06500 30.48900
C  8.11100 2.73500 31.87700
C  6.94600 3.74400 31.66200
C  6.69100 3.67900 30.12700
C  5.81700 3.65700 32.62900
C  9.39500 3.40800 32.42400
C  9.18600 3.95100 33.82300
H  10.10600 3.51500 34.95700
N  6.21500 4.15400 27.10200
C  5.54500 4.81500 28.12900
C  4.67600 5.81900 27.56400
C  4.78400 5.67900 26.17700
C  5.80300 4.55600 25.95100
C  3.70200 6.62400 28.37600
C  4.00200 6.41500 25.07800
O  4.06200 6.11600 23.88800
C  2.96100 7.45400 25.45000
N  7.55100 2.01600 25.30400
C  6.92100 2.84800 24.44300
C  7.02200 2.29600 23.02500
C  8.01500 1.10100 23.22000
C  8.21700 1.07100 24.71900
C  5.69100 1.70800 22.47000
C  9.32200 1.37900 22.47100
C  9.98000 0.05400 22.13800
N  8.93500 1.07000 27.65600
C  9.41400 0.12300 26.68100
C  10.24800 -0.88600 27.30300
C  10.26600 -0.53200 28.66600
C  9.28100 0.54100 28.85000
C  11.00000 -1.99800 26.63200
C  10.80000 -0.85500 30.00200
O  11.59300 -1.68600 30.44000
C  10.03300 0.15200 31.03400
C  9.33200 -0.67400 32.08100
O  8.44600 -1.44500 31.86100
O  9.84400 -0.34400 33.28900
C  9.49900 -1.19500 34.50000
H  5.34800 5.28700 30.12400
H  5.91600 4.54000 23.86800
H  9.67700 -0.46900 24.73200
H  7.78400 2.01900 32.63100
H  7.41300 4.72100 31.77900
H  4.98200 3.15600 32.14100
H  5.46800 4.68100 32.76400
H  6.10300 3.12100 33.53300
H  9.73500 4.15600 31.70800
H  10.17500 2.64700 32.45600
H  8.15600 3.64000 33.99700
H  9.26100 5.03600 33.74700
H  3.90800 7.69400 28.34500
H  3.75600 6.41600 29.44500
H  2.64500 6.51100 28.13400
H  2.15300 6.93100 25.96200
H  2.58700 8.11600 24.66900
H  3.40000 8.16100 26.15300
H  7.38800 3.08600 22.37000
H  7.53200 0.20000 22.84000
H  4.93400 1.93700 23.22000
H  5.60800 0.64400 22.24900
H  5.39700 2.25800 21.57600
H  9.98000 1.95900 23.11800
H  9.13200 1.94400 21.55800
H  9.34000 -0.79500 22.37900
H  10.95200 0.03500 22.63100
H  10.03100 -0.04400 21.05400
H  11.44500 -1.75600 25.66700
H  10.54700 -2.97700 26.47400
H  11.84900 -2.06000 27.31300
H  10.75500 0.73400 31.60600
H  9.25500 -0.49800 35.30100
H  10.40200 -1.68800 34.85900
H  8.64800 -1.81700 34.22200
Mg 26.94500 50.51400 26.24700
C  25.31300 51.47900 29.19000
C  29.59100 49.45800 28.39800
C  28.82300 49.81600 23.53200
C  24.44400 51.96900 24.40200
N  27.49700 50.60300 28.54200
C  26.46000 50.78400 29.49800
C  26.97000 50.30600 30.88400
C  28.46000 49.93200 30.59300
C  28.49100 49.96800 29.08300
C  29.54100 50.87600 31.16600
C  26.19700 49.08500 31.54500
C  25.44500 49.29700 32.85900
H  26.37100 49.47700 34.05800
N  28.93700 49.76700 26.02500
C  29.84300 49.29700 27.00300
C  31.08600 48.83600 26.37600
C  30.90800 49.05800 24.96600
C  29.51800 49.60400 24.81200
C  32.19900 48.22600 27.15000
C  31.80900 48.88500 23.80800
O  31.54300 49.19900 22.65900
C  33.29700 48.41100 24.09700
N  26.82400 50.98500 24.30400
C  27.59100 50.40600 23.29800
C  26.96300 50.58600 21.89600
C  25.53100 51.13900 22.28900
C  25.61500 51.37300 23.78500
C  27.78400 51.47900 20.91100
C  24.25000 50.48200 21.74400
C  23.29900 51.41700 20.96800
N  25.17700 51.57300 26.70600
C  24.25400 52.07900 25.81800
C  23.13700 52.57300 26.49400
C  23.47900 52.42200 27.84700
C  24.77800 51.77100 27.89800
C  21.92100 53.14600 25.85700
C  23.18100 52.64600 29.15800
O  22.23700 53.20900 29.58100
C  24.19000 51.99200 30.21900
C  24.74700 53.00800 31.17600
O  25.40800 53.99300 30.86900
O  24.29600 52.72600 32.45000
C  24.52000 53.81100 33.43300
H  30.34900 49.11100 29.10400
H  29.24800 49.43500 22.60100
H  23.66400 52.35000 23.74000
H  27.00400 51.12900 31.59800
H  28.67600 48.91200 30.91100
H  30.25200 50.41500 31.85200
H  29.13800 51.70700 31.74500
H  30.06500 51.30400 30.31200
H  26.89400 48.26400 31.71100
H  25.49200 48.64800 30.83800
H  24.85300 48.38600 32.94100
H  24.76200 50.14500 32.81400
H  32.13100 48.15400 28.23600
H  33.16200 48.71900 27.02200
H  32.24000 47.15500 26.95400
H  33.81400 49.34700 24.31000
H  33.80200 47.84600 23.31400
H  33.45400 47.88800 25.04000
H  26.94100 49.57800 21.48300
H  25.58300 52.10700 21.79100
H  28.53800 52.03300 21.47000
H  27.24300 52.21900 20.32200
H  28.30200 50.88200 20.16000
H  23.66600 50.12200 22.59100
H  24.55800 49.57900 21.21700
H  23.83900 51.64700 20.04900
H  23.09900 52.36700 21.46300
H  22.36400 50.90000 20.74900
H  21.70000 52.58500 24.94900
H  22.08000 54.18200 25.55600
H  21.15000 53.08500 26.62500
H  23.65200 51.23900 30.79500
H  24.76800 54.79400 33.03500
H  25.46600 53.52800 33.89600
H  23.77000 53.77100 34.22400

