158

Mg 53.32500 24.39400 43.37700
C  50.54000 26.49700 42.99600
C  51.37400 21.72800 42.37100
C  56.19500 22.67300 42.80300
C  55.17400 27.27500 44.10900
N  51.25100 24.16000 42.65500
C  50.31600 25.17900 42.60700
C  48.91400 24.60000 42.19900
C  49.11600 23.03800 42.38300
C  50.65700 22.95400 42.47100
C  48.43000 22.47000 43.71300
C  48.42900 25.06800 40.81300
C  49.40600 25.40100 39.64900
H  49.02700 24.96000 38.23200
N  53.76500 22.47400 42.79400
C  52.77200 21.49500 42.50800
C  53.43600 20.24000 42.24900
C  54.85900 20.37400 42.53600
C  55.02700 21.92200 42.74000
C  52.70500 18.88800 41.88500
C  55.80600 19.27900 42.62300
O  55.51500 18.12400 42.29600
C  57.28500 19.47100 43.01300
N  55.39700 24.89400 43.30000
C  56.37200 24.01800 43.04200
C  57.72700 24.64500 43.41000
C  57.42200 26.17700 43.72000
C  55.93500 26.15900 43.71100
C  58.32900 23.84600 44.65100
C  58.07200 27.11400 42.59200
C  57.90100 26.79100 41.07700
N  52.93900 26.39600 43.71400
C  53.76200 27.44500 44.06300
C  52.94700 28.62500 44.37200
C  51.69200 28.26900 43.94900
C  51.75600 26.92800 43.49400
C  53.44100 29.88300 44.93000
C  50.31000 28.68700 43.90800
O  49.90400 29.79300 44.21800
C  49.44700 27.69200 43.10900
C  49.22100 28.32800 41.84900
O  50.02800 28.62300 40.97400
O  47.83200 28.57400 41.79700
C  47.24800 28.91000 40.48500
H  50.80600 20.86100 42.02600
H  57.18700 22.21900 42.75500
H  55.78700 28.15700 44.30400
H  48.24900 25.14500 42.86800
H  48.77200 22.43000 41.54600
H  47.63100 23.17000 43.95700
H  49.14600 22.34900 44.52600
H  47.86700 21.59700 43.38100
H  47.98500 26.05000 40.97100
H  47.72300 24.30600 40.48000
H  50.41700 25.12500 39.94800
H  49.34300 26.48800 39.60000
H  52.84000 18.75900 40.81200
H  51.65800 19.00100 42.16600
H  53.07600 18.00700 42.40900
H  57.63200 18.61500 43.59000
H  57.24500 20.27300 43.75100
H  57.93700 19.75400 42.18600
H  58.49400 24.47100 42.65500
H  57.69300 26.42300 44.74600
H  58.68600 24.56800 45.38500
H  59.14600 23.22800 44.28000
H  57.51300 23.25600 45.07100
H  59.14600 27.07800 42.77200
H  57.73300 28.12600 42.81200
H  57.59800 27.74800 40.65300
H  57.16100 26.03200 40.82500
H  58.87800 26.48800 40.70100
H  53.89300 30.51500 44.16500
H  54.04600 29.63100 45.80100
H  52.62200 30.45900 45.36100
H  48.52400 27.42700 43.62300
H  47.64900 29.88800 40.21700
H  46.16300 28.92000 40.58800
H  47.42500 28.16100 39.71300
Mg 26.98600 50.39300 26.20000
C  24.66800 51.31100 28.70100
C  29.13900 49.40200 28.74700
C  29.22000 49.89700 23.89900
C  24.81800 51.96300 23.75400
N  26.92300 50.41600 28.50900
C  25.78600 50.67700 29.27400
C  26.02100 50.51600 30.76100
C  27.47500 49.90200 30.73400
C  27.85500 49.78800 29.26100
C  28.55000 50.66100 31.60000
C  24.89200 49.50200 31.40000
C  24.23600 49.86000 32.72700
H  25.15300 50.57000 33.77800
N  28.93000 49.75400 26.25900
C  29.59900 49.39900 27.39100
C  30.99100 49.07100 26.98900
C  31.04000 49.18200 25.58500
C  29.72500 49.61400 25.16400
C  32.07000 48.63700 27.97300
C  32.21500 48.88600 24.64000
O  32.14100 49.07600 23.41500
C  33.43600 48.26400 25.07800
N  27.03700 51.02700 24.13800
C  28.08200 50.58200 23.39100
C  27.77500 50.65800 21.91100
C  26.24000 50.98300 21.86700
C  25.97500 51.31400 23.35800
C  28.66800 51.66300 21.13700
C  25.28800 49.84200 21.34900
C  23.98100 50.43300 20.85200
N  25.16100 51.50100 26.16200
C  24.42800 52.09200 25.10900
C  23.18100 52.55000 25.62300
C  23.28000 52.31800 27.08800
C  24.46400 51.61600 27.34600
C  22.09000 53.21200 24.88300
C  22.60000 52.60300 28.25800
O  21.59200 53.30900 28.44800
C  23.35600 51.83600 29.31000
C  23.49000 52.77200 30.57100
O  24.51400 53.42400 30.79900
O  22.33500 52.66200 31.28400
C  22.39700 53.32200 32.63100
H  29.80100 49.09600 29.56100
H  29.94900 49.48400 23.20000
H  24.04000 52.22300 23.03400
H  26.01300 51.51300 31.20300
H  27.41600 48.85800 31.03900
H  29.32300 51.18700 31.04000
H  28.98300 49.92700 32.28000
H  28.08600 51.38000 32.27600
H  25.40200 48.55100 31.55500
H  24.08700 49.39000 30.67300
H  23.90800 48.93100 33.19300
H  23.27900 50.34700 32.54100
H  32.51100 47.67200 27.72300
H  31.58700 48.68400 28.94900
H  32.87400 49.36900 27.90500
H  33.31600 47.31300 25.59600
H  33.84900 48.97700 25.79100
H  34.06300 48.21800 24.18700
H  27.82100 49.66800 21.45700
H  26.08100 51.87800 21.26600
H  29.62200 51.78000 21.65000
H  28.18500 52.61700 20.92900
H  28.83600 51.22200 20.15500
H  25.04300 49.11400 22.12300
H  25.68600 49.31600 20.48100
H  23.99100 51.51500 20.72400
H  23.20300 50.17100 21.57000
H  23.80200 50.07100 19.84000
H  22.63300 53.79700 24.14000
H  21.54900 54.00300 25.40300
H  21.36300 52.53400 24.43600
H  22.78200 50.98500 29.67800
H  22.89700 52.59700 33.27300
H  21.41300 53.53700 33.04800
H  22.95300 54.25800 32.59500

