158

Mg 55.28300 25.00300 44.03000
C  52.33500 26.73900 43.12800
C  53.97900 22.12600 42.79500
C  58.33600 23.51300 44.47200
C  56.71000 28.06800 45.27100
N  53.47400 24.59300 42.81100
C  52.42400 25.40800 42.62400
C  51.38900 24.70900 41.70400
C  51.66900 23.24500 42.14300
C  53.20800 23.27200 42.49600
C  50.77200 22.84700 43.37100
C  51.75400 24.90700 40.16400
C  50.54000 25.16900 39.24700
H  50.87600 25.90500 37.93400
N  56.01100 23.06200 43.79700
C  55.28200 22.04200 43.38300
C  56.00300 20.76800 43.50200
C  57.29600 21.13200 44.00300
C  57.28900 22.62800 44.09300
C  55.46400 19.44100 43.12900
C  58.43100 20.13400 44.30900
O  58.35000 18.94300 44.08500
C  59.75100 20.54700 44.98300
N  57.29100 25.71900 44.68300
C  58.38600 24.91000 44.70000
C  59.68500 25.71900 45.00900
C  59.09200 27.13000 45.33200
C  57.58300 26.98100 45.13600
C  60.55200 25.10500 46.11800
C  59.80200 28.31800 44.57500
C  60.03600 29.52900 45.56300
N  54.71000 27.06700 44.18100
C  55.34100 28.18600 44.75600
C  54.34200 29.25700 44.89700
C  53.18400 28.73900 44.22200
C  53.43200 27.41200 43.79400
C  54.71700 30.54700 45.57700
C  51.82900 29.09300 43.84600
O  51.12400 30.11100 43.95700
C  51.26300 27.76900 43.10000
C  50.81500 28.17900 41.72200
O  51.51000 28.27500 40.70600
O  49.46300 28.35400 41.79700
C  48.91400 28.71200 40.49400
H  53.60000 21.14800 42.49100
H  59.34200 23.09600 44.54900
H  57.12500 28.87000 45.88500
H  50.37800 25.07100 41.89200
H  51.46500 22.52700 41.34900
H  51.42500 22.80800 44.24300
H  50.42300 21.84100 43.14000
H  49.91000 23.48600 43.56300
H  52.21900 23.96300 39.87900
H  52.50900 25.68000 40.02000
H  49.78100 25.70500 39.81800
H  50.31500 24.18000 38.84700
H  55.42300 19.41200 42.04000
H  54.45600 19.57300 43.52200
H  55.93800 18.59400 43.62500
H  59.52400 21.09600 45.89700
H  60.24100 21.23300 44.29100
H  60.42100 19.71600 45.19900
H  60.39900 25.74100 44.18600
H  59.11800 27.37000 46.39500
H  60.01600 24.28600 46.59600
H  60.80900 25.84700 46.87400
H  61.48300 24.76000 45.66800
H  59.18300 28.52200 43.70200
H  60.78300 28.07100 44.16900
H  60.33800 30.45200 45.06800
H  60.85800 29.16900 46.18100
H  59.14300 29.69000 46.16700
H  55.61800 30.50700 46.19000
H  53.85600 30.80100 46.19500
H  54.94800 31.34300 44.87000
H  50.43200 27.31700 43.64100
H  48.20200 27.92100 40.25900
H  49.58500 28.74000 39.63600
H  48.46100 29.70200 40.55900
Mg -2.49700 35.71900 26.75900
C  -4.05600 33.67800 29.15900
C  -0.86800 37.22300 29.16300
C  -1.54500 37.83100 24.39800
C  -4.29500 33.80800 24.24900
N  -2.63100 35.50000 28.98700
C  -3.25000 34.63600 29.82600
C  -2.95700 34.92400 31.35700
C  -2.00300 36.20800 31.22900
C  -1.85300 36.32500 29.70400
C  -2.50200 37.51700 31.85000
C  -2.27400 33.66200 32.10000
C  -2.99100 33.18400 33.36800
H  -2.27800 33.20300 34.71400
N  -1.43400 37.32400 26.77900
C  -0.69900 37.69300 27.89800
C  0.09100 38.83800 27.51700
C  -0.02500 39.01800 26.12800
C  -1.05300 38.05800 25.67700
C  0.89600 39.62900 28.56300
C  0.65200 39.90500 25.21500
O  0.44500 40.02800 23.98400
C  1.80600 40.62000 25.83800
N  -2.86600 35.80500 24.63600
C  -2.29900 36.78300 23.86300
C  -2.46300 36.46100 22.37200
C  -3.33200 35.19200 22.30800
C  -3.55000 34.90500 23.81100
C  -3.04300 37.63100 21.50100
C  -2.73100 33.94100 21.54300
C  -2.55500 34.26600 20.03400
N  -3.97900 34.12400 26.66400
C  -4.42800 33.37900 25.57500
C  -5.14700 32.23000 26.06500
C  -5.01900 32.28200 27.49700
C  -4.35600 33.50000 27.76100
C  -5.74400 31.10500 25.25400
C  -5.27300 31.57600 28.71100
O  -5.75900 30.47800 28.94000
C  -4.72500 32.50400 29.85700
C  -5.94300 33.00400 30.56800
O  -6.87000 33.59900 30.05400
O  -5.91800 32.76500 31.81500
C  -6.93800 33.29500 32.67200
H  -0.12600 37.49700 29.91500
H  -1.17800 38.48000 23.60000
H  -4.68400 33.17300 23.45000
H  -3.94200 35.23700 31.70300
H  -1.03700 35.98400 31.68100
H  -3.43100 37.34800 32.39500
H  -2.79400 38.24900 31.09800
H  -1.87700 37.81600 32.69200
H  -1.23000 33.82900 32.36200
H  -2.21700 32.88300 31.34000
H  -3.49200 32.23700 33.16600
H  -3.88800 33.78900 33.49700
H  0.65200 39.43500 29.60700
H  0.67800 40.68400 28.39400
H  1.93200 39.32100 28.41800
H  1.43400 41.41700 26.48100
H  2.41800 40.98200 25.01200
H  2.42600 39.91900 26.39600
H  -1.53800 36.12900 21.90100
H  -4.36000 35.33000 21.97500
H  -3.14100 38.58600 22.01700
H  -4.05500 37.33500 21.22600
H  -2.34800 37.81100 20.68000
H  -3.40800 33.08900 21.61000
H  -1.83500 33.65700 22.09400
H  -2.52300 35.34600 19.89600
H  -3.48500 33.98200 19.54100
H  -1.67200 33.80300 19.59300
H  -5.56500 31.19800 24.18300
H  -6.82000 31.05500 25.42500
H  -5.31900 30.14100 25.53300
H  -4.11400 31.88200 30.51100
H  -7.45000 34.18400 32.30100
H  -6.42100 33.60000 33.58200
H  -7.65800 32.49200 32.82300

