158

Mg 35.09500 1.74100 29.22500
C  32.93400 3.15600 31.65600
C  37.65800 1.95100 31.40500
C  37.14100 0.85600 26.73500
C  32.45100 2.04700 26.96000
N  35.29600 2.65600 31.25500
C  34.24000 2.83200 32.12500
C  34.73700 3.00200 33.55900
C  36.26900 2.81200 33.47000
C  36.43400 2.47700 31.95000
C  37.06900 3.97100 34.00200
C  33.91800 2.08500 34.51700
C  33.33200 2.72600 35.73500
H  34.34900 3.66700 36.44200
N  37.08900 1.38900 29.08400
C  37.98000 1.48500 30.12900
C  39.24800 1.08600 29.65600
C  39.15200 0.84300 28.24600
C  37.73500 1.02000 27.94900
C  40.57100 1.04500 30.47700
C  40.21900 0.45700 27.31800
O  40.05000 0.56000 26.11900
C  41.58900 0.07700 27.77100
N  34.84800 1.36800 27.15600
C  35.79900 0.95200 26.27100
C  35.32900 0.82300 24.80300
C  33.79200 1.14700 25.00400
C  33.68100 1.50000 26.51500
C  36.01300 1.78400 23.72500
C  32.92600 -0.09900 24.67700
C  32.00200 0.06800 23.45000
N  33.08100 2.37600 29.27200
C  32.14600 2.42600 28.25600
C  30.97200 3.09700 28.79100
C  31.21500 3.32800 30.16700
C  32.53100 2.94000 30.37400
C  29.82800 3.45000 28.03900
C  30.66100 3.96900 31.26000
O  29.59300 4.46300 31.47500
C  31.72400 3.77900 32.43600
C  32.02600 5.11500 32.97800
O  32.92600 5.89900 32.67300
O  31.17700 5.29800 34.00800
C  31.51600 6.12200 35.17500
H  38.42900 1.89200 32.17600
H  37.82000 0.81200 25.88100
H  31.59700 2.13600 26.28500
H  34.57600 4.03200 33.87500
H  36.59600 1.95600 34.06100
H  36.56100 4.69500 34.63900
H  37.31300 4.45900 33.05800
H  37.95600 3.56600 34.48800
H  34.58200 1.29700 34.86900
H  33.12100 1.63200 33.92700
H  32.81900 2.08500 36.45200
H  32.50400 3.24900 35.25700
H  41.25700 1.71000 29.95300
H  40.99400 0.04200 30.53100
H  40.44100 1.37000 31.51000
H  42.14100 -0.29000 26.90600
H  41.43200 -0.67200 28.54700
H  42.11500 0.93600 28.18900
H  35.52200 -0.24300 24.68500
H  33.52700 1.95300 24.31900
H  36.79900 2.33700 24.23800
H  35.29700 2.39900 23.17900
H  36.45700 1.21200 22.91100
H  32.41600 -0.32400 25.61300
H  33.45400 -1.01000 24.39300
H  31.79100 1.10300 23.18100
H  31.04600 -0.42200 23.63400
H  32.61700 -0.38400 22.67100
H  30.06500 3.72000 27.01000
H  29.47900 4.38600 28.47600
H  29.00200 2.74300 28.11700
H  31.46100 3.11200 33.25600
H  30.82900 6.96100 35.28700
H  32.52700 6.51600 35.06600
H  31.43200 5.47000 36.04500
Mg -2.25200 34.73100 26.66700
C  -3.83100 32.94200 29.06100
C  -1.22800 36.92700 29.09800
C  -1.20200 36.81100 24.26600
C  -4.15300 33.07300 24.20000
N  -2.65300 34.96900 28.81400
C  -3.10800 33.97500 29.64200
C  -2.88700 34.27200 31.11900
C  -2.08400 35.62500 31.10500
C  -2.01000 35.91100 29.60900
C  -2.69400 36.77500 31.92300
C  -2.31900 33.04100 31.97500
C  -2.96200 32.67400 33.38100
H  -2.08800 32.75900 34.61600
N  -1.07100 36.46200 26.71700
C  -0.72600 37.13500 27.81800
C  0.10100 38.19800 27.39000
C  0.16600 38.15500 26.00000
C  -0.77500 37.14600 25.58000
C  0.76900 39.16700 28.34100
C  0.92600 39.04100 25.00900
O  0.82800 38.84600 23.79000
C  1.79700 40.14500 25.39000
N  -2.84700 35.01200 24.57100
C  -2.12100 35.89300 23.75700
C  -2.73200 35.91100 22.34400
C  -3.38500 34.45800 22.29400
C  -3.38500 34.03600 23.76000
C  -3.79000 36.97200 22.11900
C  -2.68400 33.45400 21.39800
C  -1.34200 32.79300 21.85300
N  -3.74900 33.32900 26.57800
C  -4.37000 32.69600 25.53900
C  -5.32800 31.70900 25.99500
C  -5.11300 31.69700 27.43500
C  -4.16300 32.71400 27.68200
C  -6.10200 30.73200 25.05400
C  -5.52300 31.14700 28.66200
O  -6.23600 30.24900 29.02900
C  -4.67600 31.91500 29.77600
C  -5.76600 32.56800 30.63100
O  -6.66300 33.37200 30.32400
O  -5.66600 32.02600 31.88000
C  -6.64600 32.49900 32.90000
H  -0.91000 37.67900 29.82300
H  -0.91300 37.46100 23.43700
H  -4.66600 32.46100 23.45500
H  -3.81800 34.56200 31.60500
H  -1.10000 35.35000 31.48500
H  -3.23500 36.41600 32.79900
H  -3.36000 37.37900 31.30700
H  -1.88000 37.44300 32.20300
H  -1.25100 33.11200 32.18100
H  -2.37800 32.13200 31.37600
H  -3.22700 31.61700 33.35700
H  -3.83700 33.31700 33.48000
H  1.83800 38.96400 28.28200
H  0.62200 38.86700 29.37800
H  0.53400 40.22200 28.19900
H  2.52300 39.62600 26.01600
H  1.09900 40.67800 26.03500
H  2.27600 40.76500 24.63100
H  -1.94300 36.11600 21.62000
H  -4.42200 34.47100 21.95700
H  -3.62700 37.80900 22.79900
H  -4.79000 36.54200 22.16600
H  -3.58100 37.39800 21.13800
H  -2.47300 33.89100 20.42200
H  -3.36400 32.61700 21.24300
H  -0.54300 33.11100 21.18400
H  -1.42200 31.71800 21.69300
H  -1.03900 32.93100 22.89100
H  -5.37300 30.03400 24.64200
H  -6.57800 31.23200 24.21100
H  -6.91200 30.21600 25.57000
H  -4.13300 31.16200 30.34700
H  -7.57000 32.83700 32.43000
H  -6.11400 33.17300 33.57200
H  -6.89900 31.70300 33.60000

