158

Mg -1.88300 18.13800 27.09900
C  -2.21500 16.04400 29.64300
C  -2.62000 20.85000 29.12100
C  -2.19600 20.17300 24.38100
C  -1.50300 15.38500 24.76200
N  -2.37100 18.40100 29.23100
C  -2.25300 17.35600 30.09800
C  -2.32200 17.89700 31.56200
C  -2.79800 19.45700 31.29100
C  -2.69800 19.59500 29.75500
C  -4.17600 19.67100 31.87500
C  -1.01600 17.84300 32.39000
C  -1.20100 17.27800 33.76700
H  -0.09800 17.39400 34.76700
N  -2.18000 20.25800 26.82600
C  -2.43600 21.20200 27.79500
C  -2.27900 22.54600 27.19500
C  -2.17900 22.33000 25.78100
C  -2.19000 20.85500 25.59700
C  -2.53500 23.82900 28.04900
C  -1.95600 23.27800 24.68400
O  -1.78500 22.93900 23.51800
C  -2.14300 24.72100 24.97700
N  -1.93900 17.79800 24.91100
C  -2.09100 18.84000 24.10300
C  -1.93100 18.30300 22.64600
C  -1.40900 16.83800 22.71200
C  -1.60600 16.64900 24.18500
C  -3.32100 18.45200 21.88000
C  0.12900 16.56600 22.23700
C  1.21600 17.28400 23.06900
N  -1.84300 16.11800 27.10300
C  -1.70900 15.09200 26.16300
C  -1.85000 13.82900 26.81500
C  -2.05700 14.14900 28.17900
C  -2.01000 15.52800 28.33800
C  -1.95100 12.50300 26.21300
C  -2.28100 13.59100 29.47200
O  -2.36000 12.44800 29.74900
C  -2.32000 14.74400 30.50000
C  -1.27300 14.62400 31.54900
O  -0.10900 15.02300 31.39700
O  -1.74500 13.92200 32.56300
C  -0.85400 13.62000 33.68900
H  -2.66100 21.67600 29.83400
H  -2.23200 20.72500 23.44000
H  -1.51800 14.50500 24.11700
H  -3.06000 17.42300 32.21000
H  -2.15100 20.11100 31.87500
H  -4.10500 20.16700 32.84200
H  -4.74400 18.74400 31.95900
H  -4.67600 20.27500 31.11800
H  -0.56900 18.82500 32.54500
H  -0.30700 17.23700 31.82600
H  -1.38100 16.22000 33.57500
H  -2.11500 17.67000 34.21300
H  -2.63200 24.79200 27.54800
H  -1.67300 23.80700 28.71600
H  -3.41400 23.80500 28.69300
H  -1.90400 25.39400 24.15400
H  -1.36900 24.99700 25.69400
H  -3.16300 24.90100 25.31500
H  -1.15000 18.98300 22.30600
H  -2.02600 16.11400 22.18100
H  -4.15300 18.43400 22.58400
H  -3.19500 17.62900 21.17700
H  -3.28400 19.39200 21.32900
H  0.21400 16.84400 21.18600
H  0.39900 15.51100 22.20300
H  1.81600 17.91700 22.41600
H  1.95300 16.63300 23.54000
H  0.80000 17.81900 23.92200
H  -1.52400 12.52700 25.21000
H  -3.02500 12.32500 26.16700
H  -1.52600 11.71200 26.83100
H  -3.28800 14.67500 30.99600
H  0.00900 14.26300 33.86100
H  -0.51000 12.60400 33.49400
H  -1.52400 13.60400 34.54900
Mg -2.64200 35.04200 25.77000
C  -4.43300 33.55200 28.51200
C  -1.59300 37.46400 27.95200
C  -0.96700 36.41400 23.20400
C  -4.29700 32.80400 23.66200
N  -3.27600 35.55800 27.95300
C  -3.68900 34.62400 28.92400
C  -3.36400 35.11800 30.34400
C  -2.62900 36.52900 30.05500
C  -2.53900 36.55400 28.53000
C  -3.31600 37.77700 30.69700
C  -2.52600 34.08200 31.16600
C  -2.07300 34.38200 32.62800
H  -2.85700 33.82200 33.84300
N  -1.47400 36.72700 25.59100
C  -1.09300 37.60400 26.60100
C  -0.12500 38.56200 25.96500
C  0.22600 38.15800 24.64400
C  -0.74200 37.04300 24.39500
C  0.49200 39.65500 26.62900
C  1.20100 38.69200 23.67500
O  1.35100 38.25200 22.53800
C  2.29900 39.62400 24.21300
N  -2.84000 34.76300 23.67300
C  -2.02100 35.48900 22.81200
C  -2.14200 34.88000 21.39100
C  -3.02300 33.63400 21.56000
C  -3.39600 33.71100 23.07000
C  -2.58900 35.83600 20.26400
C  -2.43600 32.32800 21.11600
C  -1.48500 31.68500 22.12800
N  -4.11500 33.51500 25.93100
C  -4.61500 32.68800 25.03200
C  -5.43200 31.74500 25.60400
C  -5.43700 32.00100 26.95800
C  -4.62500 33.12900 27.14200
C  -6.19500 30.64800 24.88400
C  -5.92900 31.64300 28.28400
O  -6.67700 30.71800 28.50600
C  -5.16300 32.49900 29.32200
C  -6.16000 33.11600 30.28000
O  -6.84600 34.08400 30.02300
O  -6.15200 32.47100 31.46800
C  -7.01100 33.11400 32.45600
H  -1.10800 38.06900 28.72100
H  -0.49600 36.82300 22.30700
H  -4.64500 31.99900 23.01100
H  -4.21100 35.23200 31.01900
H  -1.60200 36.38700 30.39300
H  -3.58500 38.57400 30.00400
H  -2.75200 38.27900 31.48200
H  -4.19200 37.61700 31.32700
H  -1.60900 33.93200 30.59700
H  -3.07500 33.14100 31.18800
H  -1.96500 35.46200 32.72100
H  -1.09100 33.92500 32.75500
H  0.04200 39.77900 27.61500
H  0.45900 40.59300 26.07600
H  1.50300 39.40700 26.95300
H  1.82200 40.49500 24.66100
H  2.64700 39.96400 23.23700
H  3.16400 39.26500 24.77100
H  -1.13900 34.61900 21.05300
H  -3.98500 33.80100 21.07600
H  -3.48200 35.40900 19.80800
H  -1.79000 35.79000 19.52300
H  -2.65200 36.84500 20.67100
H  -1.89900 32.54800 20.19300
H  -3.18500 31.56700 20.89800
H  -0.69300 31.46400 21.41200
H  -2.00800 30.81500 22.52400
H  -1.12600 32.32300 22.93600
H  -6.48100 29.79000 25.49300
H  -5.72400 30.32800 23.95500
H  -7.12600 31.16500 24.65100
H  -4.55800 31.77300 29.86500
H  -8.00300 33.27600 32.03500
H  -6.59200 34.04100 32.84700
H  -7.35600 32.53900 33.31600

