158

Mg 43.59800 3.92600 47.54400
C  41.78000 6.98500 47.26500
C  40.57000 2.34200 47.25600
C  45.11600 1.08100 46.67600
C  46.51100 5.74000 47.05100
N  41.40700 4.62100 47.05300
C  40.91100 5.90800 47.09000
C  39.41800 5.92800 47.07100
C  39.05900 4.38800 47.24600
C  40.44700 3.73100 47.16100
C  38.28900 3.98600 48.48100
C  38.75200 6.62500 45.83100
C  38.79200 5.80200 44.55100
H  38.92500 6.71500 43.35700
N  42.95400 1.90200 47.26600
C  41.65900 1.50100 47.17700
C  41.59700 0.09500 46.97600
C  42.90500 -0.41400 46.80600
C  43.70900 0.85700 46.99100
C  40.32200 -0.71000 46.78600
C  43.32700 -1.86600 46.59300
O  42.44000 -2.74200 46.59900
C  44.82800 -2.27500 46.55200
N  45.46700 3.47200 46.76300
C  45.97100 2.18500 46.64200
C  47.54700 2.12600 46.39500
C  47.84400 3.64900 46.73200
C  46.54200 4.34400 46.84400
C  48.36400 1.05000 47.28300
C  48.78900 4.27500 45.71700
C  50.14900 4.83700 46.22300
N  44.12500 5.92900 47.45800
C  45.35900 6.48900 47.23700
C  45.26300 7.98500 47.36000
C  43.87400 8.20100 47.46300
C  43.19600 6.90900 47.42100
C  46.37100 8.95000 47.29100
C  42.78300 9.22100 47.52400
O  42.79500 10.42900 47.75600
C  41.37700 8.47300 47.30100
C  40.38900 8.72200 48.39500
O  40.41900 8.20600 49.48000
O  39.32200 9.48300 47.88100
C  38.34500 9.82200 48.92000
H  39.58900 1.86400 47.24600
H  45.56700 0.13900 46.35500
H  47.39900 6.34400 46.85400
H  39.02500 6.45400 47.94100
H  38.47300 4.08800 46.37700
H  38.92400 3.73200 49.32900
H  37.54000 3.22600 48.25900
H  37.79900 4.91200 48.78300
H  39.41200 7.47600 45.66300
H  37.75200 7.02200 46.00700
H  37.81200 5.32400 44.53800
H  39.65000 5.14800 44.70800
H  40.43300 -1.66900 47.29100
H  40.09000 -0.94800 45.74700
H  39.48600 -0.19600 47.26000
H  45.42300 -1.84600 47.35800
H  45.34700 -1.96200 45.64600
H  44.82500 -3.36500 46.53600
H  47.53500 1.80300 45.35400
H  48.22400 3.84900 47.73400
H  48.03300 1.11200 48.32000
H  49.41000 1.35700 47.27600
H  48.26900 0.03400 46.89900
H  48.27700 5.08700 45.20000
H  49.06600 3.50100 45.00200
H  50.83300 4.02500 45.97400
H  50.10200 5.20500 47.24800
H  50.51200 5.69900 45.66400
H  46.13800 9.73500 48.01000
H  46.35900 9.48500 46.34100
H  47.32800 8.45400 47.45300
H  41.00900 8.90400 46.37000
H  38.22600 9.00900 49.63600
H  37.33400 9.77100 48.51500
H  38.57200 10.73500 49.47100
Mg 35.46700 1.85600 29.31500
C  33.67100 3.20900 32.01600
C  38.32700 1.82400 31.31100
C  37.36200 1.41400 26.50100
C  32.71600 2.63200 27.23600
N  35.91400 2.36400 31.37500
C  35.02600 2.73800 32.34500
C  35.58300 2.65600 33.76000
C  37.10600 2.28900 33.53100
C  37.15900 2.12900 32.01700
C  38.24700 3.38400 33.90800
C  34.66200 1.60800 34.54100
C  34.40400 1.95900 36.02700
H  35.06800 3.19000 36.66600
N  37.58400 1.57900 28.97600
C  38.57200 1.56800 29.97200
C  39.82700 1.38000 29.34300
C  39.57700 1.29900 27.88900
C  38.13700 1.39700 27.70000
C  41.08300 1.13300 30.06800
C  40.68000 1.23200 26.83900
O  40.39900 1.11200 25.65100
C  42.13600 1.39300 27.14600
N  35.07200 1.78700 27.29500
C  35.99300 1.56600 26.29100
C  35.36400 1.72900 24.84300
C  33.89400 1.78600 25.25300
C  33.89600 2.14400 26.72900
C  35.86800 2.96300 24.06600
C  33.08800 0.50100 25.07500
C  33.05600 0.00500 23.63600
N  33.53100 2.63000 29.57000
C  32.54600 2.89700 28.58900
C  31.39900 3.43900 29.29000
C  31.73400 3.56000 30.68200
C  33.11100 3.10300 30.73100
C  30.14900 3.90700 28.61100
C  31.31300 4.03400 32.00900
O  30.19500 4.46600 32.27900
C  32.53900 3.74500 32.95000
C  32.79600 5.03300 33.73400
O  33.67900 5.82500 33.46200
O  31.83800 5.24300 34.70100
C  31.84300 6.59300 35.35000
H  39.22200 1.80500 31.93600
H  38.04100 1.41700 25.64600
H  31.79000 2.68000 26.66000
H  35.47600 3.65000 34.19200
H  37.32300 1.39900 34.12300
H  37.91800 4.13900 34.62200
H  38.78500 3.78900 33.05200
H  39.07400 2.90800 34.43500
H  35.24400 0.68800 34.48400
H  33.72200 1.47000 34.00700
H  34.61900 1.05400 36.59600
H  33.31800 2.05300 36.01100
H  41.66900 0.24900 29.81600
H  40.83700 0.88100 31.10000
H  41.65400 2.06200 30.05500
H  42.42600 1.98800 28.01200
H  42.57600 1.81000 26.24100
H  42.57100 0.41400 27.35000
H  35.50400 0.80400 24.28400
H  33.44300 2.58700 24.66700
H  36.37900 3.59300 24.79400
H  35.04400 3.57900 23.70700
H  36.47600 2.88800 23.16400
H  32.08400 0.73400 25.43100
H  33.54100 -0.25900 25.71300
H  32.04500 0.04700 23.23100
H  33.37000 -1.03900 23.65400
H  33.58400 0.57700 22.87300
H  29.49500 3.04600 28.47100
H  30.26300 4.30900 27.60400
H  29.62200 4.68400 29.16400
H  32.22400 2.89300 33.55200
H  31.79500 7.31200 34.53200
H  32.75500 6.52100 35.94300
H  30.99100 6.78000 36.00300

