158

Mg 42.69700 41.80000 25.99200
C  41.56000 44.18700 28.19000
C  43.61500 39.74400 28.61400
C  43.53100 39.47800 23.75600
C  42.13000 44.11300 23.26600
N  42.66100 41.97800 28.12300
C  42.10600 43.05300 28.78800
C  42.04100 42.70600 30.24100
C  42.93200 41.41100 30.46700
C  43.13700 40.99000 28.97500
C  44.07600 41.37600 31.45500
C  40.59900 42.54800 30.79300
C  40.42900 43.29800 32.16700
H  39.81200 42.61800 33.32900
N  43.45300 39.86000 26.16900
C  43.74400 39.17200 27.34900
C  44.16400 37.79300 27.04500
C  44.16300 37.69100 25.58900
C  43.72300 39.03900 25.10000
C  44.51700 36.81800 28.12100
C  44.50400 36.56000 24.66900
O  44.63700 36.56500 23.42800
C  44.87100 35.22400 25.23600
N  42.94500 41.84400 23.81700
C  43.25200 40.72000 23.16700
C  43.12700 40.81600 21.63300
C  42.54800 42.29500 21.52200
C  42.63800 42.82100 22.97000
C  44.42000 40.56300 20.82900
C  41.22300 42.29400 20.87500
C  40.14500 41.32300 21.37900
N  42.13800 43.79700 25.70900
C  42.05200 44.63100 24.55400
C  41.66100 45.98500 25.05000
C  41.32000 45.81100 26.44300
C  41.69300 44.48600 26.79500
C  41.38000 47.21800 24.30100
C  40.88500 46.49300 27.67400
O  40.60700 47.63800 27.82600
C  41.00500 45.41000 28.78600
C  41.93300 45.98000 29.84600
O  43.14100 45.88600 29.86200
O  41.10300 46.59600 30.80500
C  41.76100 46.86800 32.13700
H  43.78200 39.06300 29.45100
H  43.78500 38.70200 23.03000
H  41.87600 44.81000 22.46500
H  42.40800 43.56900 30.79700
H  42.25800 40.68700 30.92300
H  44.29700 42.35700 31.87700
H  44.95400 41.00400 30.92500
H  43.93500 40.65900 32.26400
H  40.27300 41.51300 30.90200
H  39.86500 42.91700 30.07700
H  39.73700 44.11500 31.96400
H  41.38700 43.70600 32.49000
H  43.76400 36.03900 28.23800
H  44.59300 37.29200 29.10000
H  45.37100 36.20300 27.84000
H  44.86100 34.34200 24.59500
H  44.13800 34.97500 26.00300
H  45.86000 35.24600 25.69300
H  42.34600 40.13200 21.30300
H  43.21700 42.73600 20.78300
H  44.40500 41.25400 19.98700
H  44.44900 39.58100 20.35600
H  45.31000 40.57400 21.45800
H  41.48600 42.15800 19.82600
H  40.68100 43.24000 20.88900
H  39.20700 41.87700 21.40100
H  40.46300 41.00900 22.37300
H  40.03700 40.44500 20.74100
H  40.56200 47.05200 23.59900
H  42.23400 47.59200 23.73700
H  40.86500 47.94800 24.92600
H  40.02700 45.07300 29.13000
H  40.97900 47.29700 32.76400
H  42.60000 47.54900 31.99500
H  42.03900 45.91100 32.57800
Mg 26.94500 50.51400 26.24700
C  25.31300 51.47900 29.19000
C  29.59100 49.45800 28.39800
C  28.82300 49.81600 23.53200
C  24.44400 51.96900 24.40200
N  27.49700 50.60300 28.54200
C  26.46000 50.78400 29.49800
C  26.97000 50.30600 30.88400
C  28.46000 49.93200 30.59300
C  28.49100 49.96800 29.08300
C  29.54100 50.87600 31.16600
C  26.19700 49.08500 31.54500
C  25.44500 49.29700 32.85900
H  26.37100 49.47700 34.05800
N  28.93700 49.76700 26.02500
C  29.84300 49.29700 27.00300
C  31.08600 48.83600 26.37600
C  30.90800 49.05800 24.96600
C  29.51800 49.60400 24.81200
C  32.19900 48.22600 27.15000
C  31.80900 48.88500 23.80800
O  31.54300 49.19900 22.65900
C  33.29700 48.41100 24.09700
N  26.82400 50.98500 24.30400
C  27.59100 50.40600 23.29800
C  26.96300 50.58600 21.89600
C  25.53100 51.13900 22.28900
C  25.61500 51.37300 23.78500
C  27.78400 51.47900 20.91100
C  24.25000 50.48200 21.74400
C  23.29900 51.41700 20.96800
N  25.17700 51.57300 26.70600
C  24.25400 52.07900 25.81800
C  23.13700 52.57300 26.49400
C  23.47900 52.42200 27.84700
C  24.77800 51.77100 27.89800
C  21.92100 53.14600 25.85700
C  23.18100 52.64600 29.15800
O  22.23700 53.20900 29.58100
C  24.19000 51.99200 30.21900
C  24.74700 53.00800 31.17600
O  25.40800 53.99300 30.86900
O  24.29600 52.72600 32.45000
C  24.52000 53.81100 33.43300
H  30.34900 49.11100 29.10400
H  29.24800 49.43500 22.60100
H  23.66400 52.35000 23.74000
H  27.00400 51.12900 31.59800
H  28.67600 48.91200 30.91100
H  30.25200 50.41500 31.85200
H  29.13800 51.70700 31.74500
H  30.06500 51.30400 30.31200
H  26.89400 48.26400 31.71100
H  25.49200 48.64800 30.83800
H  24.85300 48.38600 32.94100
H  24.76200 50.14500 32.81400
H  32.13100 48.15400 28.23600
H  33.16200 48.71900 27.02200
H  32.24000 47.15500 26.95400
H  33.81400 49.34700 24.31000
H  33.80200 47.84600 23.31400
H  33.45400 47.88800 25.04000
H  26.94100 49.57800 21.48300
H  25.58300 52.10700 21.79100
H  28.53800 52.03300 21.47000
H  27.24300 52.21900 20.32200
H  28.30200 50.88200 20.16000
H  23.66600 50.12200 22.59100
H  24.55800 49.57900 21.21700
H  23.83900 51.64700 20.04900
H  23.09900 52.36700 21.46300
H  22.36400 50.90000 20.74900
H  21.70000 52.58500 24.94900
H  22.08000 54.18200 25.55600
H  21.15000 53.08500 26.62500
H  23.65200 51.23900 30.79500
H  24.76800 54.79400 33.03500
H  25.46600 53.52800 33.89600
H  23.77000 53.77100 34.22400

