158

Mg 1.24400 8.82000 25.71700
C  1.70900 10.65400 28.64600
C  1.13200 5.86600 27.49700
C  0.97800 7.09400 22.84600
C  1.52200 11.78100 23.90300
N  1.71900 8.29900 27.89400
C  1.56700 9.20000 28.91800
C  1.36100 8.51300 30.23700
C  1.29500 6.98200 29.83000
C  1.38600 7.00200 28.27900
C  2.30500 6.02100 30.53900
C  0.23800 9.08300 31.14100
C  0.52200 9.10800 32.63700
H  1.65000 8.27700 33.24000
N  1.19200 6.66600 25.22800
C  1.22100 5.63300 26.13500
C  1.06300 4.46000 25.33200
C  1.07100 4.72800 23.94600
C  1.05800 6.15700 23.93000
C  0.78600 3.08600 25.97200
C  1.02400 3.85500 22.72000
O  1.10100 4.28200 21.54000
C  0.75300 2.36300 22.86500
N  1.43300 9.24000 23.70100
C  1.13400 8.40900 22.66000
C  1.06900 9.07100 21.28700
C  1.30300 10.58700 21.64300
C  1.35300 10.56200 23.20000
C  1.97900 8.46200 20.20000
C  0.14600 11.48200 21.12300
C  -1.24300 11.50500 21.84700
N  1.53500 10.81000 26.13400
C  1.57100 11.92800 25.31500
C  1.87200 13.10000 26.11100
C  1.94200 12.63000 27.44600
C  1.73400 11.24700 27.36400
C  2.16300 14.44800 25.57100
C  2.15700 13.03100 28.80800
O  2.35000 14.12600 29.30400
C  1.81400 11.75000 29.61700
C  2.73200 11.60600 30.78200
O  3.82000 11.06400 30.70000
O  2.16000 12.08800 31.94300
C  2.92900 12.01100 33.15200
H  1.00000 4.92900 28.04200
H  0.57000 6.58600 21.97000
H  1.45900 12.69900 23.31500
H  2.28400 8.59100 30.81000
H  0.29100 6.61300 30.04200
H  1.85200 5.31200 31.23200
H  2.96100 6.66100 31.12800
H  2.93300 5.46800 29.84000
H  -0.66000 8.47200 31.05700
H  0.03900 10.07800 30.74200
H  -0.43200 8.86400 33.10400
H  0.64800 10.08400 33.10500
H  0.54000 3.16200 27.03100
H  1.61200 2.37700 25.90500
H  -0.00200 2.49800 25.50100
H  1.37500 1.84900 23.59800
H  0.87900 1.86300 21.90500
H  -0.29100 2.28400 23.17000
H  0.05100 8.90800 20.93100
H  2.35800 10.81400 21.48800
H  2.77100 9.17400 19.96800
H  1.43200 8.30400 19.27100
H  2.39500 7.50100 20.50200
H  0.10900 11.45000 20.03500
H  0.55800 12.48500 21.23800
H  -1.92900 12.01800 21.17300
H  -1.08300 12.20500 22.66700
H  -1.63300 10.57600 22.26300
H  1.25200 14.65000 25.00700
H  3.07600 14.59100 24.99300
H  2.17000 15.19400 26.36700
H  0.88900 12.02600 30.12300
H  2.27300 11.64600 33.94300
H  3.29100 13.02900 33.29300
H  3.73400 11.27800 33.10200
Mg 36.05700 49.11600 25.17400
C  36.25500 47.27200 28.13600
C  34.85500 51.80100 26.92100
C  35.41600 50.62100 22.13900
C  37.25100 46.30500 23.43300
N  35.61400 49.45200 27.23600
C  35.84500 48.60600 28.30700
C  35.76400 49.31300 29.67900
C  35.27100 50.72300 29.22700
C  35.25000 50.65500 27.66900
C  33.92900 51.18800 29.80400
C  37.14600 49.23300 30.42500
C  37.21000 48.86100 31.92500
H  36.00000 49.09800 32.76800
N  35.21600 50.98700 24.52100
C  34.89200 51.99500 25.42700
C  34.58800 53.13600 24.69800
C  34.79800 52.87600 23.35200
C  35.14800 51.44300 23.24900
C  34.23300 54.47000 25.33800
C  34.69600 53.77300 22.14600
O  34.63900 53.29000 21.01900
C  34.72000 55.32100 22.36300
N  36.22600 48.51700 23.08300
C  35.83100 49.29200 22.08900
C  36.21300 48.62400 20.71300
C  37.06400 47.36500 21.11600
C  36.85300 47.40600 22.66300
C  34.99900 48.18800 19.78300
C  38.54300 47.45400 20.82500
C  39.09200 46.04200 20.41200
N  36.75300 47.21500 25.58000
C  37.17000 46.10600 24.77800
C  37.40900 44.93300 25.59300
C  37.12900 45.42200 26.88300
C  36.70200 46.73100 26.86400
C  37.72700 43.55900 25.13200
C  36.98700 44.90100 28.24100
O  37.24300 43.79800 28.67000
C  36.51900 46.12600 29.07800
C  35.36000 45.77000 30.05100
O  34.21400 45.91100 29.75700
O  35.89400 45.27100 31.22500
C  34.77700 45.10100 32.10700
H  34.67200 52.73800 27.45100
H  35.34400 51.06100 21.14200
H  37.86700 45.57700 22.90100
H  34.96000 48.74700 30.14800
H  36.03000 51.48900 29.38900
H  33.38600 50.34100 30.22400
H  33.32200 51.70600 29.06200
H  34.20000 51.89900 30.58500
H  37.57600 50.23400 30.42000
H  37.87100 48.63600 29.87200
H  38.10100 49.36600 32.29700
H  37.26700 47.77400 31.86200
H  34.86100 55.31400 25.05400
H  34.13100 54.34900 26.41600
H  33.30800 54.68300 24.80100
H  33.80300 55.78300 22.72900
H  34.88200 55.74300 21.37100
H  35.57300 55.42400 23.03300
H  36.86800 49.40700 20.33100
H  36.64900 46.40700 20.80200
H  35.11200 48.65000 18.80200
H  34.14900 48.58600 20.33600
H  34.84700 47.11800 19.64600
H  39.08600 47.79200 21.70800
H  38.76000 48.20200 20.06300
H  39.75300 46.13200 19.55000
H  38.29300 45.37100 20.09700
H  39.71700 45.60300 21.19000
H  37.43000 43.42000 24.09300
H  37.14600 42.86600 25.74100
H  38.79500 43.35700 25.21500
H  37.29100 46.43100 29.78400
H  35.42200 44.92200 32.96700
H  34.11300 44.25600 31.92300
H  34.29100 46.07600 32.06600

