158

Mg 8.95800 3.43400 27.59500
C  10.25900 1.74000 30.57400
C  7.61800 5.76100 29.64400
C  7.70300 4.77800 24.88400
C  10.39500 0.82200 25.76300
N  8.87600 3.62400 29.92900
C  9.44200 2.85600 30.91000
C  9.16700 3.43600 32.27400
C  8.18100 4.67200 31.96700
C  8.22600 4.67700 30.42700
C  6.74000 4.75400 32.60000
C  10.52500 3.82400 32.94200
C  10.39700 4.84500 34.18700
H  11.19500 4.60000 35.42500
N  7.93800 5.18400 27.27800
C  7.47700 6.03400 28.26500
C  6.82900 7.13000 27.65400
C  6.83600 6.83400 26.23500
C  7.53000 5.58500 26.04000
C  6.22800 8.25000 28.36900
C  6.22400 7.66700 25.11500
O  6.29100 7.38900 23.91900
C  5.43300 8.88400 25.47500
N  9.10600 2.86600 25.65000
C  8.42100 3.57100 24.69900
C  8.52800 2.84100 23.32200
C  9.60300 1.76400 23.57000
C  9.79300 1.81300 25.08700
C  7.24000 2.39700 22.65700
C  10.87700 1.98400 22.71200
C  11.34400 0.81700 21.81000
N  10.22200 1.71800 28.00400
C  10.63800 0.71700 27.11000
C  11.24400 -0.35200 27.87300
C  11.24600 0.08100 29.21900
C  10.50300 1.28900 29.23200
C  11.74900 -1.57200 27.41700
C  11.60800 -0.28700 30.54600
O  12.27900 -1.27400 30.95600
C  11.06400 0.81900 31.49800
C  10.25000 0.28000 32.56500
O  9.08800 -0.02400 32.44800
O  10.90900 0.24600 33.67400
C  10.11900 -0.36200 34.78500
H  7.23300 6.52000 30.32900
H  7.30200 5.19200 23.95600
H  10.83500 0.01200 25.17600
H  8.63900 2.74400 32.93100
H  8.78400 5.55800 32.16200
H  6.76900 3.88100 33.25100
H  5.94900 4.83600 31.85400
H  6.61400 5.66000 33.19200
H  11.17000 4.28300 32.19300
H  11.12300 3.00200 33.33400
H  9.33300 4.85100 34.42200
H  10.60700 5.86900 33.87700
H  6.64900 9.13500 27.89300
H  6.39500 8.31900 29.44400
H  5.16600 8.18500 28.13200
H  6.09500 9.59400 25.97100
H  4.55000 8.43600 25.93000
H  5.06100 9.31100 24.54300
H  8.96900 3.59500 22.67000
H  9.21100 0.76000 23.41000
H  7.00100 3.02400 21.79800
H  6.51000 2.56000 23.45000
H  7.25900 1.33600 22.40400
H  11.79600 2.25700 23.23100
H  10.75300 2.78400 21.98200
H  10.63900 -0.01300 21.83500
H  12.25900 0.48600 22.30300
H  11.45100 1.32300 20.85100
H  11.16300 -1.70800 26.50800
H  11.45600 -2.35300 28.11800
H  12.82400 -1.48400 27.25800
H  11.94000 1.32700 31.90000
H  9.49000 0.36900 35.29300
H  10.91500 -0.73500 35.43000
H  9.53000 -1.21600 34.45100
Mg 47.46400 34.55700 27.54900
C  45.80200 32.75400 30.21800
C  47.43500 37.38800 29.58100
C  48.16400 36.47400 24.89000
C  46.70400 31.84800 25.49600
N  46.80400 34.92100 29.73800
C  46.19000 34.05100 30.62800
C  46.16400 34.74300 31.92700
C  46.34600 36.23700 31.63600
C  46.86800 36.21600 30.20100
C  45.08600 37.12400 31.77600
C  47.21500 34.12000 32.88700
C  46.70200 33.89400 34.34700
H  47.38500 34.82100 35.40400
N  47.95900 36.62800 27.32900
C  48.00300 37.61400 28.26500
C  48.48400 38.84300 27.73700
C  48.87600 38.52800 26.35200
C  48.21900 37.24500 26.12200
C  48.45600 40.06300 28.55600
C  49.58100 39.38400 25.29000
O  49.83900 38.98100 24.14600
C  49.98300 40.71400 25.72800
N  47.39300 34.18700 25.50500
C  47.73300 35.20400 24.59300
C  47.87000 34.59300 23.16600
C  47.54400 33.08400 23.36000
C  47.19400 33.00800 24.86800
C  47.08200 35.28900 22.02000
C  48.83200 32.16000 23.03600
C  48.47300 30.81000 22.41500
N  46.50000 32.71100 27.70800
C  46.30400 31.70600 26.81200
C  45.79200 30.54200 27.44000
C  45.49600 30.93800 28.74200
C  46.00000 32.24200 28.90000
C  45.51800 29.16500 26.82900
C  44.96700 30.46600 30.02800
O  44.52900 29.33900 30.25500
C  45.02100 31.58700 30.98800
C  45.64300 31.03800 32.27500
O  46.83400 30.77700 32.50000
O  44.58600 30.86900 33.18700
C  44.95000 30.24600 34.44700
H  47.49400 38.23900 30.26300
H  48.44600 36.99700 23.97400
H  46.57800 31.07300 24.73800
H  45.14000 34.48300 32.19100
H  47.20100 36.71800 32.11200
H  44.54500 37.22200 30.83500
H  45.38800 38.09800 32.16000
H  44.35400 36.57200 32.36500
H  47.95700 34.86500 33.17400
H  47.68100 33.24100 32.44100
H  46.92100 32.86700 34.63800
H  45.62700 34.07300 34.33900
H  49.05800 39.81700 29.43000
H  47.40800 40.20900 28.82100
H  48.89600 40.90800 28.02500
H  50.77600 40.68800 26.47500
H  49.07700 41.28100 25.94200
H  50.35100 41.28300 24.87500
H  48.86600 34.74800 22.75300
H  46.72200 32.79200 22.70600
H  46.73400 36.25800 22.37600
H  46.21200 34.75800 21.63400
H  47.69900 35.64400 21.19500
H  49.25500 32.03400 24.03300
H  49.50800 32.66300 22.34400
H  47.43600 30.50800 22.27200
H  48.89700 30.01200 23.02400
H  48.96500 30.73200 21.44500
H  46.44800 28.82500 26.37300
H  44.73700 29.41200 26.11100
H  44.99600 28.42200 27.43100
H  43.96300 31.78500 31.16100
H  44.10800 30.49400 35.09400
H  45.92600 30.59400 34.78500
H  44.98800 29.16500 34.30900

