158

Mg -2.07000 17.09800 26.96700
C  -2.64200 14.93900 29.46300
C  -2.84100 19.73500 29.08300
C  -1.60300 19.21500 24.47800
C  -2.01300 14.41200 24.73200
N  -2.80900 17.32600 29.01300
C  -2.68000 16.29100 29.89700
C  -2.99100 16.79000 31.36100
C  -3.26200 18.26200 31.17000
C  -2.91500 18.48600 29.65500
C  -4.56100 18.91600 31.66700
C  -1.91200 16.40600 32.47300
C  -1.90200 17.17700 33.79200
H  -2.08100 16.41900 35.11900
N  -2.01000 19.17700 26.85900
C  -2.43400 20.11900 27.78400
C  -2.31300 21.44300 27.26800
C  -1.72900 21.31300 25.99800
C  -1.74000 19.86300 25.73400
C  -2.81700 22.62200 27.97900
C  -1.15100 22.38200 25.04800
O  -0.81400 22.16600 23.94000
C  -1.00200 23.77600 25.51800
N  -1.75900 16.86900 24.95100
C  -1.62000 17.90500 24.06400
C  -1.51300 17.43000 22.60500
C  -1.52300 15.86900 22.74400
C  -1.73700 15.68700 24.24300
C  -2.59800 18.06100 21.74000
C  -0.24800 15.10900 22.25600
C  1.03200 15.22800 23.14000
N  -2.24500 15.02500 27.00900
C  -2.23200 14.02300 26.04800
C  -2.49600 12.74000 26.67700
C  -2.74500 13.03400 27.98900
C  -2.55600 14.40200 28.12200
C  -2.72900 11.52300 25.93000
C  -3.11300 12.51200 29.33100
O  -3.19600 11.32400 29.65200
C  -3.02000 13.71800 30.30000
C  -2.02100 13.36600 31.31800
O  -0.83300 13.63000 31.31800
O  -2.72600 12.72600 32.40900
C  -1.87700 12.43000 33.57900
H  -3.08500 20.57100 29.74200
H  -1.40600 19.89500 23.64700
H  -1.95200 13.61200 23.99100
H  -3.89000 16.22200 31.60100
H  -2.46700 18.90400 31.55200
H  -5.22700 18.08800 31.91100
H  -5.04100 19.58100 30.94900
H  -4.43100 19.63100 32.47900
H  -0.91300 16.35800 32.03900
H  -2.20900 15.37200 32.64400
H  -2.64800 17.97200 33.79400
H  -0.94700 17.70200 33.75200
H  -1.94600 23.19700 28.29400
H  -3.51300 22.34900 28.77300
H  -3.35000 23.17100 27.20300
H  -0.36100 24.04500 26.35800
H  -2.01100 24.16700 25.65000
H  -0.66000 24.39400 24.68800
H  -0.56900 17.81200 22.21600
H  -2.44800 15.49400 22.30700
H  -2.45600 17.52500 20.80200
H  -2.28400 19.08900 21.55500
H  -3.62100 18.01300 22.11300
H  -0.06000 15.52600 21.26700
H  -0.46200 14.04100 22.23300
H  1.38100 14.19900 23.23200
H  0.73900 15.60800 24.11800
H  1.75900 15.92200 22.71800
H  -2.39200 11.64800 24.90100
H  -3.78200 11.27900 25.78700
H  -2.12600 10.75500 26.41500
H  -4.00700 13.98700 30.67600
H  -1.35100 11.49700 33.37800
H  -2.53500 12.09300 34.38000
H  -1.21300 13.24700 33.86200
Mg 10.12400 48.12100 26.07100
C  8.21600 48.16100 29.01900
C  12.57500 49.59400 27.63300
C  11.74900 48.32400 23.10100
C  7.27900 47.10300 24.30800
N  10.29000 48.84400 28.06600
C  9.53000 48.61900 29.15700
C  10.17200 49.08700 30.43100
C  11.32800 49.97500 29.82100
C  11.42600 49.46200 28.43500
C  11.06700 51.52200 29.82200
C  10.76000 47.92800 31.37900
C  10.85400 48.24300 32.90000
H  10.32200 47.25400 33.90500
N  11.97300 48.83900 25.44500
C  12.86500 49.42400 26.25300
C  14.14900 49.66800 25.59900
C  13.88900 49.20800 24.23000
C  12.48800 48.81200 24.17300
C  15.35800 50.10700 26.23500
C  14.90400 49.13400 23.08000
O  14.59600 48.58700 22.04000
C  16.29100 49.59800 23.24000
N  9.57700 47.86100 23.92800
C  10.46000 47.87700 22.91800
C  9.86400 47.28100 21.57700
C  8.43100 46.88400 22.07800
C  8.43700 47.26700 23.52100
C  9.96200 48.12000 20.27300
C  8.36900 45.34000 21.88300
C  9.18000 44.41600 22.80200
N  8.19300 47.73200 26.47300
C  7.13200 47.28000 25.69600
C  5.92600 47.10300 26.50200
C  6.34500 47.40300 27.80900
C  7.65900 47.73300 27.79700
C  4.56900 46.87300 26.07500
C  5.92700 47.37600 29.14000
O  4.83000 47.09400 29.68300
C  7.12800 47.73500 30.03600
C  7.39700 46.48900 30.88900
O  8.41900 45.79400 30.77800
O  6.45800 46.30200 31.82400
C  6.65900 45.12900 32.73800
H  13.32100 50.07600 28.26900
H  12.19200 48.44600 22.11100
H  6.39500 46.81900 23.73300
H  9.50100 49.59300 31.12500
H  12.21000 49.67700 30.38800
H  11.06900 51.85700 28.78500
H  11.86700 52.08300 30.30600
H  10.13500 51.91300 30.23200
H  11.81200 47.83800 31.10600
H  10.31700 46.96300 31.13200
H  10.38700 49.22500 32.96400
H  11.89000 48.38800 33.20800
H  15.18500 49.98300 27.30400
H  15.55000 51.16400 26.05400
H  16.19000 49.49100 25.89300
H  16.94800 49.61100 22.37100
H  16.68500 48.77800 23.84000
H  16.24100 50.61000 23.64200
H  10.44200 46.37700 21.38700
H  7.68000 47.42200 21.49900
H  8.97600 48.34700 19.86800
H  10.54300 47.51700 19.57500
H  10.43800 49.08600 20.44100
H  8.75800 45.18600 20.87600
H  7.33800 45.01800 22.03200
H  8.42600 43.76200 23.24000
H  9.83800 44.77300 23.59500
H  9.80700 43.76900 22.18800
H  4.03200 47.80900 25.91900
H  3.99800 46.19800 26.71200
H  4.65700 46.30600 25.14800
H  7.05900 48.61200 30.67900
H  5.92400 44.36900 32.47000
H  6.34400 45.49100 33.71600
H  7.68400 44.76000 32.72200

