158

Mg -1.73900 17.78500 27.53200
C  -2.40100 15.50500 30.15000
C  -2.00100 20.23800 29.67300
C  -1.56100 19.74400 24.82100
C  -2.39000 14.94900 25.33200
N  -2.02400 17.78100 29.64400
C  -2.22600 16.78900 30.57600
C  -2.20700 17.32900 32.02700
C  -2.27800 18.90500 31.84100
C  -2.14400 19.00400 30.29600
C  -3.47300 19.70700 32.46300
C  -1.04500 16.82400 32.90400
C  -0.71000 17.70700 34.08100
H  -0.37800 16.91000 35.32100
N  -1.47800 19.69800 27.26000
C  -1.66600 20.62500 28.29800
C  -1.37100 21.93800 27.73300
C  -1.24700 21.79000 26.27000
C  -1.39900 20.37300 26.02900
C  -1.44000 23.21000 28.58500
C  -0.96000 22.97400 25.24300
O  -0.94600 22.75800 24.05400
C  -0.61000 24.33500 25.75200
N  -2.07400 17.43400 25.35800
C  -1.83000 18.41700 24.46400
C  -2.13100 17.89900 22.96700
C  -2.23400 16.32900 23.18600
C  -2.17600 16.16400 24.69300
C  -3.42700 18.54100 22.27900
C  -1.02000 15.53600 22.55100
C  0.25400 15.36600 23.34500
N  -2.22400 15.65900 27.64000
C  -2.41700 14.66700 26.67400
C  -2.83400 13.48700 27.34200
C  -2.77400 13.72000 28.67100
C  -2.42000 15.06600 28.84300
C  -3.09200 12.12400 26.80100
C  -2.96000 13.08200 30.00400
O  -3.28900 11.97200 30.31900
C  -2.67900 14.27200 31.01600
C  -1.37800 13.93200 31.60500
O  -0.32700 14.13300 31.04000
O  -1.53200 13.43500 32.88700
C  -0.37600 13.07000 33.71500
H  -1.98900 21.10000 30.34300
H  -1.56500 20.45400 23.99200
H  -2.46800 14.01700 24.76900
H  -3.13800 16.97500 32.46900
H  -1.33500 19.37400 32.11800
H  -3.06700 20.63900 32.85400
H  -3.96700 19.19300 33.28800
H  -4.11000 19.97800 31.62100
H  -0.19500 16.47100 32.31900
H  -1.44900 15.93600 33.38900
H  -1.38600 18.55000 34.22800
H  0.21800 18.14700 33.71600
H  -0.52300 23.78400 28.44900
H  -1.55400 23.02300 29.65300
H  -2.30900 23.73000 28.18100
H  -1.41100 24.78100 26.34200
H  -0.41500 24.92300 24.85500
H  0.28500 24.33300 26.37500
H  -1.23200 18.13500 22.39900
H  -3.18600 15.97500 22.78900
H  -3.85700 19.32200 22.90600
H  -4.19500 17.79500 22.07200
H  -3.13800 19.00200 21.33400
H  -0.50100 16.10500 21.77900
H  -1.45200 14.55100 22.37500
H  0.12700 15.59700 24.40300
H  1.18300 15.72100 22.90100
H  0.52000 14.31000 23.39800
H  -2.13700 11.75500 26.42700
H  -3.73400 12.11700 25.92000
H  -3.48300 11.47400 27.58400
H  -3.46700 14.45000 31.74800
H  -0.40200 11.98000 33.71200
H  -0.59200 13.38500 34.73600
H  0.60400 13.43100 33.40200
Mg 10.07900 47.90600 26.74500
C  8.35300 47.78400 29.90300
C  12.76600 48.85100 28.41200
C  11.63200 47.62700 23.73700
C  7.01500 46.92500 25.31100
N  10.45100 48.34300 28.91500
C  9.69400 48.18500 30.00800
C  10.38900 48.49200 31.32500
C  11.63500 49.31700 30.72900
C  11.66100 48.87400 29.28400
C  11.68000 50.81600 30.77500
C  10.84700 47.17700 32.17500
C  10.50000 47.24200 33.71200
H  10.41400 45.95600 34.56600
N  11.88900 48.33000 26.13000
C  12.92700 48.64500 26.98600
C  14.17900 48.64100 26.22100
C  13.74800 48.39300 24.84600
C  12.32200 48.12200 24.82000
C  15.52700 48.95600 26.86800
C  14.62700 48.31300 23.65200
O  14.21600 48.16400 22.46700
C  16.14500 48.33900 23.66500
N  9.40100 47.39800 24.87700
C  10.21000 47.25200 23.75400
C  9.44300 47.05700 22.52000
C  8.01500 46.58500 23.08900
C  8.15700 46.96100 24.51100
C  9.37800 48.36300 21.63300
C  7.88900 45.00900 22.96900
C  9.06100 44.10300 23.43700
N  8.03800 47.68700 27.34300
C  6.91700 47.25600 26.65200
C  5.71200 47.31800 27.48900
C  6.33200 47.41700 28.78700
C  7.69400 47.62300 28.65400
C  4.24900 46.83400 27.13900
C  5.95600 47.23400 30.11900
O  4.96100 46.79600 30.57900
C  7.31800 47.57300 30.98300
C  7.47300 46.33100 31.83300
O  7.98800 45.29600 31.42200
O  6.80800 46.50200 32.94900
C  6.60000 45.28300 33.78600
H  13.61500 49.23700 28.98100
H  12.09100 47.49800 22.75500
H  6.07300 46.73700 24.79200
H  9.82900 49.16100 31.97900
H  12.56600 48.87900 31.09000
H  12.57400 51.16800 31.29000
H  10.88300 51.41500 31.21600
H  11.73000 51.21900 29.76300
H  11.89700 46.89300 32.10200
H  10.39200 46.24800 31.83200
H  9.53900 47.73600 33.85000
H  11.26100 47.84600 34.20500
H  15.51200 48.87300 27.95500
H  15.81600 49.97900 26.63000
H  16.30400 48.36700 26.38000
H  16.61000 49.24700 24.04900
H  16.43400 48.10400 22.64100
H  16.39600 47.50200 24.31600
H  9.89100 46.26400 21.92100
H  7.20900 47.09300 22.56000
H  10.08400 49.11700 21.98200
H  8.39000 48.82200 21.66600
H  9.62700 48.08200 20.61000
H  7.75200 44.58300 21.97500
H  7.01200 44.72300 23.55000
H  9.44600 43.54400 22.58500
H  8.54900 43.40100 24.09600
H  9.85600 44.53400 24.04500
H  4.05200 46.89900 26.06900
H  3.54400 47.39900 27.74800
H  4.08300 45.79600 27.42600
H  7.08000 48.40900 31.64100
H  6.75700 45.57200 34.82500
H  7.08000 44.35600 33.47100
H  5.52400 45.11400 33.74200

