158

Mg 16.77100 -2.14500 27.77400
C  16.07000 0.07000 30.64900
C  18.45300 -4.16200 29.98700
C  17.84400 -3.53500 25.13000
C  15.23300 0.47900 25.80100
N  17.19700 -1.98800 30.10300
C  16.77900 -1.07500 30.99700
C  17.29800 -1.47700 32.39400
C  18.18400 -2.78900 32.11700
C  17.92300 -3.03800 30.64700
C  19.68900 -2.66700 32.51800
C  16.11000 -1.81200 33.40700
C  16.42400 -1.58500 34.87300
H  17.73700 -0.95800 35.31100
N  17.89100 -3.74800 27.59000
C  18.47900 -4.48300 28.58700
C  19.12100 -5.59600 27.95400
C  18.94100 -5.41500 26.57700
C  18.21200 -4.17900 26.38500
C  19.84200 -6.68300 28.66500
C  19.33300 -6.35000 25.50100
O  19.20900 -6.00500 24.33200
C  19.91000 -7.73700 25.76000
N  16.50800 -1.58800 25.74200
C  17.20100 -2.31300 24.84700
C  17.00300 -1.72600 23.34400
C  16.02500 -0.55600 23.64200
C  15.89700 -0.56300 25.14000
C  18.39400 -1.53700 22.78100
C  14.64200 -0.59600 22.80100
C  13.32400 -0.60300 23.61000
N  15.80300 -0.20200 28.09400
C  15.16700 0.66500 27.19400
C  14.55400 1.82600 27.87000
C  14.95500 1.59400 29.22100
C  15.68700 0.35700 29.29100
C  13.94300 3.13700 27.19500
C  14.98200 2.24000 30.45100
O  14.60800 3.38400 30.76600
C  15.69100 1.26400 31.51400
C  16.90000 1.91900 32.00700
O  18.00600 1.95200 31.61500
O  16.40500 2.65900 33.09500
C  17.47200 3.25800 33.95100
H  19.05900 -4.87500 30.55000
H  18.22100 -3.98100 24.20800
H  14.72500 1.28100 25.26200
H  17.84900 -0.60000 32.73500
H  17.79000 -3.57000 32.76700
H  19.94700 -3.41300 33.27100
H  19.84900 -1.74900 33.08400
H  20.36100 -2.72800 31.66200
H  15.83300 -2.86500 33.36600
H  15.11200 -1.41000 33.23200
H  16.32400 -2.49500 35.46400
H  15.54200 -0.99900 35.13400
H  20.93000 -6.63100 28.64600
H  19.51200 -7.68800 28.40000
H  19.76200 -6.63800 29.75100
H  20.79800 -7.77200 26.39100
H  20.17300 -8.07800 24.75800
H  19.13300 -8.42900 26.08400
H  16.40200 -2.41400 22.74900
H  16.48400 0.38500 23.33900
H  19.22800 -1.88300 23.39200
H  18.59700 -0.47200 22.67300
H  18.43300 -2.16000 21.88800
H  14.68800 -1.40400 22.07100
H  14.69800 0.28100 22.15600
H  12.54300 -0.90900 22.91500
H  12.96000 0.37000 23.94100
H  13.36400 -1.38300 24.37100
H  14.31500 3.06000 26.17300
H  14.29600 4.09600 27.57300
H  12.86100 3.00900 27.17700
H  14.93900 1.03800 32.27000
H  18.48400 3.03700 33.61000
H  17.35200 2.97800 34.99800
H  17.25400 4.32100 33.85700
Mg 26.01800 -0.66500 29.64800
C  28.09100 -0.61700 32.49500
C  23.41900 0.32100 31.56700
C  24.04600 -0.77800 26.92100
C  28.76000 -1.77300 27.78000
N  25.77300 -0.26400 31.74100
C  26.74100 -0.29900 32.78000
C  26.17500 0.03000 34.16600
C  24.59200 0.20900 33.79400
C  24.56800 0.07800 32.25700
C  23.54900 -0.76500 34.46500
C  26.77800 1.22800 34.93500
C  25.94400 1.72800 36.15800
H  26.68800 2.19300 37.40600
N  23.99500 -0.20700 29.28300
C  23.07600 0.16400 30.21100
C  21.79400 0.35700 29.59500
C  21.89000 -0.03100 28.25100
C  23.33900 -0.40100 28.03800
C  20.57200 0.79900 30.38200
C  20.77200 -0.10800 27.10000
O  21.06300 -0.35300 25.93100
C  19.35600 0.15700 27.45400
N  26.34800 -1.30200 27.66300
C  25.40700 -1.10600 26.71000
C  25.96900 -1.40800 25.29100
C  27.49200 -1.60900 25.57100
C  27.54900 -1.50200 27.11400
C  25.45000 -2.67400 24.59100
C  28.35000 -0.40900 24.90800
C  29.72600 -0.62600 24.29100
N  28.03700 -1.12600 30.01900
C  29.00900 -1.65500 29.13500
C  30.25600 -1.75000 29.87700
C  29.88800 -1.27800 31.20600
C  28.51100 -1.05100 31.22300
C  31.58000 -2.21000 29.25400
C  30.51100 -0.93100 32.47200
O  31.67100 -0.98000 32.90800
C  29.29300 -0.57500 33.40500
C  29.23800 -1.51500 34.51100
O  28.77200 -2.61200 34.36100
O  29.78500 -0.97900 35.63700
C  29.51500 -1.65800 36.89700
H  22.64500 0.77700 32.18700
H  23.44200 -0.77000 26.01100
H  29.49000 -2.21600 27.10000
H  26.28900 -0.84400 34.80700
H  24.30200 1.23800 34.00600
H  23.78400 -1.03800 35.49300
H  23.44100 -1.66000 33.85300
H  22.55900 -0.31000 34.40700
H  26.84500 2.03300 34.20300
H  27.74600 0.95900 35.35600
H  25.28700 0.89600 36.41300
H  25.47300 2.62900 35.76300
H  20.89700 1.06400 31.38800
H  19.86400 -0.00800 30.57500
H  20.00200 1.59500 29.90200
H  19.03900 -0.61600 28.15300
H  18.68400 0.00400 26.60900
H  19.15700 1.17000 27.80200
H  25.77600 -0.57700 24.61100
H  27.92300 -2.56000 25.25700
H  24.56000 -3.09200 25.06300
H  26.15300 -3.50400 24.52400
H  25.10100 -2.49300 23.57400
H  28.37900 0.38000 25.66000
H  27.78200 0.05700 24.10300
H  30.41100 0.03900 24.81800
H  29.77800 -0.39500 23.22700
H  29.94500 -1.68700 24.40400
H  31.55700 -2.73000 28.29700
H  32.09100 -2.90800 29.91800
H  32.15400 -1.31100 29.02900
H  29.36200 0.39800 33.89200
H  30.47700 -2.02100 37.26100
H  28.87900 -2.54200 36.85400
H  29.09700 -0.89000 37.54700

