158

Mg 1.57100 -1.44900 44.86400
C  4.88300 -0.39100 44.02600
C  0.52100 1.26500 43.03200
C  -1.48500 -2.88500 44.89700
C  3.00600 -4.49100 45.89200
N  2.71500 0.13200 43.33000
C  3.99300 0.42400 43.37400
C  4.27000 1.73900 42.72000
C  2.84300 2.38200 42.73000
C  1.92900 1.15100 42.94400
C  2.55900 3.45000 43.81600
C  4.87700 1.52300 41.32000
C  5.96200 2.48900 40.88700
H  5.78600 3.47600 39.75500
N  -0.12000 -0.89400 44.10300
C  -0.43400 0.30700 43.41600
C  -1.83500 0.51300 43.25000
C  -2.44100 -0.66000 43.74000
C  -1.38300 -1.55800 44.28200
C  -2.40600 1.76900 42.61500
C  -3.91700 -0.88000 43.83800
O  -4.60500 0.03900 43.42400
C  -4.62800 -2.07500 44.42200
N  0.83100 -3.41800 45.41600
C  -0.50700 -3.79200 45.35500
C  -0.73000 -5.18900 45.95600
C  0.74000 -5.64300 46.28500
C  1.60000 -4.45300 45.86000
C  -1.94400 -5.29800 46.99900
C  1.14100 -7.02600 45.63100
C  1.70400 -8.16800 46.58100
N  3.52400 -2.15900 45.18400
C  3.91200 -3.44300 45.63300
C  5.34700 -3.43600 45.87400
C  5.76700 -2.16900 45.34800
C  4.56700 -1.52400 44.84800
C  6.30400 -4.48300 46.46400
C  6.91300 -1.36700 45.05500
O  8.07900 -1.53700 45.37700
C  6.33200 -0.14300 44.25900
C  6.56700 1.10000 45.06300
O  6.03800 1.49300 46.12100
O  7.64400 1.69900 44.43400
C  7.94500 3.17500 44.80900
H  0.09300 2.16500 42.58400
H  -2.50100 -3.28100 44.95900
H  3.40400 -5.41900 46.30800
H  4.97100 2.26500 43.36900
H  2.56700 2.89400 41.80800
H  1.78300 3.21700 44.54600
H  2.27300 4.30400 43.20200
H  3.49900 3.67300 44.32200
H  4.13600 1.65000 40.53100
H  5.21300 0.49400 41.19600
H  6.86700 1.88200 40.87500
H  6.21500 3.14800 41.71800
H  -2.18700 2.55500 43.33700
H  -3.48200 1.83800 42.46000
H  -1.93800 1.98500 41.65400
H  -5.69800 -1.86600 44.42700
H  -4.24300 -2.20900 45.43300
H  -4.41400 -2.91400 43.76000
H  -1.00900 -5.73200 45.05300
H  0.66700 -5.79200 47.36200
H  -2.53900 -4.38600 47.03900
H  -1.50400 -5.56300 47.96100
H  -2.57900 -6.16300 46.81100
H  1.98500 -6.86200 44.96100
H  0.30600 -7.45900 45.08000
H  0.88900 -8.89200 46.62200
H  2.04900 -7.82000 47.55500
H  2.63000 -8.61600 46.22200
H  6.77800 -5.05200 45.66400
H  5.83500 -5.20100 47.13700
H  7.13500 -3.99900 46.97700
H  6.79200 -0.07600 43.27300
H  8.39500 3.70300 43.96800
H  8.75600 3.17500 45.53800
H  7.10300 3.73800 45.21200
Mg 48.76000 34.62400 25.76700
C  46.78100 33.24200 28.27300
C  48.96900 37.48600 27.63000
C  50.40300 36.01500 23.27600
C  48.15200 31.72900 23.90300
N  47.92100 35.29300 27.73400
C  47.25900 34.52500 28.59500
C  47.11100 35.22600 29.98000
C  47.54400 36.68100 29.59800
C  48.13800 36.55700 28.20100
C  46.41100 37.78300 29.67300
C  48.13800 34.60000 31.04400
C  47.70400 34.41100 32.42400
H  46.49600 35.24900 32.92000
N  49.75600 36.44900 25.56200
C  49.69400 37.54700 26.38000
C  50.61000 38.55900 25.90900
C  51.10100 38.08200 24.68900
C  50.36500 36.81300 24.44900
C  51.00200 39.74700 26.83400
C  52.28100 38.52200 23.88400
O  52.72000 37.85300 23.02800
C  52.81800 39.89200 24.18800
N  49.22200 33.98600 23.83500
C  49.80800 34.76200 22.95600
C  50.16400 33.96100 21.66200
C  49.51600 32.53700 21.91200
C  48.89300 32.74600 23.33200
C  49.92600 34.65700 20.24900
C  50.44100 31.35500 21.85900
C  51.70100 31.40700 22.74400
N  47.60000 32.87900 25.89200
C  47.54400 31.73800 25.12800
C  46.64400 30.76600 25.71800
C  46.33100 31.30700 26.96800
C  46.86000 32.62100 26.97200
C  46.31700 29.48000 25.18600
C  45.72600 31.03000 28.20700
O  45.16800 30.06500 28.59200
C  46.09600 32.25400 29.09800
C  46.65000 31.70200 30.32600
O  47.78300 31.31900 30.41100
O  45.65800 31.50800 31.27300
C  46.11300 30.60600 32.32300
H  49.05300 38.38300 28.24700
H  51.06100 36.46700 22.53100
H  48.04000 30.89400 23.20800
H  46.11000 35.19700 30.41000
H  48.33400 37.05900 30.24600
H  46.16200 38.41000 28.81700
H  46.79000 38.48400 30.41700
H  45.49400 37.27200 29.96800
H  49.01800 35.24200 31.07000
H  48.47100 33.63500 30.66100
H  48.56800 34.46600 33.08700
H  47.43700 33.37100 32.61400
H  50.54700 39.82100 27.82200
H  50.70000 40.61700 26.25000
H  52.07200 39.83700 27.02100
H  53.62300 39.71300 24.90000
H  52.17700 40.66900 24.60400
H  53.24400 40.33400 23.28700
H  51.23100 33.84700 21.85600
H  48.75200 32.32500 21.16500
H  49.26500 35.51800 20.34200
H  49.52200 33.98400 19.49300
H  50.90300 34.97600 19.88600
H  50.77200 31.26200 20.82500
H  49.98300 30.37200 21.97400
H  51.74100 32.40400 23.18300
H  52.59800 31.25400 22.14400
H  51.90000 30.65400 23.50600
H  46.71100 28.71900 25.86000
H  46.78900 29.36200 24.21100
H  45.23200 29.44500 25.08500
H  45.10900 32.67800 29.28200
H  45.36200 30.72900 33.10300
H  47.01000 30.96000 32.83100
H  46.16300 29.57700 31.96700

