158

Mg 54.14600 23.12900 44.92200
C  51.70300 25.41100 43.61200
C  52.26000 20.55000 43.74200
C  56.66600 21.09700 45.36400
C  56.04700 25.89900 45.84600
N  52.16000 23.06900 43.76700
C  51.29400 24.09900 43.39600
C  50.24900 23.51500 42.50000
C  50.22500 22.03200 43.07500
C  51.65300 21.82900 43.47800
C  49.22600 21.91000 44.31800
C  50.46000 23.62400 40.93900
C  49.28100 24.10300 40.05900
H  49.02700 23.44900 38.62800
N  54.47000 21.05900 44.57000
C  53.52900 20.12700 44.16300
C  54.06900 18.78700 44.19800
C  55.44100 18.91000 44.53600
C  55.61200 20.37500 44.87400
C  53.32000 17.50500 43.84800
C  56.43600 17.85000 44.58000
O  56.18800 16.66400 44.35300
C  57.81800 18.11700 44.84400
N  56.16200 23.48900 45.32900
C  56.94800 22.43800 45.59600
C  58.31400 22.83400 46.16600
C  58.21000 24.38900 46.22600
C  56.69700 24.63100 45.83900
C  58.68700 22.23600 47.51900
C  59.25200 25.06500 45.28300
C  60.65400 25.34200 45.92400
N  53.92900 25.15000 44.91500
C  54.73600 26.16600 45.41400
C  54.08900 27.47600 45.29900
C  52.91400 27.19200 44.55000
C  52.84600 25.77700 44.36500
C  54.74100 28.83700 45.70000
C  51.75400 27.75400 43.88600
O  51.38200 28.95800 43.81100
C  50.92400 26.59700 43.26100
C  51.00900 26.93400 41.79400
O  52.01500 26.90000 41.05500
O  49.83400 27.47800 41.35200
C  49.81300 28.26700 40.12800
H  51.60100 19.74000 43.42200
H  57.58400 20.52800 45.52500
H  56.68600 26.74200 46.11500
H  49.29900 24.03100 42.63900
H  50.01800 21.24500 42.35000
H  48.75600 22.86700 44.54500
H  49.65400 21.56900 45.26000
H  48.40800 21.33100 43.89100
H  50.81000 22.66300 40.56300
H  51.27500 24.32100 40.74100
H  49.32100 25.17300 39.85300
H  48.41300 23.97200 40.70500
H  53.58400 17.25600 42.82000
H  52.25100 17.69000 43.95200
H  53.52600 16.65200 44.49600
H  58.10600 18.98300 44.24800
H  58.30100 17.19700 44.51400
H  57.94700 18.27000 45.91500
H  59.08800 22.46800 45.49200
H  58.30200 24.74900 47.25000
H  58.06000 21.41900 47.87600
H  58.55600 22.90300 48.37200
H  59.69000 21.81500 47.45700
H  58.74500 25.98100 44.98200
H  59.37600 24.48300 44.36900
H  61.46500 25.05400 45.25600
H  60.70200 24.80300 46.87000
H  60.76100 26.41600 46.08100
H  55.82600 28.83400 45.60100
H  54.37600 29.14200 46.68000
H  54.33200 29.59400 45.03100
H  49.90000 26.69600 43.62000
H  49.15100 29.13300 40.14800
H  49.36600 27.68600 39.32100
H  50.79600 28.64200 39.84300
Mg 26.72500 50.28500 25.92100
C  24.73800 51.33800 28.68000
C  29.09100 49.50500 28.18200
C  28.53400 49.44000 23.29600
C  24.41500 51.71900 23.82200
N  26.91500 50.56900 28.23600
C  25.96600 50.87400 29.15500
C  26.43800 50.50100 30.58200
C  27.88500 50.04900 30.33400
C  27.95100 50.03700 28.81900
C  29.05200 50.95000 30.90000
C  25.48600 49.51200 31.30800
C  24.81400 49.88600 32.58700
H  25.79200 50.41400 33.63800
N  28.51700 49.52900 25.78900
C  29.38500 49.36300 26.82100
C  30.61300 48.81700 26.31000
C  30.44500 48.56700 24.88600
C  29.12600 49.21500 24.58700
C  31.90400 48.60000 27.04700
C  31.30000 47.98400 23.83100
O  31.07900 47.89300 22.65300
C  32.54800 47.28700 24.25800
N  26.48800 50.49400 23.85700
C  27.32800 50.01500 22.91900
C  26.73700 50.10300 21.51900
C  25.39100 50.83400 21.71500
C  25.46700 51.03100 23.25200
C  27.66700 50.70500 20.42100
C  24.11200 50.13900 21.11500
C  23.45900 49.04000 21.90600
N  24.89400 51.26400 26.13700
C  24.05200 51.79200 25.20400
C  22.79300 52.26300 25.73900
C  23.00900 52.16200 27.19000
C  24.28200 51.49200 27.34300
C  21.67500 52.74600 24.92100
C  22.48000 52.42800 28.55400
O  21.44100 52.89300 28.88100
C  23.62300 51.97600 29.53700
C  24.10900 53.17100 30.33200
O  25.02100 53.91900 30.12600
O  23.38200 53.12100 31.54200
C  23.83200 54.05500 32.58800
H  29.95000 49.22400 28.79600
H  29.23600 49.23000 22.48600
H  23.70500 51.97600 23.03400
H  26.33300 51.39100 31.20200
H  27.96400 48.99700 30.60700
H  28.64600 51.56000 31.70700
H  29.43200 51.61700 30.12500
H  29.92500 50.43400 31.29900
H  25.94100 48.52400 31.37500
H  24.70800 49.35900 30.56000
H  24.35000 48.98000 32.97600
H  24.09700 50.69200 32.42500
H  31.88000 49.07700 28.02700
H  32.71800 49.03700 26.46900
H  31.94000 47.55200 27.34500
H  33.04200 46.93200 23.35300
H  32.13400 46.43300 24.79500
H  33.26000 47.81500 24.89300
H  26.38200 49.15000 21.12700
H  25.50900 51.80100 21.22600
H  28.38100 51.41800 20.83400
H  27.10700 51.11800 19.58300
H  28.19000 49.78200 20.17100
H  24.33000 49.79300 20.10500
H  23.42300 50.96700 20.94900
H  24.05200 48.64600 22.73100
H  23.21200 48.21500 21.23700
H  22.52000 49.39400 22.33100
H  20.78200 52.88800 25.53000
H  21.35500 52.17000 24.05300
H  22.09500 53.66900 24.52100
H  23.10400 51.34700 30.26200
H  23.94100 55.02500 32.10500
H  24.76600 53.72400 33.04200
H  23.10900 54.06600 33.40400

