158

Mg 43.76100 3.90500 47.60000
C  41.59100 6.55200 46.74300
C  41.18800 1.76300 47.51700
C  46.09400 1.43200 47.88200
C  46.53100 6.16300 47.06500
N  41.66000 4.12300 46.87900
C  40.89900 5.27900 46.63300
C  39.47200 4.90200 46.31700
C  39.36700 3.49700 47.11100
C  40.83000 3.07300 47.22800
C  38.75700 3.63000 48.58500
C  39.22900 4.82700 44.77800
C  38.33200 5.95200 44.24800
H  38.89800 7.04400 43.29600
N  43.60200 1.87100 47.68700
C  42.46000 1.19900 47.64600
C  42.82700 -0.18000 47.64000
C  44.19100 -0.36400 47.69000
C  44.76100 1.01000 47.80100
C  41.79900 -1.31700 47.36800
C  44.98100 -1.65800 47.65500
O  44.45400 -2.79700 47.50900
C  46.50100 -1.72800 47.65300
N  46.01700 3.73100 47.28200
C  46.64300 2.66400 47.70900
C  48.20500 2.91300 47.60000
C  48.37800 4.41300 47.31300
C  46.87000 4.77700 47.15000
C  49.01500 2.36200 48.81800
C  49.24400 4.75500 46.05800
C  50.66900 4.15100 46.02300
N  44.07000 5.97000 47.16700
C  45.24400 6.72700 46.90600
C  44.83600 8.09700 46.48300
C  43.42100 8.02400 46.63300
C  42.97500 6.74800 46.94200
C  45.76300 9.19900 46.15300
C  42.22100 8.86300 46.51000
O  42.21600 10.04300 46.28900
C  40.98000 7.88200 46.52500
C  40.16600 8.32900 47.73400
O  40.55300 8.45000 48.89400
O  38.91400 8.60600 47.18300
C  37.89600 9.18100 48.08500
H  40.43400 0.98100 47.63400
H  46.90200 0.76100 48.18000
H  47.29400 6.94400 47.06300
H  38.83000 5.70100 46.68900
H  38.78400 2.77200 46.54200
H  39.48900 3.39400 49.35700
H  37.98300 2.86400 48.63000
H  38.27600 4.59600 48.73700
H  38.78800 3.85500 44.55900
H  40.16100 4.81300 44.21400
H  37.86900 6.47500 45.08400
H  37.51400 5.48500 43.69900
H  41.94000 -1.71200 46.36200
H  40.75800 -1.00200 47.44000
H  42.02700 -2.10700 48.08400
H  46.72000 -1.44700 48.68200
H  46.91800 -1.21200 46.78800
H  46.84200 -2.76300 47.61500
H  48.47600 2.34300 46.71100
H  48.72000 5.03700 48.13900
H  49.48900 1.39700 48.63700
H  48.30900 2.20200 49.63300
H  49.81500 2.98100 49.22300
H  49.41200 5.82500 45.93200
H  48.77400 4.41600 45.13500
H  50.80900 3.66400 46.98800
H  51.46500 4.88500 45.89700
H  50.85700 3.44800 45.21100
H  46.66800 9.11800 46.75500
H  45.25300 10.14400 46.34400
H  46.17000 9.01500 45.15900
H  40.31600 7.82900 45.66200
H  37.39300 8.30900 48.50400
H  37.14500 9.76600 47.55400
H  38.33800 9.75800 48.89800
Mg 6.51400 57.54600 42.18100
C  5.83300 53.98600 42.15400
C  9.58900 56.75600 40.77700
C  6.88800 60.75100 41.53700
C  3.33100 58.06900 43.36500
N  7.49100 55.62400 41.39700
C  7.11100 54.37500 41.54300
C  8.25800 53.37000 41.24300
C  9.56400 54.24200 41.12400
C  8.80400 55.63600 41.12600
C  10.59700 54.13500 42.24800
C  7.86900 52.54300 39.92300
C  8.93100 52.13700 38.85200
H  8.45900 51.03500 37.88700
N  8.09000 58.65200 41.39700
C  9.25700 58.11900 40.80400
C  9.97800 59.23000 40.23700
C  9.32600 60.40700 40.59100
C  8.01900 59.96300 41.19100
C  11.31300 59.03400 39.37000
C  9.80800 61.88200 40.42200
O  10.77400 62.15800 39.74900
C  9.03600 63.05000 41.06200
N  5.19400 59.17300 42.32100
C  5.62700 60.42500 42.13700
C  4.59500 61.55700 42.52500
C  3.50600 60.64600 43.14900
C  3.97200 59.22100 42.89000
C  5.19100 62.56300 43.58400
C  2.09300 60.85000 42.58600
C  0.93400 60.68200 43.47300
N  4.89700 56.33800 42.80800
C  3.71200 56.68800 43.28300
C  2.94800 55.46700 43.63000
C  3.81600 54.43000 43.30500
C  4.91700 54.96500 42.67200
C  1.54100 55.43600 44.21200
C  3.90500 53.03100 43.23200
O  3.24300 52.16300 43.77200
C  5.27500 52.66400 42.45600
C  4.91200 51.92500 41.23000
O  4.33400 52.36400 40.28000
O  5.32300 50.59300 41.40500
C  4.93800 49.64100 40.37200
H  10.57900 56.55500 40.36300
H  6.84200 61.82500 41.34800
H  2.34900 58.19100 43.82600
H  8.34300 52.52200 41.92400
H  10.22700 54.07200 40.27700
H  10.21100 53.40700 42.96200
H  10.86000 55.12600 42.62000
H  11.49300 53.69200 41.81300
H  7.06200 53.10500 39.45300
H  7.33900 51.67100 40.30800
H  9.83200 51.75000 39.32700
H  9.21100 53.04900 38.32600
H  11.28000 59.22200 38.29700
H  11.73100 58.02800 39.41700
H  12.09100 59.58600 39.89700
H  8.76700 62.89800 42.10700
H  8.15000 63.32000 40.48700
H  9.69400 63.91900 41.05500
H  4.22300 62.01600 41.60900
H  3.57700 60.84400 44.21800
H  4.50900 62.82100 44.39400
H  5.63500 63.39100 43.03100
H  6.10300 62.10900 43.97300
H  1.99400 60.20500 41.71200
H  2.08500 61.80300 42.05600
H  1.14600 60.21100 44.43300
H  0.19800 60.01300 43.02500
H  0.46000 61.65000 43.63500
H  0.86700 55.13600 43.41000
H  1.33400 56.45000 44.55400
H  1.49500 54.73600 45.04600
H  5.84800 52.04300 43.14400
H  4.02200 49.93600 39.85900
H  4.90200 48.57900 40.61600
H  5.70200 49.75900 39.60300

