158

Mg -2.16900 17.06000 26.83300
C  -2.90500 14.87100 29.57700
C  -2.68200 19.66000 29.03000
C  -1.76800 19.09600 24.33200
C  -2.35700 14.26300 24.74000
N  -2.79300 17.21000 29.06200
C  -2.86000 16.21100 30.03500
C  -2.83200 16.81800 31.41500
C  -3.01200 18.37500 31.21800
C  -2.80500 18.42300 29.64300
C  -4.38100 19.06000 31.64800
C  -1.61800 16.28300 32.20500
C  -1.13800 17.08100 33.33200
H  -0.57600 16.30700 34.51000
N  -2.17500 19.04400 26.74300
C  -2.37700 19.96200 27.69500
C  -2.13600 21.35900 27.18800
C  -1.81800 21.19100 25.82500
C  -1.90700 19.77500 25.58500
C  -2.44000 22.55800 27.98100
C  -1.56500 22.20700 24.75300
O  -1.55400 22.02400 23.51200
C  -1.32400 23.59700 25.26500
N  -2.43700 16.74000 24.75100
C  -2.01300 17.77000 23.92100
C  -1.71700 17.26700 22.47800
C  -1.87800 15.74200 22.64300
C  -2.20500 15.55200 24.16900
C  -2.76300 17.87400 21.45700
C  -0.73500 14.85700 22.13400
C  -0.71200 14.87400 20.57500
N  -2.53900 15.00000 27.01600
C  -2.50500 13.95700 26.09200
C  -2.73400 12.68100 26.74500
C  -2.92700 13.03500 28.06000
C  -2.80700 14.44600 28.23400
C  -2.77400 11.39600 25.99100
C  -3.13000 12.41300 29.34200
O  -3.25600 11.27200 29.69300
C  -3.16400 13.59800 30.42300
C  -2.04100 13.29400 31.35300
O  -0.86900 13.59800 31.14700
O  -2.43200 12.60400 32.49900
C  -1.28900 12.25200 33.38100
H  -2.73500 20.47900 29.75000
H  -1.54400 19.71200 23.45800
H  -2.33500 13.41900 24.04800
H  -3.69800 16.34500 31.87800
H  -2.20400 18.86200 31.76500
H  -5.05500 18.20600 31.58100
H  -4.80400 19.79700 30.96500
H  -4.37400 19.54400 32.62500
H  -0.79000 16.12300 31.51400
H  -1.89700 15.34500 32.68600
H  -1.79200 17.84200 33.75700
H  -0.24500 17.60500 32.99000
H  -3.38800 22.46900 28.51100
H  -2.53400 23.54500 27.52900
H  -1.60300 22.57400 28.67900
H  -0.67000 23.88400 24.44200
H  -0.83100 23.65100 26.23600
H  -2.24200 24.17900 25.18400
H  -0.71300 17.54900 22.16200
H  -2.69500 15.28800 22.08200
H  -3.29300 18.76900 21.78500
H  -3.46200 17.06600 21.24500
H  -2.27100 18.12200 20.51700
H  -0.86600 13.85900 22.55100
H  0.24400 15.13000 22.53100
H  -0.95100 13.88300 20.19000
H  0.30100 14.99000 20.19100
H  -1.28700 15.59500 19.99400
H  -1.79900 11.35200 25.50600
H  -3.57300 11.28300 25.25900
H  -2.63400 10.69900 26.81800
H  -4.09200 13.77500 30.96500
H  -0.61900 13.11100 33.43900
H  -0.72500 11.44200 32.91900
H  -1.68300 12.01300 34.36900
Mg -12.03300 16.94900 41.60000
C  -9.15200 14.96300 41.11900
C  -10.45300 19.48200 40.12000
C  -15.00300 18.50700 41.23800
C  -13.70700 13.96000 42.64900
N  -10.04100 17.13400 40.55300
C  -9.01600 16.23300 40.54100
C  -7.71500 16.81500 40.04100
C  -8.12000 18.34700 40.02900
C  -9.66600 18.30300 40.29500
C  -7.47400 19.30400 41.03800
C  -7.24000 16.15600 38.74400
C  -5.76900 15.84700 38.57400
H  -5.09100 16.39400 37.28600
N  -12.61700 18.78500 40.66800
C  -11.81600 19.74500 40.25200
C  -12.56400 20.94400 39.97100
C  -13.92100 20.69100 40.24400
C  -13.94500 19.28700 40.78100
C  -11.99100 22.23300 39.44900
C  -15.11000 21.64800 40.18100
O  -14.98900 22.87000 40.03600
C  -16.53500 21.16800 40.38900
N  -14.05700 16.31300 41.92500
C  -15.14100 17.21200 41.66100
C  -16.44700 16.37600 41.67800
C  -16.05000 14.98200 42.29500
C  -14.52200 15.05500 42.22900
C  -17.64900 17.15300 42.35800
C  -16.73400 13.81500 41.43000
C  -17.10300 12.47800 42.07500
N  -11.57900 14.92500 41.99800
C  -12.30700 13.88900 42.45800
C  -11.47700 12.73000 42.66200
C  -10.24600 13.12700 42.15600
C  -10.36000 14.48500 41.69000
C  -11.87600 11.37800 43.17700
C  -8.87800 12.69600 41.84900
O  -8.36400 11.59900 42.03400
C  -8.12300 13.84500 41.05600
C  -6.88900 14.15900 41.83300
O  -6.83500 14.83900 42.84100
O  -5.69700 13.66900 41.26500
C  -4.48700 14.34400 41.81100
H  -9.88900 20.38700 39.88600
H  -16.00800 18.93500 41.24400
H  -14.30300 13.05600 42.79100
H  -6.87400 16.64100 40.71300
H  -8.01900 18.76500 39.02700
H  -6.75000 18.68900 41.57100
H  -8.27700 19.69400 41.66300
H  -6.94300 20.24400 40.88400
H  -7.54100 16.84500 37.95500
H  -7.74300 15.21300 38.52700
H  -5.69400 14.76100 38.63300
H  -5.28500 16.26200 39.45800
H  -11.47400 21.94800 38.53200
H  -11.22000 22.50800 40.16800
H  -12.64300 23.03600 39.10600
H  -17.24200 21.96600 40.16200
H  -16.62000 20.90700 41.44400
H  -16.76300 20.28100 39.79800
H  -16.64000 16.33400 40.60600
H  -16.32200 14.98600 43.35000
H  -18.43800 17.31200 41.62300
H  -17.42000 18.06700 42.90600
H  -17.91300 16.56300 43.23500
H  -15.96200 13.50800 40.72500
H  -17.55300 14.22800 40.84200
H  -16.53100 11.68900 41.58800
H  -18.15000 12.22100 41.91600
H  -16.86000 12.42400 43.13700
H  -12.09900 11.62100 44.21600
H  -11.19600 10.54400 43.00300
H  -12.78700 11.21800 42.60100
H  -7.89100 13.57300 40.02600
H  -4.55900 15.42300 41.94300
H  -3.69600 13.99800 41.14400
H  -4.27400 13.98600 42.81800

