158

Mg 24.01300 -4.88900 45.69100
C  25.88200 -2.46800 44.14900
C  21.32400 -3.71800 43.84000
C  22.35400 -7.61100 46.72700
C  26.85900 -6.02600 47.41000
N  23.67300 -3.44400 43.95800
C  24.62800 -2.50400 43.60600
C  23.92800 -1.43200 42.64100
C  22.45200 -1.62700 43.04500
C  22.43600 -3.05800 43.63900
C  21.99800 -0.59400 44.13400
C  24.30600 -1.74000 41.17200
C  24.87900 -0.64600 40.27400
H  24.95000 -0.97900 38.76200
N  22.12800 -5.57400 45.33900
C  21.11100 -4.98700 44.45500
C  19.93800 -5.83600 44.48600
C  20.27200 -6.90100 45.40100
C  21.65800 -6.74800 45.85300
C  18.69400 -5.47500 43.61600
C  19.26000 -8.01200 45.94200
O  18.10900 -8.06100 45.53600
C  19.57900 -8.90400 47.11400
N  24.55100 -6.52900 47.09100
C  23.62800 -7.52000 47.29100
C  24.29500 -8.68200 48.09700
C  25.68700 -8.10300 48.45300
C  25.75200 -6.81600 47.59900
C  23.47700 -9.23400 49.31400
C  26.83700 -9.04600 48.02300
C  28.20500 -8.99100 48.91800
N  25.97200 -4.44000 45.78000
C  27.00500 -4.89400 46.55600
C  28.17600 -4.07900 46.35500
C  27.78900 -3.15100 45.41100
C  26.41900 -3.32500 45.10800
C  29.48900 -4.20600 47.07200
C  28.25500 -1.97200 44.66500
O  29.34800 -1.49800 44.57500
C  27.02700 -1.54800 43.74600
C  26.73400 -0.13700 44.08700
O  25.90900 0.16100 44.97100
O  27.51100 0.76000 43.23700
C  27.22800 2.10000 43.46100
H  20.36900 -3.30700 43.50600
H  21.86000 -8.56400 46.92800
H  27.78600 -6.38200 47.86300
H  24.24000 -0.41300 42.87000
H  21.75900 -1.54000 42.20800
H  22.84000 -0.05500 44.57000
H  21.46400 -1.17500 44.88600
H  21.26000 -0.00700 43.58900
H  23.37100 -2.06000 40.71300
H  25.07300 -2.51100 41.23900
H  25.87400 -0.45600 40.67600
H  24.39800 0.31800 40.44100
H  18.95400 -5.14200 42.61100
H  18.14900 -4.59300 43.95100
H  18.15000 -6.41900 43.58200
H  18.61200 -9.15800 47.54800
H  20.20900 -8.42100 47.86100
H  19.98700 -9.83900 46.72900
H  24.45500 -9.47200 47.36400
H  25.88700 -7.86700 49.49800
H  23.39700 -10.29600 49.08000
H  22.44700 -8.88200 49.37100
H  23.95300 -8.94900 50.25200
H  27.01600 -8.91400 46.95600
H  26.52700 -10.07700 48.19200
H  28.47900 -9.97900 49.28800
H  28.17600 -8.22700 49.69600
H  29.04800 -8.66900 48.30600
H  30.42600 -3.94000 46.58200
H  29.56400 -5.25900 47.34200
H  29.45200 -3.76500 48.06800
H  27.22300 -1.67800 42.68200
H  27.01500 2.60400 42.51800
H  28.15400 2.59400 43.75700
H  26.48400 2.34100 44.22000
Mg 16.16700 -1.74300 27.64800
C  15.46000 0.51000 30.29200
C  18.33000 -3.40200 29.81800
C  17.59200 -3.14100 25.00400
C  14.37600 0.39400 25.51700
N  16.95600 -1.32800 29.69900
C  16.39800 -0.50300 30.61900
C  16.77100 -0.91500 32.01000
C  17.81800 -2.02800 31.84100
C  17.66200 -2.32800 30.37200
C  19.29000 -1.93300 32.34800
C  15.55400 -1.23300 32.97800
C  15.72400 -0.52500 34.36000
H  17.01700 -0.05600 34.83800
N  17.72200 -3.15900 27.41800
C  18.44600 -3.76500 28.41500
C  19.26200 -4.73100 27.78700
C  19.06100 -4.70600 26.35800
C  18.15700 -3.63200 26.20600
C  20.03900 -5.57100 28.68500
C  19.56800 -5.58600 25.21400
O  19.27900 -5.47500 24.03200
C  20.42600 -6.66500 25.59200
N  16.02200 -1.38000 25.58900
C  16.71300 -2.11100 24.69800
C  16.61000 -1.50800 23.28600
C  15.36200 -0.59900 23.40000
C  15.17700 -0.55500 24.91800
C  17.81900 -0.69400 22.76800
C  14.18500 -1.06600 22.54500
C  13.68600 -0.11600 21.45900
N  15.02100 0.00700 27.80400
C  14.32900 0.73000 26.85600
C  13.57800 1.73100 27.48400
C  14.02200 1.75400 28.85200
C  14.92700 0.68100 28.95600
C  12.63200 2.70500 26.84200
C  13.89800 2.44600 30.05100
O  13.14800 3.35800 30.45400
C  14.80800 1.60800 31.10400
C  15.76900 2.59200 31.72600
O  16.71100 3.09100 31.16400
O  15.38900 2.82800 33.00900
C  16.05800 3.99900 33.60400
H  18.83800 -3.87500 30.66100
H  18.00800 -3.56900 24.09000
H  13.89200 1.00200 24.75000
H  17.13500 0.07400 32.28700
H  17.40800 -2.88600 32.37500
H  20.00300 -1.69800 31.55800
H  19.44400 -2.92500 32.77300
H  19.52900 -1.26300 33.17400
H  15.50400 -2.32100 33.02800
H  14.66700 -0.87200 32.45600
H  15.36600 -1.33800 34.99200
H  15.04800 0.32800 34.41400
H  20.93300 -5.82500 28.11500
H  19.42100 -6.42200 28.97100
H  20.36600 -5.08100 29.60200
H  20.76300 -7.25500 24.74000
H  19.93900 -7.28000 26.34900
H  21.32800 -6.26400 26.05400
H  16.44000 -2.33300 22.59400
H  15.47400 0.43600 23.07700
H  18.72500 -1.25500 23.00000
H  17.91300 0.30600 23.19200
H  17.76700 -0.66700 21.68000
H  13.27400 -1.35300 23.07000
H  14.50500 -1.85900 21.87000
H  12.98400 0.67600 21.72100
H  13.15200 -0.73300 20.73600
H  14.48500 0.38700 20.91500
H  11.62200 2.48500 27.18700
H  12.55900 2.71400 25.75400
H  12.85000 3.75800 27.02200
H  14.12500 1.30900 31.89900
H  16.48800 3.68000 34.55300
H  15.28800 4.73700 33.83200
H  16.88500 4.41400 33.03000

