158

Mg 17.15200 -2.22600 28.43500
C  16.19600 -0.01700 30.94200
C  18.91900 -3.96300 30.80400
C  18.42100 -3.86400 25.83000
C  15.74300 0.04700 26.02000
N  17.44500 -2.03200 30.64700
C  16.91000 -1.07200 31.41700
C  17.37100 -1.23600 32.91200
C  18.39500 -2.36600 32.86300
C  18.18700 -2.87100 31.40900
C  19.89800 -2.02000 33.11700
C  16.17600 -1.52100 33.90700
C  16.68100 -1.80800 35.37500
H  17.82400 -1.07700 35.94300
N  18.49300 -3.69900 28.35400
C  19.05000 -4.33900 29.45800
C  19.80700 -5.47700 28.96600
C  19.70400 -5.43600 27.53500
C  18.78900 -4.30400 27.17300
C  20.58500 -6.43500 29.93900
C  20.30600 -6.40400 26.60900
O  19.91800 -6.61500 25.43700
C  21.10700 -7.41900 27.08200
N  16.91500 -2.01200 26.20800
C  17.58900 -2.90700 25.35900
C  17.62500 -2.38700 23.96500
C  16.59100 -1.16600 24.07500
C  16.35800 -1.03100 25.53900
C  19.03700 -1.96700 23.53300
C  15.35100 -1.12900 23.14100
C  13.95800 -1.22300 23.86300
N  16.15100 -0.38900 28.43400
C  15.67300 0.42300 27.39800
C  14.86700 1.46200 27.97500
C  15.02300 1.31400 29.39600
C  15.95100 0.24600 29.58000
C  13.87200 2.37000 27.27200
C  14.65300 1.88900 30.68700
O  13.93600 2.87200 30.89100
C  15.50800 1.01400 31.73600
C  16.28500 1.88100 32.61600
O  17.40200 2.18400 32.33900
O  15.54300 2.35900 33.67300
C  16.28900 3.19100 34.66200
H  19.39000 -4.42600 31.67300
H  18.93700 -4.48400 25.09400
H  15.29300 0.76800 25.33500
H  17.70500 -0.30600 33.37200
H  18.04200 -3.13300 33.55300
H  20.37600 -2.95800 33.39900
H  20.01200 -1.09900 33.68700
H  20.23500 -1.51400 32.21200
H  15.57100 -2.35900 33.56000
H  15.48900 -0.69200 34.07900
H  16.98400 -2.85200 35.46100
H  15.88400 -1.63200 36.09700
H  21.65800 -6.24500 29.91500
H  20.45700 -7.47600 29.63900
H  20.19100 -6.37700 30.95400
H  21.97100 -6.90100 27.49900
H  21.35900 -8.10200 26.27100
H  20.55300 -8.04700 27.78000
H  17.19200 -3.10600 23.27000
H  17.10400 -0.23200 23.84700
H  19.45400 -2.77400 22.93100
H  19.61600 -1.71400 24.42100
H  18.91900 -1.06600 22.93100
H  15.43100 -1.87300 22.34800
H  15.58200 -0.12200 22.79200
H  13.26800 -1.63200 23.12500
H  13.57700 -0.26200 24.21100
H  13.88500 -1.85700 24.74600
H  13.57000 3.20900 27.89900
H  12.99300 1.81000 26.95100
H  14.31600 2.85600 26.40400
H  14.85000 0.51800 32.44900
H  17.08100 3.72900 34.14200
H  16.60800 2.52300 35.46200
H  15.63500 3.92300 35.13600
Mg 47.43000 34.19900 26.65500
C  45.59400 32.93700 29.40900
C  47.78200 37.16100 28.37400
C  48.51800 35.57900 23.73900
C  46.27700 31.37300 24.75100
N  46.84800 34.87000 28.68500
C  46.19400 34.19900 29.58600
C  46.25800 34.94500 30.89700
C  46.69600 36.39000 30.51900
C  47.04500 36.17400 29.09100
C  45.76100 37.57200 30.82100
C  47.30200 34.33600 31.96000
C  46.99700 34.48100 33.39900
H  46.18000 35.65000 33.92900
N  48.21200 36.00100 26.17000
C  48.25000 37.10000 27.00000
C  49.07700 38.13100 26.41100
C  49.31100 37.71700 25.05400
C  48.64700 36.36500 24.95200
C  49.67200 39.32500 27.10300
C  50.14500 38.39400 23.93300
O  50.46800 37.78200 22.94800
C  50.57500 39.84700 24.18000
N  47.32300 33.60800 24.51400
C  47.99400 34.33400 23.58000
C  47.93700 33.62600 22.25100
C  47.39300 32.22200 22.58500
C  46.93800 32.40400 24.05600
C  47.14200 34.34800 21.08100
C  48.41000 31.01400 22.39700
C  49.47900 30.76200 23.46400
N  46.39500 32.43500 27.01700
C  46.06500 31.38400 26.15200
C  45.46500 30.39500 26.88500
C  45.11000 31.01100 28.15900
C  45.73900 32.24300 28.16000
C  45.16900 29.02200 26.37800
C  44.41700 30.80300 29.41400
O  43.75000 29.85300 29.88600
C  44.66600 32.03700 30.28900
C  45.29200 31.56900 31.47600
O  46.43500 31.14300 31.57100
O  44.39400 31.58900 32.54500
C  44.74800 30.89100 33.81400
H  47.87100 38.08700 28.94400
H  49.01700 35.99700 22.86100
H  45.87800 30.49500 24.23900
H  45.25400 34.93200 31.32100
H  47.65600 36.73300 30.90700
H  45.88500 38.31400 30.03200
H  46.08600 38.11400 31.71000
H  44.70900 37.29300 30.87700
H  48.27600 34.71800 31.65500
H  47.39600 33.30200 31.63100
H  47.91700 34.54200 33.98100
H  46.61200 33.51300 33.72100
H  50.73600 39.43300 26.89400
H  49.51100 39.20700 28.17400
H  49.18700 40.28000 26.90200
H  49.71700 40.43900 24.49800
H  50.97700 40.04000 23.18600
H  51.44300 39.95900 24.82900
H  49.00500 33.59600 22.03800
H  46.45000 31.92500 22.12600
H  47.70500 34.28300 20.15000
H  46.92300 35.37500 21.37600
H  46.18500 33.83300 20.99700
H  48.98800 31.10700 21.47700
H  47.85200 30.09300 22.22900
H  50.36300 30.48600 22.88900
H  49.10400 29.87800 23.98000
H  49.67600 31.65400 24.05900
H  44.17700 28.95900 25.92900
H  45.16600 28.40600 27.27700
H  45.99100 28.62100 25.78500
H  43.71700 32.48000 30.59100
H  45.77100 31.15000 34.08800
H  44.60100 29.82500 33.64200
H  44.01200 31.40600 34.43000

