158

Mg 48.32800 24.38300 29.00600
C  49.33800 26.77100 31.39500
C  47.60900 22.23600 31.58200
C  47.49300 22.09500 26.62900
C  49.32900 26.63200 26.51000
N  48.58700 24.47900 31.19600
C  48.74000 25.62500 31.95600
C  48.40200 25.34700 33.41600
C  47.99500 23.83900 33.41100
C  48.02500 23.49000 31.92000
C  48.91300 22.88300 34.19500
C  47.31800 26.41900 33.85600
C  46.70400 26.20000 35.26400
H  47.03600 27.16600 36.47300
N  47.66000 22.45700 29.06100
C  47.40300 21.78600 30.21700
C  46.85200 20.48300 29.88100
C  46.77600 20.42100 28.40500
C  47.34300 21.67200 27.92200
C  46.44300 19.41600 30.87600
C  46.24000 19.33800 27.42800
O  46.30500 19.40800 26.18200
C  45.56200 18.20500 27.93700
N  48.45400 24.28300 26.86600
C  48.02800 23.27800 26.13300
C  48.23100 23.52200 24.65000
C  48.65100 25.05700 24.63600
C  48.82600 25.37100 26.07100
C  49.28100 22.59200 23.97500
C  47.66500 26.05700 23.85900
C  48.43000 27.17300 23.07400
N  49.16900 26.26800 28.89100
C  49.45300 27.09300 27.81600
C  50.12100 28.35700 28.25100
C  50.09600 28.28000 29.66800
C  49.51100 26.99600 30.00800
C  50.75300 29.47200 27.46900
C  50.31600 28.98000 30.93700
O  50.84400 30.11300 31.06500
C  49.78100 28.08700 32.02500
C  50.80000 27.85300 33.09100
O  51.73500 27.05400 33.06900
O  50.69700 28.73600 34.10200
C  51.50000 28.56300 35.23000
H  47.32500 21.48800 32.32500
H  47.19600 21.38300 25.85600
H  49.60100 27.25500 25.65600
H  49.27100 25.65100 34.00000
H  46.93300 23.70200 33.61400
H  49.75500 23.36000 34.69600
H  49.47700 22.16100 33.60400
H  48.35800 22.29500 34.92500
H  46.57600 26.55900 33.07000
H  47.79300 27.40000 33.87700
H  46.92700 25.18200 35.58500
H  45.63300 26.30000 35.08900
H  45.42800 19.10400 30.63100
H  46.36200 19.82100 31.88500
H  46.89400 18.42400 30.90000
H  46.18600 17.60900 28.60300
H  45.23700 17.61000 27.08300
H  44.66100 18.53800 28.45200
H  47.33500 23.47900 24.03200
H  49.57400 25.11600 24.06000
H  50.23800 22.99000 23.63400
H  48.87200 22.08000 23.10400
H  49.36900 21.77600 24.69200
H  47.11200 26.65800 24.58100
H  46.99800 25.47900 23.22000
H  48.24300 28.16900 23.47400
H  48.15900 27.23700 22.02000
H  49.50400 26.99200 23.02500
H  50.81000 29.24200 26.40500
H  51.76200 29.75300 27.77300
H  50.05900 30.26200 27.75700
H  48.97900 28.70900 32.42200
H  52.19100 29.39800 35.34600
H  52.23100 27.75500 35.25000
H  50.78500 28.53500 36.05200
Mg 26.70000 49.61900 25.50200
C  24.67000 50.94400 28.22900
C  29.17600 48.92100 27.80800
C  28.41800 48.45300 23.08300
C  24.35000 51.01700 23.30400
N  26.89900 49.88400 27.71300
C  25.93200 50.35300 28.64800
C  26.40500 50.16600 30.13600
C  27.95300 49.82100 29.89900
C  28.03700 49.44000 28.40700
C  28.87600 51.03000 30.23600
C  25.60800 49.13100 31.09000
C  25.27400 49.64400 32.47100
H  26.26100 50.30700 33.37100
N  28.53500 48.72400 25.50000
C  29.42100 48.54600 26.50900
C  30.57800 47.82300 26.03600
C  30.27200 47.44600 24.66300
C  28.99100 48.16700 24.33400
C  31.81900 47.44700 27.03900
C  30.86900 46.42700 23.75400
O  30.37000 46.33800 22.62700
C  31.92300 45.53900 24.11400
N  26.42400 49.78600 23.47000
C  27.31100 49.21600 22.67500
C  27.12600 49.65000 21.17000
C  25.74100 50.41100 21.21300
C  25.41700 50.39900 22.73200
C  28.25400 50.41200 20.37300
C  24.61200 49.74300 20.28900
C  23.85000 48.48000 20.75500
N  25.00400 50.78600 25.68600
C  24.07800 51.21700 24.68300
C  23.00700 51.97300 25.26600
C  23.25900 51.90400 26.63400
C  24.42500 51.17600 26.85400
C  21.81000 52.47800 24.61500
C  22.59000 52.20900 27.88500
O  21.50800 52.68600 28.10100
C  23.60900 51.75000 28.96600
C  24.19700 52.90300 29.75100
O  25.14800 53.55800 29.40300
O  23.59900 53.15100 30.88000
C  24.12900 54.21500 31.73300
H  29.93300 48.62500 28.53800
H  28.94900 48.23600 22.15500
H  23.64700 51.41600 22.57000
H  26.19900 51.11400 30.63300
H  28.18000 49.12300 30.70400
H  29.76000 51.16800 29.61400
H  29.08200 50.78400 31.27800
H  28.30700 51.95900 30.20600
H  26.25100 48.26400 31.24200
H  24.85300 48.65100 30.46700
H  24.97600 48.69300 32.91200
H  24.38000 50.26800 32.48900
H  31.91200 48.19600 27.82500
H  32.74700 47.45100 26.46700
H  31.86600 46.46100 27.50200
H  31.69300 44.62900 23.55900
H  31.85700 45.33800 25.18300
H  32.85600 45.98900 23.77600
H  27.20600 48.69300 20.65600
H  25.84500 51.42800 20.83400
H  27.93400 50.69000 19.36800
H  29.20800 49.88800 20.33700
H  28.52700 51.32100 20.90900
H  25.19100 49.46700 19.40700
H  23.97600 50.59100 20.03300
H  23.99300 47.75300 19.95600
H  22.81100 48.76300 20.92100
H  24.18400 47.95400 21.65000
H  21.88100 53.44000 24.10700
H  20.95700 52.54200 25.29000
H  21.33000 51.80900 23.90100
H  23.12600 51.16800 29.75200
H  24.04200 55.15000 31.18000
H  25.12200 53.89300 32.04900
H  23.53800 54.15700 32.64700

