158

Mg 9.79300 47.79500 26.32300
C  8.07200 47.72200 29.40300
C  12.42500 49.19600 27.95500
C  11.29700 47.87600 23.30600
C  6.81000 46.74900 24.72200
N  10.19500 48.32200 28.45800
C  9.38000 48.07400 29.61800
C  10.17200 48.34000 30.90300
C  11.32000 49.27500 30.29300
C  11.37500 48.94200 28.77500
C  11.09200 50.83500 30.53200
C  10.70200 46.98800 31.65600
C  10.88300 47.15800 33.14200
H  10.07200 46.07500 33.99200
N  11.63700 48.33000 25.79000
C  12.59600 48.93600 26.53400
C  13.82600 49.14900 25.81900
C  13.52000 48.68600 24.49500
C  12.07700 48.25400 24.45100
C  15.04100 49.66100 26.37500
C  14.38800 48.76800 23.26800
O  14.11900 48.33200 22.12100
C  15.74400 49.38100 23.36500
N  9.19300 47.37700 24.21900
C  9.99500 47.49900 23.16300
C  9.42300 46.96400 21.93700
C  8.05900 46.37500 22.48200
C  7.96100 46.82500 23.91800
C  9.45300 48.03100 20.87800
C  7.89000 44.86800 22.43100
C  9.11300 44.06300 22.84100
N  7.88200 47.38200 26.84700
C  6.73800 47.05000 26.10500
C  5.60800 46.85700 26.92100
C  6.06500 47.12800 28.20600
C  7.47300 47.37500 28.13200
C  4.16900 46.47300 26.45600
C  5.66700 47.15400 29.65900
O  4.58000 46.91900 30.18200
C  6.93400 47.45300 30.52000
C  7.18700 46.32500 31.41100
O  7.70900 45.26000 31.07600
O  6.62600 46.69200 32.65300
C  6.40600 45.58000 33.59100
H  13.25400 49.76200 28.38500
H  11.87200 47.89800 22.37800
H  5.97000 46.40300 24.11700
H  9.54100 48.85000 31.63100
H  12.26000 48.92300 30.71800
H  11.96600 51.20100 31.07200
H  10.18300 50.92800 31.12600
H  11.02200 51.43100 29.62200
H  11.69000 46.81900 31.22600
H  10.19600 46.06100 31.38600
H  10.66300 48.14800 33.53900
H  11.91300 46.93700 33.42500
H  15.16000 50.64300 25.91700
H  15.95900 49.09100 26.23100
H  15.01900 49.65900 27.46500
H  15.56300 50.32700 23.87500
H  16.32600 49.64700 22.48300
H  16.37700 48.67900 23.90800
H  10.01300 46.12400 21.57100
H  7.25000 46.77400 21.87100
H  8.54800 48.02600 20.27200
H  10.33800 47.83100 20.27300
H  9.45200 49.06700 21.21800
H  7.71700 44.74500 21.36200
H  7.03600 44.61900 23.06100
H  8.71500 43.28900 23.49800
H  9.76300 44.64100 23.49800
H  9.72600 43.61700 22.05800
H  3.63700 47.42200 26.51600
H  3.62700 45.70800 27.01100
H  4.14000 46.01900 25.46500
H  6.65300 48.38000 31.02000
H  5.35300 45.35100 33.75900
H  6.92500 45.77500 34.53000
H  6.80500 44.61900 33.26700
Mg -13.05400 16.96500 41.84800
C  -10.01800 15.08000 41.23800
C  -11.48200 19.67900 40.68600
C  -15.93700 18.56700 42.14600
C  -14.60000 13.95300 42.50000
N  -10.99100 17.27400 41.02500
C  -9.93700 16.47300 40.94300
C  -8.73100 17.32000 40.49400
C  -9.30800 18.73100 40.34400
C  -10.67000 18.53700 40.76800
C  -8.63700 19.90000 40.98700
C  -7.96800 16.76200 39.18200
C  -6.55600 16.22500 39.38400
H  -6.01800 15.24200 38.40600
N  -13.62400 18.86800 41.56200
C  -12.84900 19.85100 41.08400
C  -13.60000 21.10400 40.99100
C  -14.97200 20.77600 41.45200
C  -14.90000 19.37000 41.75600
C  -13.07400 22.35500 40.45200
C  -16.15800 21.74900 41.65600
O  -15.98900 22.91700 41.33900
C  -17.60600 21.44700 42.10700
N  -15.02000 16.34200 42.20600
C  -16.03400 17.16700 42.33500
C  -17.40600 16.47100 42.42800
C  -16.91500 14.98300 42.55900
C  -15.40700 15.09300 42.44200
C  -18.26100 17.08200 43.52900
C  -17.62600 13.85800 41.75800
C  -17.37100 13.93600 40.22700
N  -12.42800 14.91300 41.93800
C  -13.23000 13.81100 42.23400
C  -12.42400 12.61300 42.10100
C  -11.15800 13.03000 41.68200
C  -11.21900 14.43300 41.66900
C  -12.91600 11.17900 42.25000
C  -9.81600 12.59500 41.35100
O  -9.22400 11.51100 41.35300
C  -8.99700 13.96600 41.10500
C  -7.76400 14.17700 42.00700
O  -7.44800 15.21300 42.55900
O  -6.99700 13.05100 42.05700
C  -5.58900 13.23700 42.59300
H  -11.02400 20.58100 40.27400
H  -16.93100 19.00800 42.24200
H  -15.27000 13.11800 42.71500
H  -8.06400 17.46400 41.34300
H  -9.31900 19.05000 39.30100
H  -7.62600 19.60700 41.27300
H  -9.07400 20.01000 41.97900
H  -8.57700 20.78900 40.36000
H  -7.90500 17.61000 38.50000
H  -8.50700 15.93400 38.72000
H  -6.42400 15.77800 40.37000
H  -5.82300 17.03100 39.41200
H  -12.35200 22.05400 39.69200
H  -12.67500 23.03600 41.20300
H  -13.86600 22.92900 39.97000
H  -18.14700 22.39300 42.11300
H  -17.46900 21.06000 43.11600
H  -18.14100 20.63400 41.61600
H  -17.82100 16.64300 41.43600
H  -17.05500 14.79700 43.62400
H  -18.38300 16.48000 44.42900
H  -19.26200 17.17100 43.10700
H  -18.01000 18.05200 43.95900
H  -18.66900 14.17100 41.80700
H  -17.34100 12.90500 42.20300
H  -18.31300 14.20500 39.75000
H  -17.00000 12.95700 39.92400
H  -16.70300 14.75200 39.95000
H  -13.24000 10.94400 41.23600
H  -13.71000 11.16000 42.99600
H  -12.06000 10.55800 42.51500
H  -8.45500 14.01200 40.16100
H  -5.17200 12.23000 42.58000
H  -5.52600 13.57000 43.62900
H  -5.16200 13.95500 41.89200

