158

Mg 24.17300 -5.98800 45.20700
C  26.72300 -3.83000 43.91800
C  21.98900 -4.68200 42.97800
C  22.34400 -8.78700 45.58000
C  26.89500 -7.71200 46.89500
N  24.41000 -4.43700 43.65600
C  25.51400 -3.65200 43.29300
C  25.19900 -2.76500 42.06000
C  23.65200 -2.91500 42.01300
C  23.30200 -4.08000 42.98200
C  22.79300 -1.61800 42.21700
C  25.96600 -3.22400 40.81200
C  26.81200 -2.17900 40.13500
H  26.52100 -1.89500 38.68900
N  22.41200 -6.57500 44.54800
C  21.61200 -5.83700 43.67600
C  20.31500 -6.55600 43.44800
C  20.41100 -7.76000 44.30300
C  21.77700 -7.74600 44.88900
C  19.21000 -6.12500 42.57400
C  19.37800 -8.90700 44.42700
O  18.28900 -8.78300 43.84100
C  19.52100 -10.00600 45.44000
N  24.52400 -7.90400 46.16400
C  23.59000 -8.87400 46.18200
C  24.04200 -10.11200 47.03900
C  25.42400 -9.66300 47.59000
C  25.66300 -8.33200 46.89600
C  23.06900 -10.45700 48.21300
C  26.52200 -10.74700 47.29800
C  27.50800 -11.08400 48.44800
N  26.32000 -5.70200 45.62500
C  27.21100 -6.54800 46.23700
C  28.54800 -5.97200 46.19300
C  28.41700 -4.80100 45.40600
C  26.99600 -4.74700 44.97700
C  29.80500 -6.51800 46.70400
C  29.14500 -3.76700 44.69300
O  30.35600 -3.51000 44.63800
C  28.09000 -3.04100 43.76700
C  28.00600 -1.54400 44.00300
O  27.01600 -0.91900 44.32300
O  29.27800 -0.97200 43.82600
C  29.25800 0.49200 43.96600
H  21.29500 -4.18300 42.29800
H  21.87700 -9.71900 45.90500
H  27.70300 -8.24100 47.40500
H  25.52100 -1.76000 42.33300
H  23.45000 -3.46700 41.09500
H  22.16700 -1.56800 41.32600
H  23.39700 -0.71200 42.17100
H  22.05300 -1.68900 43.01400
H  25.19800 -3.45400 40.07300
H  26.52900 -4.14100 40.98600
H  27.85700 -2.49100 40.11700
H  26.85400 -1.23700 40.68200
H  19.61700 -6.31200 41.58100
H  19.21100 -5.03600 42.61800
H  18.27400 -6.59600 42.87500
H  18.57400 -10.50500 45.64500
H  19.80600 -9.48900 46.35600
H  20.28800 -10.61900 44.96600
H  24.16100 -10.84800 46.24400
H  25.46600 -9.37800 48.64200
H  23.46800 -10.20900 49.19600
H  22.97300 -11.54300 48.22200
H  22.07300 -10.03700 48.07400
H  27.07900 -10.46900 46.40400
H  26.16000 -11.71100 46.94200
H  27.45800 -12.17100 48.50600
H  27.02300 -10.81200 49.38500
H  28.50700 -10.65100 48.40100
H  30.66600 -5.95200 46.34700
H  29.90600 -7.51800 46.28100
H  29.75100 -6.49600 47.79200
H  28.52500 -3.18200 42.77800
H  30.29900 0.69500 43.71400
H  28.99500 0.88100 44.94900
H  28.68000 1.02400 43.21100
Mg -4.58300 25.51300 25.77300
C  -3.67000 27.05500 28.80700
C  -6.65200 23.51800 27.57500
C  -5.06500 23.63200 23.06500
C  -2.36600 27.52500 24.21000
N  -5.07100 25.37200 28.00600
C  -4.60000 26.03600 29.03600
C  -5.17200 25.53200 30.35200
C  -6.10400 24.29100 29.97700
C  -5.94300 24.37200 28.43900
C  -5.49800 22.92700 30.36400
C  -5.84800 26.73200 31.16700
C  -5.46800 26.94000 32.57400
H  -5.25000 25.74400 33.42500
N  -5.80700 23.82700 25.37600
C  -6.60800 23.23700 26.18800
C  -7.40600 22.26900 25.44500
C  -6.96000 22.22100 24.08600
C  -5.92700 23.29200 24.11400
C  -8.45600 21.42400 26.09000
C  -7.31400 21.31300 22.89300
O  -6.84600 21.40900 21.71600
C  -8.10500 20.13100 23.16900
N  -3.89000 25.64200 23.85300
C  -4.21200 24.77000 22.83900
C  -3.43400 25.18000 21.55600
C  -2.86300 26.56500 21.92100
C  -3.08100 26.64200 23.39900
C  -2.45500 24.09100 21.03200
C  -3.65300 27.73900 21.22100
C  -3.03700 28.49800 20.01200
N  -3.35200 27.04400 26.26400
C  -2.43100 27.77200 25.54100
C  -1.73000 28.77500 26.37800
C  -2.26600 28.55100 27.63300
C  -3.18100 27.47900 27.55500
C  -0.56100 29.61800 26.02700
C  -2.00800 28.86000 29.03400
O  -1.21600 29.59400 29.59900
C  -2.96100 27.92400 29.80000
C  -2.19300 27.18700 30.83200
O  -1.63700 26.10200 30.61700
O  -2.18100 27.89500 32.00700
C  -1.26400 27.42400 33.04000
H  -7.30500 22.90700 28.20200
H  -5.21300 23.04500 22.15600
H  -1.78900 28.20100 23.57500
H  -4.39000 25.16500 31.01700
H  -7.18300 24.38700 30.10200
H  -4.49200 23.02800 30.77000
H  -5.48000 22.32100 29.45900
H  -6.27900 22.57600 31.03900
H  -6.88200 26.39000 31.12600
H  -5.77600 27.69300 30.65800
H  -6.33100 27.41800 33.03700
H  -4.59300 27.57700 32.70100
H  -7.99600 20.54800 26.54800
H  -9.29100 21.12700 25.45600
H  -9.00100 21.98600 26.84900
H  -8.19300 19.55500 22.24700
H  -9.07600 20.58400 23.37300
H  -7.66900 19.50100 23.94300
H  -4.22400 25.16400 20.80400
H  -1.78500 26.49100 21.77900
H  -2.32800 23.29900 21.76900
H  -1.41800 24.42400 20.98400
H  -2.86600 23.72900 20.08900
H  -3.80900 28.53700 21.94700
H  -4.64500 27.34600 20.99900
H  -2.92100 29.57300 20.14900
H  -3.61600 28.20200 19.13700
H  -1.99600 28.18400 19.93300
H  -0.21600 30.25300 26.84300
H  -0.87700 30.18000 25.14800
H  0.18900 28.88000 25.74400
H  -3.62000 28.51200 30.43900
H  -0.36300 28.01700 32.88300
H  -1.00300 26.36800 32.95800
H  -1.55700 27.68200 34.05700

