158

Mg 1.85700 -2.75500 44.64600
C  5.05100 -1.52000 43.80300
C  0.44500 -0.71700 42.27700
C  -1.07300 -4.41100 45.09600
C  3.46100 -5.42500 46.44000
N  2.71900 -1.37800 43.14400
C  4.00600 -0.88000 43.08300
C  4.07100 0.35600 42.13100
C  2.55500 0.49100 41.63100
C  1.78500 -0.59200 42.49500
C  1.98400 1.89900 41.80100
C  5.09300 0.28500 40.96200
C  5.90300 1.56600 40.69700
H  5.44300 2.27500 39.47000
N  -0.13400 -2.43200 43.87800
C  -0.47900 -1.52900 42.94200
C  -1.93800 -1.54800 42.77700
C  -2.40900 -2.59900 43.67000
C  -1.18500 -3.25100 44.25400
C  -2.73100 -0.61400 41.86200
C  -3.86800 -2.93000 44.02600
O  -4.74000 -2.34400 43.41700
C  -4.18500 -3.95100 45.01400
N  1.29600 -4.60600 45.69300
C  0.01900 -4.94800 45.75400
C  -0.22400 -6.22200 46.59700
C  1.27900 -6.50300 47.09000
C  2.08900 -5.45200 46.36800
C  -1.41500 -6.28600 47.69100
C  1.78500 -7.96700 47.16200
C  2.14400 -8.48000 48.61400
N  3.83000 -3.36700 45.09300
C  4.33000 -4.42600 45.89100
C  5.69600 -4.21900 46.00300
C  6.01000 -3.05600 45.28200
C  4.85900 -2.62800 44.64400
C  6.65200 -5.05700 46.77900
C  7.15000 -2.25500 44.85600
O  8.35900 -2.33300 45.08500
C  6.48900 -1.08200 44.03400
C  6.61100 0.15500 44.81300
O  5.93700 0.52900 45.75500
O  7.79000 0.79800 44.53300
C  7.93800 2.11200 45.25000
H  0.04500 0.02100 41.57800
H  -2.00600 -4.88700 45.40400
H  3.90000 -6.16600 47.11100
H  4.25500 1.16700 42.83500
H  2.48100 0.21700 40.57800
H  1.04400 1.98400 42.34500
H  1.83200 2.37400 40.83200
H  2.66900 2.56800 42.32200
H  4.64100 -0.07100 40.03600
H  5.84300 -0.44300 41.27300
H  6.95300 1.30400 40.56900
H  5.87500 2.25800 41.53900
H  -2.06200 -0.15300 41.13500
H  -3.24700 0.07600 42.52900
H  -3.60600 -1.09000 41.41900
H  -3.85500 -4.90400 44.59800
H  -5.24200 -3.97600 45.27700
H  -3.67400 -3.62800 45.92000
H  -0.49600 -6.96100 45.84300
H  1.20500 -6.19700 48.13400
H  -2.12600 -7.05200 47.38300
H  -1.77600 -5.27100 47.52300
H  -1.15600 -6.34800 48.74800
H  2.66700 -8.05000 46.52600
H  0.97900 -8.62800 46.84400
H  3.09600 -8.99900 48.50200
H  1.44400 -9.21100 49.01900
H  2.39500 -7.60500 49.21400
H  6.46100 -5.10300 47.85200
H  7.64700 -4.61900 46.70200
H  6.76600 -6.08700 46.44100
H  7.00600 -1.02600 43.07600
H  9.02600 2.13200 45.30900
H  7.52300 2.14900 46.25700
H  7.66800 3.01800 44.70800
Mg 25.26500 1.31100 29.68400
C  27.26100 1.00700 32.54500
C  22.58000 1.62400 31.66200
C  23.47500 1.23200 26.80700
C  28.10600 0.11800 27.84100
N  24.96300 1.40400 31.88500
C  25.91500 1.27400 32.84600
C  25.25800 1.33000 34.30700
C  23.71900 1.28100 33.98600
C  23.72700 1.46600 32.43800
C  23.02500 -0.08100 34.38000
C  25.81600 2.51000 35.17000
C  26.62600 2.18300 36.42900
H  26.45800 3.18400 37.54800
N  23.28200 1.55300 29.30100
C  22.29900 1.71700 30.28200
C  21.01500 1.90600 29.59300
C  21.28500 1.68600 28.15600
C  22.74200 1.54000 28.06500
C  19.69000 1.99100 30.36300
C  20.32300 1.65500 26.93900
O  20.62700 1.40900 25.77500
C  18.89100 1.88400 27.29100
N  25.70900 0.61200 27.69000
C  24.80100 0.86400 26.69900
C  25.45700 0.91800 25.29400
C  26.90100 0.69200 25.60200
C  26.98900 0.49900 27.16300
C  24.97400 -0.19200 24.35600
C  27.85800 1.77300 25.09300
C  27.92100 3.01000 25.93900
N  27.28400 0.68000 30.10100
C  28.27000 0.13900 29.27000
C  29.48300 -0.03600 30.07600
C  29.13900 0.37100 31.36900
C  27.82300 0.71300 31.29300
C  30.75700 -0.61400 29.53700
C  29.66600 0.57900 32.70700
O  30.78200 0.37400 33.19100
C  28.41400 0.94600 33.54100
C  28.26000 -0.11100 34.60300
O  27.64400 -1.14100 34.46300
O  29.00500 0.14600 35.73100
C  28.72100 -0.70600 36.88000
H  21.65500 1.61300 32.24300
H  22.93000 1.29200 25.86300
H  29.01600 -0.14700 27.29800
H  25.38800 0.35800 34.78200
H  23.16000 2.13800 34.36200
H  23.67900 -0.47100 35.16000
H  22.94100 -0.77600 33.54400
H  22.07700 0.17400 34.85400
H  24.90800 2.97500 35.55500
H  26.38000 3.31200 34.69500
H  27.67900 2.19000 36.14800
H  26.34300 1.19300 36.78500
H  19.27200 2.96000 30.08900
H  19.69900 1.73600 31.42300
H  18.98400 1.24400 30.00100
H  18.53900 0.98500 27.79900
H  18.25600 2.02700 26.41700
H  18.87500 2.79900 27.88200
H  25.31900 1.93200 24.91800
H  27.29800 -0.24800 25.21800
H  24.09800 0.26800 23.89900
H  24.73900 -1.17900 24.75300
H  25.67100 -0.41200 23.54800
H  27.52400 2.14100 24.12300
H  28.85000 1.32200 25.07500
H  27.27100 3.00400 26.81400
H  27.51700 3.84000 25.36100
H  28.92900 3.30000 26.23700
H  31.37800 0.24500 29.28200
H  30.63100 -1.26900 28.67500
H  31.14400 -1.29800 30.29200
H  28.81700 1.84800 34.00200
H  28.91100 -1.76600 36.71100
H  27.72100 -0.68600 37.31400
H  29.31700 -0.36100 37.72500

