158

Mg 6.66600 53.91400 41.00100
C  5.77200 50.56400 40.43700
C  9.79600 53.10900 39.83700
C  7.46300 57.19300 41.22100
C  3.44500 54.55200 42.11800
N  7.66400 52.12900 40.13700
C  7.10500 50.84000 40.00200
C  8.02400 49.84300 39.39900
C  9.41200 50.59400 39.59500
C  8.96000 52.04000 39.91000
C  10.32100 50.02600 40.77300
C  7.77700 49.32700 37.92900
C  7.07900 50.41400 36.94200
H  6.68500 50.06900 35.50600
N  8.41900 55.06500 40.49800
C  9.58200 54.51900 40.10100
C  10.61700 55.56900 39.95900
C  9.91100 56.79600 40.39200
C  8.54900 56.39400 40.69800
C  11.92300 55.36300 39.41500
C  10.60400 58.22100 40.58100
O  11.78900 58.30900 40.30600
C  9.87800 59.50800 40.73800
N  5.42100 55.73500 41.35100
C  6.10000 56.85100 41.66600
C  5.08000 57.88300 42.22500
C  3.84400 56.99100 42.61000
C  4.24400 55.68700 41.98200
C  5.52700 58.89900 43.28800
C  2.40500 57.56300 42.25600
C  1.48800 58.00200 43.41800
N  4.89800 52.87700 41.20200
C  3.67000 53.19200 41.76900
C  2.88100 52.00700 42.01500
C  3.63800 50.96700 41.43600
C  4.87200 51.54700 41.01000
C  1.52200 51.97700 42.72200
C  3.61100 49.60300 41.03500
O  2.76200 48.74000 41.13500
C  4.96700 49.26900 40.48500
C  4.69900 48.68400 39.05900
O  4.28800 49.25200 38.06400
O  4.98500 47.38500 39.12400
C  4.56700 46.52500 38.05800
H  10.77800 52.85700 39.43100
H  7.74100 58.22400 41.45100
H  2.49300 54.56800 42.65200
H  8.06900 48.98100 40.06400
H  9.98600 50.60700 38.66800
H  9.90300 49.15200 41.27200
H  10.58500 50.77800 41.51600
H  11.25700 49.69100 40.32500
H  7.16900 48.42400 37.98100
H  8.73500 49.11400 37.45500
H  7.58600 51.37000 36.80900
H  6.22000 50.79000 37.49700
H  12.26400 54.33300 39.31100
H  12.65500 55.89200 40.02600
H  11.97600 55.69900 38.37900
H  10.44700 60.37300 40.39900
H  9.71100 59.61200 41.81000
H  8.91000 59.49700 40.23600
H  4.76700 58.43800 41.34100
H  3.93600 56.78500 43.67700
H  6.59700 59.00000 43.47100
H  5.11000 58.60000 44.25000
H  5.24700 59.92100 43.03300
H  1.84500 56.67900 41.95100
H  2.45200 58.27900 41.43600
H  1.30700 59.07500 43.48000
H  1.89400 57.68000 44.37700
H  0.49100 57.57600 43.30500
H  0.81800 52.75000 42.41600
H  1.61600 51.83500 43.79900
H  1.01200 51.05400 42.44700
H  5.52200 48.54600 41.08200
H  4.61400 45.48600 38.38300
H  5.26600 46.59300 37.22500
H  3.54100 46.65800 37.71400
Mg 9.65500 48.39300 25.54400
C  7.74700 48.59200 28.51300
C  12.27000 49.68900 27.37300
C  11.47200 48.22000 22.79200
C  6.75200 47.35600 23.83500
N  9.94100 49.01100 27.68200
C  9.02200 48.99000 28.73100
C  9.67900 49.33000 30.06500
C  10.98500 50.02400 29.59500
C  11.14200 49.56100 28.14900
C  11.00000 51.59900 29.66700
C  9.80700 48.03800 30.98600
C  10.98900 47.98700 31.96300
H  10.77100 46.94100 33.06600
N  11.64200 49.00600 25.17400
C  12.59000 49.39800 26.03700
C  13.85900 49.58500 25.42100
C  13.67100 49.11300 24.09500
C  12.22100 48.76800 23.91800
C  15.07200 50.09200 26.17100
C  14.67700 48.96000 22.88800
O  14.37300 48.54400 21.77600
C  16.11500 49.43200 22.96900
N  9.12100 48.04600 23.57100
C  10.11300 47.93700 22.59100
C  9.49800 47.41100 21.33900
C  7.96100 47.14300 21.65000
C  7.93100 47.55800 23.14900
C  9.86200 48.39600 20.10700
C  7.49500 45.69100 21.23900
C  7.31200 44.66900 22.39400
N  7.64300 47.94200 26.02300
C  6.58500 47.57000 25.25400
C  5.36900 47.49700 26.08000
C  5.80500 47.83900 27.39100
C  7.18700 48.07200 27.30800
C  4.05800 47.06100 25.47300
C  5.38000 47.85600 28.77700
O  4.33800 47.47100 29.32700
C  6.62900 48.30700 29.57100
C  6.98900 47.06900 30.33900
O  7.56300 46.00600 29.98400
O  6.57800 47.22500 31.61000
C  6.72600 46.03500 32.51100
H  13.10300 50.10300 27.94400
H  12.04600 47.88600 21.92600
H  5.79400 47.15600 23.35100
H  8.86600 49.96200 30.42300
H  11.85300 49.68900 30.16300
H  11.17200 51.96100 28.65300
H  11.88900 51.84400 30.24900
H  10.09600 51.99500 30.12900
H  9.88600 47.14900 30.36000
H  8.97500 47.93500 31.68200
H  11.15600 49.00500 32.31500
H  11.87500 47.69100 31.40100
H  15.14200 49.74700 27.20300
H  15.03600 51.18100 26.13800
H  15.99300 49.76400 25.69000
H  16.71800 48.74900 23.56800
H  16.10400 50.40200 23.46600
H  16.71900 49.52900 22.06600
H  10.00300 46.45300 21.21700
H  7.34500 47.88800 21.14800
H  10.25300 49.33200 20.50600
H  8.99700 48.63000 19.48800
H  10.62900 47.84000 19.56800
H  8.27500 45.44100 20.51900
H  6.59900 45.84100 20.63600
H  7.99200 44.95300 23.19700
H  7.55300 43.63500 22.14700
H  6.32900 44.77900 22.85100
H  3.43700 47.93300 25.26400
H  3.54300 46.36800 26.13700
H  4.24200 46.51900 24.54500
H  6.46800 49.12900 30.26800
H  6.12800 46.30300 33.38200
H  7.75000 45.94300 32.87200
H  6.39400 45.06800 32.13300

