158

Mg 44.22500 3.19500 47.75500
C  42.54600 6.34400 47.55900
C  41.16400 1.66400 47.54900
C  45.85500 0.39600 47.23000
C  47.22500 4.95500 47.76100
N  42.06300 4.01900 47.39200
C  41.66900 5.29300 47.50000
C  40.16800 5.35800 47.57900
C  39.72100 3.82600 47.63400
C  41.03500 3.08000 47.53100
C  38.89800 3.39900 48.93000
C  39.48300 6.08500 46.36600
C  39.82600 5.60000 44.94800
H  40.60200 6.59200 44.08600
N  43.59400 1.27100 47.59700
C  42.32200 0.79800 47.49500
C  42.37600 -0.55200 47.28000
C  43.77000 -0.97800 47.29900
C  44.46200 0.21600 47.45800
C  41.09200 -1.52800 47.16900
C  44.20700 -2.45900 47.25500
O  43.40700 -3.39200 47.16200
C  45.68700 -2.90200 47.22800
N  46.30900 2.70100 47.46100
C  46.70900 1.46900 47.35200
C  48.15500 1.33200 47.05300
C  48.71100 2.75800 47.34100
C  47.38600 3.55000 47.57400
C  48.81800 0.26300 47.85700
C  49.69300 3.32600 46.38200
C  49.06500 4.04800 45.20400
N  44.83000 5.20400 47.52400
C  46.09700 5.74400 47.72200
C  46.00600 7.24000 47.71800
C  44.61800 7.51400 47.69600
C  43.96200 6.24900 47.55500
C  47.09700 8.26100 48.09400
C  43.61900 8.51900 47.63700
O  43.79000 9.73100 47.66000
C  42.19600 7.78100 47.56900
C  41.34000 8.25500 48.74300
O  41.40900 7.71400 49.84100
O  40.47300 9.24200 48.37100
C  39.29500 9.36900 49.30400
H  40.20600 1.14100 47.50600
H  46.33100 -0.51400 46.85900
H  48.11000 5.57600 47.91100
H  39.96000 5.82400 48.54200
H  39.07800 3.60400 46.78200
H  39.63200 2.75600 49.41500
H  38.09100 2.74400 48.60000
H  38.63900 4.20000 49.62200
H  39.76100 7.13900 46.39500
H  38.42200 5.88300 46.50900
H  38.83900 5.34900 44.55800
H  40.41000 4.68000 44.98700
H  40.23100 -0.91900 46.89300
H  40.97900 -2.14000 48.06400
H  41.21700 -2.27300 46.38300
H  46.33400 -2.37100 47.92700
H  46.18400 -2.77500 46.26700
H  45.67900 -3.95800 47.50100
H  48.33500 1.23800 45.98200
H  49.24600 2.76800 48.29000
H  49.69200 0.60400 48.41100
H  49.02300 -0.56300 47.17700
H  48.14000 -0.14200 48.60900
H  50.24500 2.52100 45.89600
H  50.43800 3.94500 46.88200
H  49.07800 5.13400 45.29400
H  48.04200 3.69200 45.07600
H  49.70000 3.86800 44.33600
H  46.90000 9.16800 47.52300
H  48.06800 7.78000 47.97200
H  47.03900 8.43100 49.16900
H  41.63200 8.16200 46.71800
H  38.96400 8.38500 49.63700
H  38.44500 9.84700 48.81900
H  39.56900 9.90700 50.21200
Mg -12.50100 38.33500 41.52300
C  -10.65800 35.58800 40.49300
C  -10.47000 40.31000 39.86500
C  -14.74200 40.55800 42.01300
C  -14.94300 35.78900 42.75600
N  -10.94700 37.93700 40.17700
C  -10.25300 36.76700 39.91600
C  -8.99500 37.00600 39.14100
C  -8.86300 38.62400 39.06700
C  -10.18100 38.97400 39.77000
C  -7.63300 39.26000 39.81100
C  -8.99500 36.34500 37.67100
C  -7.75200 35.49400 37.26300
H  -6.78700 36.13700 36.26900
N  -12.59600 40.24300 41.07000
C  -11.61700 40.93000 40.43700
C  -11.96800 42.32200 40.46900
C  -13.22100 42.47800 41.13900
C  -13.56600 41.04400 41.47900
C  -11.07600 43.49100 39.83700
C  -13.90300 43.72700 41.42200
O  -13.50200 44.71400 40.86000
C  -15.15000 43.83200 42.24900
N  -14.47100 38.21100 42.45300
C  -15.19700 39.36100 42.45700
C  -16.60300 39.06300 42.93700
C  -16.73900 37.53900 43.02600
C  -15.33500 37.14100 42.74200
C  -16.96200 39.78700 44.29200
C  -17.71600 36.92700 42.07700
C  -17.39200 36.95600 40.56700
N  -12.67500 36.19900 41.81400
C  -13.66100 35.32300 42.41900
C  -13.19500 33.97400 42.41400
C  -11.99000 34.05800 41.69600
C  -11.77300 35.38700 41.28200
C  -13.82300 32.78900 43.07400
C  -11.00400 33.23500 41.19400
O  -10.85600 32.03100 41.19900
C  -10.01700 34.19600 40.44300
C  -8.69600 34.09000 41.11900
O  -8.54000 34.55700 42.24000
O  -7.75700 33.45700 40.35600
C  -6.43500 33.07600 40.99400
H  -9.80000 40.88000 39.21800
H  -15.52700 41.31100 41.91700
H  -15.63600 35.06100 43.18300
H  -8.19200 36.49400 39.67300
H  -8.91400 38.97800 38.03700
H  -7.82600 39.75000 40.76500
H  -7.14100 39.93300 39.10800
H  -6.95900 38.44000 40.06100
H  -9.20400 37.09600 36.90900
H  -9.88400 35.71400 37.66600
H  -8.01900 34.45900 37.04800
H  -7.18900 35.32600 38.18100
H  -11.17000 44.38800 40.44900
H  -11.31800 43.81700 38.82500
H  -10.03800 43.17100 39.92700
H  -15.95300 43.25700 41.79000
H  -15.59600 44.82600 42.26500
H  -14.97300 43.63500 43.30700
H  -17.35200 39.39100 42.21700
H  -16.97900 37.25500 44.05100
H  -17.50000 40.63400 43.86600
H  -16.07700 40.23500 44.74400
H  -17.56400 39.22400 45.00500
H  -18.68800 37.38900 42.25000
H  -17.93300 35.90500 42.39000
H  -17.37800 35.98900 40.06400
H  -16.36600 37.32300 40.54000
H  -18.09700 37.63400 40.08600
H  -13.84600 32.93300 44.15400
H  -13.27300 31.89700 42.77100
H  -14.83400 32.51100 42.77600
H  -10.02000 33.87700 39.40000
H  -5.99100 32.20000 40.52000
H  -6.50800 32.96800 42.07600
H  -5.88200 33.98300 40.74900

