158

Mg 17.07300 -1.55900 28.11900
C  15.75800 0.48900 30.62800
C  19.06100 -3.01900 30.48400
C  18.34300 -3.27800 25.48000
C  15.30300 0.35600 25.74000
N  17.41700 -1.25500 30.33400
C  16.73700 -0.39200 31.17600
C  17.17000 -0.65500 32.63800
C  18.39600 -1.53400 32.51600
C  18.34000 -1.95000 31.04700
C  19.70000 -0.72100 32.91400
C  16.14300 -1.39200 33.57300
C  16.00100 -0.80800 34.96200
H  17.28100 -0.18600 35.60900
N  18.43100 -3.01600 28.01300
C  19.14900 -3.52100 29.10200
C  19.93600 -4.58200 28.49600
C  19.67000 -4.73700 27.10000
C  18.78500 -3.59700 26.79700
C  20.79400 -5.57700 29.39600
C  20.18400 -5.76900 26.09100
O  20.01900 -5.74700 24.89700
C  21.05800 -6.85600 26.58200
N  16.74800 -1.60200 25.89000
C  17.49200 -2.29200 25.02900
C  17.42300 -1.90700 23.63500
C  16.30400 -0.83000 23.78700
C  16.13500 -0.61900 25.20200
C  18.82000 -1.36100 23.05300
C  14.89300 -1.22900 23.08800
C  13.67900 -1.73300 23.93500
N  15.95400 0.10600 28.11900
C  15.24900 0.73100 27.08600
C  14.39800 1.79600 27.60400
C  14.60300 1.76000 29.01800
C  15.54400 0.74500 29.23900
C  13.52800 2.67600 26.70700
C  14.25200 2.32900 30.32100
O  13.43700 3.18800 30.56400
C  14.98100 1.48700 31.43200
C  15.68300 2.63400 32.21300
O  16.72400 3.24200 31.90200
O  15.02200 2.83500 33.38500
C  15.72500 3.77600 34.32300
H  19.55900 -3.58600 31.27400
H  18.74400 -3.84600 24.63700
H  14.70800 0.86800 24.98100
H  17.43500 0.31200 33.06600
H  18.25500 -2.44200 33.10100
H  19.98000 -1.29200 33.79900
H  19.67000 0.33300 33.19100
H  20.47700 -0.93600 32.18100
H  16.04900 -2.47400 33.48300
H  15.16400 -1.12400 33.17400
H  15.67800 -1.62500 35.60800
H  15.20200 -0.08200 34.81400
H  21.22800 -4.96400 30.18600
H  21.68400 -5.94600 28.88600
H  20.24900 -6.37900 29.89500
H  22.01600 -6.51000 26.97000
H  21.19600 -7.44900 25.67900
H  20.45000 -7.40400 27.30200
H  17.15500 -2.80300 23.07500
H  16.73100 0.09400 23.39800
H  19.52900 -1.18100 23.86000
H  18.71800 -0.50000 22.39200
H  19.32500 -2.15500 22.50300
H  15.10500 -1.95600 22.30400
H  14.52200 -0.38600 22.50500
H  12.85400 -1.05700 23.70900
H  13.82800 -1.85000 25.00900
H  13.21200 -2.68000 23.66500
H  13.04500 3.44500 27.31100
H  12.81700 2.17900 26.04800
H  14.25900 3.07500 26.00400
H  14.16700 1.05300 32.01200
H  16.78100 3.86400 34.06500
H  15.64200 3.53500 35.38300
H  15.32400 4.78800 34.27200
Mg -11.91900 38.05700 42.33500
C  -9.85700 35.47400 41.05200
C  -9.90300 40.28400 40.48600
C  -14.34800 40.48500 42.50900
C  -14.06500 35.78300 43.57000
N  -10.09300 37.90700 40.92700
C  -9.48400 36.71500 40.56400
C  -8.27500 36.97400 39.63700
C  -8.07900 38.48300 39.87600
C  -9.41000 38.95000 40.39300
C  -6.78900 38.91500 40.78900
C  -8.49100 36.52600 38.19600
C  -7.50600 35.57600 37.46100
H  -6.64000 36.06600 36.28000
N  -12.05900 40.11400 41.77100
C  -11.12800 40.82800 41.02500
C  -11.47600 42.24400 41.00100
C  -12.74600 42.34500 41.57200
C  -13.17500 40.94900 41.96900
C  -10.64300 43.43600 40.38600
C  -13.57900 43.58800 41.68200
O  -13.14800 44.63900 41.19900
C  -14.93000 43.55700 42.26300
N  -13.91000 38.11300 42.81100
C  -14.74000 39.20200 42.93100
C  -16.04400 39.02900 43.57800
C  -15.84900 37.51900 43.95300
C  -14.48400 37.08600 43.39000
C  -16.34100 39.96900 44.78500
C  -17.09800 36.63700 43.41000
C  -17.61600 35.82500 44.59200
N  -12.02500 36.02600 42.31600
C  -12.92200 35.19100 42.92700
C  -12.48600 33.87200 42.88700
C  -11.34000 33.95000 42.06300
C  -11.04300 35.28100 41.74800
C  -13.17000 32.67200 43.67800
C  -10.29800 33.12900 41.41400
O  -10.13000 31.91800 41.38800
C  -9.30900 34.11800 40.73900
C  -7.96600 33.77500 41.21800
O  -7.16800 33.09200 40.56300
O  -7.70700 34.33500 42.49300
C  -6.42200 34.12400 43.15300
H  -9.29100 40.99100 39.92200
H  -15.18100 41.18900 42.57600
H  -14.75600 35.12300 44.09700
H  -7.38700 36.44800 39.98800
H  -7.86800 38.93900 38.90900
H  -6.18100 38.01300 40.73100
H  -7.10200 39.19600 41.79500
H  -6.19600 39.73600 40.38600
H  -8.60700 37.41800 37.58000
H  -9.46900 36.04400 38.18100
H  -8.00400 34.62600 37.26600
H  -6.68900 35.47800 38.17600
H  -11.16000 43.77100 39.48700
H  -9.64100 43.06300 40.17000
H  -10.51000 44.23200 41.11800
H  -15.35200 44.54900 42.42400
H  -14.93500 42.95600 43.17300
H  -15.53900 42.97300 41.57400
H  -16.75200 39.18600 42.76400
H  -15.65600 37.51600 45.02600
H  -16.74500 39.38000 45.60900
H  -16.96900 40.83100 44.56200
H  -15.42600 40.39600 45.19600
H  -16.76600 35.92600 42.65300
H  -17.90100 37.16900 42.90100
H  -18.56900 36.19100 44.97400
H  -16.90400 35.79600 45.41700
H  -17.76100 34.79200 44.27700
H  -14.18000 32.88200 44.03000
H  -12.48100 32.34100 44.45500
H  -13.40600 31.80400 43.06300
H  -9.38200 33.77700 39.70600
H  -6.04100 33.10300 43.14800
H  -6.45000 34.32800 44.22400
H  -5.82700 34.87100 42.62800

