158

Mg -1.54800 17.31300 26.54000
C  -1.85100 15.22500 29.41900
C  -1.97600 20.02900 28.48300
C  -1.37400 19.09300 23.78000
C  -1.57000 14.39800 24.56400
N  -1.68100 17.56000 28.62300
C  -1.82900 16.63100 29.66200
C  -1.85600 17.20000 31.04000
C  -2.28800 18.73500 30.74500
C  -1.96000 18.81900 29.20000
C  -3.76900 19.11000 31.31500
C  -0.47300 17.00100 31.62900
C  -0.32700 17.60500 33.01000
H  -0.40400 16.61200 34.19400
N  -1.58700 19.27600 26.17200
C  -1.78700 20.22600 27.07500
C  -1.81300 21.54900 26.35400
C  -1.40600 21.27600 25.00300
C  -1.35000 19.82300 24.95100
C  -2.10000 22.90100 26.93200
C  -1.11500 22.22500 23.82200
O  -0.95200 21.83000 22.70600
C  -0.94400 23.65800 24.14300
N  -1.53400 16.81000 24.43800
C  -1.42800 17.73700 23.48600
C  -1.64300 17.24200 22.08600
C  -1.34800 15.72700 22.41700
C  -1.52900 15.63300 23.90400
C  -3.02200 17.63200 21.43100
C  -0.04300 15.08200 21.96300
C  -0.27300 13.80800 21.05900
N  -1.80400 15.24700 26.83200
C  -1.73800 14.19500 25.94400
C  -1.93500 12.95200 26.64500
C  -1.97600 13.30000 27.99400
C  -1.91000 14.69800 28.04100
C  -1.88400 11.59700 26.07900
C  -2.09700 12.73700 29.35300
O  -2.17200 11.59200 29.73600
C  -2.08700 14.03100 30.29700
C  -1.04300 13.68100 31.32000
O  0.16100 13.52100 31.07100
O  -1.72100 13.49400 32.56400
C  -0.85900 13.08600 33.64800
H  -2.11000 20.91300 29.11000
H  -1.33300 19.56600 22.79600
H  -1.57800 13.58200 23.83800
H  -2.52700 16.67000 31.71600
H  -1.48900 19.27500 31.25300
H  -3.79800 19.73400 32.20900
H  -4.25700 18.15700 31.51800
H  -4.27700 19.63800 30.50800
H  0.20300 17.62900 31.05000
H  -0.08500 15.98300 31.65700
H  -1.21000 18.21800 33.19500
H  0.56300 18.18000 33.26400
H  -2.30100 22.87900 28.00300
H  -2.90200 23.46300 26.45400
H  -1.16600 23.46200 26.92300
H  -0.19400 23.63000 24.93400
H  -1.91800 24.08900 24.37200
H  -0.52500 24.16400 23.27300
H  -0.81400 17.74900 21.59200
H  -2.11900 15.13200 21.92800
H  -2.88600 18.57700 20.90500
H  -3.76000 17.83000 22.20800
H  -3.41600 16.91500 20.71000
H  0.56200 14.81800 22.83100
H  0.53000 15.81300 21.39300
H  0.40300 13.83000 20.20300
H  -1.26400 13.55000 20.68700
H  0.13200 13.03400 21.71100
H  -0.89600 11.14800 26.17500
H  -2.17100 11.65500 25.02900
H  -2.57900 10.98400 26.65300
H  -3.06200 14.12800 30.77300
H  -1.50500 12.97000 34.51800
H  -0.01400 13.74300 33.85000
H  -0.28600 12.19500 33.39300
Mg 41.58400 7.30900 29.32800
C  43.16100 9.13500 31.97200
C  38.95300 6.68500 31.45300
C  40.14500 5.47200 26.95600
C  44.33600 7.93000 27.40700
N  41.19700 7.83500 31.45800
C  41.92800 8.58900 32.33900
C  41.28500 8.58900 33.77000
C  40.01300 7.64300 33.59000
C  40.08500 7.34600 32.03700
C  40.02900 6.32200 34.34100
C  40.94800 10.02500 34.12500
C  39.90800 10.22200 35.33600
H  40.27500 11.01000 36.60900
N  39.78400 6.25400 29.23600
C  38.85600 6.15600 30.15400
C  37.71400 5.41600 29.59600
C  37.98700 5.11800 28.21500
C  39.37100 5.58800 28.11700
C  36.49600 5.03400 30.51200
C  37.19400 4.38200 27.13900
O  37.63700 4.07100 26.04400
C  35.79100 3.98300 27.46000
N  42.08500 6.87700 27.50200
C  41.38400 5.98200 26.70800
C  42.16800 5.59800 25.39800
C  43.34600 6.67000 25.48200
C  43.24700 7.21300 26.89900
C  42.55900 4.07200 25.42300
C  43.25000 7.72600 24.40700
C  42.14300 8.78600 24.53100
N  43.46300 8.29800 29.63600
C  44.42800 8.42100 28.69700
C  45.48700 9.21100 29.28800
C  45.02600 9.51900 30.62600
C  43.74600 8.97600 30.71700
C  46.74000 9.62700 28.64200
C  45.35600 10.23300 31.88800
O  46.34200 10.98200 32.10600
C  44.15300 9.88100 32.86000
C  44.74400 9.06800 34.01600
O  45.38200 8.07000 33.87400
O  44.32100 9.54100 35.20900
C  44.44000 8.56200 36.33300
H  38.22100 6.49300 32.24100
H  39.74800 4.84500 26.15400
H  45.15500 7.94700 26.68400
H  41.91800 8.17800 34.55800
H  39.02800 8.06700 33.78700
H  39.12500 6.22400 34.94200
H  40.78000 6.27200 35.12900
H  40.10600 5.49400 33.63600
H  40.49600 10.46500 33.23600
H  41.85700 10.54400 34.42600
H  39.67900 9.21300 35.67800
H  38.98300 10.66700 34.97100
H  35.58200 5.28100 29.97300
H  36.49500 5.38800 31.54300
H  36.41400 3.94900 30.57700
H  35.93900 3.19400 28.19700
H  35.08600 3.67000 26.69000
H  35.33400 4.80900 28.00500
H  41.50000 5.70900 24.54300
H  44.30900 6.23300 25.22000
H  42.19900 3.52500 26.29500
H  43.63800 3.95500 25.52400
H  42.20600 3.54100 24.53900
H  42.95200 7.20900 23.49400
H  44.25100 8.12500 24.24400
H  41.58000 8.94000 23.61100
H  42.65700 9.71200 24.78900
H  41.37200 8.51300 25.25100
H  47.18600 8.69300 28.29900
H  47.45300 10.00600 29.37400
H  46.57600 10.35900 27.85100
H  43.71000 10.72700 33.38500
H  45.48400 8.60500 36.64200
H  44.15200 7.54700 36.05800
H  43.76500 8.91500 37.11200

