158

Mg 51.15200 44.78900 42.27000
C  47.92100 45.17800 40.86100
C  51.01400 41.37800 41.21900
C  54.31800 44.57000 42.80500
C  51.40300 48.35900 42.47500
N  49.57100 43.44500 41.16600
C  48.36300 43.85200 40.67500
C  47.60300 42.68800 40.03400
C  48.61200 41.43900 40.19300
C  49.80600 42.10600 40.94100
C  48.07800 40.08000 40.92600
C  47.29000 42.93000 38.50700
C  45.81400 42.77000 38.10700
H  45.55000 41.92200 36.81200
N  52.53400 43.17700 42.10800
C  52.26400 41.86600 41.63200
C  53.56900 41.18700 41.62300
C  54.57000 42.02500 42.18800
C  53.81800 43.32500 42.45500
C  53.56900 39.80800 41.02900
C  56.02800 41.72700 42.28500
O  56.43200 40.61100 42.01000
C  56.96100 42.71200 42.95500
N  52.59900 46.32400 42.65000
C  53.91000 45.89400 42.75700
C  54.81000 47.14900 43.15000
C  53.88200 48.33900 42.80200
C  52.55000 47.65300 42.65500
C  55.41900 47.21000 44.59400
C  54.34600 49.11500 41.48100
C  54.73400 50.56800 41.53100
N  49.97500 46.41800 41.90700
C  50.17500 47.76800 42.10700
C  48.95700 48.45500 41.69200
C  48.07100 47.47800 41.17300
C  48.71200 46.25000 41.35700
C  48.75800 49.83800 41.64000
C  46.76200 47.30800 40.66300
O  45.91600 48.14800 40.39800
C  46.53500 45.80600 40.40900
C  45.29100 45.29500 41.17000
O  44.58300 44.35200 40.88900
O  45.05300 46.00500 42.27000
C  43.87200 45.64200 43.09600
H  50.81900 40.37800 40.82700
H  55.39500 44.68900 42.94500
H  51.56100 49.43300 42.35500
H  46.68100 42.56900 40.60400
H  49.01300 41.07800 39.24600
H  48.56500 40.05900 41.90100
H  48.29100 39.16700 40.37000
H  47.04400 40.18800 41.25400
H  48.00500 42.46100 37.83100
H  47.46900 43.97000 38.23500
H  45.49000 43.76900 37.81500
H  45.19600 42.32600 38.88800
H  54.51200 39.78500 40.48300
H  52.77100 39.61100 40.31300
H  53.62600 39.03500 41.79500
H  56.52400 42.97900 43.91800
H  57.02600 43.57100 42.28700
H  58.01500 42.43800 42.96700
H  55.66400 47.08200 42.47600
H  53.86800 49.00500 43.66500
H  54.98300 46.45700 45.25000
H  55.27100 48.19400 45.04000
H  56.49500 47.07200 44.48900
H  53.54500 49.11000 40.74200
H  55.20900 48.69400 40.96500
H  54.03500 51.10700 42.17000
H  54.57700 51.07900 40.58100
H  55.74100 50.75500 41.90300
H  49.26300 50.29800 42.49000
H  47.67700 49.97300 41.66300
H  49.17500 50.27800 40.73400
H  46.39000 45.66200 39.33900
H  44.03000 44.77500 43.73800
H  42.94300 45.58500 42.53000
H  43.80600 46.55900 43.68100
Mg 6.36200 54.09500 41.68400
C  5.90100 50.54100 41.38800
C  9.44100 53.63200 40.27200
C  6.66200 57.53500 41.50100
C  3.04600 54.49200 42.36600
N  7.47700 52.31200 40.78400
C  7.12500 50.96800 40.87700
C  8.29400 50.15400 40.30900
C  9.54300 51.10500 40.57100
C  8.76200 52.44800 40.46300
C  10.30800 50.81500 41.87500
C  8.06600 49.87600 38.80400
C  7.03800 50.66400 38.06100
H  6.70600 50.18800 36.55200
N  7.85400 55.41900 41.01300
C  9.07200 54.99100 40.43900
C  9.93600 56.14500 40.30300
C  9.21400 57.26100 40.79900
C  7.87300 56.80100 41.15800
C  11.35500 56.04700 39.82700
C  9.85800 58.65200 41.20300
O  11.00700 58.90500 40.86600
C  9.10000 59.64000 42.08200
N  4.95000 55.85700 41.89000
C  5.31900 57.14400 41.82100
C  4.16000 58.08200 42.06600
C  2.91000 57.08600 42.27600
C  3.65100 55.72800 42.09700
C  4.39000 59.01500 43.21700
C  1.76600 57.14600 41.30800
C  0.67900 58.21700 41.71200
N  4.79600 52.83700 41.97500
C  3.52000 53.15200 42.30500
C  2.79900 51.95000 42.58200
C  3.65600 50.89900 42.21400
C  4.84200 51.51500 41.82400
C  1.40600 51.77600 43.03000
C  3.79700 49.46000 42.14200
O  3.04000 48.55500 42.40600
C  5.26000 49.18400 41.48000
C  5.12800 48.41700 40.21100
O  4.39900 48.77800 39.24200
O  5.91700 47.31300 40.22100
C  5.55100 46.35400 39.16300
H  10.45400 53.42300 39.92100
H  6.79200 58.61700 41.43000
H  2.02500 54.59800 42.74000
H  8.29900 49.19400 40.82700
H  10.35600 51.08700 39.84600
H  11.34300 51.15400 41.83400
H  10.12700 49.82700 42.29900
H  9.96800 51.55900 42.59500
H  7.88100 48.80700 38.69700
H  8.97700 50.06400 38.23600
H  7.37800 51.69500 37.96300
H  6.11200 50.66100 38.63500
H  11.22200 56.18800 38.75400
H  11.73400 55.02500 39.84500
H  12.04400 56.77500 40.25400
H  8.43600 59.05600 42.71900
H  8.61200 60.14100 41.24600
H  9.68800 60.21900 42.79400
H  4.00100 58.68200 41.17000
H  2.55400 57.28900 43.28600
H  3.83200 58.64400 44.07700
H  4.12500 60.01800 42.88500
H  5.45000 59.16100 43.42200
H  1.19000 56.22100 41.33000
H  2.08800 57.40700 40.30000
H  -0.28600 57.77600 41.96200
H  0.60900 59.08400 41.05400
H  1.05400 58.80800 42.54700
H  1.25700 52.62300 43.69900
H  1.23800 50.82200 43.52800
H  0.79600 51.84700 42.12900
H  5.88300 48.53400 42.09300
H  5.97100 45.38400 39.42900
H  5.83200 46.77600 38.19800
H  4.46700 46.24700 39.18000

