158

Mg 7.89800 3.27300 27.39100
C  9.42400 1.83800 30.35000
C  6.07900 5.33500 29.51600
C  6.57600 4.49200 24.71600
C  9.58500 0.70800 25.64700
N  7.83900 3.61000 29.67900
C  8.63100 2.95900 30.66900
C  8.42800 3.64400 32.04300
C  7.23200 4.69400 31.74500
C  6.98500 4.54500 30.22300
C  5.89200 4.56700 32.54300
C  9.68400 4.24800 32.79600
C  9.86700 3.79200 34.28100
H  10.52900 4.77500 35.28100
N  6.48900 4.67900 27.14900
C  5.84300 5.43100 28.10400
C  5.00200 6.43100 27.44200
C  5.23900 6.28600 26.03000
C  6.14400 5.15400 25.90200
C  4.17700 7.45300 28.15600
C  4.77200 7.09000 24.80900
O  5.12100 6.84200 23.67600
C  3.74100 8.12800 25.03900
N  8.03500 2.63200 25.45600
C  7.39800 3.41800 24.49600
C  7.67000 2.87300 23.06400
C  8.57200 1.66800 23.42800
C  8.69400 1.61100 24.89600
C  6.35300 2.59000 22.19400
C  9.90300 1.64100 22.63700
C  10.06700 0.29700 21.91600
N  9.16900 1.63800 27.87000
C  9.84500 0.77800 26.99200
C  10.64800 -0.16000 27.72900
C  10.61000 0.32000 29.06400
C  9.67200 1.34600 29.06700
C  11.52200 -1.27100 27.14400
C  11.07700 0.02100 30.38000
O  11.79000 -0.86600 30.86400
C  10.47100 1.19300 31.25500
C  9.88600 0.61100 32.45900
O  8.71000 0.28100 32.46500
O  10.71900 0.64300 33.55900
C  10.04800 0.17200 34.77100
H  5.65700 6.10900 30.16000
H  6.20100 4.79500 23.73600
H  10.08300 -0.05800 25.05000
H  8.16400 2.77000 32.63900
H  7.64200 5.68500 31.94100
H  5.08800 4.17900 31.91800
H  5.61800 5.50100 33.03200
H  6.11200 3.76000 33.24200
H  9.66500 5.33800 32.81700
H  10.61500 3.99600 32.28800
H  10.59400 2.98300 34.35100
H  8.90900 3.52200 34.72500
H  4.54200 8.45000 27.91200
H  4.07200 7.29000 29.22900
H  3.15000 7.48900 27.79500
H  4.06500 9.05700 25.50800
H  2.93600 7.58800 25.53900
H  3.35200 8.39300 24.05600
H  8.24700 3.65200 22.56500
H  7.95800 0.80000 23.18800
H  5.48400 2.81000 22.81300
H  6.24400 1.54500 21.90400
H  6.18800 3.36800 21.44900
H  10.77000 1.86000 23.25900
H  9.76100 2.45300 21.92400
H  9.08200 -0.01900 21.57300
H  10.48800 -0.53900 22.47500
H  10.58300 0.48200 20.97400
H  11.66700 -2.08000 27.85900
H  12.47900 -0.95100 26.73200
H  10.96600 -1.81700 26.38100
H  11.27900 1.86900 31.53400
H  9.43400 0.86400 35.34900
H  10.83100 -0.17500 35.44500
H  9.45000 -0.70100 34.51100
Mg 46.64800 16.58600 28.34100
C  45.22700 16.03200 31.50000
C  49.11100 18.56700 29.89400
C  47.77400 17.48900 25.35000
C  44.05000 14.95200 26.90700
N  47.07900 17.26000 30.50700
C  46.37800 16.86400 31.63200
C  47.17500 17.39300 32.87000
C  48.28400 18.26800 32.37700
C  48.12600 18.06100 30.81100
C  48.20100 19.74000 32.77800
C  47.65500 16.19000 33.83100
C  47.61400 16.27700 35.36800
H  47.71500 17.69500 35.95800
N  48.36700 17.69100 27.73400
C  49.23800 18.35800 28.48700
C  50.20800 18.95400 27.62500
C  49.81000 18.77100 26.28800
C  48.61700 17.90100 26.37900
C  51.52400 19.63500 28.09200
C  50.49000 19.33600 25.01900
O  49.99200 19.13900 23.89800
C  51.79400 20.10000 25.01400
N  45.81900 16.44200 26.41800
C  46.59000 16.82500 25.31700
C  45.97300 16.40700 23.96600
C  44.84500 15.41300 24.48600
C  44.89700 15.54900 26.00900
C  45.41000 17.66300 23.16000
C  44.94400 13.94000 23.90400
C  45.70200 12.90800 24.78100
N  44.91600 15.79500 28.99500
C  43.95700 15.05600 28.31500
C  42.99700 14.50900 29.22100
C  43.45800 14.85100 30.50400
C  44.67600 15.64500 30.27900
C  41.73800 13.70500 28.79400
C  43.17300 14.78900 31.89900
O  42.22500 14.26400 32.47400
C  44.30400 15.56800 32.62000
C  43.59600 16.70600 33.28800
O  43.23300 17.69600 32.74900
O  43.52300 16.43700 34.64600
C  42.95300 17.50500 35.37600
H  49.80500 19.21700 30.43100
H  47.93300 17.86900 24.33900
H  43.39800 14.29100 26.33300
H  46.39300 17.91500 33.42100
H  49.29500 17.95500 32.64100
H  47.23300 19.81900 33.27400
H  48.09100 20.44400 31.95300
H  49.10300 19.88600 33.37100
H  48.73700 16.15700 33.70300
H  47.17900 15.27200 33.49000
H  48.34700 15.65800 35.88500
H  46.61100 15.87800 35.52000
H  52.46200 19.13000 27.86300
H  51.46400 19.58500 29.17900
H  51.64900 20.61800 27.63700
H  51.59600 21.12400 25.32800
H  52.10700 20.25800 23.98200
H  52.45200 19.49200 25.63500
H  46.70000 15.88000 23.34800
H  43.85200 15.75700 24.19700
H  44.34400 17.69300 22.93700
H  45.92400 17.86900 22.22000
H  45.77100 18.56800 23.64800
H  45.46200 14.08800 22.95700
H  43.98800 13.45000 23.71700
H  45.85200 12.00400 24.19100
H  45.02800 12.55600 25.56200
H  46.65200 13.21900 25.21500
H  41.79700 12.62800 28.95200
H  41.57900 13.79900 27.72000
H  40.95300 13.99700 29.49200
H  44.84400 14.95600 33.34300
H  43.70500 18.29400 35.37100
H  42.75600 17.30300 36.42900
H  41.99100 17.85200 34.99800

