158

Mg 35.73200 1.44600 30.54200
C  33.37200 2.59800 32.93400
C  38.15400 1.55200 33.00700
C  37.83500 0.71300 28.20200
C  33.03900 1.71600 28.18200
N  35.80400 2.17100 32.68400
C  34.70500 2.50600 33.45400
C  35.14700 2.68400 34.96200
C  36.69300 2.80600 34.78000
C  36.90700 2.06800 33.44200
C  37.24200 4.29200 34.91300
C  34.61800 1.51200 35.85500
C  33.84600 2.01700 37.12000
H  34.33400 3.40400 37.69800
N  37.68500 0.96800 30.66400
C  38.50300 0.98700 31.77600
C  39.71600 0.38800 31.38000
C  39.56100 0.01800 30.03300
C  38.32400 0.57800 29.56100
C  40.82900 0.17700 32.42000
C  40.47600 -0.79500 29.17400
O  40.24800 -0.98000 28.02400
C  41.87400 -1.33300 29.66300
N  35.47800 1.31900 28.49800
C  36.57800 1.10000 27.71900
C  36.27800 1.29300 26.20600
C  34.72600 1.28300 26.17400
C  34.36700 1.45500 27.71200
C  36.92200 2.53200 25.44500
C  34.05000 -0.02400 25.66500
C  32.70800 0.27500 25.01200
N  33.57700 1.94900 30.50300
C  32.68500 2.00300 29.46800
C  31.38000 2.45100 29.93100
C  31.61400 2.62200 31.34300
C  32.95600 2.37900 31.55500
C  30.08300 2.64400 29.23500
C  30.99000 3.00400 32.62700
O  29.80200 3.20900 32.89300
C  32.10000 2.92000 33.76200
C  31.91600 4.25400 34.46600
O  32.34600 5.34400 34.15100
O  31.23200 4.09500 35.61400
C  31.00100 5.29500 36.35200
H  38.89200 1.76500 33.78300
H  38.57100 0.51200 27.42000
H  32.19300 1.77000 27.49400
H  34.73000 3.65400 35.23400
H  37.12100 2.19800 35.57700
H  37.79800 4.57900 34.02100
H  37.95600 4.31900 35.73600
H  36.57900 5.11200 35.18900
H  35.44200 0.92000 36.25200
H  33.96200 0.91900 35.21800
H  33.75900 1.27200 37.91100
H  32.85200 2.14500 36.69100
H  40.79500 -0.80400 32.89500
H  40.79100 1.00700 33.12500
H  41.75200 0.20000 31.84100
H  41.75200 -2.00900 30.51000
H  42.61100 -0.54000 29.78900
H  42.29800 -1.97500 28.89100
H  36.66500 0.47700 25.59600
H  34.26600 2.16600 25.73100
H  36.22400 3.11400 24.84300
H  37.82000 2.16100 24.95100
H  37.29500 3.19600 26.22400
H  34.02100 -0.76200 26.46600
H  34.70400 -0.48100 24.92200
H  32.27100 1.23600 25.28500
H  31.99600 -0.49900 25.29900
H  32.86300 0.07700 23.95200
H  30.31200 2.87700 28.19400
H  29.55900 3.51600 29.62800
H  29.54800 1.69700 29.17500
H  31.92800 2.14900 34.51200
H  30.81000 5.03200 37.39200
H  30.21900 5.96000 35.98500
H  31.94000 5.84900 36.33300
Mg -1.51400 34.65300 26.79800
C  -3.28100 32.91600 29.23300
C  -0.48800 36.85100 29.09400
C  -0.26600 36.62700 24.19400
C  -2.56700 32.42400 24.40700
N  -1.74900 34.79100 28.97900
C  -2.53500 33.94000 29.81600
C  -2.37900 34.32500 31.22000
C  -1.48300 35.58500 31.17700
C  -1.26900 35.80000 29.62400
C  -2.10700 36.82000 31.81300
C  -1.76900 33.16300 32.05700
C  -2.51700 32.83000 33.40500
H  -1.74400 32.75200 34.77500
N  -0.46300 36.43100 26.66500
C  -0.07500 37.20500 27.75000
C  0.81000 38.23000 27.31100
C  0.73500 38.29600 25.84800
C  -0.02000 37.02200 25.49900
C  1.55300 39.17100 28.26200
C  1.33000 39.34000 24.84700
O  1.33700 39.15800 23.65800
C  1.94000 40.60900 25.45300
N  -1.67700 34.71900 24.55700
C  -1.04600 35.60900 23.73900
C  -1.16100 35.11800 22.28000
C  -1.70800 33.68500 22.37500
C  -1.98000 33.54800 23.86600
C  -1.93200 36.16100 21.37300
C  -0.77100 32.63400 21.73000
C  0.44700 32.20400 22.59100
N  -2.73700 33.02100 26.71800
C  -3.05300 32.21300 25.66400
C  -4.06300 31.20900 26.14600
C  -4.09000 31.40000 27.56200
C  -3.29500 32.50700 27.89000
C  -4.81600 30.27900 25.37700
C  -4.64300 30.94300 28.82900
O  -5.43900 29.99100 29.05600
C  -4.07200 31.85000 29.95500
C  -5.11400 32.42100 30.80200
O  -5.63300 33.50400 30.65300
O  -5.41400 31.51400 31.85000
C  -6.29100 32.16500 32.86200
H  0.04000 37.54800 29.74800
H  0.05900 37.31200 23.40800
H  -2.87500 31.72900 23.62300
H  -3.36700 34.56400 31.61500
H  -0.49300 35.44300 31.61200
H  -2.23100 37.56800 31.03000
H  -1.56400 37.11100 32.71100
H  -3.16300 36.73300 32.07000
H  -0.79100 33.28900 32.52300
H  -1.52400 32.31500 31.41700
H  -2.89300 31.81800 33.25800
H  -3.35200 33.50400 33.59900
H  2.60600 39.16700 27.98100
H  1.61000 38.95700 29.33000
H  1.10600 40.16400 28.28600
H  1.18100 40.89600 26.18100
H  1.97100 41.36800 24.67200
H  2.92900 40.26500 25.75700
H  -0.12900 35.12800 21.92700
H  -2.70200 33.67500 21.92900
H  -2.66100 35.67300 20.72600
H  -1.14600 36.58100 20.74500
H  -2.38700 36.97600 21.93600
H  -0.51100 33.01700 20.74400
H  -1.47600 31.83900 21.48500
H  0.44000 32.67000 23.57700
H  1.37700 32.34600 22.04100
H  0.42600 31.12700 22.75800
H  -4.50800 30.43200 24.34300
H  -5.88300 30.49900 25.40900
H  -4.78600 29.23700 25.69800
H  -3.40000 31.25900 30.57800
H  -5.70900 32.59200 33.67800
H  -6.73600 31.35200 33.43400
H  -7.01500 32.91700 32.54700

