158

Mg 55.57100 24.12600 43.88600
C  53.00000 26.41600 43.06900
C  53.72900 21.59000 42.88200
C  58.33300 22.17500 43.95000
C  57.68100 26.98100 44.48600
N  53.64400 24.06000 42.91200
C  52.64200 25.06200 42.81200
C  51.27400 24.45700 42.49300
C  51.57600 22.92800 42.61900
C  53.10500 22.85900 42.81900
C  50.83900 22.17700 43.76000
C  50.83300 24.76100 41.03200
C  49.35000 24.78000 40.64500
H  49.03700 24.37500 39.20200
N  55.96900 22.10800 43.63900
C  55.03000 21.23600 43.18800
C  55.60100 19.94600 43.08600
C  56.98800 20.09000 43.37600
C  57.24800 21.54200 43.66000
C  54.89800 18.70000 42.64500
C  57.97300 18.92000 43.44300
O  57.58900 17.83600 43.33400
C  59.46800 19.19400 43.61000
N  57.68800 24.55200 44.13800
C  58.53500 23.54600 44.23800
C  59.89000 24.04500 44.67000
C  59.81100 25.58600 44.53400
C  58.26800 25.74600 44.51200
C  60.30200 23.55000 46.08600
C  60.63100 26.23200 43.37300
C  61.74400 27.18600 43.66500
N  55.36800 26.23400 43.88900
C  56.32400 27.24600 44.26700
C  55.61600 28.51500 44.29500
C  54.35700 28.26300 43.81200
C  54.30000 26.87500 43.52000
C  56.17900 29.81400 44.79500
C  53.07500 28.88700 43.57200
O  52.66000 30.02100 43.83100
C  52.10000 27.69500 43.05000
C  51.68200 28.05000 41.75800
O  52.39900 28.40600 40.79500
O  50.29100 27.98400 41.56800
C  49.67000 28.89400 40.56900
H  52.99000 20.79800 42.74800
H  59.28100 21.63900 44.03700
H  58.22500 27.92300 44.58400
H  50.53400 24.78600 43.22200
H  51.37800 22.44300 41.66300
H  51.49800 21.64700 44.44800
H  50.13700 21.42400 43.40300
H  50.38000 22.93000 44.40100
H  51.34000 24.05900 40.37100
H  51.27400 25.70300 40.70700
H  49.07700 25.82700 40.78100
H  48.83100 24.06300 41.28000
H  55.24100 18.40700 41.65300
H  53.81000 18.77200 42.67100
H  55.22300 17.85500 43.25100
H  59.95200 19.79300 42.83900
H  59.95600 18.22400 43.50900
H  59.71000 19.54700 44.61300
H  60.65200 23.72400 43.96000
H  60.17400 25.96500 45.48900
H  59.87000 22.57600 46.31800
H  60.07000 24.23100 46.90500
H  61.37700 23.36600 46.07400
H  60.01300 26.92000 42.79500
H  61.02900 25.43700 42.74200
H  62.62800 26.90600 43.09200
H  62.05800 27.04200 44.69900
H  61.41200 28.20300 43.46000
H  57.06600 30.11100 44.23600
H  56.33700 29.71400 45.86900
H  55.41300 30.57000 44.62300
H  51.26000 27.71000 43.74400
H  48.99800 29.52300 41.15300
H  49.11900 28.24300 39.89000
H  50.40000 29.35800 39.90500
Mg 48.34500 24.69900 27.53800
C  49.26700 26.98200 29.85800
C  47.66900 22.42000 30.04600
C  47.65100 22.35400 25.14000
C  49.76300 26.70700 25.04300
N  48.38300 24.70300 29.76400
C  48.82900 25.74800 30.51600
C  48.52200 25.58200 32.05500
C  48.23300 24.00500 32.09300
C  48.12100 23.61600 30.53900
C  49.29800 23.12900 32.80200
C  47.27400 26.41300 32.43800
C  46.69300 26.05000 33.76400
H  46.52200 27.14800 34.82300
N  47.67500 22.70200 27.54800
C  47.44300 21.95000 28.64200
C  46.81700 20.69000 28.27000
C  46.70200 20.71700 26.81500
C  47.30200 22.01000 26.42800
C  46.36800 19.68600 29.26000
C  46.13100 19.69700 25.86600
O  46.03600 19.97300 24.67800
C  45.54700 18.43200 26.41200
N  48.71900 24.61000 25.41900
C  48.25800 23.53700 24.71800
C  48.50100 23.73600 23.18800
C  49.03900 25.24700 23.09100
C  49.19400 25.56700 24.54300
C  49.54900 22.73000 22.42200
C  48.04400 26.20200 22.37600
C  48.67300 27.36700 21.57100
N  49.16200 26.49000 27.41200
C  49.73600 27.19800 26.36200
C  50.19700 28.45300 26.88200
C  49.95800 28.46000 28.20900
C  49.38200 27.23200 28.49700
C  50.85600 29.53100 26.03400
C  50.11600 29.18000 29.42400
O  50.56700 30.29400 29.62600
C  49.63100 28.27100 30.55500
C  50.70000 28.10400 31.51800
O  51.72900 27.49600 31.23500
O  50.33800 28.60000 32.77900
C  51.32900 28.44100 33.85700
H  47.27300 21.81600 30.86400
H  47.38300 21.63600 24.36100
H  49.95100 27.40400 24.22300
H  49.35700 25.93900 32.65900
H  47.22000 23.73900 32.39400
H  48.89600 22.19000 33.18200
H  49.92500 23.63400 33.53700
H  49.93300 22.91400 31.94300
H  46.48700 26.22700 31.70700
H  47.58200 27.45800 32.44900
H  47.28900 25.26400 34.22800
H  45.72100 25.61500 33.53400
H  45.39200 19.21400 29.14800
H  46.51600 20.05200 30.27600
H  47.02100 18.81300 29.27800
H  45.51300 17.77000 25.54700
H  44.54600 18.66100 26.78000
H  46.24200 17.93000 27.08500
H  47.57200 23.58100 22.64000
H  50.03600 25.32100 22.65500
H  50.41300 23.37200 22.25100
H  49.17500 22.27500 21.50600
H  49.80200 22.02600 23.21500
H  47.51500 26.75900 23.14900
H  47.34800 25.57300 21.82100
H  48.40000 28.34400 21.96800
H  48.50500 27.24700 20.50100
H  49.76100 27.42600 21.52700
H  50.92800 29.20800 24.99500
H  51.88000 29.84400 26.24200
H  50.08400 30.29700 26.09900
H  48.80100 28.86000 30.94400
H  52.33900 28.23100 33.50500
H  50.98200 27.58000 34.42700
H  51.43500 29.34200 34.46100

