158

Mg 29.98600 58.61200 39.88100
C  27.24700 56.42000 39.20100
C  32.16400 55.98500 39.23400
C  32.46000 60.81200 39.94700
C  27.59300 61.21400 40.09200
N  29.71000 56.56000 38.98800
C  28.52800 55.82400 38.93000
C  28.78900 54.38700 38.56400
C  30.21000 54.25000 39.09600
C  30.76600 55.67400 39.07800
C  30.34700 53.56100 40.45800
C  28.80900 54.22200 36.97700
C  27.63200 53.41300 36.32800
H  26.76000 54.28300 35.38300
N  32.04300 58.49100 39.63300
C  32.76000 57.29400 39.48500
C  34.22100 57.64000 39.54200
C  34.32600 59.05900 39.66300
C  32.87300 59.54500 39.75700
C  35.31800 56.63600 39.39900
C  35.62000 59.83000 39.65300
O  36.70700 59.30000 39.55900
C  35.68400 61.36700 39.75500
N  29.97100 60.79500 39.87400
C  31.11900 61.44800 40.04500
C  30.86000 63.00900 40.09500
C  29.38600 63.14100 40.07200
C  28.91500 61.65000 40.04100
C  31.55900 63.76000 41.21700
C  28.72000 64.00500 38.85300
C  29.42600 65.16000 38.24800
N  27.81900 58.75100 39.96500
C  26.99600 59.92000 40.00400
C  25.65100 59.55800 40.00700
C  25.70200 58.16800 39.71700
C  26.99300 57.74500 39.65900
C  24.50500 60.37800 40.08600
C  24.84600 57.03000 39.39100
O  23.63800 56.88200 39.40700
C  25.84200 55.84000 39.08900
C  25.60100 54.69300 40.02600
O  25.98500 54.61400 41.14500
O  24.69300 53.84300 39.43700
C  24.03900 52.91300 40.38800
H  32.74900 55.06300 39.25300
H  33.15900 61.65100 39.96000
H  26.97800 62.08100 40.34200
H  28.14300 53.60300 38.95900
H  30.83700 53.66200 38.42500
H  29.36500 53.53400 40.92900
H  31.10400 54.07400 41.05100
H  30.64700 52.51500 40.39100
H  29.70700 53.87000 36.47100
H  28.62600 55.25200 36.67100
H  26.94000 52.98400 37.05200
H  28.03800 52.57300 35.76400
H  35.82900 56.80100 38.45100
H  34.99700 55.60400 39.25600
H  35.97800 56.67100 40.26500
H  35.15100 61.81000 38.91300
H  36.72700 61.65500 39.62600
H  35.28400 61.70300 40.71200
H  31.30700 63.30800 39.14700
H  29.09000 63.58500 41.02300
H  32.40400 63.31300 41.74000
H  30.89500 64.20100 41.96000
H  32.14000 64.56100 40.75900
H  27.89500 64.43600 39.42100
H  28.29300 63.46800 38.00500
H  28.97200 65.55100 37.33700
H  30.49500 65.03900 38.07100
H  29.37800 65.91300 39.03400
H  24.44700 60.92800 39.14700
H  24.40900 61.11600 40.88300
H  23.63400 59.72200 40.10100
H  25.70200 55.50700 38.06100
H  24.80000 52.23400 40.77400
H  23.33800 52.37700 39.74900
H  23.47200 53.38700 41.18900
Mg 16.73900 51.82700 26.49100
C  18.55900 50.30100 29.07400
C  14.34600 52.56500 28.83400
C  14.99200 53.09200 24.02600
C  18.97600 50.29000 24.15200
N  16.59500 51.63900 28.67300
C  17.43700 51.00700 29.51800
C  16.99900 51.16800 31.01500
C  15.57200 51.62100 30.87000
C  15.46600 51.95200 29.41100
C  14.42900 50.67300 31.26500
C  17.88900 52.24500 31.65600
C  17.50400 52.76500 33.02000
H  16.48000 51.95300 33.84300
N  14.94800 52.80100 26.38500
C  14.11000 53.08500 27.49000
C  13.02400 53.98900 27.08000
C  13.24800 54.20100 25.69500
C  14.41000 53.39200 25.29600
C  12.05400 54.64000 28.09700
C  12.42800 55.05300 24.74400
O  12.72700 55.20100 23.59800
C  11.15400 55.68100 25.28400
N  17.10600 51.77400 24.35200
C  16.15900 52.39800 23.56700
C  16.56700 52.37300 22.05900
C  17.93300 51.49800 22.07400
C  17.96300 51.11800 23.59000
C  15.51800 51.77400 20.98100
C  19.28400 52.16500 21.64000
C  20.20800 51.33400 20.71100
N  18.54200 50.60300 26.57100
C  19.30700 50.14600 25.52800
C  20.45400 49.51000 26.13900
C  20.23500 49.51600 27.52800
C  19.02600 50.17700 27.76500
C  21.60700 48.91700 25.26200
C  20.73000 49.13700 28.83600
O  21.80400 48.65600 29.24200
C  19.63500 49.65400 29.89500
C  19.33800 48.55500 30.77700
O  18.73700 47.50000 30.50600
O  19.78300 48.85000 32.01900
C  19.55100 47.76300 33.04000
H  13.50400 52.86300 29.46200
H  14.48500 53.50800 23.15200
H  19.68600 49.96100 23.39100
H  16.94800 50.28500 31.65200
H  15.34500 52.62100 31.24000
H  13.87200 50.96600 32.15500
H  14.82200 49.66400 31.39500
H  13.75300 50.49600 30.42800
H  17.76900 53.11300 31.00800
H  18.91800 51.88500 31.68500
H  17.16100 53.78600 32.85300
H  18.48200 52.69500 33.49800
H  12.02100 55.72800 28.03800
H  12.40200 54.54000 29.12500
H  11.03800 54.26100 27.98400
H  10.74900 56.09500 24.36000
H  11.52900 56.53200 25.85100
H  10.56400 55.07800 25.97400
H  16.67700 53.41500 21.76000
H  17.75000 50.56100 21.54900
H  14.77200 51.18200 21.51200
H  16.03100 51.00700 20.40100
H  14.98000 52.45400 20.32100
H  19.91700 52.51100 22.45600
H  19.00100 53.07200 21.10600
H  20.58000 51.91700 19.86900
H  19.58500 50.54200 20.29600
H  20.99500 50.80700 21.25000
H  21.57600 49.55400 24.37800
H  21.39200 47.89100 24.96500
H  22.53200 48.90300 25.83900
H  20.16300 50.43100 30.44800
H  20.39400 47.11500 32.79700
H  18.59100 47.25600 32.94700
H  19.72700 47.96400 34.09700

