158

Mg 2.20800 -0.96100 43.82300
C  5.62300 -0.54600 43.28200
C  1.72300 1.90000 41.73100
C  -1.08400 -1.56600 43.75600
C  2.77800 -4.03000 45.36400
N  3.56400 0.52300 42.64000
C  4.91000 0.38100 42.47900
C  5.46800 1.41300 41.46800
C  4.18600 2.25600 41.07800
C  3.07800 1.60500 41.87700
C  4.27900 3.81600 41.41300
C  6.12800 0.82400 40.25500
C  7.59800 1.19700 40.17900
H  8.12500 1.85200 38.81300
N  0.54500 0.06100 42.99700
C  0.57600 1.26600 42.29000
C  -0.78400 1.70000 42.06600
C  -1.60900 0.70200 42.64800
C  -0.73200 -0.38500 43.10200
C  -1.04400 3.09600 41.37500
C  -3.16600 0.69100 42.71100
O  -3.73400 1.52700 42.04500
C  -3.98300 -0.26200 43.62900
N  1.01900 -2.61000 44.50000
C  -0.33600 -2.58200 44.36800
C  -0.97200 -3.87900 44.96300
C  0.30100 -4.51400 45.70700
C  1.42000 -3.73700 45.08700
C  -2.21200 -3.73600 45.86300
C  0.41900 -6.09100 45.36300
C  0.64800 -7.01800 46.59200
N  3.82000 -2.07800 44.25500
C  3.90500 -3.26800 44.90600
C  5.28500 -3.67700 44.96100
C  6.00400 -2.59400 44.45200
C  5.03600 -1.57600 44.02600
C  5.83500 -5.02700 45.51000
C  7.31300 -2.10600 44.27200
O  8.37800 -2.59700 44.63300
C  7.14000 -0.67700 43.54700
C  7.59800 0.55100 44.34300
O  7.28800 0.85900 45.47600
O  8.56900 1.24400 43.58300
C  9.08700 2.36400 44.22100
H  1.36300 2.66500 41.04000
H  -2.14000 -1.84100 43.76300
H  2.95600 -5.02400 45.78100
H  6.14000 2.08900 41.99800
H  3.94800 2.16500 40.01800
H  5.28700 4.01200 41.77800
H  3.61100 4.13000 42.21500
H  4.09200 4.30600 40.45800
H  5.74600 1.07500 39.26600
H  6.14800 -0.22700 40.54700
H  8.21100 0.30700 40.32000
H  7.83500 1.92800 40.95300
H  -2.13200 3.14400 41.42900
H  -0.85600 3.16000 40.30400
H  -0.49300 3.87100 41.90900
H  -4.96400 0.16200 43.84400
H  -3.64800 -0.45600 44.64800
H  -4.28200 -1.19000 43.14200
H  -1.38100 -4.49700 44.16400
H  0.36100 -4.32600 46.77900
H  -3.02300 -4.44800 45.70700
H  -2.61900 -2.73400 45.72900
H  -1.98900 -3.83500 46.92600
H  1.16900 -6.21100 44.58100
H  -0.52100 -6.43900 44.93600
H  -0.07100 -7.83400 46.64700
H  0.60500 -6.42400 47.50500
H  1.53200 -7.63700 46.43900
H  5.50400 -5.81500 44.83400
H  5.41000 -5.05900 46.51400
H  6.90600 -4.97900 45.70500
H  7.64500 -0.71200 42.58100
H  10.09500 2.23700 44.61600
H  8.43900 2.75600 45.00600
H  9.10400 3.13300 43.44800
Mg 48.02800 44.84800 43.30900
C  44.60800 44.77600 42.76700
C  48.14200 41.52000 42.35500
C  51.27100 45.17500 43.20400
C  47.69500 48.24400 44.29000
N  46.45900 43.35900 42.75200
C  45.15800 43.51100 42.50900
C  44.49400 42.24100 41.87100
C  45.63400 41.21300 42.21300
C  46.88400 42.07500 42.44500
C  45.43600 40.39200 43.49900
C  44.33300 42.48200 40.38400
C  43.11400 41.82300 39.66300
H  43.31600 40.62500 38.70300
N  49.55900 43.45400 42.93000
C  49.42000 42.17600 42.53300
C  50.76600 41.59400 42.31600
C  51.68700 42.60100 42.67200
C  50.87000 43.80500 42.93600
C  50.88600 40.12700 41.95100
C  53.13700 42.46400 42.64400
O  53.64800 41.38400 42.24300
C  54.06800 43.53500 43.05300
N  49.27600 46.53100 43.47200
C  50.58800 46.38800 43.45400
C  51.39800 47.75200 43.65900
C  50.20600 48.74200 43.89200
C  49.01500 47.79100 43.98000
C  52.58300 47.83100 44.68500
C  50.18300 49.98300 42.87300
C  51.26500 51.05700 43.07700
N  46.48500 46.30200 43.47800
C  46.49700 47.63000 43.95000
C  45.09400 48.11000 44.00800
C  44.33400 47.11500 43.39600
C  45.23100 46.02200 43.19500
C  44.70600 49.50900 44.47500
C  43.03600 46.69300 42.94800
O  41.98500 47.28000 42.93200
C  43.19300 45.29600 42.32900
C  41.97300 44.46500 42.79500
O  41.41700 43.65100 42.03700
O  41.71100 44.77400 44.07500
C  40.72100 43.89600 44.69200
H  48.13700 40.47700 42.03200
H  52.33400 45.40300 43.10400
H  47.70000 49.30600 44.54200
H  43.55900 42.02100 42.38700
H  45.79000 40.55000 41.36200
H  44.38600 40.10200 43.54700
H  45.70000 40.83500 44.45900
H  45.93400 39.42200 43.50800
H  45.20300 42.06900 39.87300
H  44.30000 43.55000 40.16900
H  42.64800 42.66200 39.14700
H  42.41000 41.52700 40.44100
H  49.92200 39.66200 41.74500
H  51.44100 39.52500 42.67000
H  51.41800 40.12600 40.99900
H  54.07400 44.24600 42.22600
H  55.09500 43.17700 43.11900
H  53.80500 44.03000 43.98800
H  51.95300 47.87100 42.72900
H  50.22100 49.08100 44.92800
H  52.89300 46.83500 44.99900
H  52.23900 48.33900 45.58600
H  53.43500 48.40500 44.32000
H  49.15500 50.31900 43.00800
H  50.04800 49.55800 41.87800
H  50.79500 52.02500 43.25000
H  51.70700 51.22500 42.09500
H  52.08800 50.87600 43.76900
H  44.42100 49.40700 45.52300
H  43.83400 49.85100 43.91800
H  45.52300 50.21000 44.30700
H  42.94700 45.47600 41.28300
H  40.78300 43.56100 45.72700
H  40.70100 42.94600 44.15800
H  39.77000 44.38700 44.48500

