158

Mg 6.39500 54.40100 40.54500
C  5.92200 50.93300 40.26500
C  9.66500 53.98000 39.63300
C  6.66100 57.79200 40.19900
C  2.90200 54.77200 40.79100
N  7.61300 52.57800 39.96600
C  7.23500 51.28200 39.89300
C  8.41100 50.43100 39.48700
C  9.64200 51.39700 39.46800
C  8.95800 52.73600 39.75500
C  10.85100 51.05100 40.44600
C  8.34500 49.82900 38.03800
C  7.95100 50.81500 36.86000
H  6.71700 50.32600 36.00800
N  7.92400 55.71300 39.99700
C  9.18200 55.31000 39.72600
C  10.04400 56.48300 39.59400
C  9.20700 57.60400 39.70400
C  7.83400 57.06800 39.97500
C  11.53300 56.42000 39.44100
C  9.71500 59.00700 39.55700
O  10.79400 59.13300 39.08400
C  8.84600 60.24100 39.64100
N  4.93800 56.09600 40.48100
C  5.27700 57.41300 40.38400
C  4.13400 58.29800 40.72300
C  2.89400 57.37100 40.54800
C  3.59600 56.00000 40.69400
C  4.27600 59.02000 42.12500
C  2.13800 57.59300 39.24800
C  1.34100 58.89700 39.22000
N  4.72400 53.16000 40.59000
C  3.38300 53.44100 40.72600
C  2.62500 52.24100 40.81800
C  3.63700 51.20700 40.75900
C  4.87800 51.85200 40.49200
C  1.09000 52.10300 41.02400
C  3.84700 49.81700 40.90500
O  3.09600 48.88100 41.16000
C  5.27300 49.58200 40.41000
C  5.29600 48.68000 39.24900
O  5.01500 48.95700 38.10600
O  5.76700 47.45200 39.66600
C  5.53800 46.28400 38.80300
H  10.71400 53.76200 39.41900
H  6.76600 58.87800 40.22500
H  1.84000 54.87900 41.02500
H  8.43100 49.75900 40.34500
H  10.12200 51.36900 38.49000
H  11.78900 50.92900 39.90400
H  10.71800 50.15000 41.04600
H  10.93100 51.82700 41.20800
H  7.64100 48.99700 38.03000
H  9.35000 49.43800 37.88100
H  8.81600 50.79600 36.19700
H  7.63800 51.78000 37.25900
H  12.03100 57.28300 39.88200
H  11.62700 56.34700 38.35700
H  11.86900 55.54800 40.00200
H  8.14400 60.12400 38.81500
H  9.48300 61.11700 39.51900
H  8.34500 60.41000 40.59400
H  4.07400 59.10000 39.98800
H  2.15800 57.33000 41.35100
H  3.35700 58.74000 42.64000
H  4.44100 60.08000 41.93100
H  5.16500 58.54600 42.54000
H  1.43300 56.77400 39.10600
H  2.91500 57.49200 38.49000
H  0.27900 58.74000 39.03300
H  1.76200 59.41100 38.35600
H  1.47200 59.48000 40.13200
H  0.56200 51.97700 40.07800
H  0.68100 52.93700 41.59400
H  0.90400 51.22800 41.64600
H  5.82300 49.05900 41.19300
H  6.53400 45.86500 38.66000
H  5.10400 46.45800 37.81900
H  4.95400 45.47300 39.23800
Mg -10.38600 17.29100 41.17600
C  -6.92800 16.68300 41.10100
C  -9.63400 20.54900 40.69600
C  -13.53300 17.62200 40.08800
C  -10.90600 13.82500 41.22200
N  -8.43400 18.41400 41.05600
C  -7.18700 17.99500 41.00300
C  -6.16400 19.14100 40.67200
C  -7.09800 20.40400 40.96300
C  -8.47900 19.75900 40.88100
C  -7.01400 21.18600 42.29300
C  -5.67800 18.89600 39.18900
C  -4.24800 18.53800 38.87200
H  -3.98700 17.30500 37.98700
N  -11.56700 18.94400 40.76500
C  -11.03900 20.18900 40.50900
C  -12.11400 21.05100 40.20100
C  -13.30900 20.21800 40.04400
C  -12.82400 18.84100 40.25600
C  -11.99300 22.54700 40.04900
C  -14.69500 20.74000 39.75000
O  -14.99100 21.87600 39.47900
C  -15.84500 19.81300 39.79400
N  -11.98900 15.84700 40.73000
C  -13.13600 16.27600 40.30700
C  -14.14600 15.14600 39.95600
C  -13.42500 13.94600 40.64100
C  -12.07400 14.55300 40.95600
C  -15.58400 15.09200 40.52100
C  -13.52700 12.68200 39.77600
C  -14.12500 11.45600 40.51000
N  -9.24400 15.53500 41.26100
C  -9.58200 14.21000 41.40100
C  -8.41300 13.42500 41.38000
C  -7.30500 14.32800 41.27300
C  -7.87300 15.62300 41.25500
C  -8.34300 11.86500 41.44600
C  -5.93500 14.33700 41.16600
O  -5.20000 13.34500 41.08200
C  -5.58800 15.91800 41.17200
C  -4.79000 16.33100 42.31400
O  -3.99700 17.20000 42.29000
O  -5.01700 15.58800 43.48300
C  -4.00900 15.64500 44.59000
H  -9.35200 21.59900 40.59700
H  -14.53300 17.62100 39.65000
H  -11.06200 12.74800 41.31000
H  -5.35500 19.06900 41.40000
H  -6.83600 21.12400 40.18700
H  -7.99200 21.34900 42.74400
H  -6.45900 22.10900 42.12800
H  -6.44300 20.50400 42.92500
H  -5.91500 19.84900 38.71700
H  -6.22000 18.12200 38.64600
H  -3.77600 18.39200 39.84400
H  -3.75700 19.41000 38.44100
H  -12.94400 23.06900 40.16000
H  -11.62800 22.77200 39.04700
H  -11.20600 22.81600 40.75400
H  -15.69300 19.13900 38.95200
H  -16.80800 20.31500 39.70100
H  -15.68800 19.18500 40.67100
H  -14.16500 15.12500 38.86700
H  -13.86500 13.76900 41.62300
H  -15.63400 16.05700 41.02700
H  -15.81700 14.32700 41.26100
H  -16.39100 15.10600 39.78900
H  -12.47100 12.42700 39.69200
H  -13.87600 12.71000 38.74400
H  -14.98800 11.70500 41.12700
H  -13.34600 10.87300 41.00200
H  -14.52900 10.77100 39.76500
H  -7.53700 11.62900 40.75100
H  -9.26000 11.32900 41.20100
H  -8.04800 11.60200 42.46200
H  -5.13300 16.15300 40.20900
H  -4.10700 16.50800 45.24900
H  -2.97900 15.69900 44.23900
H  -4.08500 14.65900 45.04800

