158

Mg 47.77600 15.78700 28.18700
C  45.91200 15.45000 31.20200
C  49.73200 18.16600 29.72300
C  49.18700 16.61500 25.19400
C  45.23100 13.91900 26.50000
N  47.80900 16.72500 30.22900
C  47.04000 16.30800 31.27300
C  47.58700 17.04900 32.48500
C  48.63600 18.06800 31.96600
C  48.83200 17.52800 30.56800
C  48.23000 19.61100 31.89100
C  48.10000 15.98900 33.53700
C  47.87800 16.18800 35.00500
H  47.89700 17.57200 35.56600
N  49.40200 17.01200 27.62200
C  50.07200 17.91800 28.35400
C  51.09600 18.55600 27.56400
C  51.05000 18.01800 26.27700
C  49.86500 17.07800 26.31400
C  52.04100 19.57500 28.13900
C  51.87700 18.31600 25.06000
O  51.79100 17.60100 24.08900
C  52.76700 19.45800 25.13400
N  47.31100 15.33700 26.18500
C  48.00100 15.83600 25.12500
C  47.38900 15.36900 23.76600
C  46.26800 14.41400 24.18300
C  46.31700 14.47100 25.74600
C  46.95300 16.56900 22.91500
C  46.36000 12.89300 23.75800
C  45.19900 12.34900 22.87100
N  45.96100 14.74300 28.70200
C  45.10100 13.97700 27.93800
C  44.07900 13.35900 28.82700
C  44.37000 13.92800 30.06500
C  45.51300 14.72100 29.98500
C  42.97400 12.54400 28.19700
C  43.94200 13.96100 31.45300
O  43.01800 13.39500 31.97100
C  44.89700 14.92100 32.20200
C  44.25600 16.01600 32.96900
O  44.10000 17.12500 32.37100
O  43.89800 15.68100 34.26700
C  43.15600 16.73200 34.99200
H  50.11200 19.10200 30.13600
H  49.49400 16.83100 24.16900
H  44.52700 13.32600 25.91300
H  46.71400 17.60100 32.83300
H  49.51600 17.90700 32.58800
H  48.01000 19.92400 30.87000
H  48.97700 20.26700 32.33800
H  47.26800 19.85700 32.33800
H  49.14700 15.77900 33.31700
H  47.79800 15.05200 33.07000
H  48.74000 15.67300 35.43000
H  46.96600 15.64800 35.25900
H  53.06700 19.37000 27.83300
H  52.03000 19.56900 29.22900
H  51.62600 20.49000 27.71500
H  52.07300 20.24900 25.41900
H  53.00800 19.84700 24.14500
H  53.64700 19.28000 25.75200
H  48.16100 14.75200 23.30600
H  45.31000 14.82100 23.86000
H  47.31500 16.44900 21.89400
H  47.47800 17.43600 23.31800
H  45.89200 16.74300 23.09400
H  46.42100 12.19000 24.58900
H  47.30900 12.70400 23.25700
H  45.68500 12.05100 21.94200
H  44.50500 13.12900 22.55800
H  44.61300 11.53100 23.29100
H  43.53100 11.79000 27.64000
H  42.26300 13.02600 27.52500
H  42.34500 12.08800 28.96100
H  45.47500 14.41400 32.97500
H  42.10400 16.70500 34.70800
H  43.57800 17.72000 34.80700
H  43.14400 16.44100 36.04200
Mg 17.23900 52.51900 25.38400
C  18.88200 51.17800 28.14600
C  14.78800 53.67500 27.44400
C  15.84600 53.78400 22.59800
C  19.70800 50.95100 23.33100
N  16.87600 52.38900 27.65000
C  17.70700 51.82100 28.54300
C  17.15700 52.26100 29.94700
C  15.69400 52.71500 29.61800
C  15.82100 53.03100 28.15600
C  14.56800 51.64900 29.96100
C  18.14900 53.28700 30.67900
C  17.91800 53.48400 32.18600
H  16.72300 52.78900 32.87500
N  15.62000 53.53200 25.04900
C  14.64100 53.88500 26.02500
C  13.46300 54.46000 25.32300
C  13.79700 54.49300 23.86700
C  15.15900 53.92900 23.79800
C  12.36300 55.09600 26.13300
C  13.01100 55.04200 22.72000
O  13.36000 55.17200 21.52900
C  11.63900 55.52600 23.10800
N  17.74300 52.47400 23.28900
C  17.01800 53.11400 22.35000
C  17.66400 52.94500 20.96400
C  18.92600 52.11800 21.25700
C  18.81600 51.81800 22.76000
C  16.73000 52.15500 20.02600
C  20.25400 52.85300 20.84800
C  21.15600 52.23100 19.75100
N  18.82900 51.17500 25.60900
C  19.75800 50.62700 24.71400
C  20.78700 49.79700 25.42600
C  20.46500 50.00400 26.75400
C  19.34500 50.86700 26.86900
C  21.94100 48.97100 24.87600
C  20.89400 49.83400 28.10500
O  21.83400 49.21300 28.57100
C  19.89300 50.57800 29.09700
C  19.44500 49.47100 30.01200
O  18.80600 48.45700 29.67000
O  19.84600 49.87700 31.26200
C  19.45600 49.12200 32.49300
H  13.89700 54.02100 27.97100
H  15.41800 54.08200 21.63900
H  20.42400 50.51400 22.63200
H  16.91300 51.37100 30.52700
H  15.50000 53.71300 30.01200
H  15.06900 50.68400 30.04600
H  13.81000 51.68400 29.17800
H  14.05700 51.91700 30.88600
H  17.91000 54.22600 30.18000
H  19.12900 53.02000 30.28500
H  17.80900 54.56300 32.29500
H  18.89500 53.20200 32.57900
H  11.53000 54.41800 26.31600
H  12.09600 56.02900 25.63500
H  12.70300 55.56800 27.05400
H  11.05600 55.60400 22.18900
H  11.74800 56.55000 23.46500
H  11.02300 54.90700 23.76000
H  18.00200 53.90800 20.58100
H  18.91600 51.19200 20.68200
H  16.52500 52.67600 19.09100
H  15.75900 52.01500 20.50100
H  17.09800 51.15200 19.81300
H  20.84300 52.83800 21.76500
H  20.10100 53.89600 20.57200
H  21.80000 51.43400 20.11900
H  21.73000 52.98200 19.20800
H  20.49000 51.83200 18.98600
H  22.90300 49.47100 24.99100
H  21.83700 48.97100 23.79100
H  21.92200 47.93000 25.19800
H  20.40200 51.37200 29.64300
H  18.85900 48.23700 32.27500
H  18.73400 49.75400 33.01000
H  20.22900 48.88500 33.22300

