158

Mg 42.84900 41.85200 26.11400
C  41.96000 44.16900 28.52300
C  44.05800 39.68400 28.48300
C  43.83300 39.78800 23.66800
C  42.23500 44.37200 23.61600
N  42.93300 41.96200 28.26600
C  42.52400 42.96500 29.10600
C  42.53300 42.42000 30.57500
C  43.56100 41.26800 30.45600
C  43.55700 40.89600 28.96800
C  44.97000 41.49400 30.96100
C  41.09900 41.89100 30.99000
C  40.92800 41.68700 32.52400
H  40.07800 42.65400 33.32100
N  43.55500 39.88100 26.10300
C  44.04300 39.16300 27.11100
C  44.43600 37.86800 26.62400
C  43.93700 37.75300 25.28600
C  43.73800 39.19400 24.90600
C  44.99800 36.89400 27.59800
C  43.71300 36.52800 24.44300
O  43.36800 36.50300 23.29300
C  43.79500 35.25800 25.10100
N  43.16800 42.09100 23.94800
C  43.64200 41.05500 23.17200
C  43.89500 41.55800 21.74400
C  43.22200 42.88100 21.75100
C  42.86500 43.17300 23.18300
C  45.36600 41.68800 21.38900
C  41.90800 43.03100 20.79700
C  40.61500 42.51100 21.40300
N  42.31400 43.95900 26.01800
C  42.02600 44.79000 24.98400
C  41.53300 46.03300 25.55200
C  41.47200 45.83600 26.89700
C  41.98300 44.54700 27.12500
C  41.20400 47.24400 24.82900
C  41.04300 46.38500 28.13400
O  40.45200 47.37100 28.35400
C  41.24900 45.25500 29.29500
C  42.02500 45.92900 30.37100
O  43.23500 46.06800 30.43100
O  41.15700 46.41600 31.30500
C  41.60200 47.35600 32.32800
H  44.47000 38.96500 29.19400
H  44.11300 39.12500 22.84600
H  41.81800 44.99500 22.82200
H  42.83500 43.21900 31.25100
H  43.20500 40.41200 31.02800
H  45.06500 42.42600 31.51900
H  45.65100 41.51800 30.11100
H  45.23900 40.73300 31.69400
H  40.97000 40.89300 30.57100
H  40.22900 42.45100 30.64700
H  41.93200 41.64100 32.94600
H  40.54000 40.67900 32.67100
H  45.57400 36.12000 27.09300
H  44.11100 36.42600 28.02600
H  45.56200 37.34900 28.41200
H  44.78500 34.87600 25.35100
H  43.24600 34.55900 24.47000
H  43.08700 35.33000 25.92600
H  43.48100 40.74700 21.14500
H  43.83500 43.71000 21.39800
H  45.51600 41.37800 20.35500
H  45.90800 40.96200 21.99400
H  45.79900 42.67500 21.55700
H  42.07300 42.43400 19.89900
H  41.75300 44.05000 20.44200
H  40.08800 43.43600 21.63700
H  40.65600 41.81400 22.24000
H  39.91300 42.02300 20.72600
H  40.93800 48.06300 25.49700
H  40.47800 47.11300 24.02600
H  42.09800 47.67400 24.37800
H  40.36500 44.78100 29.72100
H  41.71600 46.77100 33.24000
H  40.80500 48.09100 32.44600
H  42.65800 47.61000 32.24200
Mg -1.69900 34.40500 26.83900
C  -3.35600 32.46300 29.25500
C  -0.30300 36.16100 29.34500
C  -0.37700 36.25100 24.47600
C  -3.07500 32.24400 24.28800
N  -2.03300 34.33900 29.09300
C  -2.69000 33.50400 29.88200
C  -2.52000 33.81100 31.37500
C  -1.69900 35.18000 31.27900
C  -1.30100 35.22700 29.83200
C  -2.40600 36.49200 31.71500
C  -1.77100 32.74600 32.27700
C  -2.44500 32.50900 33.65900
H  -1.63800 32.27200 35.01800
N  -0.57900 36.05800 26.95100
C  -0.00600 36.62200 28.05400
C  1.02900 37.64900 27.67900
C  0.93200 37.70800 26.22500
C  -0.05700 36.61500 25.80400
C  1.82100 38.40400 28.65200
C  1.65200 38.76000 25.31700
O  1.50900 38.77500 24.09800
C  2.58200 39.83000 25.99000
N  -1.70600 34.25500 24.70800
C  -1.24700 35.30100 23.98100
C  -1.58800 35.14800 22.48600
C  -2.16000 33.67500 22.39400
C  -2.34600 33.33400 23.89300
C  -2.58100 36.23100 21.90500
C  -1.35000 32.60400 21.63300
C  -0.55500 31.60800 22.44500
N  -3.00300 32.75700 26.71900
C  -3.35400 31.90700 25.64800
C  -4.09200 30.79200 26.14400
C  -4.16300 31.04900 27.53000
C  -3.42200 32.17700 27.80800
C  -4.80200 29.78400 25.38100
C  -4.68200 30.41100 28.76500
O  -5.28400 29.35400 28.86400
C  -4.10900 31.27500 29.95200
C  -5.17400 31.66200 30.91200
O  -5.55800 32.82500 31.03500
O  -5.60300 30.65200 31.78400
C  -6.39800 31.26800 32.90100
H  0.19400 36.59800 30.21300
H  0.08100 36.98500 23.80900
H  -3.36400 31.54700 23.49900
H  -3.51400 34.09600 31.71900
H  -0.76100 35.08900 31.82600
H  -3.41600 36.25800 32.05200
H  -2.42100 37.21000 30.89500
H  -1.86900 36.90000 32.57100
H  -0.75400 33.11900 32.39400
H  -1.63400 31.77600 31.79800
H  -3.05300 31.61000 33.55600
H  -3.19500 33.26500 33.89300
H  2.11900 37.82000 29.52200
H  1.25500 39.27800 28.97400
H  2.76700 38.80500 28.28900
H  2.09900 40.40300 26.78200
H  3.02200 40.42100 25.18700
H  3.33100 39.13700 26.37300
H  -0.67900 35.10200 21.88600
H  -3.18100 33.57500 22.02700
H  -3.56600 35.80300 21.71800
H  -2.18900 36.53000 20.93300
H  -2.56100 37.05800 22.61600
H  -0.62800 33.11400 20.99600
H  -1.99700 32.01600 20.98300
H  0.13300 31.08100 21.78400
H  -1.31900 30.92900 22.82400
H  0.03200 32.08200 23.23100
H  -4.31300 29.61800 24.42100
H  -5.81500 30.14600 25.20800
H  -4.85200 28.84900 25.93800
H  -3.45000 30.67100 30.57600
H  -5.79200 32.03900 33.37700
H  -6.77900 30.52100 33.59800
H  -7.33900 31.60800 32.47000

