158

Mg 49.29000 47.20700 43.63000
C  45.98700 47.76100 42.83200
C  49.00000 44.11400 42.14000
C  52.60700 47.04200 43.80500
C  49.45100 50.55900 44.73200
N  47.70900 46.13400 42.54500
C  46.47800 46.55800 42.29100
C  45.63700 45.61100 41.32800
C  46.57700 44.36200 41.27300
C  47.82800 44.86700 42.01600
C  45.96700 43.03600 41.69400
C  45.32200 46.38400 39.97600
C  43.78100 46.34900 39.64700
H  43.30300 45.77800 38.35300
N  50.62700 45.66200 43.11700
C  50.32100 44.43900 42.59000
C  51.51700 43.64300 42.64900
C  52.61200 44.51000 43.08900
C  51.97800 45.79900 43.34900
C  51.55300 42.25300 42.03200
C  53.96400 44.14000 43.34100
O  54.27400 42.98600 43.10600
C  55.04000 44.98000 43.70200
N  50.87600 48.64900 44.15400
C  52.12500 48.21200 44.27100
C  53.02200 49.33900 44.89500
C  52.01900 50.52200 45.13000
C  50.69700 49.85900 44.68300
C  53.95200 48.92300 46.05800
C  52.31300 51.84000 44.51500
C  51.96200 53.07400 45.41800
N  48.01800 48.87700 43.86200
C  48.19400 50.14800 44.34600
C  46.95700 50.91500 44.30200
C  46.03300 49.97000 43.74200
C  46.76700 48.70100 43.52400
C  46.82800 52.37700 44.71400
C  44.65400 49.77000 43.44200
O  43.69000 50.51700 43.43900
C  44.56300 48.28700 42.83700
C  43.73100 47.43600 43.72600
O  43.67100 47.55300 44.94100
O  43.03000 46.54500 42.95200
C  42.04800 45.65700 43.69800
H  49.00900 43.07600 41.80100
H  53.60600 46.97400 44.24100
H  49.57300 51.60600 45.01500
H  44.76800 45.23800 41.86900
H  46.88500 44.14100 40.25100
H  44.88500 42.92000 41.75200
H  46.36700 42.67400 42.64200
H  46.22100 42.23200 41.00300
H  45.95100 46.01900 39.16500
H  45.46400 47.45300 40.13800
H  43.45600 47.38600 39.72800
H  43.24800 45.81800 40.43600
H  51.55900 41.49700 42.81800
H  52.24800 42.11700 41.20400
H  50.68200 41.93600 41.45800
H  55.02000 45.75500 42.93600
H  55.98100 44.43200 43.75200
H  54.83400 45.42200 44.67600
H  53.66300 49.56600 44.04300
H  51.78500 50.62300 46.19000
H  53.75200 47.85100 46.07500
H  53.76700 49.50300 46.96200
H  54.92100 49.19400 45.64100
H  51.78300 51.83300 43.56200
H  53.38700 51.92400 44.34700
H  51.13800 53.68600 45.04900
H  52.77700 53.79600 45.46500
H  51.77500 52.80200 46.45700
H  47.24700 52.89700 43.85300
H  47.37400 52.49000 45.65100
H  45.80600 52.73700 44.83600
H  44.13700 48.33500 41.83500
H  42.49200 45.12000 44.53600
H  41.85400 44.86400 42.97600
H  41.13000 46.14200 44.03100
Mg -1.88600 34.34900 27.46500
C  -3.95300 32.70300 29.71100
C  -0.72100 36.32100 29.97700
C  -0.64400 36.62500 25.13600
C  -3.79900 32.89500 24.84100
N  -2.35100 34.49600 29.60900
C  -3.18600 33.66700 30.31800
C  -3.03900 33.91800 31.85900
C  -2.03300 35.14600 31.98100
C  -1.72600 35.40600 30.39000
C  -2.62500 36.36400 32.71800
C  -2.47500 32.61100 32.53500
C  -3.17900 32.14100 33.86000
H  -2.34700 32.05400 35.12400
N  -0.67300 36.08000 27.52500
C  -0.24200 36.64200 28.68300
C  0.76600 37.56500 28.41800
C  0.85000 37.75000 26.97100
C  -0.19300 36.79400 26.47900
C  1.66500 38.14300 29.49300
C  1.82900 38.51400 26.11900
O  1.79300 38.51800 24.90200
C  2.88900 39.30900 26.75200
N  -2.35200 34.77500 25.34600
C  -1.58000 35.68800 24.65600
C  -1.90400 35.63100 23.11500
C  -2.55900 34.18600 22.99600
C  -2.90700 33.90300 24.46100
C  -2.89900 36.78600 22.75000
C  -1.69600 32.98800 22.50000
C  -0.37100 32.74300 23.22600
N  -3.39000 32.94600 27.29200
C  -4.06300 32.47700 26.15400
C  -5.06800 31.49000 26.56400
C  -4.99400 31.50100 27.95700
C  -4.04200 32.45800 28.32600
C  -5.83500 30.57500 25.68900
C  -5.53100 30.92200 29.15800
O  -6.37400 30.09300 29.36700
C  -4.85200 31.65500 30.34500
C  -5.83800 32.36500 31.20700
O  -6.37600 33.41800 30.85800
O  -5.91600 31.78200 32.49700
C  -7.11400 32.25600 33.20000
H  -0.36700 36.95600 30.79200
H  -0.14900 37.32900 24.46400
H  -4.35800 32.38100 24.05700
H  -4.04000 34.14300 32.22600
H  -1.06300 34.80400 32.34100
H  -1.88500 37.16000 32.80300
H  -2.68900 36.20800 33.79500
H  -3.51000 36.79000 32.24500
H  -1.40500 32.67500 32.73100
H  -2.62700 31.79600 31.82800
H  -3.64500 31.15900 33.77700
H  -3.87300 32.94100 34.11800
H  1.73600 37.42600 30.31200
H  1.08700 38.92600 29.98400
H  2.67300 38.49800 29.27700
H  2.44200 39.90200 27.54900
H  3.49600 39.92100 26.08400
H  3.57300 38.64300 27.27800
H  -1.00500 35.74200 22.51000
H  -3.52100 34.24800 22.48800
H  -3.09500 37.33300 23.67200
H  -3.91000 36.57200 22.40000
H  -2.49200 37.31200 21.88600
H  -1.57800 33.08000 21.42100
H  -2.13500 31.99100 22.52500
H  -0.00600 31.71900 23.14700
H  -0.27900 33.09300 24.25500
H  0.39100 33.35700 22.74800
H  -6.87700 30.89600 25.71200
H  -5.71400 29.57300 26.09900
H  -5.51900 30.54700 24.64700
H  -4.29600 30.88200 30.87700
H  -7.07500 33.30200 33.50400
H  -6.97300 31.68400 34.11700
H  -8.03400 32.16200 32.62200

