158

Mg 53.93000 22.43200 44.52200
C  51.51900 24.83500 43.49400
C  51.76600 19.98400 43.48400
C  56.46400 20.24000 44.76400
C  56.06300 24.97500 45.28400
N  51.91100 22.50300 43.56700
C  51.09300 23.56900 43.13200
C  49.88800 23.03600 42.38000
C  49.89200 21.55100 42.63700
C  51.23600 21.33600 43.39200
C  48.67200 21.00800 43.47600
C  49.89300 23.36100 40.87400
C  48.50000 23.45400 40.17000
H  48.15800 22.73400 38.81000
N  54.09900 20.37400 44.12600
C  53.08500 19.52200 43.75200
C  53.56800 18.16300 43.65500
C  54.92700 18.18200 44.16200
C  55.21000 19.66500 44.39000
C  52.77000 16.97200 43.20600
C  55.86900 16.90400 44.29900
O  55.50600 15.77600 44.01100
C  57.32600 17.09600 44.67200
N  56.01900 22.58900 44.69400
C  56.84900 21.55100 44.90700
C  58.27200 21.94700 45.20100
C  58.06000 23.38100 45.59800
C  56.60200 23.71500 45.13800
C  58.95800 21.13400 46.34000
C  59.13500 24.51800 45.09500
C  60.10600 25.01700 46.22900
N  53.79200 24.51200 44.51200
C  54.76300 25.42300 44.92300
C  54.11300 26.74400 45.00400
C  52.88300 26.54500 44.37600
C  52.73800 25.17300 44.14800
C  54.77300 28.00300 45.56600
C  51.65100 27.22700 43.97700
O  51.26500 28.36500 44.13500
C  50.70400 26.10400 43.37400
C  50.48800 26.51600 41.90400
O  51.44100 26.55900 41.11300
O  49.22200 26.90100 41.65800
C  48.93900 27.37600 40.30000
H  51.05300 19.15800 43.45200
H  57.21900 19.55800 45.15900
H  56.69600 25.72700 45.76200
H  49.02900 23.43600 42.91800
H  49.83900 21.06600 41.66200
H  48.93900 20.50400 44.40500
H  48.13800 20.31900 42.82100
H  47.93300 21.77800 43.69800
H  50.40100 22.60600 40.27300
H  50.43500 24.29400 40.71800
H  48.20900 24.48200 39.95100
H  47.75900 23.10100 40.88600
H  53.37900 16.51400 42.42600
H  51.78200 17.16800 42.78900
H  52.63100 16.40900 44.12900
H  57.67100 17.74600 43.86800
H  57.80500 16.11700 44.68200
H  57.48800 17.52300 45.66200
H  58.88900 21.90000 44.30400
H  57.92400 23.50500 46.67300
H  59.62400 20.35700 45.96500
H  58.09700 20.67000 46.82100
H  59.49900 21.72500 47.07900
H  58.65100 25.25700 44.45500
H  59.73800 23.98800 44.35800
H  61.05700 24.63400 45.85700
H  59.90600 24.46200 47.14500
H  59.97600 26.08900 46.37500
H  55.85500 27.98300 45.44200
H  54.48400 28.19900 46.59900
H  54.41500 28.79300 44.90600
H  49.73600 26.08900 43.87500
H  48.79500 28.45600 40.33400
H  47.99400 26.96400 39.94600
H  49.68000 27.21200 39.51800
Mg 46.54000 43.41100 42.66700
C  43.13400 42.61300 42.05200
C  47.31900 40.21100 41.77000
C  49.67900 44.49600 42.28000
C  45.50700 46.88600 42.02500
N  45.35600 41.64400 42.09900
C  43.97800 41.49500 42.04500
C  43.55100 40.07600 41.75500
C  44.84700 39.27700 41.94700
C  45.96600 40.38800 41.93400
C  44.82900 38.27500 43.17700
C  42.84500 39.85600 40.45000
C  43.20900 40.78300 39.23600
H  43.34600 40.16700 37.88800
N  48.32600 42.41300 42.25700
C  48.43900 41.10300 41.96200
C  49.86200 40.87400 41.61400
C  50.60900 42.06200 41.75700
C  49.55600 43.07000 42.06200
C  50.28400 39.45900 41.31500
C  52.06600 42.20100 41.55800
O  52.73000 41.17800 41.42000
C  52.83400 43.57400 41.66700
N  47.55500 45.44000 42.25200
C  48.82600 45.57400 42.25800
C  49.24100 47.02700 42.16900
C  47.90700 47.74000 42.14800
C  46.84800 46.61200 42.09600
C  50.10100 47.45600 43.31100
C  47.70400 48.86300 41.12100
C  47.50100 48.42500 39.60300
N  44.65700 44.57700 42.40100
C  44.42100 45.97000 42.15600
C  42.95200 46.24800 42.01900
C  42.44500 44.93200 42.05900
C  43.50900 43.97400 42.15800
C  42.35000 47.65700 41.88400
C  41.24200 44.16000 42.11500
O  40.08500 44.55000 42.12700
C  41.61200 42.62600 42.26800
C  41.19200 42.16000 43.65400
O  40.36000 41.31200 43.82700
O  41.72000 42.98900 44.63300
C  41.09900 42.95600 45.98300
H  47.49900 39.15600 41.55300
H  50.69200 44.79200 42.00100
H  45.27400 47.95200 41.98600
H  42.78000 39.89100 42.50400
H  45.03200 38.68100 41.05300
H  45.37000 38.75800 43.99100
H  45.35300 37.34600 42.94800
H  43.88100 38.08800 43.68100
H  41.83500 40.18800 40.69000
H  42.91600 38.78700 40.25000
H  44.06500 41.44600 39.36000
H  42.31100 41.38600 39.10500
H  50.73600 39.59100 40.33200
H  49.46800 38.74400 41.42300
H  51.08700 39.30000 42.03400
H  52.55800 44.17400 40.80000
H  53.90300 43.40800 41.53900
H  52.64200 44.08400 42.61100
H  49.77800 47.11100 41.22400
H  47.78000 48.17400 43.14000
H  49.98700 46.84400 44.20500
H  49.80500 48.41100 43.74700
H  51.11500 47.45700 42.91200
H  48.60600 49.47200 41.17800
H  46.87000 49.51800 41.37300
H  48.22900 48.87700 38.92800
H  46.52000 48.86700 39.42700
H  47.52100 47.33800 39.52500
H  43.01200 48.43300 41.49800
H  41.84300 48.02800 42.77400
H  41.56500 47.47200 41.15000
H  41.12100 42.17100 41.40700
H  40.40700 42.12700 46.13300
H  40.52300 43.86200 46.17200
H  41.73900 42.87300 46.86200

