158

Mg 45.36400 4.08500 45.31700
C  43.25700 6.96600 45.41700
C  42.50600 2.22100 44.68300
C  47.36200 1.45800 44.77800
C  48.14600 6.28700 45.16000
N  43.12500 4.56800 45.01000
C  42.55400 5.82200 44.98200
C  41.02700 5.78700 44.74400
C  40.76100 4.22900 44.87700
C  42.21700 3.60900 44.88300
C  39.94600 3.75600 46.12400
C  40.43600 6.37400 43.50600
C  41.33400 6.31400 42.24900
H  40.64500 6.45000 40.92500
N  44.98700 2.08900 44.91700
C  43.77100 1.54000 44.61600
C  43.94200 0.06900 44.37500
C  45.33400 -0.12800 44.60800
C  45.96000 1.13300 44.84200
C  42.72800 -0.91000 44.11900
C  45.96300 -1.50600 44.50900
O  45.25500 -2.48100 44.15300
C  47.36300 -1.73500 44.95400
N  47.45200 3.88400 45.02900
C  48.00700 2.67500 44.94900
C  49.51500 2.76500 44.65600
C  49.78500 4.28600 44.76300
C  48.40100 4.88900 45.05400
C  50.55900 1.88800 45.40500
C  50.44000 4.80900 43.42500
C  51.95000 4.76000 43.39000
N  45.71500 6.23000 45.23400
C  46.85800 6.97100 45.22700
C  46.50600 8.44000 45.39800
C  45.10400 8.42800 45.64300
C  44.70500 7.10400 45.39200
C  47.42100 9.62200 45.24400
C  43.97300 9.27100 45.98200
O  43.91700 10.47500 46.34500
C  42.76100 8.34000 45.73600
C  41.96400 8.36400 46.96900
O  42.17100 7.65100 47.97400
O  40.96900 9.29900 46.92500
C  40.15000 9.35700 48.14100
H  41.61200 1.63200 44.46800
H  48.06900 0.65400 44.56300
H  49.06800 6.87200 45.15500
H  40.43100 6.19900 45.55800
H  40.19900 3.90800 44.00000
H  40.52800 3.40600 46.97700
H  39.32200 2.88000 45.94800
H  39.27400 4.54600 46.45900
H  40.25500 7.41000 43.79100
H  39.44800 5.94800 43.33600
H  41.80700 5.33200 42.20700
H  42.07600 7.06100 42.53000
H  42.51600 -1.54000 44.98300
H  43.01400 -1.43400 43.20700
H  41.78300 -0.38000 44.00100
H  47.45200 -2.80300 45.15200
H  47.64000 -1.08800 45.78700
H  48.01400 -1.45100 44.12700
H  49.65400 2.40000 43.63800
H  50.49700 4.59400 45.52900
H  50.07500 1.24200 46.13800
H  51.30800 2.47100 45.94100
H  51.05300 1.25300 44.67000
H  50.12700 5.84100 43.27000
H  50.16300 4.18500 42.57600
H  52.30800 4.18100 42.53900
H  52.38400 4.18400 44.20700
H  52.42200 5.73800 43.29000
H  48.29500 9.24100 44.71600
H  47.67100 9.85700 46.27900
H  46.94200 10.55200 44.93900
H  42.07400 8.72100 44.98100
H  39.60000 8.42800 48.29500
H  39.44800 10.18900 48.19900
H  40.69700 9.44300 49.08000
Mg 53.93600 24.41300 43.90100
C  51.16800 26.55400 43.31900
C  52.23800 21.85700 42.57800
C  56.88300 22.70200 43.53000
C  55.79100 27.40600 44.72300
N  52.04200 24.35600 42.82300
C  50.98000 25.22600 42.89600
C  49.68500 24.58500 42.36600
C  50.02000 23.10700 42.39400
C  51.53100 23.08700 42.70300
C  49.27000 22.21700 43.39700
C  49.04300 25.04800 41.03300
C  49.99800 25.58300 39.90000
H  50.04500 24.73000 38.65400
N  54.50000 22.42500 43.21400
C  53.63200 21.55700 42.68700
C  54.29200 20.27000 42.45300
C  55.66600 20.42900 42.87700
C  55.74800 21.90400 43.28900
C  53.53500 19.10100 41.88900
C  56.75900 19.38600 42.80000
O  56.53800 18.29500 42.30900
C  58.07900 19.59200 43.42600
N  55.96100 24.96700 43.94900
C  56.98800 24.08300 43.83400
C  58.41900 24.72700 44.04600
C  58.02300 26.25900 44.23500
C  56.45000 26.20600 44.34100
C  59.13500 24.03800 45.32300
C  58.73500 27.26800 43.16400
C  59.22100 28.63300 43.73900
N  53.57400 26.53000 44.25900
C  54.36400 27.57600 44.65500
C  53.52000 28.66800 44.96100
C  52.30700 28.29400 44.39300
C  52.37200 27.05400 43.95500
C  53.88100 29.92400 45.41900
C  50.96900 28.85800 44.16600
O  50.49800 29.93800 44.45900
C  50.30200 27.77600 43.32200
C  49.98200 28.38800 42.07200
O  50.82400 28.71700 41.26100
O  48.63500 28.44800 41.79200
C  48.21700 28.90200 40.43100
H  51.59000 20.99000 42.43300
H  57.85100 22.20700 43.42700
H  56.33400 28.33100 44.92800
H  49.03200 24.81100 43.20900
H  49.95500 22.72800 41.37500
H  48.21300 22.48000 43.41800
H  49.67500 22.28300 44.40700
H  49.20000 21.15900 43.14600
H  48.44100 25.90900 41.32200
H  48.39500 24.30000 40.57700
H  51.00800 25.65600 40.30400
H  49.56900 26.52600 39.56300
H  53.38600 18.99900 40.81400
H  52.58500 19.00300 42.41400
H  54.14400 18.24900 42.19000
H  58.60300 18.63900 43.49600
H  57.95900 20.02600 44.41800
H  58.57000 20.20000 42.66600
H  59.01800 24.64200 43.13900
H  58.39400 26.59200 45.20400
H  60.10600 24.49900 45.50900
H  59.28000 22.96800 45.17800
H  58.47000 23.94500 46.18100
H  57.92000 27.47500 42.47000
H  59.51500 26.72700 42.62800
H  58.73400 28.87800 44.68400
H  58.88500 29.45100 43.10100
H  60.30600 28.55600 43.80400
H  53.11700 30.70000 45.36700
H  54.76800 30.30200 44.91100
H  54.17700 29.76700 46.45600
H  49.33800 27.55100 43.78100
H  48.49700 29.95300 40.34900
H  47.14700 28.70100 40.38500
H  48.71800 28.37800 39.61700

