158

Mg 41.25500 7.24500 28.79700
C  42.97100 8.33800 31.67500
C  38.95800 5.88900 31.11500
C  39.91000 5.55300 26.27800
C  43.87700 8.25800 26.79000
N  41.07700 7.15600 31.23400
C  41.82400 7.81100 32.16000
C  41.09100 7.89900 33.48800
C  39.89700 6.86300 33.26700
C  39.92200 6.60300 31.80900
C  39.94700 5.55000 34.17600
C  40.68700 9.30100 33.80100
C  39.90800 9.53700 35.06300
H  40.52000 10.48000 36.12300
N  39.56000 6.08100 28.68000
C  38.81700 5.59800 29.74900
C  37.69300 4.81900 29.18800
C  37.82700 4.88200 27.76400
C  39.20800 5.45300 27.46200
C  36.58400 4.22800 30.04900
C  36.94600 4.47200 26.58600
O  37.18800 4.42900 25.40600
C  35.55200 4.03300 26.94700
N  42.00000 6.66100 26.97700
C  41.21300 6.02600 26.07500
C  41.74800 6.11800 24.61300
C  42.99200 7.04700 24.76300
C  42.91100 7.37700 26.27700
C  41.87900 4.69500 23.99200
C  42.97800 8.26200 23.84300
C  41.87200 9.28700 24.13400
N  43.00000 8.07700 29.10700
C  43.92800 8.60000 28.16900
C  44.85700 9.37900 28.83300
C  44.47100 9.40500 30.18000
C  43.43000 8.50200 30.32400
C  46.05900 9.85000 28.09400
C  44.90700 9.88000 31.50300
O  45.88500 10.56600 31.86200
C  43.84700 9.23900 32.45800
C  44.43100 8.57200 33.61000
O  45.20400 7.59300 33.60100
O  44.05800 9.24600 34.73300
C  44.61500 8.83900 35.97500
H  38.16900 5.53500 31.78200
H  39.52200 5.11800 25.35500
H  44.64400 8.68700 26.14100
H  41.87900 7.48900 34.12000
H  38.97200 7.40300 33.46800
H  40.78800 5.67500 34.85800
H  39.96900 4.64700 33.56600
H  39.03600 5.48000 34.77100
H  40.19600 9.73800 32.93200
H  41.50800 9.99400 33.98300
H  39.56800 8.59400 35.49200
H  39.02300 10.10700 34.78100
H  36.28200 3.25900 29.65200
H  35.76700 4.93600 30.19200
H  36.98800 4.02700 31.04100
H  35.47500 3.07900 27.47000
H  35.03100 3.92200 25.99600
H  34.95300 4.78500 27.46100
H  41.13700 6.76800 23.98600
H  43.90800 6.45900 24.71700
H  41.45100 4.59500 22.99500
H  41.33700 4.05500 24.68900
H  42.85500 4.26900 24.22500
H  42.94300 7.81700 22.84800
H  43.90800 8.82500 23.76300
H  41.32100 9.11800 25.06000
H  41.14900 9.27200 23.31800
H  42.35900 10.26100 24.09600
H  46.64100 10.40300 28.83200
H  45.86700 10.44500 27.20100
H  46.60500 8.93700 27.85900
H  43.19000 10.02300 32.83500
H  43.88100 8.64800 36.75800
H  45.30300 9.65400 36.19800
H  45.09700 7.86200 35.93800
Mg 7.15400 54.30200 40.94900
C  6.87100 50.69700 41.00300
C  10.43700 53.75600 40.11300
C  7.30500 57.50300 40.08900
C  3.86900 54.45000 41.87700
N  8.46800 52.38600 40.55200
C  8.12900 51.06600 40.65600
C  9.39600 50.15900 40.47400
C  10.59200 51.16800 40.65300
C  9.84000 52.55800 40.50100
C  11.53500 51.04900 41.84200
C  9.39300 49.38600 39.08200
C  9.12000 50.30100 37.85000
H  7.72100 50.36400 37.20500
N  8.67400 55.52000 40.20800
C  9.89600 55.09100 39.83200
C  10.58300 56.14900 39.18200
C  9.80900 57.32100 39.21100
C  8.53000 56.83600 39.85900
C  11.99300 56.01200 38.55900
C  10.11800 58.79700 38.75900
O  11.27300 59.05200 38.41100
C  9.07700 59.92700 38.73300
N  5.81000 55.68900 40.83600
C  6.13000 57.03300 40.59900
C  4.95200 57.93400 40.99100
C  3.82500 56.94400 41.49800
C  4.51000 55.62800 41.36500
C  5.33000 59.09000 41.96400
C  2.47900 57.12800 40.70900
C  1.31400 57.84400 41.39500
N  5.58400 52.93900 41.28900
C  4.28300 53.12100 41.74300
C  3.69100 51.82700 42.18700
C  4.66700 50.90400 41.89100
C  5.80300 51.62500 41.32500
C  2.41000 51.68600 42.90200
C  4.93800 49.50500 41.95800
O  4.31600 48.68500 42.54000
C  6.33700 49.27600 41.30100
C  6.07900 48.47700 40.06100
O  5.92400 48.83400 38.90400
O  5.93700 47.19800 40.41500
C  5.36500 46.25700 39.45700
H  11.45300 53.46700 39.83600
H  7.29300 58.58600 39.94400
H  2.92300 54.70900 42.35500
H  9.35900 49.47200 41.31900
H  11.25700 51.11000 39.79100
H  12.57700 50.94600 41.54000
H  11.27300 50.33900 42.62700
H  11.44700 51.98200 42.39900
H  8.79300 48.47900 39.16100
H  10.43000 49.08500 38.92700
H  9.91900 49.97000 37.18600
H  9.22400 51.34100 38.16100
H  12.15700 54.96100 38.31800
H  12.81300 56.36000 39.18700
H  11.85200 56.61900 37.66400
H  8.17400 59.68000 38.17600
H  9.43800 60.83700 38.25400
H  8.73500 60.21600 39.72700
H  4.55600 58.37000 40.07400
H  3.61900 57.14500 42.54900
H  6.36100 59.40200 41.79700
H  5.04300 58.84800 42.98800
H  4.61500 59.89800 41.81300
H  2.11900 56.15500 40.37600
H  2.63400 57.69300 39.78900
H  1.58700 58.23000 42.37600
H  0.45600 57.18400 41.52200
H  0.92900 58.69200 40.82800
H  2.49600 52.21000 43.85400
H  2.00900 50.72500 43.22500
H  1.59200 52.17000 42.36900
H  7.08100 48.74300 41.89400
H  4.94700 45.40700 39.99700
H  6.11800 45.91400 38.74700
H  4.49400 46.65700 38.93900

