158

Mg 47.43500 25.45900 28.07400
C  48.53300 27.81200 30.53900
C  46.07300 23.63800 30.48500
C  47.07300 22.96300 25.77600
C  49.35100 27.29700 25.71500
N  47.48400 25.70800 30.31100
C  47.73000 26.79800 31.06400
C  47.16600 26.58700 32.52200
C  46.40800 25.27100 32.41200
C  46.65000 24.83400 30.99100
C  46.86000 24.15800 33.46500
C  46.36700 27.79900 33.05300
C  47.00500 28.38900 34.41900
H  45.88200 28.72000 35.43800
N  46.56900 23.62700 28.06900
C  46.06600 23.05800 29.20300
C  45.48000 21.77900 28.84000
C  45.62900 21.64200 27.45200
C  46.44400 22.77200 27.02500
C  44.84800 20.83000 29.81900
C  45.02700 20.61100 26.42700
O  45.32100 20.57300 25.23700
C  44.02800 19.72200 27.00700
N  47.93000 25.31200 25.95300
C  47.74600 24.11700 25.32300
C  48.28500 24.21400 23.88100
C  48.88600 25.68800 23.79700
C  48.68300 26.16300 25.25300
C  49.46300 23.17900 23.55600
C  48.04800 26.56700 22.73800
C  48.70300 26.98800 21.37200
N  48.58100 27.18200 28.03600
C  49.29600 27.79200 27.02800
C  49.91000 29.02900 27.51600
C  49.53800 29.10900 28.83700
C  48.84400 27.90300 29.16900
C  50.80800 29.94800 26.78700
C  49.73600 29.83800 30.04300
O  50.46800 30.81600 30.15000
C  49.04400 29.09500 31.17200
C  49.96600 28.85600 32.33800
O  50.76200 27.98900 32.30000
O  49.87800 29.84400 33.36500
C  50.67600 29.80800 34.62900
H  45.42100 23.10500 31.18000
H  47.03700 22.21700 24.97900
H  50.03600 27.90700 25.12200
H  48.06200 26.44500 33.12700
H  45.33800 25.34400 32.60900
H  47.17300 24.60800 34.40800
H  47.65300 23.50300 33.10400
H  45.97200 23.57500 33.70700
H  45.37100 27.42400 33.28700
H  46.36300 28.60300 32.31700
H  47.46000 29.35100 34.18500
H  47.68900 27.74000 34.96600
H  45.30100 20.94900 30.80300
H  45.07200 19.80900 29.51000
H  43.76200 20.91300 29.77600
H  44.54900 18.96500 27.59300
H  43.54900 19.15000 26.21300
H  43.29100 20.26500 27.59900
H  47.41900 24.01100 23.25200
H  49.94600 25.80100 23.57000
H  50.31100 23.59700 23.01400
H  49.05500 22.37400 22.94500
H  49.82600 22.63300 24.42600
H  47.73300 27.54800 23.09500
H  47.14400 25.99900 22.52200
H  49.77500 26.78900 21.38300
H  48.65000 28.03500 21.07400
H  48.29000 26.35700 20.58500
H  51.74500 29.40300 26.67400
H  50.95200 30.90400 27.29100
H  50.28500 30.03800 25.83500
H  48.22500 29.65600 31.62300
H  51.69800 29.62600 34.29500
H  50.30600 28.95400 35.19600
H  50.58200 30.76800 35.13500
Mg -13.09500 15.59300 43.14600
C  -10.44300 13.43400 42.32900
C  -11.65700 18.01800 41.39900
C  -16.16400 17.17100 42.95900
C  -14.78100 12.72800 44.50300
N  -11.31200 15.60800 41.82100
C  -10.35500 14.73600 41.72700
C  -9.09000 15.34800 41.08000
C  -9.37100 16.88500 41.11900
C  -10.90600 16.84800 41.49200
C  -8.49100 17.65100 42.20000
C  -8.70300 14.80500 39.75000
C  -7.22100 14.68800 39.38500
H  -6.63500 15.60000 38.21600
N  -13.76300 17.42800 42.43500
C  -13.00900 18.25000 41.68400
C  -13.66200 19.45900 41.39600
C  -15.00800 19.28800 41.88400
C  -15.04500 17.89400 42.46700
C  -13.11100 20.71300 40.72300
C  -16.10200 20.36700 41.84000
O  -15.89200 21.42900 41.16900
C  -17.48700 20.32000 42.48400
N  -15.21100 14.93000 43.59200
C  -16.18400 15.84000 43.54100
C  -17.51700 15.15200 44.07800
C  -17.01600 13.76100 44.73300
C  -15.59500 13.76400 44.19600
C  -18.42000 16.08400 44.97800
C  -17.81400 12.50300 44.51200
C  -18.13200 11.63000 45.75600
N  -12.69200 13.49900 43.53400
C  -13.43200 12.56800 44.16200
C  -12.62100 11.35700 44.28200
C  -11.41100 11.60600 43.64600
C  -11.53500 12.93900 43.13600
C  -13.02600 10.10600 44.96700
C  -10.09700 11.12600 43.27200
O  -9.47100 10.11200 43.53700
C  -9.47200 12.35600 42.37900
C  -8.23900 12.85100 43.06500
O  -8.16500 13.51800 44.08300
O  -7.16300 12.33200 42.38000
C  -5.79700 12.53600 42.76200
H  -11.08600 18.90200 41.10500
H  -17.17400 17.58400 42.91700
H  -15.35500 11.88800 44.89800
H  -8.33700 15.11800 41.83400
H  -9.25600 17.37000 40.15000
H  -9.06400 17.75400 43.12200
H  -8.11600 18.62300 41.87900
H  -7.64000 17.01200 42.43300
H  -9.23800 15.48000 39.08200
H  -9.06100 13.77600 39.76100
H  -7.21200 13.68900 38.94900
H  -6.64600 14.75500 40.30900
H  -12.06800 20.62200 40.42000
H  -13.27600 21.59100 41.34800
H  -13.64600 20.82100 39.77900
H  -17.53000 19.67600 43.36200
H  -18.06300 19.76800 41.74100
H  -17.91100 21.30200 42.69100
H  -18.15200 14.93200 43.22000
H  -16.91000 13.92800 45.80500
H  -17.71900 16.76100 45.46700
H  -18.96900 15.46400 45.68600
H  -19.19700 16.54900 44.37200
H  -17.38100 11.78000 43.82100
H  -18.82400 12.80800 44.23700
H  -19.13400 11.66700 46.18400
H  -17.70100 11.92900 46.71200
H  -17.81300 10.59700 45.61800
H  -12.18000 9.77200 45.56700
H  -13.19800 9.51200 44.07000
H  -13.86300 10.15100 45.66400
H  -9.25400 11.96800 41.38500
H  -5.55200 13.20200 43.59000
H  -5.39100 12.97500 41.85100
H  -5.22400 11.61100 42.83200

