158

Mg 25.67200 1.31200 29.02800
C  27.52100 1.06700 32.04900
C  22.77900 1.35300 30.88800
C  24.03500 1.57700 26.12900
C  28.68400 0.71400 27.28000
N  25.26500 1.29600 31.16100
C  26.13800 1.24700 32.20400
C  25.46400 1.44800 33.60300
C  24.00500 1.22700 33.15800
C  23.96000 1.25600 31.64000
C  23.59800 -0.29500 33.53400
C  25.82700 2.84500 34.16600
C  26.44100 2.97300 35.62500
H  26.07700 4.09800 36.56200
N  23.63200 1.56800 28.57800
C  22.53900 1.57400 29.48100
C  21.34700 1.65700 28.77300
C  21.73600 1.74500 27.40300
C  23.20800 1.67700 27.30500
C  19.98600 1.47500 29.38800
C  20.81100 1.73900 26.12400
O  21.16000 1.54300 24.95400
C  19.27500 1.79400 26.36900
N  26.32100 1.19100 26.96200
C  25.42300 1.31500 25.92800
C  26.07700 1.05400 24.55200
C  27.63600 1.07800 24.98100
C  27.58000 0.87900 26.51100
C  25.53900 -0.25400 23.84100
C  28.42100 2.33500 24.51700
C  28.15600 3.68000 25.25700
N  27.66600 0.98700 29.50400
C  28.70900 0.64700 28.67700
C  29.83900 0.47000 29.53200
C  29.47900 0.72100 30.82900
C  28.09800 0.94000 30.75600
C  31.20500 0.08000 29.09400
C  29.98700 0.90300 32.20800
O  31.14200 0.92300 32.70100
C  28.69000 1.09500 33.02200
C  28.63000 0.05800 34.07700
O  28.17400 -1.06600 33.97300
O  29.21900 0.57500 35.20700
C  29.08500 -0.17200 36.48400
H  21.83400 1.28000 31.43000
H  23.43000 1.70400 25.22800
H  29.72800 0.69000 26.96200
H  25.95900 0.77500 34.30300
H  23.25400 1.86400 33.62400
H  23.21900 -0.38900 34.55200
H  24.31500 -1.03400 33.17700
H  22.68300 -0.48800 32.97200
H  24.85900 3.33800 34.26100
H  26.40900 3.34700 33.39300
H  27.51400 3.14700 35.53900
H  26.39400 2.05400 36.20900
H  19.33500 2.25600 28.99400
H  19.87200 1.52800 30.47000
H  19.59800 0.50600 29.07200
H  18.90600 0.82400 26.70100
H  18.78400 2.00000 25.41800
H  18.92500 2.63900 26.96200
H  25.74800 1.84100 23.87300
H  28.15500 0.22300 24.54700
H  24.45400 -0.18100 23.90200
H  25.92200 -1.14400 24.34000
H  25.91700 -0.23800 22.81800
H  27.99300 2.41200 23.51700
H  29.48800 2.18600 24.35500
H  29.15000 4.10400 25.40100
H  27.62900 3.50300 26.19400
H  27.40000 4.30100 24.77600
H  31.82400 0.19000 29.98500
H  31.58400 0.72000 28.29700
H  31.20800 -0.98900 28.88000
H  28.66700 2.05200 33.54300
H  29.36400 -1.22400 36.41500
H  28.07800 -0.19400 36.90000
H  29.82800 0.27600 37.14300
Mg 35.57200 48.59500 25.36800
C  35.99900 46.69700 28.29600
C  34.37400 51.13700 27.32700
C  34.61100 50.14400 22.53300
C  36.30400 45.69300 23.52700
N  35.06100 48.80500 27.58400
C  35.33000 47.88100 28.62500
C  35.01900 48.49700 29.93500
C  34.30000 49.86900 29.59000
C  34.64200 49.98200 28.08200
C  32.74300 49.93500 29.81900
C  36.26700 48.74600 30.94300
C  36.09200 48.73900 32.43000
H  34.67000 48.58500 32.99900
N  34.63600 50.41300 25.03200
C  34.29100 51.34400 25.91300
C  33.93300 52.58200 25.26100
C  33.87500 52.26200 23.91600
C  34.39700 50.88700 23.75000
C  33.77200 53.91200 25.92500
C  33.41800 53.19400 22.74600
O  33.28600 52.80300 21.57200
C  33.10100 54.64400 22.96000
N  35.29100 47.93400 23.37500
C  35.00000 48.83000 22.39300
C  35.13400 48.17700 21.03900
C  35.72500 46.77200 21.33300
C  35.75800 46.77300 22.85300
C  33.80900 48.09700 20.24100
C  37.19000 46.51500 20.68300
C  38.36300 47.09300 21.48300
N  36.08900 46.63600 25.76200
C  36.55100 45.70500 24.91500
C  37.07800 44.58400 25.71800
C  36.81400 44.91800 27.04900
C  36.22100 46.21000 26.96800
C  37.77800 43.35700 25.21800
C  36.91600 44.46600 28.36400
O  37.33800 43.38500 28.78200
C  36.45400 45.64700 29.25600
C  35.38100 45.13900 30.13500
O  34.20000 44.96500 29.76800
O  35.96100 44.86200 31.32200
C  34.93900 44.63100 32.30400
H  34.02000 51.90800 28.01400
H  34.51500 50.71300 21.60600
H  36.54600 44.77900 22.98000
H  34.24000 47.91000 30.42100
H  34.72800 50.71800 30.12400
H  32.31800 50.03400 28.82000
H  32.37500 50.83600 30.31000
H  32.27200 49.07300 30.29100
H  36.73900 49.71000 30.75500
H  36.99500 47.95000 30.79000
H  36.40800 49.73300 32.74600
H  36.66200 48.00300 32.99700
H  32.92400 54.52100 25.61200
H  34.60200 54.56600 25.66000
H  33.65000 53.78100 27.00000
H  33.88600 55.13300 23.53700
H  32.11600 54.62200 23.42700
H  33.08400 55.00000 21.93000
H  35.81900 48.70300 20.37400
H  34.96500 46.05300 21.02700
H  33.00700 48.61600 20.76600
H  33.59900 47.06400 19.96500
H  34.02600 48.68500 19.34900
H  37.31000 47.02500 19.72700
H  37.51900 45.48700 20.53000
H  37.99500 47.44400 22.44700
H  38.74300 48.02100 21.05500
H  39.07900 46.28200 21.61700
H  38.40100 43.12100 26.08000
H  38.29500 43.51700 24.27100
H  36.96900 42.63000 25.14700
H  37.29200 45.95100 29.88300
H  34.60100 43.61400 32.10300
H  34.05600 45.27000 32.26800
H  35.49800 44.67000 33.23900

