158

Mg 48.41400 34.80800 27.48800
C  46.47100 33.51500 30.00600
C  48.99900 37.58200 29.20100
C  50.03800 36.15900 24.71300
C  47.82400 31.85100 25.69900
N  47.74100 35.42900 29.41100
C  47.06500 34.76300 30.31800
C  47.29300 35.44500 31.72100
C  47.70200 36.88900 31.30900
C  48.17700 36.65700 29.89600
C  46.59600 37.97100 31.47800
C  48.46300 34.67100 32.46200
C  48.41100 34.70300 33.99000
H  47.62800 35.90200 34.64200
N  49.54500 36.61200 27.04600
C  49.61600 37.66900 27.88900
C  50.44100 38.74300 27.27300
C  50.80400 38.24000 26.00000
C  50.14000 36.94300 25.83700
C  50.67100 40.10400 27.95900
C  51.68800 38.94900 24.98900
O  51.87600 38.54200 23.81100
C  52.51400 39.99000 25.40000
N  48.76700 34.11200 25.47600
C  49.42900 34.90800 24.56600
C  49.46400 34.16700 23.25600
C  48.89300 32.70700 23.60200
C  48.46800 32.86200 24.97500
C  48.75800 34.91200 22.08700
C  49.94200 31.50300 23.58500
C  49.53100 30.26900 22.86000
N  47.25900 33.00500 27.71600
C  47.16700 31.91000 26.92100
C  46.38100 30.90700 27.62900
C  46.18200 31.52800 28.86500
C  46.69100 32.80900 28.86400
C  46.06300 29.45800 27.27900
C  45.58700 31.27200 30.13000
O  45.07000 30.25600 30.55100
C  45.57400 32.64600 30.88300
C  45.86800 32.56800 32.29800
O  46.71600 31.86000 32.89300
O  44.78500 33.23500 32.91200
C  44.38600 32.98700 34.32800
H  49.29000 38.41700 29.84100
H  50.45600 36.66200 23.83800
H  47.68800 30.93300 25.12300
H  46.31700 35.38400 32.20100
H  48.64200 37.07800 31.82800
H  45.68200 37.55900 31.05000
H  46.94400 38.81700 30.88500
H  46.41000 38.27100 32.50900
H  49.43600 35.10700 32.23700
H  48.48200 33.61700 32.18500
H  49.39900 34.90100 34.40400
H  47.95000 33.81900 34.43100
H  50.44200 40.89000 27.24100
H  51.64800 40.18300 28.43600
H  49.97800 40.29200 28.78000
H  52.01100 40.95700 25.37100
H  53.42400 39.85000 24.81700
H  52.86100 39.84800 26.42400
H  50.51300 34.22700 22.96500
H  47.97900 32.49900 23.04700
H  47.95100 35.61500 22.29300
H  48.34800 34.20600 21.36500
H  49.36400 35.60500 21.50400
H  50.16000 31.14800 24.59200
H  50.87000 31.90300 23.17700
H  50.21000 30.01000 22.04700
H  48.56900 30.38800 22.36300
H  49.42100 29.40300 23.51300
H  44.98600 29.29100 27.29900
H  46.42400 28.62600 27.88400
H  46.34900 29.25400 26.24700
H  44.58300 33.08700 30.77800
H  44.78100 32.04800 34.71700
H  43.30900 32.82600 34.34600
H  44.60300 33.80700 35.01200
Mg -5.38600 24.84900 26.64300
C  -3.60500 26.28500 29.40200
C  -6.51100 22.60700 28.97600
C  -6.55200 23.37800 24.11700
C  -3.74700 27.24000 24.49300
N  -5.31900 24.74600 29.05600
C  -4.50000 25.34900 29.87600
C  -5.01100 25.15000 31.30900
C  -5.59900 23.66800 31.12700
C  -5.86200 23.65800 29.66700
C  -4.49700 22.59200 31.45400
C  -5.98100 26.23500 31.87300
C  -5.71400 26.75600 33.22300
H  -5.45000 25.69000 34.24400
N  -6.41400 23.25900 26.55100
C  -6.72200 22.37300 27.60000
C  -7.36400 21.21600 27.07000
C  -7.38300 21.38700 25.60200
C  -6.81400 22.70600 25.33100
C  -7.83600 20.14000 27.92700
C  -7.91000 20.44500 24.52100
O  -7.88600 20.70000 23.28800
C  -8.52100 19.22600 24.98000
N  -5.30800 25.35800 24.58400
C  -5.86900 24.55300 23.70600
C  -5.71600 24.95100 22.24700
C  -4.87500 26.28700 22.41500
C  -4.67800 26.37600 23.95900
C  -5.07800 23.79900 21.38100
C  -5.33300 27.51400 21.69000
C  -4.30100 28.33500 20.80100
N  -4.10200 26.45400 26.87600
C  -3.44700 27.26100 25.88700
C  -2.44900 28.16400 26.57400
C  -2.48100 27.75900 27.89600
C  -3.47200 26.74300 28.08900
C  -1.62400 29.39300 26.06600
C  -1.89200 28.03500 29.22200
O  -0.99600 28.80800 29.57300
C  -2.74100 27.21800 30.17700
C  -1.92500 26.50800 31.23500
O  -1.08100 25.62000 30.95200
O  -2.12600 26.99600 32.43600
C  -1.25900 26.60300 33.51900
H  -6.91200 21.97600 29.77200
H  -6.99600 22.98700 23.19800
H  -3.29800 28.00400 23.85500
H  -4.15000 25.03300 31.96600
H  -6.63400 23.51400 31.43300
H  -4.84600 21.64700 31.03800
H  -4.36300 22.41700 32.52100
H  -3.52900 22.90900 31.06500
H  -6.96600 25.77500 31.79600
H  -5.88900 27.05300 31.15900
H  -6.61400 27.26800 33.56200
H  -4.89900 27.47700 33.16100
H  -7.21500 20.09600 28.82100
H  -7.69900 19.18300 27.42400
H  -8.92200 20.22700 27.89300
H  -7.69000 18.60500 25.31300
H  -9.02200 18.81400 24.10400
H  -9.22800 19.38200 25.79500
H  -6.74100 25.09500 21.90500
H  -3.87000 26.12000 22.02600
H  -4.38700 24.13000 20.60500
H  -5.98200 23.39300 20.92700
H  -4.72200 23.04700 22.08500
H  -5.58300 28.22200 22.48000
H  -6.18500 27.16400 21.10800
H  -3.30600 27.91300 20.65600
H  -4.18600 29.31300 21.26800
H  -4.64700 28.60700 19.80500
H  -1.77100 30.31800 26.62400
H  -1.78800 29.57600 25.00400
H  -0.54900 29.22000 26.10700
H  -3.39500 27.90200 30.71700
H  -0.29400 26.20100 33.21000
H  -1.75900 25.87600 34.16000
H  -1.25500 27.57600 34.01100

