158

Mg 1.36900 -1.69200 43.27400
C  4.72200 -0.83400 42.73500
C  0.36800 1.12900 41.62800
C  -1.78100 -2.90200 43.34600
C  2.37400 -4.79800 44.57600
N  2.43200 -0.13400 42.21500
C  3.82000 0.05800 42.07400
C  4.13900 1.35200 41.40600
C  2.68300 1.96400 41.24100
C  1.77100 0.89900 41.82000
C  2.36400 3.39100 41.77100
C  4.94800 1.31200 40.12900
C  4.21000 0.75600 38.88200
H  4.91000 0.04400 37.80500
N  -0.47300 -0.93600 42.64100
C  -0.71900 0.29600 42.07400
C  -2.08400 0.49500 41.83800
C  -2.67600 -0.78500 42.21600
C  -1.66000 -1.61500 42.81200
C  -2.62000 1.71100 41.14500
C  -4.08100 -1.04700 41.95200
O  -4.86300 -0.17400 41.55500
C  -4.76700 -2.31100 42.32700
N  0.39800 -3.67600 43.81000
C  -0.92100 -3.77000 43.96700
C  -1.34400 -5.17600 44.45700
C  -0.02500 -5.67700 45.02900
C  1.03200 -4.69200 44.39400
C  -2.56600 -5.38800 45.37400
C  0.20100 -7.21800 44.83100
C  0.79200 -8.00900 45.97700
N  3.07100 -2.65200 43.59900
C  3.37800 -3.87500 44.26600
C  4.81100 -4.02900 44.52500
C  5.29100 -2.87000 43.88200
C  4.24500 -2.04800 43.42300
C  5.55400 -5.06400 45.22900
C  6.56200 -2.24500 43.60600
O  7.67600 -2.64300 43.98600
C  6.27300 -0.91800 42.75800
C  7.12800 0.24400 43.34400
O  7.78900 1.03900 42.71000
O  6.94000 0.30900 44.75700
C  7.80500 1.34200 45.38200
H  0.10800 2.08100 41.15900
H  -2.82100 -3.17800 43.53400
H  2.58300 -5.77000 45.03000
H  4.56200 2.02000 42.15700
H  2.46400 1.92500 40.17400
H  1.60800 3.42600 42.55500
H  2.07600 4.00500 40.91700
H  3.28200 3.85300 42.13500
H  5.82600 0.70800 40.35700
H  5.28000 2.34400 40.01400
H  3.78200 1.66800 38.46700
H  3.42300 0.03300 39.09800
H  -3.61900 2.11400 41.31500
H  -2.57200 1.55300 40.06700
H  -1.95700 2.57200 41.23500
H  -5.84300 -2.36100 42.16100
H  -4.70500 -2.42900 43.40900
H  -4.28400 -3.16600 41.85400
H  -1.63900 -5.78400 43.60200
H  0.06800 -5.48600 46.09800
H  -2.91200 -6.39000 45.12000
H  -3.31600 -4.60200 45.28400
H  -2.31600 -5.42100 46.43400
H  0.72100 -7.45100 43.90200
H  -0.76900 -7.63500 44.55800
H  1.65700 -8.53300 45.56900
H  0.06600 -8.72200 46.36800
H  1.07200 -7.38100 46.82300
H  6.24500 -4.66200 45.97000
H  6.05300 -5.73000 44.52500
H  4.75200 -5.61400 45.72000
H  6.71600 -1.08300 41.77600
H  7.91100 1.11000 46.44200
H  7.22900 2.25600 45.23300
H  8.82900 1.37300 45.01000
Mg -4.64700 25.28300 25.72100
C  -3.48200 26.77200 28.68100
C  -6.80300 23.46400 27.50800
C  -5.64700 23.89400 22.74600
C  -2.19900 27.13100 23.94100
N  -4.99300 25.02600 27.88400
C  -4.52400 25.91400 28.92200
C  -5.26800 25.57400 30.29900
C  -6.01200 24.21300 29.82400
C  -5.99000 24.26800 28.31000
C  -5.23000 22.94400 30.28700
C  -6.26000 26.70700 30.73100
C  -6.40000 26.98400 32.22300
H  -6.25700 25.86400 33.22300
N  -6.02900 23.80100 25.20100
C  -6.90300 23.28200 26.06900
C  -7.86500 22.45600 25.35500
C  -7.45600 22.46300 23.93500
C  -6.33500 23.37200 23.90100
C  -8.86400 21.60300 26.11400
C  -8.10400 21.77600 22.70500
O  -7.58400 21.89500 21.58200
C  -9.35800 21.09400 22.89400
N  -4.04100 25.49900 23.66600
C  -4.62000 24.77000 22.67000
C  -3.85600 25.03300 21.38500
C  -3.06600 26.34600 21.71200
C  -3.04200 26.32600 23.20500
C  -2.92600 23.86200 20.94000
C  -3.78300 27.58400 21.17900
C  -3.08900 28.14500 19.95500
N  -3.11600 26.71600 26.10900
C  -2.31200 27.44600 25.30400
C  -1.64700 28.44800 26.04400
C  -2.01500 28.15900 27.43800
C  -2.90800 27.08800 27.38300
C  -0.75300 29.57100 25.50700
C  -1.85800 28.65700 28.74900
O  -1.21300 29.58500 29.17900
C  -2.75500 27.72500 29.65500
C  -1.72400 27.12400 30.54300
O  -0.91900 26.25400 30.30300
O  -1.99500 27.56700 31.81300
C  -1.19700 27.00200 32.84200
H  -7.51900 22.86400 28.07300
H  -5.82700 23.31500 21.83700
H  -1.52300 27.64600 23.25500
H  -4.57700 25.44500 31.13200
H  -7.05300 24.06500 30.11100
H  -5.74400 22.45100 31.11300
H  -4.28000 23.24600 30.72700
H  -5.01400 22.23100 29.49100
H  -7.27100 26.48600 30.38700
H  -5.79600 27.58400 30.27800
H  -7.36800 27.44200 32.42900
H  -5.58500 27.68400 32.40600
H  -9.73200 22.17900 26.43400
H  -8.39600 21.18300 27.00400
H  -9.15600 20.81600 25.41700
H  -9.07600 20.18800 23.43200
H  -9.90000 20.82800 21.98600
H  -10.07400 21.67200 23.47700
H  -4.58100 25.07800 20.57200
H  -2.05100 26.20000 21.34100
H  -1.90300 24.23700 20.95200
H  -3.26700 23.48400 19.97600
H  -2.96300 23.07400 21.69300
H  -3.83400 28.39600 21.90500
H  -4.82400 27.36400 20.94300
H  -3.19200 27.45400 19.11800
H  -2.03300 28.20800 20.21900
H  -3.60900 29.07800 19.73800
H  -1.12500 30.54800 25.81600
H  -0.64400 29.46700 24.42700
H  0.17000 29.49500 26.08200
H  -3.57800 28.17400 30.21000
H  -0.13300 27.21900 32.74500
H  -1.47000 25.95000 32.93300
H  -1.57800 27.42800 33.77000

