158

Mg 41.41800 40.63300 27.58400
C  40.64200 43.08700 29.91800
C  42.62900 38.70700 30.16300
C  42.64500 38.65000 25.35000
C  40.81200 42.97800 25.09700
N  41.47100 40.77300 29.74700
C  41.00600 41.86900 30.49600
C  40.89800 41.47500 32.03000
C  41.82200 40.15600 32.09200
C  42.12100 39.85200 30.57800
C  43.23100 40.35300 32.85400
C  39.42600 41.23400 32.45300
C  38.79800 41.92000 33.76000
H  38.54200 41.00800 35.04000
N  42.43700 38.90100 27.75200
C  42.86500 38.17300 28.88200
C  43.27600 36.84900 28.53900
C  43.40300 36.89200 27.17000
C  42.89600 38.20500 26.70300
C  43.78300 35.80900 29.53000
C  44.03800 35.82600 26.19700
O  43.99100 35.95600 24.98600
C  44.64400 34.58500 26.67400
N  41.59300 40.81200 25.51600
C  42.07700 39.82800 24.76200
C  42.07600 40.08000 23.27500
C  41.74100 41.62000 23.26300
C  41.26300 41.78100 24.68400
C  43.30900 39.78200 22.35500
C  40.70800 41.95500 22.19900
C  39.25200 41.65900 22.50500
N  40.75300 42.64900 27.49700
C  40.59000 43.45700 26.41200
C  40.11100 44.79800 26.90600
C  40.01100 44.68000 28.25700
C  40.52000 43.36700 28.56800
C  39.92200 46.03900 25.92700
C  39.55800 45.29800 29.46300
O  38.86600 46.30700 29.63500
C  39.97300 44.30100 30.60800
C  40.84900 44.97300 31.59500
O  42.06300 45.19700 31.42700
O  40.25600 45.19700 32.80000
C  41.07900 46.02300 33.68200
H  43.01800 38.01500 30.91300
H  43.05600 37.99500 24.57900
H  40.78800 43.75900 24.33400
H  41.34200 42.22600 32.68300
H  41.30100 39.22500 32.31400
H  43.92000 40.53200 32.02800
H  43.24400 39.42600 33.42700
H  43.20000 41.26900 33.44400
H  39.33900 40.17300 32.68300
H  38.84300 41.39300 31.54600
H  37.91800 42.44500 33.38800
H  39.50500 42.66900 34.11700
H  43.26300 34.86200 29.67700
H  43.67300 36.16100 30.55500
H  44.79200 35.46600 29.30000
H  45.45400 34.91200 27.32500
H  45.01600 33.98300 25.84600
H  43.88600 34.14600 27.32300
H  41.21700 39.56300 22.84900
H  42.67600 42.17300 23.17400
H  43.10200 38.81500 21.89600
H  44.15900 39.73600 23.03500
H  43.53500 40.62000 21.69600
H  41.07800 41.28600 21.42200
H  40.96700 42.95200 21.84400
H  38.97100 41.30300 23.49600
H  38.90100 40.88200 21.82500
H  38.63600 42.53000 22.28300
H  38.99400 46.50900 26.25200
H  39.78700 45.68200 24.90600
H  40.71800 46.76700 26.08300
H  39.07600 44.02600 31.16400
H  41.69100 46.74800 33.14600
H  41.74600 45.38700 34.26500
H  40.40100 46.52200 34.37500
Mg -5.26500 26.11600 26.91700
C  -4.21900 27.80400 29.82400
C  -7.34400 24.25800 28.80000
C  -5.89100 24.24800 24.13600
C  -2.90800 27.90600 25.16100
N  -5.65200 26.02000 29.09900
C  -5.25300 26.88500 30.10300
C  -6.01800 26.66700 31.36500
C  -6.84200 25.43600 31.08400
C  -6.55600 25.15800 29.58200
C  -6.52700 24.09900 31.94600
C  -6.87900 27.96200 31.69200
C  -7.47600 27.99500 33.09500
H  -7.15500 26.93900 34.17500
N  -6.60000 24.58200 26.46700
C  -7.38300 23.92800 27.41800
C  -8.19400 22.91100 26.71000
C  -7.80100 22.88000 25.36200
C  -6.67600 23.89000 25.27700
C  -9.32100 22.12700 27.41800
C  -8.19500 21.99300 24.22400
O  -7.68500 22.07900 23.15800
C  -9.22700 20.94000 24.48400
N  -4.70000 26.22100 24.89300
C  -4.96600 25.24000 23.95100
C  -4.29200 25.58800 22.60000
C  -3.42600 26.83500 22.95300
C  -3.68600 27.02500 24.44300
C  -3.58600 24.45700 21.85300
C  -3.74400 28.13600 22.12700
C  -3.27300 28.13000 20.63500
N  -3.80900 27.45800 27.36000
C  -2.97700 28.15700 26.51900
C  -2.22000 29.15800 27.28300
C  -2.75500 29.11300 28.49400
C  -3.66900 28.01600 28.55700
C  -1.33200 30.24900 26.78400
C  -2.61400 29.73200 29.79500
O  -1.90100 30.67600 30.13700
C  -3.57900 28.93800 30.73500
C  -2.70500 28.19200 31.73400
O  -1.77000 27.48600 31.39100
O  -3.17000 28.44600 32.99700
C  -2.45700 27.77300 34.01500
H  -7.97700 23.75100 29.53100
H  -6.12300 23.69800 23.22200
H  -2.04300 28.43800 24.75900
H  -5.36700 26.49000 32.22100
H  -7.90200 25.59100 31.28500
H  -6.38200 23.26200 31.26300
H  -7.48000 23.99100 32.46500
H  -5.71500 24.16900 32.66900
H  -7.64800 28.15100 30.94400
H  -6.14400 28.76000 31.80700
H  -8.55100 28.14900 33.00200
H  -7.07700 28.81300 33.69400
H  -8.89200 21.16900 27.71400
H  -10.15700 21.94600 26.74200
H  -9.66200 22.77600 28.22400
H  -10.16400 21.46100 24.68200
H  -9.03000 20.31400 25.35400
H  -9.24900 20.30600 23.59700
H  -4.98200 25.90200 21.81600
H  -2.38000 26.55500 22.82300
H  -2.51800 24.60200 21.68900
H  -4.02600 24.32200 20.86500
H  -3.62000 23.50200 22.37900
H  -3.50000 29.01600 22.72200
H  -4.82400 28.27300 22.07600
H  -2.64700 27.25400 20.46500
H  -2.57900 28.95700 20.48200
H  -4.08400 28.30300 19.92800
H  -1.93300 30.98600 26.25100
H  -0.62400 29.77000 26.10800
H  -0.85900 30.86100 27.55200
H  -4.34400 29.56300 31.19500
H  -1.50400 28.22600 34.28800
H  -2.18800 26.75300 33.73800
H  -3.01100 27.75400 34.95300

