158

Mg -0.68500 43.30600 24.84100
C  1.52400 43.18100 27.69100
C  -3.15800 42.20900 26.92400
C  -2.61400 43.41000 22.13700
C  2.04700 44.30900 22.87500
N  -0.76600 42.82900 27.03300
C  0.18400 42.89500 27.99500
C  -0.36800 42.64400 29.36600
C  -1.80600 42.18100 29.05900
C  -1.94800 42.37700 27.58100
C  -2.23700 40.79700 29.57000
C  -0.13900 43.93100 30.24400
C  0.46600 43.85700 31.68100
H  0.05700 42.67700 32.58600
N  -2.66400 42.74100 24.53300
C  -3.46400 42.29000 25.53700
C  -4.79500 41.96600 24.88800
C  -4.64700 42.30200 23.47800
C  -3.23400 42.84200 23.29100
C  -5.90700 41.31300 25.62500
C  -5.68600 42.18700 22.24600
O  -5.36000 42.48200 21.09400
C  -7.05000 41.70200 22.52500
N  -0.29900 43.56000 22.74100
C  -1.33200 43.73400 21.82100
C  -0.88200 44.45300 20.49700
C  0.56000 44.96600 20.91500
C  0.75200 44.25700 22.24200
C  -0.92100 43.42800 19.27900
C  0.56000 46.55300 21.14800
C  0.72300 47.38100 19.90100
N  1.31600 43.64200 25.19800
C  2.32200 43.90000 24.21100
C  3.62000 43.83400 24.90700
C  3.33800 43.54300 26.25900
C  1.99400 43.47800 26.40100
C  4.96500 44.26700 24.37300
C  3.99600 43.26600 27.52900
O  5.20100 43.19900 27.80400
C  2.74000 43.02900 28.54700
C  2.96700 41.79200 29.29500
O  2.95200 40.65400 28.82600
O  3.31800 42.12500 30.63500
C  3.52500 40.96500 31.55900
H  -3.99800 42.08200 27.61000
H  -3.21600 43.64100 21.25600
H  2.79300 44.83800 22.27900
H  0.12900 41.80000 29.84500
H  -2.55500 42.85500 29.47500
H  -3.19900 40.88700 30.07300
H  -1.56100 40.35700 30.30300
H  -2.42600 40.08100 28.77000
H  -1.03400 44.55300 30.27900
H  0.63700 44.56900 29.82000
H  0.18600 44.84900 32.03600
H  1.55300 43.88200 31.60300
H  -5.91200 41.35800 26.71400
H  -5.93600 40.27100 25.30600
H  -6.87500 41.73100 25.34800
H  -7.15100 40.68800 22.91200
H  -7.43100 41.70600 21.50400
H  -7.57200 42.41800 23.16000
H  -1.47500 45.34900 20.31600
H  1.26600 44.66400 20.14200
H  -1.58200 42.58600 19.48300
H  0.12700 43.13700 19.20900
H  -1.18700 43.91100 18.33900
H  1.38300 46.84400 21.80100
H  -0.41800 46.77600 21.57500
H  1.00000 46.74900 19.05700
H  1.49100 48.07900 20.23300
H  -0.21400 47.90000 19.69600
H  4.76700 45.02100 23.61200
H  5.53100 43.45500 23.91400
H  5.56000 44.55500 25.24000
H  2.89100 43.85700 29.24000
H  3.09000 40.04800 31.16300
H  3.07000 41.32800 32.48100
H  4.56400 40.79800 31.84300
Mg -2.47900 34.49100 26.74200
C  -3.81700 32.88700 29.50600
C  -1.02700 36.83600 28.81200
C  -1.55800 36.30700 24.04600
C  -3.92800 32.18900 24.67800
N  -2.53200 34.86000 28.95300
C  -2.94400 33.93100 29.82800
C  -2.43600 34.29300 31.25700
C  -1.61800 35.68600 31.03700
C  -1.77500 35.85200 29.48400
C  -2.01100 36.96600 31.84300
C  -1.61000 33.18500 32.09000
C  -2.25600 32.56700 33.31000
H  -1.36400 32.28700 34.47000
N  -1.45500 36.32000 26.51000
C  -0.84000 37.07500 27.44300
C  -0.17700 38.16400 26.80600
C  -0.29500 37.98400 25.36800
C  -1.16600 36.84300 25.31100
C  0.69200 39.12300 27.55100
C  0.26700 38.84600 24.21100
O  0.10400 38.65100 23.01100
C  1.13600 40.10900 24.49900
N  -2.82200 34.35300 24.63700
C  -2.32300 35.19900 23.71500
C  -2.35800 34.63400 22.26900
C  -2.99800 33.22800 22.50700
C  -3.23200 33.22100 24.03100
C  -3.08800 35.31500 21.12600
C  -2.19200 32.02800 21.91900
C  -0.77400 31.79200 22.52200
N  -3.67300 32.85200 26.96400
C  -4.19200 31.97600 26.03400
C  -4.84700 30.90700 26.69000
C  -4.78300 31.19600 28.09200
C  -4.08600 32.43000 28.17300
C  -5.50300 29.72600 26.12700
C  -5.10000 30.83000 29.46900
O  -5.77800 29.85700 29.83900
C  -4.50300 31.92100 30.44400
C  -5.66800 32.55400 31.21900
O  -6.53700 33.35200 30.83500
O  -5.53500 32.16000 32.50600
C  -6.52800 32.75400 33.44100
H  -0.36700 37.42700 29.45000
H  -0.99200 36.72400 23.21100
H  -4.22400 31.38800 23.99800
H  -3.35100 34.70900 31.67700
H  -0.61700 35.46900 31.41000
H  -2.84300 36.79100 32.52600
H  -2.26400 37.75000 31.12900
H  -1.10500 37.34200 32.31800
H  -0.64000 33.60800 32.35000
H  -1.37700 32.38100 31.39200
H  -2.74700 31.61400 33.11400
H  -3.07900 33.15800 33.71100
H  0.83200 40.09700 27.08300
H  1.66700 38.70700 27.80400
H  0.18200 39.34100 28.48900
H  0.70600 40.76300 25.25700
H  1.11700 40.77600 23.63700
H  2.08400 39.67100 24.81200
H  -1.33500 34.41000 21.96600
H  -4.02000 33.16100 22.13400
H  -3.64100 36.12900 21.59600
H  -3.79600 34.60900 20.69300
H  -2.40800 35.69500 20.36300
H  -1.98500 32.17800 20.85900
H  -2.76500 31.11600 22.08800
H  -0.33500 32.69000 22.95900
H  -0.07700 31.50300 21.73500
H  -0.83700 30.95700 23.22000
H  -4.93500 29.21300 25.35000
H  -6.39200 30.08000 25.60500
H  -5.69600 29.02200 26.93600
H  -3.90500 31.36900 31.16800
H  -6.35500 33.77600 33.77700
H  -6.68900 32.07500 34.27800
H  -7.50600 32.85700 32.97000

