158

Mg 24.68400 -7.11000 46.30100
C  26.83600 -4.81100 44.82000
C  22.18300 -6.22900 44.16600
C  23.06100 -9.70900 47.61200
C  27.82200 -8.42900 47.85000
N  24.67300 -5.77900 44.71300
C  25.58100 -4.83300 44.29400
C  24.98700 -3.86300 43.31800
C  23.43200 -4.30100 43.29700
C  23.40600 -5.52900 44.14700
C  22.54700 -3.20200 43.87900
C  25.77200 -4.00000 41.88900
C  26.04500 -2.62500 41.19900
H  24.96900 -2.25100 40.21700
N  22.86300 -7.84100 45.94200
C  21.96600 -7.37000 45.01300
C  20.73000 -8.04800 45.15400
C  20.91600 -9.06500 46.12800
C  22.32600 -8.91900 46.65800
C  19.44300 -7.78500 44.31300
C  19.81400 -9.99600 46.63000
O  18.67800 -9.88700 46.20600
C  20.07300 -11.07500 47.67300
N  25.31000 -8.72000 47.64900
C  24.44200 -9.67800 48.02200
C  25.11000 -10.83000 48.84100
C  26.63900 -10.58700 48.58000
C  26.59600 -9.06700 48.13500
C  24.57700 -10.95200 50.31700
C  27.21200 -11.48300 47.49000
C  27.68200 -12.92100 47.84000
N  26.84300 -6.69500 46.41800
C  27.92800 -7.30800 47.02300
C  29.11600 -6.52600 46.87800
C  28.71500 -5.43400 46.07500
C  27.37100 -5.61900 45.82500
C  30.40800 -6.74800 47.50500
C  29.14100 -4.24100 45.41200
O  30.25300 -3.71200 45.36100
C  27.97300 -3.72300 44.59300
C  27.55400 -2.35500 45.03700
O  27.34900 -1.37400 44.32600
O  27.37900 -2.26100 46.43000
C  27.20700 -0.92100 47.06500
H  21.34400 -5.78500 43.62600
H  22.62900 -10.59500 48.08200
H  28.62700 -8.93800 48.38400
H  25.15700 -2.85200 43.68800
H  23.12500 -4.44100 42.26000
H  23.10800 -2.27500 44.00300
H  22.09000 -3.52100 44.81600
H  21.78300 -2.96400 43.13900
H  24.98700 -4.48200 41.30600
H  26.60200 -4.70400 41.83500
H  26.99100 -2.60800 40.65800
H  26.05100 -1.89200 42.00600
H  19.79600 -7.59700 43.29900
H  19.00300 -6.85500 44.67200
H  18.81400 -8.65100 44.10300
H  20.21200 -10.59700 48.64300
H  20.88200 -11.70100 47.29900
H  19.18600 -11.70200 47.76100
H  24.94900 -11.83200 48.44300
H  27.21200 -10.53300 49.50600
H  23.54100 -11.29000 50.32700
H  24.54700 -10.02300 50.88600
H  25.24500 -11.61000 50.87400
H  27.96900 -10.89100 46.97700
H  26.42800 -11.63600 46.74800
H  28.34600 -13.40200 47.12100
H  26.86100 -13.60900 48.04100
H  28.33200 -12.90500 48.71400
H  30.98000 -7.52600 46.99900
H  30.23300 -7.05900 48.53500
H  31.04000 -5.86000 47.46300
H  28.25000 -3.73900 43.53900
H  26.50400 -0.98900 47.89600
H  26.72900 -0.18600 46.41800
H  28.22300 -0.69900 47.39000
Mg 35.53800 1.28900 29.79500
C  33.24000 2.43500 32.32000
C  37.97900 1.42000 32.22600
C  37.81200 0.78300 27.40900
C  32.98600 1.85200 27.41100
N  35.60100 1.93900 31.93100
C  34.54100 2.20300 32.80200
C  34.94100 2.28000 34.24700
C  36.58600 2.36600 34.13700
C  36.73500 1.88500 32.71200
C  37.20900 3.73200 34.48700
C  34.42600 1.12100 34.98600
C  34.43400 1.24700 36.50800
H  35.21100 2.35100 37.22000
N  37.62400 0.83400 29.80200
C  38.42700 1.05300 30.90600
C  39.83300 0.79700 30.50000
C  39.78400 0.53900 29.06500
C  38.36700 0.78900 28.68800
C  40.94100 0.84500 31.47100
C  40.89400 0.30900 28.15100
O  40.79800 0.17000 26.94100
C  42.29400 0.27400 28.70200
N  35.35700 1.14600 27.70800
C  36.47500 0.89700 26.97600
C  36.12600 0.75500 25.45300
C  34.57700 1.10700 25.45300
C  34.27600 1.43400 26.95700
C  37.07400 1.69200 24.55100
C  33.76600 -0.05600 24.89000
C  33.33500 -1.15700 25.83200
N  33.54800 2.08100 29.78700
C  32.61000 2.13300 28.72500
C  31.31500 2.56300 29.25400
C  31.57100 2.66200 30.63800
C  32.91100 2.41300 30.93800
C  30.07500 2.88400 28.45300
C  30.86900 3.00800 31.88300
O  29.66200 3.37600 31.99200
C  31.91400 2.84500 33.03400
C  31.96800 4.15900 33.76300
O  32.30500 5.23400 33.23700
O  31.79300 3.95300 35.10500
C  31.72900 5.23200 35.86300
H  38.75500 1.34700 32.99100
H  38.56200 0.72900 26.61700
H  32.18600 1.92500 26.67200
H  34.56400 3.21200 34.66900
H  37.03900 1.64800 34.82000
H  38.04800 3.67800 35.17900
H  36.50300 4.50600 34.78800
H  37.64700 4.15400 33.58200
H  34.96600 0.21600 34.70400
H  33.42200 0.79300 34.71800
H  34.57700 0.25000 36.92400
H  33.39600 1.50200 36.71900
H  41.40200 -0.13800 31.57100
H  40.57400 1.18600 32.43900
H  41.76800 1.47500 31.14400
H  42.73900 1.22700 28.98700
H  43.00700 -0.21200 28.03600
H  42.29700 -0.40800 29.55300
H  36.34400 -0.28000 25.18800
H  34.27500 1.94500 24.82500
H  37.77100 1.01600 24.05500
H  37.66000 2.43400 25.09300
H  36.58400 2.19900 23.71900
H  34.36400 -0.50600 24.09700
H  32.89200 0.37300 24.40000
H  33.73600 -1.04500 26.84000
H  33.60600 -2.15600 25.49100
H  32.26600 -1.09200 26.03200
H  30.33100 2.82200 27.39500
H  29.67900 3.87100 28.68800
H  29.29200 2.15800 28.67300
H  31.62800 2.01900 33.68500
H  31.03200 5.94000 35.41400
H  32.74100 5.62800 35.95000
H  31.36800 4.83500 36.81100

