158

Mg 40.53100 8.03500 29.17600
C  42.45100 9.43000 31.73800
C  38.34500 6.79400 31.54900
C  38.95600 6.50300 26.70500
C  43.37300 8.50300 26.93500
N  40.47400 7.99000 31.39600
C  41.27000 8.77700 32.18100
C  40.81100 8.76400 33.66000
C  39.58600 7.75200 33.56300
C  39.44700 7.47800 32.10500
C  39.60600 6.43200 34.32100
C  40.44300 10.17700 34.09800
C  39.74300 10.22200 35.50400
H  40.25800 11.10500 36.59600
N  38.88000 6.86100 29.08300
C  38.08200 6.50100 30.20800
C  36.96100 5.69500 29.62500
C  37.13200 5.67200 28.20100
C  38.33900 6.38400 27.91100
C  35.81300 5.13500 30.53000
C  36.12600 5.17400 27.20400
O  36.24800 5.37800 25.99800
C  34.79100 4.60100 27.63400
N  41.09400 7.56300 27.11800
C  40.21400 7.02800 26.29500
C  40.74100 6.72600 24.89400
C  42.13800 7.32300 24.98700
C  42.23700 7.85000 26.41800
C  40.78000 5.20800 24.56100
C  42.40800 8.32800 23.93300
C  41.91500 9.75100 24.20300
N  42.48600 8.89300 29.20300
C  43.48700 9.03400 28.23600
C  44.62200 9.63200 28.81800
C  44.30600 9.84100 30.21400
C  42.97500 9.36200 30.38600
C  45.99800 9.91200 28.17500
C  44.77500 10.34800 31.47100
O  45.86000 10.89700 31.72400
C  43.54600 10.17500 32.51200
C  43.98300 9.39700 33.66900
O  44.47300 8.26300 33.58900
O  43.95300 10.10100 34.83300
C  44.23300 9.36100 36.08900
H  37.70600 6.43200 32.35600
H  38.43100 5.97100 25.90900
H  44.21200 8.52300 26.23600
H  41.56300 8.36300 34.33900
H  38.72500 8.36400 33.83000
H  40.43900 6.37600 35.02200
H  39.56500 5.51800 33.72900
H  38.66800 6.49800 34.87300
H  39.83600 10.61300 33.30400
H  41.28500 10.85400 34.25100
H  39.63400 9.18600 35.82700
H  38.67100 10.40300 35.42300
H  36.09200 5.28400 31.57300
H  35.84100 4.09400 30.20700
H  34.86400 5.63900 30.34800
H  34.08700 5.27200 28.12500
H  35.13600 3.79700 28.28400
H  34.25900 4.16100 26.79100
H  40.13200 7.27200 24.17400
H  43.02100 6.69000 25.06900
H  40.28900 4.53000 25.25900
H  41.80300 4.89700 24.35200
H  40.38700 4.95600 23.57600
H  41.91400 8.00500 23.01700
H  43.48100 8.34300 23.74200
H  42.77000 10.41300 24.34000
H  41.30800 9.82000 25.10600
H  41.37300 10.20200 23.37100
H  46.38400 8.94800 27.84200
H  46.80600 10.11600 28.87800
H  45.94800 10.68500 27.40800
H  43.23100 11.16200 32.85100
H  43.55800 8.51100 36.18200
H  43.91800 10.09400 36.83200
H  45.25500 9.05200 36.30700
Mg -9.51200 17.90200 42.53600
C  -6.04700 17.36600 42.12600
C  -8.95100 21.25300 41.81900
C  -12.85600 18.22800 42.18800
C  -9.90600 14.41600 42.23500
N  -7.65700 19.13200 42.03900
C  -6.43400 18.70800 41.96600
C  -5.44500 19.88000 41.68100
C  -6.27800 21.15300 41.78100
C  -7.72400 20.48800 41.94000
C  -5.91700 22.20300 42.91700
C  -4.53700 19.82100 40.39100
C  -5.06700 18.96800 39.28400
H  -4.31100 18.87700 37.92900
N  -10.67400 19.51400 42.20600
C  -10.30700 20.83000 41.87200
C  -11.48600 21.73400 41.71100
C  -12.60800 20.88400 41.87400
C  -12.08000 19.45800 42.15900
C  -11.32900 23.20800 41.29400
C  -14.03800 21.38700 41.93400
O  -14.19500 22.63100 41.74900
C  -15.22700 20.51000 42.08300
N  -11.20100 16.48600 42.02500
C  -12.48000 16.89400 42.25000
C  -13.46800 15.67700 42.33400
C  -12.44100 14.49100 42.53800
C  -11.09100 15.10800 42.23400
C  -14.61100 15.64100 43.41900
C  -12.65500 13.18800 41.81500
C  -12.70900 11.94600 42.74700
N  -8.25500 16.17000 42.31400
C  -8.56100 14.85000 42.28800
C  -7.26700 14.00600 42.25600
C  -6.24800 15.00500 42.24300
C  -6.92500 16.22900 42.25300
C  -7.21000 12.49900 42.29400
C  -4.79200 15.22500 42.18000
O  -3.85100 14.48400 41.93800
C  -4.62100 16.79000 42.25200
C  -3.72300 17.24700 43.44300
O  -2.65900 17.89100 43.36500
O  -4.41300 16.97300 44.66500
C  -3.92000 17.71500 45.82600
H  -8.72900 22.30500 41.63000
H  -13.94300 18.31000 42.12400
H  -9.93300 13.32400 42.22000
H  -4.77200 19.75000 42.52900
H  -6.31900 21.72100 40.85200
H  -4.96900 22.06900 43.43700
H  -6.71400 22.26400 43.65800
H  -6.00900 23.14800 42.38100
H  -3.51700 19.51500 40.62400
H  -4.62400 20.81100 39.94500
H  -6.05900 19.38000 39.10000
H  -5.11900 17.96000 39.69500
H  -10.54000 23.32400 40.55100
H  -11.14900 23.72500 42.23700
H  -12.17100 23.74100 40.85300
H  -15.31400 19.91100 42.99000
H  -15.24600 19.88400 41.19100
H  -16.17900 21.04000 42.04200
H  -13.95500 15.53500 41.37000
H  -12.47700 14.35200 43.61800
H  -15.59100 15.90000 43.01700
H  -14.45200 16.40800 44.17700
H  -14.66300 14.69200 43.95100
H  -11.84700 13.01900 41.10300
H  -13.61200 13.37100 41.32400
H  -13.73800 11.59900 42.66000
H  -12.55200 12.12100 43.81200
H  -12.11800 11.12200 42.34600
H  -7.77000 11.98100 41.51600
H  -7.67200 12.29400 43.26000
H  -6.15300 12.23300 42.30400
H  -3.97200 17.02100 41.40700
H  -2.84200 17.58500 45.92700
H  -4.57800 17.51500 46.67200
H  -3.96200 18.79500 45.68600

