158

Mg 43.19900 42.12800 26.25400
C  42.45900 44.71900 28.64700
C  44.69100 40.41500 28.85600
C  44.43600 40.16500 23.92800
C  42.05200 44.46100 23.79300
N  43.52500 42.58000 28.53300
C  42.98000 43.57900 29.25400
C  42.98500 43.22400 30.78900
C  43.85600 41.89500 30.81600
C  44.07400 41.61100 29.29500
C  45.05900 41.88100 31.71800
C  41.51900 43.12100 31.30500
C  41.05800 44.12800 32.46400
H  40.39500 43.57100 33.71900
N  44.32000 40.43200 26.36000
C  44.83500 39.88300 27.55600
C  45.47100 38.60100 27.14100
C  45.32600 38.47300 25.74100
C  44.64100 39.71200 25.24900
C  46.13800 37.69000 28.09200
C  45.82300 37.37000 24.80500
O  45.56700 37.38000 23.61100
C  46.74700 36.40700 25.37800
N  43.15500 42.32700 24.12600
C  43.69300 41.21700 23.42300
C  43.52200 41.46900 21.93000
C  42.57900 42.78300 21.81700
C  42.57300 43.19900 23.34000
C  44.92300 41.55900 21.21900
C  41.14500 42.45200 21.34800
C  40.45500 41.12400 21.95000
N  42.36900 44.11700 26.15700
C  41.98500 44.87700 25.08900
C  41.41600 46.12600 25.53600
C  41.52900 46.06200 26.94500
C  42.16100 44.89600 27.28700
C  40.87900 47.32500 24.77300
C  41.21800 46.82800 28.16700
O  40.61800 47.91400 28.34000
C  41.82000 45.87700 29.30100
C  42.84800 46.70600 30.13700
O  43.99100 46.84800 29.88700
O  42.27500 47.09300 31.31200
C  43.12700 47.56900 32.40700
H  44.99500 39.75300 29.67000
H  44.83300 39.53400 23.13000
H  41.61500 45.05900 22.99100
H  43.60100 43.94300 31.32900
H  43.19500 41.10600 31.17300
H  45.02100 42.51900 32.60000
H  45.98100 42.21900 31.24700
H  45.23300 40.87500 32.10100
H  41.40100 42.10100 31.67000
H  40.74200 43.19100 30.54400
H  40.35100 44.87500 32.10400
H  41.92400 44.68900 32.81500
H  45.78400 37.75800 29.12100
H  47.20300 37.90000 28.18400
H  45.93400 36.64400 27.86100
H  46.13900 35.70100 25.94400
H  47.46300 36.91300 26.02600
H  47.26200 35.85900 24.58900
H  42.92300 40.67300 21.48900
H  42.93400 43.49200 21.06900
H  45.61900 41.83500 22.01100
H  44.96900 42.29900 20.42000
H  45.23300 40.60900 20.78300
H  41.06100 42.48200 20.26200
H  40.60300 43.34400 21.66300
H  39.82800 40.63000 21.20800
H  39.62200 41.42200 22.58700
H  41.07400 40.42000 22.50700
H  39.87900 47.58200 25.12000
H  40.99100 47.10200 23.71100
H  41.39500 48.22700 25.10100
H  41.08400 45.32100 29.88200
H  42.78800 48.55900 32.71200
H  44.16200 47.83900 32.19700
H  43.20700 46.90000 33.26400
Mg 36.46600 49.47000 24.73100
C  36.38600 47.86900 27.83600
C  34.96400 52.14600 26.18100
C  35.94900 50.84700 21.61700
C  37.46900 46.42900 23.25600
N  35.74000 49.94900 26.80500
C  35.95200 49.20000 27.91400
C  35.63600 50.01200 29.15000
C  34.93000 51.35500 28.59300
C  35.29900 51.15900 27.11400
C  33.39700 51.43100 28.88100
C  36.94500 50.28800 30.02500
C  36.76100 49.83900 31.52100
H  35.38100 49.75700 32.15600
N  35.75800 51.37800 24.02900
C  35.23800 52.30900 24.76300
C  34.92400 53.51000 23.89500
C  35.16200 53.10100 22.54900
C  35.64900 51.70200 22.70800
C  34.44900 54.81400 24.45100
C  34.93600 53.91600 21.24000
O  35.30900 53.45400 20.19200
C  34.23300 55.30800 21.23600
N  36.61000 48.71500 22.84000
C  36.31100 49.46300 21.71500
C  36.54600 48.63700 20.47900
C  37.43600 47.53400 20.93000
C  37.23500 47.56700 22.41900
C  35.17200 48.08100 19.95700
C  38.91900 47.50100 20.54900
C  39.47000 46.07500 20.30100
N  36.86100 47.51300 25.37600
C  37.25500 46.42400 24.65200
C  37.59500 45.38800 25.64000
C  37.30800 45.95200 26.88700
C  36.76700 47.23300 26.66800
C  38.26400 44.15500 25.26900
C  37.38200 45.69500 28.31800
O  37.78400 44.75900 28.99000
C  36.82200 46.96200 29.06900
C  35.64000 46.58700 29.97600
O  34.46600 46.59900 29.69300
O  36.14500 46.19800 31.23600
C  35.15300 45.74500 32.22400
H  34.49700 53.00600 26.66500
H  35.78600 51.17300 20.58700
H  37.65700 45.50500 22.70400
H  34.94600 49.38800 29.71900
H  35.40800 52.22800 29.03700
H  33.02800 52.34300 29.35200
H  33.24300 50.69400 29.66900
H  32.81900 51.27200 27.97100
H  36.97900 51.37700 30.04500
H  37.80700 49.84300 29.52700
H  37.54500 50.40700 32.02200
H  37.13600 48.81500 31.54300
H  34.76500 54.78400 25.49400
H  33.36700 54.80100 24.58200
H  34.74900 55.69900 23.89000
H  33.69900 55.49500 20.30500
H  35.08200 55.99100 21.21000
H  33.50000 55.44800 22.03000
H  36.89200 49.28700 19.67600
H  37.04500 46.54900 20.67500
H  34.60100 47.47700 20.66200
H  35.35800 47.47400 19.07100
H  34.54300 48.89400 19.59500
H  39.45100 48.00700 21.35500
H  38.94000 48.05700 19.61200
H  39.77500 46.14300 19.25700
H  38.69900 45.31900 20.44900
H  40.39900 45.78800 20.79300
H  37.79200 43.73000 24.38300
H  37.90700 43.46200 26.03000
H  39.34700 44.16300 25.14600
H  37.63500 47.39200 29.65400
H  34.91500 44.71600 31.95500
H  34.18400 46.24100 32.28000
H  35.63800 45.64400 33.19500

