158

Mg -1.50900 35.25700 26.42200
C  -2.86300 33.32400 28.92300
C  -0.75400 37.70200 28.73700
C  -0.09200 36.97600 23.91500
C  -2.94500 33.05100 24.02000
N  -2.01200 35.53400 28.62200
C  -2.42300 34.53600 29.45900
C  -2.24500 34.99800 30.91100
C  -1.64800 36.52900 30.76100
C  -1.48500 36.63500 29.27000
C  -2.63500 37.58400 31.33500
C  -1.18200 34.10300 31.68700
C  -1.50300 33.26900 32.87500
H  -0.62400 33.36000 34.13000
N  -0.53800 37.02200 26.30800
C  -0.34900 37.88900 27.38000
C  0.51600 38.94200 26.92000
C  0.68400 38.79500 25.49500
C  0.03300 37.51400 25.19000
C  1.15600 39.95000 27.83300
C  1.38900 39.73300 24.56000
O  1.64100 39.45700 23.37400
C  1.88000 41.03600 25.05600
N  -1.49300 35.00800 24.29200
C  -0.71500 35.77000 23.47900
C  -0.67400 35.35100 21.95700
C  -1.48800 33.99200 22.12100
C  -2.08100 34.06600 23.57700
C  -1.28400 36.29400 20.93500
C  -0.67800 32.70200 21.76000
C  0.48200 32.39900 22.78200
N  -2.89500 33.68800 26.45000
C  -3.36300 32.94000 25.40100
C  -4.15400 31.94200 25.97300
C  -3.91000 31.95700 27.35600
C  -3.24800 33.16500 27.57900
C  -4.95000 30.91200 25.15700
C  -4.18900 31.22700 28.56100
O  -4.89900 30.23400 28.72100
C  -3.42500 32.11800 29.69200
C  -4.41000 32.35600 30.82800
O  -5.18900 33.24400 30.91400
O  -4.17300 31.39000 31.68600
C  -5.18700 31.34600 32.78300
H  -0.35400 38.37400 29.49900
H  0.22800 37.59500 23.07300
H  -3.36200 32.31100 23.33400
H  -3.16800 34.93200 31.48800
H  -0.66700 36.60900 31.22900
H  -3.37700 36.98400 31.86100
H  -3.03100 38.13400 30.48100
H  -2.19600 38.27400 32.05600
H  -0.27300 34.68500 31.83900
H  -0.99700 33.25900 31.02200
H  -1.47000 32.24600 32.50000
H  -2.50900 33.65900 33.02500
H  0.83500 39.89000 28.87300
H  1.04100 40.94300 27.39700
H  2.23000 39.76600 27.85400
H  2.61200 40.83700 25.83900
H  0.98400 41.53400 25.42700
H  2.23200 41.59600 24.18900
H  0.35100 35.08500 21.69600
H  -2.39700 33.99700 21.51900
H  -2.20900 35.87100 20.54300
H  -0.66900 36.36700 20.03800
H  -1.49500 37.27600 21.35900
H  -0.25700 32.91300 20.77700
H  -1.21700 31.75800 21.68200
H  0.20800 31.41700 23.16800
H  0.41600 33.08500 23.62700
H  1.44800 32.46800 22.28200
H  -5.96100 31.31400 25.08900
H  -5.05000 29.97000 25.69600
H  -4.45400 30.78700 24.19500
H  -2.60200 31.56400 30.14400
H  -5.19100 30.36200 33.25200
H  -6.20200 31.65800 32.53500
H  -4.73200 32.08300 33.44300
Mg -4.71900 26.44500 25.94100
C  -2.94800 27.43500 28.84800
C  -6.00900 23.87400 27.90000
C  -6.09800 25.21000 23.18700
C  -2.76300 28.64600 24.11200
N  -4.44000 25.75900 28.08900
C  -3.76200 26.36300 29.08700
C  -4.27800 25.87700 30.42300
C  -5.04900 24.53700 30.09300
C  -5.17100 24.71800 28.59900
C  -4.23100 23.26200 30.59400
C  -5.16900 26.92100 31.19100
C  -4.76100 27.07300 32.66000
H  -4.23400 25.88200 33.54000
N  -5.86800 24.76500 25.54400
C  -6.32100 23.87900 26.54100
C  -7.33300 22.97300 25.91800
C  -7.46500 23.41000 24.61200
C  -6.37400 24.44800 24.34800
C  -8.01500 21.90300 26.66100
C  -8.31600 22.81300 23.51700
O  -8.14500 23.16400 22.35600
C  -9.34800 21.77000 23.79800
N  -4.45700 26.84400 23.93600
C  -5.22300 26.26200 23.03200
C  -4.94600 26.89600 21.63500
C  -3.88000 27.94900 21.89300
C  -3.67400 27.84400 23.39200
C  -4.38400 25.94300 20.53700
C  -4.28900 29.40300 21.51000
C  -4.19300 29.65600 19.98300
N  -3.20300 27.76800 26.33400
C  -2.53100 28.63300 25.54400
C  -1.54800 29.35300 26.26000
C  -1.81500 28.99100 27.60000
C  -2.69100 27.92200 27.55600
C  -0.55700 30.33900 25.71300
C  -1.43400 29.23700 28.90100
O  -0.62900 30.07200 29.30900
C  -2.12500 28.24700 29.78400
C  -1.26700 27.53300 30.75900
O  -0.52500 26.53800 30.52900
O  -1.48600 28.10500 31.94900
C  -0.61600 27.43400 32.98500
H  -6.50700 23.09600 28.48300
H  -6.63200 24.94000 22.27300
H  -2.15800 29.34200 23.52700
H  -3.42500 25.60300 31.04400
H  -6.08600 24.44600 30.41800
H  -4.14800 22.49700 29.82200
H  -4.96200 22.79000 31.25100
H  -3.29000 23.55900 31.05700
H  -6.19900 26.57100 31.26600
H  -5.12500 27.91000 30.73600
H  -5.63500 27.43300 33.20300
H  -3.98000 27.83400 32.67000
H  -9.09800 22.01800 26.69100
H  -7.69900 21.75300 27.69300
H  -7.78000 21.01500 26.07400
H  -8.82000 20.82500 23.67400
H  -10.04800 21.89900 22.97300
H  -10.03700 21.81400 24.64200
H  -5.86000 27.32500 21.22600
H  -2.93400 27.69000 21.41800
H  -5.16200 25.29700 20.12900
H  -3.69300 25.23000 20.98500
H  -3.90600 26.30600 19.62700
H  -3.69200 30.21100 21.93300
H  -5.33700 29.59400 21.73900
H  -3.73100 30.64100 19.91600
H  -5.20800 29.75900 19.59900
H  -3.69000 28.90400 19.37400
H  -0.97800 30.95500 24.91900
H  0.34400 29.86300 25.32500
H  -0.26400 30.97000 26.55200
H  -2.87000 28.77600 30.37900
H  0.43800 27.39500 32.71200
H  -1.05000 26.47300 33.26100
H  -0.71600 28.11200 33.83400

