158

Mg 50.44300 46.04700 42.30700
C  47.36800 46.75400 40.59200
C  50.40400 42.89800 40.92800
C  53.74200 45.67000 43.12800
C  50.85800 49.54800 42.69800
N  48.94400 44.92200 40.99800
C  47.78500 45.41700 40.45000
C  47.03600 44.29600 39.61600
C  47.96600 43.05700 39.93000
C  49.21400 43.65300 40.68300
C  47.37500 41.95300 40.76800
C  46.81000 44.57900 38.14200
C  45.40900 44.70200 37.57400
H  44.83400 43.73800 36.55100
N  51.92300 44.50000 42.06100
C  51.64500 43.21600 41.57300
C  52.77800 42.38300 41.88700
C  53.80200 43.08400 42.62200
C  53.16900 44.49900 42.67000
C  52.82000 40.86400 41.49800
C  55.10300 42.59900 43.21800
O  55.50100 41.45900 43.05300
C  55.80200 43.43100 44.16600
N  52.17300 47.46000 42.68800
C  53.35200 47.05400 43.11600
C  54.28500 48.21300 43.53800
C  53.33100 49.41700 43.51000
C  52.03900 48.79000 42.94500
C  55.10200 48.04500 44.89600
C  53.84900 50.74600 42.80600
C  53.40200 52.03700 43.46400
N  49.28400 47.77700 42.05800
C  49.54100 49.11900 42.30000
C  48.41900 49.95200 41.98500
C  47.53600 49.06200 41.33000
C  48.13100 47.74400 41.29600
C  48.28100 51.46100 42.11700
C  46.27900 48.89200 40.63200
O  45.42300 49.79100 40.46700
C  46.10100 47.42100 40.11500
C  44.85500 46.85100 40.60900
O  44.78200 46.16800 41.62700
O  43.82000 47.18500 39.72300
C  42.62700 46.35200 40.05400
H  50.37500 41.85400 40.60900
H  54.77000 45.60500 43.49000
H  50.90100 50.60900 42.95100
H  46.08400 44.13900 40.12200
H  48.28800 42.69000 38.95600
H  48.00700 41.55600 41.56300
H  47.10400 41.11300 40.12800
H  46.48900 42.40400 41.21600
H  47.37400 43.80300 37.62400
H  47.46100 45.44700 38.04400
H  45.30800 45.71800 37.19400
H  44.61800 44.64400 38.32100
H  53.76500 40.54700 41.05600
H  52.02400 40.66600 40.78100
H  52.68400 40.23800 42.38000
H  55.28300 44.02000 44.92300
H  56.38800 44.09100 43.52700
H  56.48000 42.75500 44.68800
H  54.94300 48.31700 42.67500
H  53.02900 49.67100 44.52600
H  54.74600 47.18800 45.46700
H  55.10800 48.97400 45.46600
H  56.10300 47.75000 44.58300
H  53.44400 50.72000 41.79400
H  54.93700 50.68200 42.80600
H  52.47500 52.29400 42.95200
H  54.14600 52.82900 43.38600
H  53.09300 51.72900 44.46300
H  48.65600 51.80000 43.08300
H  47.23600 51.69100 41.91300
H  48.78100 51.99400 41.30900
H  46.13300 47.53500 39.03200
H  41.91500 46.49500 39.24100
H  42.05700 46.65000 40.93400
H  42.70200 45.26900 39.96300
Mg 35.57300 48.09400 25.76500
C  35.84000 45.96200 28.59400
C  34.56000 50.55200 27.84700
C  34.85200 49.88500 23.13300
C  36.23500 45.33600 23.72700
N  35.03500 48.09400 27.94200
C  35.36400 47.19700 28.89700
C  35.15600 47.82900 30.31500
C  34.44600 49.16600 30.00300
C  34.63400 49.23200 28.50000
C  32.87400 49.23900 30.41800
C  36.40100 47.90800 31.22500
C  36.26800 47.44200 32.70200
H  34.90400 47.59000 33.31400
N  34.86700 49.98800 25.53200
C  34.67300 50.87900 26.49300
C  34.44500 52.20400 25.88700
C  34.52900 52.06900 24.46800
C  34.81100 50.60600 24.31800
C  34.20500 53.38900 26.78900
C  34.29200 53.12300 23.32000
O  34.51300 52.87700 22.11500
C  33.67100 54.36400 23.62800
N  35.28400 47.52200 23.71600
C  35.10200 48.52800 22.83400
C  34.98000 47.98600 21.37700
C  35.64200 46.62700 21.57500
C  35.70800 46.45100 23.05700
C  33.56500 47.90900 20.87000
C  36.98700 46.49100 20.88100
C  38.19700 46.89300 21.61400
N  36.12900 46.15000 25.98600
C  36.36800 45.09400 25.13400
C  36.89500 43.96200 25.81700
C  36.66400 44.19100 27.14200
C  36.11700 45.55600 27.27200
C  37.42000 42.65200 25.24100
C  36.75700 43.66500 28.44700
O  37.14500 42.59200 28.88600
C  36.26000 44.84200 29.45000
C  35.03700 44.37100 30.21100
O  34.06000 43.89400 29.77900
O  35.28400 44.44600 31.54700
C  34.28400 43.87900 32.42400
H  34.19000 51.35000 28.49500
H  34.60200 50.53900 22.29500
H  36.66200 44.49000 23.18300
H  34.39200 47.22300 30.80000
H  34.92400 50.01900 30.48500
H  32.58200 50.20200 30.83800
H  32.70900 48.53900 31.23700
H  32.26900 49.01400 29.53900
H  36.86000 48.89700 31.24200
H  37.08800 47.19800 30.76500
H  37.01600 47.93500 33.32300
H  36.50900 46.39400 32.88000
H  33.11900 53.47700 26.75900
H  34.59900 54.27400 26.28900
H  34.71800 53.36300 27.75000
H  34.39600 55.16300 23.77900
H  33.18900 54.22400 24.59600
H  32.89100 54.63700 22.91700
H  35.63000 48.62200 20.77500
H  34.95000 45.89300 21.16100
H  32.92900 48.54000 21.49200
H  33.18400 46.90600 21.06600
H  33.48400 48.13500 19.80700
H  37.04300 46.98500 19.91100
H  37.15100 45.42800 20.70200
H  38.40500 45.98600 22.18100
H  37.96500 47.59100 22.41900
H  39.10500 47.13400 21.06100
H  38.43600 42.66800 25.63600
H  37.45400 42.39900 24.18100
H  36.77700 41.92200 25.73400
H  37.08500 44.97700 30.15000
H  34.00500 42.90600 32.02000
H  33.42100 44.54500 32.44600
H  34.70400 43.67800 33.40900

