158

Mg 24.59000 -4.27800 45.64900
C  26.63000 -1.94900 44.26900
C  21.99500 -3.26100 43.70100
C  22.83600 -6.82100 46.95600
C  27.41800 -5.39500 47.63500
N  24.31700 -2.74700 44.16600
C  25.34800 -2.01800 43.65800
C  24.80500 -1.24400 42.38300
C  23.22900 -1.35800 42.59100
C  23.14800 -2.47400 43.58300
C  22.51700 -0.13500 43.07000
C  25.26100 -1.92000 41.04900
C  25.90200 -0.90800 40.07700
H  25.51900 -0.95500 38.55200
N  22.68000 -5.02600 45.35100
C  21.72800 -4.40600 44.51100
C  20.53800 -5.16700 44.55500
C  20.71300 -6.20800 45.60300
C  22.12600 -6.03900 46.02200
C  19.37800 -4.82200 43.68500
C  19.63800 -7.25700 46.08900
O  18.56000 -7.24700 45.54800
C  19.86800 -8.20000 47.27800
N  24.98200 -5.86400 47.19800
C  24.11100 -6.82200 47.46700
C  24.66500 -7.93400 48.38100
C  26.05600 -7.33500 48.80900
C  26.19000 -6.07000 47.85700
C  23.80300 -8.41900 49.55300
C  27.13800 -8.45500 48.66000
C  28.32200 -8.42000 49.61100
N  26.57000 -3.72200 45.99700
C  27.55200 -4.22300 46.85600
C  28.69900 -3.41000 46.71800
C  28.41500 -2.50000 45.69500
C  27.09900 -2.77900 45.29100
C  30.01300 -3.62700 47.43900
C  28.93700 -1.35700 44.94900
O  30.03000 -0.81300 44.96500
C  27.73700 -0.93500 43.91400
C  27.30800 0.53400 44.01600
O  26.32600 0.97700 44.54600
O  28.21800 1.26400 43.33000
C  28.30000 2.63900 43.75100
H  21.20600 -2.92200 43.02600
H  22.25700 -7.71200 47.20800
H  28.28700 -5.71900 48.21200
H  25.14000 -0.20700 42.41800
H  22.66800 -1.63300 41.69800
H  22.76900 0.74300 42.47400
H  22.89600 0.14600 44.05200
H  21.43700 -0.28500 43.06900
H  24.44100 -2.36500 40.48500
H  25.93800 -2.76700 41.16400
H  26.98600 -1.01800 40.05000
H  25.80400 0.13600 40.37400
H  19.30300 -5.31000 42.71300
H  19.31500 -3.73400 43.71300
H  18.46100 -5.12700 44.18900
H  20.37400 -7.64000 48.06400
H  20.57100 -8.95600 46.92700
H  18.93500 -8.73800 47.44200
H  24.65000 -8.76100 47.67200
H  26.22800 -7.08500 49.85600
H  24.31500 -8.29600 50.50800
H  23.72300 -9.50200 49.46100
H  22.84100 -7.90800 49.57700
H  27.36600 -8.40600 47.59500
H  26.80300 -9.46600 48.89400
H  28.19300 -8.87300 50.59500
H  28.60500 -7.37200 49.70600
H  29.20800 -8.82500 49.12100
H  30.14400 -4.70500 47.53300
H  29.98500 -3.15100 48.41900
H  30.82700 -3.19800 46.85400
H  28.15200 -1.06800 42.91500
H  29.32500 2.99400 43.86200
H  27.79100 2.85300 44.69100
H  27.91600 3.21100 42.90700
Mg 45.46800 5.48200 48.69000
C  43.36100 8.12800 47.79400
C  42.97900 3.32200 47.95200
C  47.88300 3.01600 48.42800
C  48.20400 7.79600 48.66800
N  43.37900 5.76900 48.16500
C  42.70900 6.91500 47.69500
C  41.30200 6.56100 47.18700
C  41.06700 5.12500 47.79600
C  42.55000 4.65800 48.01300
C  40.11800 4.96900 49.17300
C  41.23400 6.78700 45.67600
C  39.90600 7.40400 45.15100
H  39.29700 6.73400 43.92300
N  45.43700 3.45200 48.35000
C  44.24000 2.77000 48.12600
C  44.51900 1.40200 47.93800
C  45.93800 1.24700 47.92000
C  46.49800 2.57800 48.31200
C  43.44300 0.40000 47.56700
C  46.75200 0.00300 47.72300
O  46.18100 -1.02000 47.41400
C  48.26700 -0.02000 47.84800
N  47.76900 5.42500 48.60400
C  48.44400 4.26800 48.56100
C  49.92200 4.44000 48.78600
C  50.06300 5.99300 48.71200
C  48.60500 6.43500 48.73200
C  50.51400 3.74800 50.12500
C  50.98700 6.44200 47.49700
C  52.12400 7.34800 47.94800
N  45.73800 7.56300 48.45600
C  46.87000 8.34500 48.47200
C  46.53300 9.71500 48.30300
C  45.17500 9.70200 48.09500
C  44.71700 8.32600 48.14000
C  47.41900 10.95200 48.22000
C  43.96600 10.54900 47.70400
O  43.81300 11.77200 47.55700
C  42.80600 9.54100 47.55800
C  41.69200 9.99100 48.56700
O  41.52900 9.52400 49.65100
O  40.92100 10.97600 48.00100
C  39.81800 11.50600 48.88200
H  42.08700 2.69500 47.99900
H  48.67000 2.26600 48.52500
H  48.94300 8.58800 48.52400
H  40.54200 7.23300 47.58600
H  40.65600 4.45200 47.04400
H  39.99900 5.95300 49.62500
H  40.54100 4.33900 49.95600
H  39.13900 4.60300 48.86500
H  41.19100 5.82200 45.17200
H  42.08500 7.37800 45.33700
H  40.08900 8.46600 44.99100
H  39.12700 7.36800 45.91300
H  43.70400 -0.21800 46.70800
H  42.50100 0.89600 47.33500
H  43.31900 -0.33200 48.36500
H  48.79600 0.57300 47.10200
H  48.51800 -1.04000 47.55900
H  48.58200 0.18800 48.87100
H  50.38700 4.00200 47.90300
H  50.57800 6.35700 49.60100
H  49.78900 3.72900 50.93900
H  51.38000 4.26200 50.54300
H  50.74000 2.70800 49.89000
H  50.33900 6.96300 46.79300
H  51.47300 5.58700 47.02900
H  52.20800 8.12900 47.19300
H  53.08000 6.83400 48.05100
H  51.85900 7.84800 48.88000
H  48.35800 10.62800 47.77100
H  47.54000 11.45700 49.17900
H  47.10700 11.71300 47.50500
H  42.43600 9.52200 46.53300
H  39.06000 11.92400 48.22000
H  40.32500 12.24700 49.50000
H  39.33900 10.79700 49.55700

