158

Mg 45.62700 44.49700 43.17000
C  42.19600 44.14800 42.95800
C  46.00700 41.23200 42.48200
C  48.84600 45.12000 42.81700
C  45.05400 48.00600 43.42500
N  44.22300 42.92700 42.83300
C  42.90400 42.93500 42.95800
C  42.33600 41.48800 42.79000
C  43.59500 40.59200 42.89600
C  44.69100 41.66600 42.83200
C  43.65000 39.81200 44.23700
C  41.47800 41.33900 41.58700
C  41.86700 42.07800 40.28500
H  41.75300 41.36200 38.97300
N  47.24300 43.30000 42.69000
C  47.18000 41.96800 42.52000
C  48.52300 41.46100 42.32200
C  49.43400 42.55100 42.39000
C  48.51900 43.73300 42.62600
C  48.89600 40.04400 42.04500
C  50.87600 42.51100 42.18000
O  51.52200 41.45900 42.11400
C  51.69300 43.75200 42.22500
N  46.82700 46.33100 43.19300
C  48.13400 46.31600 43.02300
C  48.68800 47.78700 42.95100
C  47.43700 48.58700 43.36800
C  46.37000 47.58000 43.37300
C  49.97700 47.99000 43.84000
C  47.28300 49.69200 42.30000
C  46.73900 50.97700 42.74400
N  43.99900 45.89600 43.23400
C  43.90400 47.24500 43.33500
C  42.52200 47.68600 43.35400
C  41.80300 46.46900 43.27500
C  42.70700 45.42400 43.20200
C  42.03700 49.10400 43.56100
C  40.39400 45.92500 43.18100
O  39.31500 46.47200 43.27400
C  40.65400 44.35300 42.90100
C  39.82100 43.56600 43.82800
O  38.92800 42.80100 43.53800
O  40.26300 43.83900 45.11600
C  39.90300 42.74200 45.95400
H  46.02600 40.16200 42.26300
H  49.87300 45.46800 42.69300
H  44.80700 49.04100 43.67000
H  41.69000 41.25400 43.63600
H  43.71400 39.88900 42.07200
H  42.89600 39.91700 45.01700
H  44.40100 40.29900 44.85800
H  43.90500 38.77900 44.00100
H  40.48200 41.70300 41.84000
H  41.44900 40.25600 41.47100
H  42.89900 42.40000 40.42200
H  41.26500 42.96900 40.10400
H  48.03400 39.43100 42.30600
H  49.70700 39.62500 42.64100
H  49.09400 39.98100 40.97500
H  51.69100 44.15100 43.23900
H  51.22700 44.46000 41.53900
H  52.72300 43.46600 42.01300
H  48.99000 47.81400 41.90400
H  47.63900 49.00800 44.35300
H  49.85900 48.85500 44.49100
H  50.80400 48.19000 43.15800
H  50.21300 47.13700 44.47700
H  46.65800 49.29500 41.50000
H  48.27000 49.93000 41.90300
H  47.56200 51.51300 43.21800
H  45.88900 50.87100 43.41700
H  46.43300 51.63300 41.92800
H  42.75900 49.82100 43.95000
H  41.22100 49.00900 44.27800
H  41.77900 49.48000 42.57100
H  40.29600 44.21500 41.88100
H  40.39600 42.70100 46.92600
H  40.24700 41.81500 45.49500
H  38.83100 42.79100 46.14400
Mg -8.05200 19.36400 42.64800
C  -4.62000 18.78800 42.74700
C  -7.35400 22.71700 42.34400
C  -11.31900 19.89800 42.52000
C  -8.51400 15.87600 42.43900
N  -6.19000 20.55400 42.48800
C  -4.89900 20.08600 42.47600
C  -3.87200 21.16400 42.23200
C  -4.79700 22.48200 42.32700
C  -6.19300 21.92000 42.45300
C  -4.46600 23.48500 43.53400
C  -3.16400 21.15100 40.84900
C  -3.72500 20.35100 39.64300
H  -3.30300 20.84600 38.17100
N  -9.19200 21.08900 42.46900
C  -8.70800 22.33500 42.35100
C  -9.82400 23.23700 42.22700
C  -10.95900 22.43900 42.29600
C  -10.55800 21.06300 42.46800
C  -9.61200 24.69000 42.09600
C  -12.39600 22.93900 42.30900
O  -12.62400 24.10100 42.68100
C  -13.64100 21.98400 41.91400
N  -9.64100 18.11600 42.50200
C  -10.87800 18.60700 42.67800
C  -11.94600 17.41400 42.54200
C  -10.98400 16.16700 42.44200
C  -9.63300 16.74300 42.47500
C  -12.90000 17.47100 43.75100
C  -11.27300 15.29900 41.21500
C  -11.47200 13.84900 41.56100
N  -6.82200 17.59100 42.65900
C  -7.14500 16.26700 42.70700
C  -5.94400 15.46700 42.92500
C  -4.95200 16.46800 42.94500
C  -5.55200 17.67800 42.75600
C  -5.77500 14.05000 43.28500
C  -3.52100 16.67400 43.15000
O  -2.61300 15.83200 43.49300
C  -3.19800 18.20600 42.97100
C  -2.40900 18.66500 44.18200
O  -1.27800 19.09100 44.17600
O  -3.19000 18.51800 45.34400
C  -2.53100 19.02000 46.61300
H  -7.18000 23.77700 42.14700
H  -12.39000 20.03100 42.68400
H  -8.76800 14.82300 42.57900
H  -3.11800 21.17500 43.01900
H  -4.71500 22.96400 41.35300
H  -5.29300 23.87900 44.12400
H  -4.04900 24.37400 43.06000
H  -3.73200 23.11500 44.25000
H  -2.19200 20.66500 40.92100
H  -3.02100 22.17200 40.49300
H  -4.80600 20.24000 39.72100
H  -3.42100 19.32600 39.85700
H  -10.55000 25.03000 41.65800
H  -8.84800 24.98200 41.37600
H  -9.45700 25.24800 43.02000
H  -14.00300 21.44000 42.78600
H  -13.46600 21.24000 41.13600
H  -14.47500 22.62300 41.62200
H  -12.51400 17.67000 41.64800
H  -11.13800 15.52500 43.31000
H  -13.27800 16.45600 43.87500
H  -13.82700 18.02900 43.62300
H  -12.29900 17.69000 44.63300
H  -10.46800 15.53200 40.51800
H  -12.12100 15.66900 40.63800
H  -12.39000 13.50500 42.03800
H  -10.74600 13.50000 42.29500
H  -11.10600 13.21300 40.75500
H  -5.29100 13.64500 42.39600
H  -6.65900 13.44800 43.49100
H  -4.96300 13.87800 43.99200
H  -2.55200 18.28000 42.09600
H  -3.03800 19.95300 46.85800
H  -1.46900 19.25600 46.54800
H  -2.45700 18.24700 47.37800

