158

Mg 44.56900 4.13300 46.43800
C  42.31100 6.75100 46.54800
C  41.87600 1.89600 45.89800
C  46.78700 1.60700 45.56800
C  47.14100 6.40400 46.10500
N  42.38800 4.33600 46.24000
C  41.66600 5.52300 46.31300
C  40.17500 5.23700 46.36200
C  40.00700 3.67400 46.13900
C  41.51100 3.26100 46.15000
C  39.12000 2.88500 47.24300
C  39.36900 6.08100 45.39700
C  39.33100 5.85000 43.89500
H  39.51200 7.03700 42.90000
N  44.36200 2.02500 45.98700
C  43.18100 1.35800 45.86400
C  43.43300 -0.02000 45.44400
C  44.85200 -0.15800 45.47000
C  45.46400 1.18000 45.65900
C  42.34100 -1.02000 45.11800
C  45.60200 -1.43500 45.19100
O  45.08400 -2.54600 44.98000
C  47.16800 -1.53700 45.14800
N  46.74400 3.99600 45.88800
C  47.39100 2.79500 45.78700
C  48.88800 2.98600 45.53100
C  48.96600 4.58800 45.41500
C  47.58700 5.05000 45.90900
C  49.85700 2.28700 46.55300
C  49.09300 5.17400 43.98500
C  50.54500 5.25400 43.57500
N  44.73100 6.12800 46.31100
C  45.83900 6.89700 46.39500
C  45.55300 8.27600 46.69700
C  44.15900 8.24800 46.79500
C  43.71600 6.96100 46.46200
C  46.45800 9.44100 46.77300
C  42.99100 9.02100 47.25900
O  42.93900 10.18000 47.61000
C  41.71600 8.12200 46.94500
C  40.85000 8.09400 48.07000
O  40.95500 7.41700 49.10700
O  39.76600 8.85200 47.76800
C  38.56900 8.65200 48.66000
H  41.02100 1.21900 45.84700
H  47.45600 0.81800 45.21900
H  47.93200 7.15400 46.17700
H  39.82000 5.53000 47.35000
H  39.47900 3.40700 45.22400
H  38.24000 2.33800 46.90500
H  38.75200 3.69100 47.87800
H  39.81000 2.32400 47.87400
H  39.55900 7.15200 45.46600
H  38.33200 6.20300 45.71100
H  38.34400 5.46500 43.64000
H  40.09500 5.10800 43.66200
H  42.67400 -1.73900 44.37000
H  41.37900 -0.59400 44.83300
H  42.08300 -1.54800 46.03600
H  47.69100 -1.25700 46.06200
H  47.62200 -1.00900 44.31000
H  47.50100 -2.57200 45.06300
H  49.06300 2.59500 44.52900
H  49.81600 4.83000 46.05300
H  50.62300 1.90000 45.88000
H  49.39700 1.48400 47.12900
H  50.40100 3.05100 47.10700
H  48.67600 6.17600 43.88200
H  48.60000 4.64400 43.17000
H  51.16700 4.95600 44.41900
H  50.78500 6.27200 43.26800
H  50.73400 4.48900 42.82200
H  47.25200 9.44800 46.02600
H  46.83100 9.37200 47.79500
H  45.96600 10.38900 46.55500
H  41.19800 8.61300 46.12100
H  37.71200 8.68000 47.98800
H  38.40200 9.47900 49.35000
H  38.52600 7.72200 49.22700
Mg 43.28800 42.81400 26.71500
C  42.10500 44.94700 29.29000
C  44.70900 40.64100 29.26100
C  44.73100 40.88800 24.36600
C  42.45500 45.17000 24.37900
N  43.31100 42.87500 29.02900
C  42.74300 43.76000 29.83500
C  43.05700 43.45500 31.27000
C  43.92800 42.11300 31.21800
C  43.91500 41.78600 29.70300
C  45.37000 42.27400 31.79200
C  41.71000 43.27300 31.98600
C  41.80300 43.04000 33.41600
H  40.82600 43.76400 34.37000
N  44.51800 40.99800 26.76800
C  44.95800 40.27000 27.93100
C  45.60500 39.09400 27.57600
C  45.53200 39.10900 26.16400
C  44.90500 40.32200 25.66700
C  46.12300 38.14500 28.62000
C  45.86800 38.04300 25.17000
O  45.73100 38.12200 23.96300
C  46.38400 36.71700 25.66900
N  43.67100 43.05400 24.63000
C  44.20200 42.07700 23.82500
C  44.37500 42.57800 22.39300
C  43.49400 43.88400 22.38600
C  43.12200 44.01600 23.83500
C  45.78300 42.79700 21.84800
C  42.25400 43.73800 21.47900
C  40.88500 43.31100 22.15900
N  42.34400 44.60400 26.79900
C  42.09600 45.50100 25.73100
C  41.52000 46.74300 26.22700
C  41.43800 46.53400 27.59900
C  41.99100 45.26300 27.88400
C  41.26200 47.95000 25.48400
C  41.04000 47.11700 28.88100
O  40.54700 48.20300 29.12200
C  41.42300 46.11400 29.96300
C  42.33800 46.74100 30.94400
O  43.31500 47.45700 30.61400
O  41.99100 46.42400 32.19700
C  42.88300 46.87500 33.24000
H  45.08500 40.08100 30.11900
H  45.12900 40.22000 23.59900
H  42.17300 45.90100 23.61900
H  43.64600 44.32500 31.55800
H  43.50400 41.37800 31.90300
H  45.26000 42.53100 32.84500
H  45.98500 42.97500 31.22600
H  45.87000 41.30700 31.74500
H  41.44000 42.38800 31.40900
H  40.93000 43.97000 31.67800
H  42.85100 43.24700 33.63100
H  41.49100 42.00000 33.52000
H  47.01900 38.46400 29.15300
H  46.49500 37.19200 28.24300
H  45.44100 37.83200 29.41000
H  45.72300 36.31500 26.43700
H  47.37900 36.79300 26.10800
H  46.37200 35.99200 24.85500
H  43.96800 41.75300 21.80900
H  44.16400 44.73300 22.24600
H  46.48200 42.53800 22.64300
H  46.07800 43.81300 21.58800
H  46.00600 42.20800 20.95800
H  42.46700 43.14200 20.59200
H  42.19800 44.70500 20.98000
H  40.41400 42.67600 21.40900
H  40.20200 44.11300 22.43800
H  41.10300 42.85500 23.12500
H  41.58500 47.78500 24.45600
H  41.80600 48.83100 25.82500
H  40.21700 48.25900 25.50400
H  40.53100 45.71100 30.44200
H  42.97600 47.95500 33.12900
H  43.87200 46.42600 33.14500
H  42.40700 46.61100 34.18500

