158

Mg 47.32500 45.17000 43.14500
C  43.89400 44.74800 42.65500
C  47.81000 41.90300 42.21700
C  50.54900 45.88400 43.36000
C  46.67400 48.69400 43.54200
N  45.94300 43.60300 42.26400
C  44.59700 43.58800 42.34700
C  44.01100 42.17800 42.10300
C  45.29000 41.26800 42.09700
C  46.42400 42.30700 42.24800
C  45.19500 40.05100 43.07400
C  43.20400 42.06800 40.83100
C  43.71800 42.80500 39.59300
H  43.52100 42.11200 38.24400
N  49.02500 43.95900 42.85900
C  49.04800 42.58900 42.46200
C  50.43900 42.13000 42.57000
C  51.28500 43.30300 42.84400
C  50.34200 44.50800 42.96400
C  50.72900 40.65100 42.29600
C  52.78100 43.29600 42.94800
O  53.38900 42.25400 42.65800
C  53.47100 44.57000 43.28400
N  48.45200 46.99900 43.51200
C  49.76000 46.98000 43.63500
C  50.31000 48.41500 43.94100
C  48.97300 49.28800 44.03700
C  47.95900 48.25800 43.66300
C  51.24700 48.49100 45.23000
C  49.00800 50.58100 43.10800
C  48.27800 51.82600 43.77200
N  45.66900 46.58100 42.95800
C  45.53500 47.87000 43.29900
C  44.15100 48.27900 43.35000
C  43.47600 47.08400 43.11700
C  44.42000 46.06800 42.90300
C  43.62800 49.61600 43.78700
C  42.17000 46.40400 43.03000
O  41.05900 46.79100 43.17000
C  42.34600 44.86000 42.76100
C  41.73200 44.14100 43.89400
O  40.69400 43.56700 43.75900
O  42.51900 44.19800 45.03800
C  41.99500 43.61600 46.20300
H  47.92700 40.83000 42.05200
H  51.55900 46.17800 43.65600
H  46.40900 49.74300 43.69000
H  43.38800 41.93300 42.96400
H  45.42900 40.71300 41.16900
H  44.18300 39.67900 42.91100
H  45.46600 40.33600 44.09000
H  45.82800 39.29400 42.61200
H  42.15300 42.23500 41.06500
H  43.25400 41.01900 40.54100
H  44.74700 43.16000 39.65100
H  43.10000 43.70200 39.63600
H  50.29600 40.21600 43.19700
H  51.79800 40.44300 42.34200
H  50.25800 40.30200 41.37800
H  53.25000 45.26000 42.47000
H  54.53100 44.46900 43.51600
H  52.98500 44.84000 44.22200
H  50.83100 48.70400 43.02800
H  48.70200 49.55700 45.05800
H  52.27700 48.75600 44.99400
H  51.38800 47.59100 45.82800
H  50.91100 49.16100 46.02100
H  48.55800 50.33200 42.14700
H  50.07400 50.73400 42.93800
H  48.94100 52.68900 43.83400
H  47.85200 51.53400 44.73200
H  47.49900 52.04400 43.04000
H  43.19500 49.41300 44.76600
H  42.85500 49.95700 43.09800
H  44.32300 50.45300 43.84600
H  41.89600 44.66200 41.78800
H  42.60500 43.98500 47.02800
H  41.99100 42.52600 46.19300
H  40.96500 43.93300 46.37000
Mg -10.80800 17.24300 42.68100
C  -7.41600 16.53000 42.84900
C  -9.94800 20.53900 42.15900
C  -13.99000 17.74500 41.81900
C  -11.42400 13.62300 42.62900
N  -8.82800 18.38800 42.63700
C  -7.63000 17.90700 42.65200
C  -6.56000 19.00300 42.32700
C  -7.42700 20.29000 42.37000
C  -8.84800 19.71800 42.41800
C  -7.06200 21.34000 43.49300
C  -5.68000 18.77700 41.00300
C  -6.42300 18.24500 39.69500
H  -5.65300 18.07000 38.40700
N  -11.85300 18.89700 42.01800
C  -11.32300 20.17000 41.93400
C  -12.42200 21.07500 41.48300
C  -13.51400 20.22900 41.29300
C  -13.14200 18.84600 41.73000
C  -12.14300 22.58300 41.18600
C  -14.86400 20.75100 40.77400
O  -15.10000 21.95200 40.73900
C  -16.01100 19.75200 40.28500
N  -12.44800 15.88100 42.17100
C  -13.70300 16.40000 42.03300
C  -14.74700 15.29000 41.96700
C  -13.89200 13.99300 42.14700
C  -12.50100 14.50800 42.38700
C  -16.04400 15.49600 42.84800
C  -14.01800 12.91700 41.06100
C  -14.54000 11.45500 41.38200
N  -9.69100 15.41000 42.98800
C  -10.06700 14.05600 42.87900
C  -8.82600 13.22100 42.96800
C  -7.77400 14.13600 42.98100
C  -8.34300 15.45500 42.95500
C  -8.86800 11.71500 42.96300
C  -6.38100 14.27200 43.01500
O  -5.53300 13.38400 43.06500
C  -6.05100 15.80800 42.94900
C  -5.31800 16.33300 44.09700
O  -4.23400 16.91400 44.00300
O  -5.92500 15.87700 45.23600
C  -5.20600 16.07500 46.51800
H  -9.73700 21.61000 42.20100
H  -15.07200 17.89200 41.81500
H  -11.66100 12.56400 42.51200
H  -5.82000 19.05200 43.12600
H  -7.38300 20.75600 41.38500
H  -6.77500 22.31500 43.09900
H  -6.26600 20.91300 44.10400
H  -7.88000 21.50100 44.19500
H  -4.92300 18.01800 41.19900
H  -5.22900 19.74900 40.80100
H  -7.16700 19.01000 39.47000
H  -6.82100 17.24500 39.86800
H  -12.79600 23.00000 40.41900
H  -11.13400 22.64500 40.77900
H  -12.12200 23.17000 42.10400
H  -16.66600 19.57600 41.13900
H  -15.64900 18.77100 39.97900
H  -16.46000 20.18000 39.38800
H  -15.15700 15.35500 40.95900
H  -14.16800 13.58600 43.11900
H  -16.78300 16.01000 42.23400
H  -15.68500 16.06500 43.70600
H  -16.45000 14.52100 43.11800
H  -13.08900 12.59500 40.59300
H  -14.62600 13.28900 40.23600
H  -15.26000 11.17300 40.61300
H  -15.19000 11.39600 42.25500
H  -13.78400 10.67100 41.36000
H  -8.00600 11.26700 42.46900
H  -9.69300 11.31700 42.37100
H  -8.87500 11.42300 44.01400
H  -5.34700 15.93400 42.12600
H  -4.47100 15.27100 46.49500
H  -5.97000 15.75400 47.22700
H  -4.63400 16.96700 46.77100

