158

Mg 24.97700 1.52100 29.54400
C  27.12000 1.24700 32.45800
C  22.31700 1.97100 31.74900
C  22.93600 1.30400 27.03100
C  27.60800 0.57400 27.63800
N  24.80700 1.70000 31.81200
C  25.81300 1.59400 32.77200
C  25.26800 1.97200 34.19700
C  23.75700 2.10800 33.89300
C  23.55000 1.98000 32.35500
C  22.88100 1.13700 34.66200
C  25.96100 3.21900 34.84600
C  26.43200 3.06000 36.28100
H  25.97000 4.05500 37.44900
N  22.89000 1.63700 29.35700
C  21.98600 1.87500 30.39100
C  20.64500 2.04000 29.82700
C  20.83200 1.91700 28.39100
C  22.24700 1.59300 28.20300
C  19.40700 2.28400 30.65400
C  19.82500 2.07800 27.21400
O  20.10900 1.95000 26.02900
C  18.43600 2.50700 27.49500
N  25.24100 0.93400 27.65800
C  24.27200 1.02700 26.78300
C  24.79000 0.81700 25.29900
C  26.30900 0.80900 25.43200
C  26.38100 0.76200 27.00100
C  24.20400 -0.53500 24.81300
C  26.95200 2.03400 24.72200
C  26.68000 3.35900 25.42900
N  26.94300 0.98800 29.94400
C  27.92900 0.69800 29.00500
C  29.24300 0.49500 29.69000
C  28.97800 0.67800 31.08600
C  27.56100 0.98400 31.13500
C  30.53200 0.12700 28.98400
C  29.54900 0.75100 32.43200
O  30.67500 0.52800 32.82900
C  28.36300 1.14300 33.37800
C  28.25600 0.05900 34.38100
O  27.64100 -0.99300 34.13400
O  28.93800 0.31800 35.54100
C  29.44400 -0.75900 36.47200
H  21.44000 2.14300 32.37700
H  22.49000 1.33800 26.03500
H  28.41200 0.20200 27.00000
H  25.39100 1.11500 34.86000
H  23.30600 3.05800 34.18200
H  22.20600 1.69200 35.31400
H  23.41900 0.48900 35.35300
H  22.30500 0.45300 34.03900
H  25.38800 4.14600 34.87400
H  26.82700 3.49700 34.24400
H  27.51400 3.13400 36.16700
H  26.15700 2.07300 36.65300
H  18.69500 1.56000 30.25700
H  18.99100 3.27000 30.44700
H  19.49200 2.18000 31.73600
H  18.46100 3.59100 27.60800
H  17.94300 2.02700 28.34000
H  17.91400 2.13200 26.61400
H  24.44200 1.60500 24.63100
H  26.73000 -0.16000 25.16500
H  23.49000 -0.98500 25.50200
H  24.99100 -1.22500 24.50800
H  23.59800 -0.24500 23.95500
H  26.50300 2.00800 23.72900
H  28.01700 1.86300 24.56500
H  25.80300 3.24100 26.06500
H  26.51100 4.08900 24.63800
H  27.49500 3.68200 26.07700
H  30.37900 -0.02800 27.91600
H  30.85700 -0.81800 29.41900
H  31.31500 0.85800 29.18500
H  28.49200 1.98700 34.05600
H  29.31200 -1.70900 35.95500
H  28.93300 -0.65900 37.43000
H  30.50800 -0.52500 36.49900
Mg 42.66200 41.48300 26.80600
C  41.62800 43.69100 29.35700
C  43.96200 39.47600 29.26500
C  44.18200 39.81800 24.42300
C  41.79800 44.03400 24.46600
N  42.66200 41.51000 29.01300
C  42.03900 42.41300 29.82800
C  42.18300 42.09800 31.32200
C  42.92100 40.76700 31.28300
C  43.21200 40.53900 29.74400
C  44.28400 40.69800 32.08100
C  40.78600 41.99700 32.07500
C  40.99700 41.66800 33.57900
H  40.05800 42.42100 34.54200
N  43.86900 39.86500 26.85400
C  44.13000 39.03600 27.91300
C  44.83300 37.85000 27.37600
C  44.86500 37.87200 25.96000
C  44.34400 39.26300 25.72800
C  45.25300 36.80300 28.28700
C  45.46500 36.84800 24.87000
O  45.51700 37.11500 23.66400
C  46.02500 35.47200 25.33400
N  43.03200 41.84800 24.71500
C  43.52200 40.94900 23.98700
C  43.44300 41.28100 22.47100
C  42.58600 42.51800 22.54800
C  42.43800 42.85900 24.00700
C  44.77800 41.44800 21.72200
C  41.17600 42.24100 21.92500
C  40.14100 41.34400 22.67800
N  41.74400 43.40800 26.83800
C  41.50600 44.36200 25.80800
C  41.11700 45.58500 26.40500
C  41.17300 45.38100 27.80000
C  41.51000 44.05300 28.00700
C  40.71700 46.82000 25.72500
C  40.92400 46.02000 29.07500
O  40.49100 47.11000 29.38200
C  41.10300 44.91900 30.13900
C  42.05000 45.35600 31.23600
O  43.15000 45.82100 31.00400
O  41.37500 45.24800 32.40600
C  42.07000 45.86500 33.49800
H  44.36300 38.83800 30.05500
H  44.45900 39.18900 23.57500
H  41.57000 44.82300 23.74600
H  42.81300 42.82800 31.82900
H  42.25600 39.96900 31.61400
H  44.12000 41.28600 32.98400
H  45.10400 41.25900 31.63300
H  44.59900 39.68000 32.31100
H  40.18700 41.19600 31.64000
H  40.10800 42.83500 31.91000
H  42.01500 41.88000 33.90500
H  40.84600 40.60600 33.77200
H  46.29400 36.50800 28.15500
H  44.66900 35.97500 27.88600
H  45.13600 37.00200 29.35200
H  46.37100 35.01100 24.40900
H  45.35300 34.83600 25.91000
H  46.93500 35.75400 25.86200
H  42.85300 40.52700 21.95000
H  42.92700 43.40600 22.01500
H  45.70200 41.52800 22.29500
H  44.68200 42.34100 21.10500
H  45.06300 40.65900 21.02600
H  41.24000 41.89300 20.89400
H  40.62800 43.18300 21.91600
H  40.45000 41.06800 23.68600
H  39.95000 40.46700 22.06000
H  39.17700 41.84700 22.75300
H  40.11500 46.55300 24.85600
H  41.59700 47.41300 25.48000
H  40.18700 47.38900 26.48900
H  40.09700 44.73400 30.51600
H  42.87200 46.56400 33.26000
H  42.68700 45.03900 33.85300
H  41.46700 46.17500 34.35200

