158

Mg 46.61800 25.02200 28.10600
C  47.30500 27.03100 30.89000
C  45.39400 22.61800 30.46300
C  46.49900 22.84800 25.58500
C  48.33000 27.32900 26.03800
N  46.51000 24.85800 30.41500
C  46.86000 25.77500 31.31600
C  46.63300 25.29200 32.75100
C  46.34400 23.77200 32.55100
C  46.00900 23.75800 31.04400
C  47.54500 22.89900 32.85000
C  45.52800 26.09200 33.51000
C  45.95000 27.01300 34.59400
H  44.90100 27.23000 35.63900
N  45.98300 23.08500 28.01000
C  45.35700 22.33000 29.00300
C  44.96300 21.06200 28.48300
C  45.42400 21.01000 27.11800
C  45.93700 22.36600 26.77900
C  44.24700 20.02400 29.37400
C  45.37000 19.88500 26.15100
O  45.63600 19.94200 24.94800
C  45.03200 18.42200 26.62000
N  47.39800 25.01600 26.12000
C  47.05700 24.08700 25.23900
C  47.69200 24.38600 23.83900
C  48.09300 25.90200 23.93700
C  47.97700 26.11300 25.46400
C  48.95700 23.49100 23.57700
C  47.13300 26.74800 23.02600
C  47.85400 27.23100 21.71800
N  47.41300 26.89200 28.36100
C  48.06700 27.67600 27.41700
C  48.36800 28.96600 28.13900
C  48.20800 28.68000 29.48800
C  47.59800 27.41300 29.56800
C  49.05900 30.21500 27.50000
C  48.51000 29.19900 30.81500
O  49.12600 30.19600 31.15800
C  47.89600 28.19600 31.78200
C  49.01200 27.77800 32.68900
O  49.94800 27.07500 32.39900
O  48.89700 28.33200 33.89800
C  49.78300 27.78800 34.90500
H  44.98300 21.93400 31.20800
H  46.64300 22.15300 24.75400
H  48.80300 28.02500 25.34200
H  47.62800 25.42900 33.17300
H  45.49500 23.36400 33.09900
H  48.00400 23.15900 33.80400
H  48.30900 23.08800 32.09600
H  47.31300 21.83700 32.77900
H  44.84700 25.37700 33.96900
H  44.98500 26.53400 32.67500
H  46.11300 27.96400 34.08600
H  46.91200 26.70600 35.00600
H  43.92600 20.29100 30.38100
H  44.88400 19.15900 29.55600
H  43.39900 19.61700 28.82300
H  45.32000 17.73200 25.82700
H  43.97000 18.29900 26.83200
H  45.54900 18.35100 27.57700
H  46.87900 24.08400 23.18000
H  49.12700 26.03000 23.61400
H  48.57100 22.47400 23.50300
H  49.39100 23.34000 24.56500
H  49.51200 23.82700 22.70100
H  46.79300 27.57700 23.64700
H  46.29000 26.15300 22.67500
H  48.84400 26.83300 21.49100
H  47.89000 28.32000 21.74800
H  47.21000 27.04200 20.85900
H  48.66900 30.45500 26.51000
H  50.03100 29.75500 27.32000
H  49.11700 31.06200 28.18400
H  47.07200 28.62400 32.35200
H  49.22500 27.26700 35.68300
H  50.45600 28.55100 35.29800
H  50.59700 27.16400 34.53600
Mg 46.98600 34.91000 27.98100
C  45.27400 33.02600 30.33000
C  47.24100 37.46500 30.34800
C  48.12200 36.78500 25.61700
C  46.42000 32.29900 25.64600
N  46.19900 35.23100 29.96800
C  45.66500 34.27500 30.82300
C  45.73000 34.73800 32.29400
C  45.86300 36.24800 32.10400
C  46.42300 36.36500 30.69300
C  44.50900 37.03700 32.23400
C  47.02800 34.12700 32.88400
C  47.06600 33.89300 34.38800
H  46.05600 34.71300 35.32200
N  47.68700 36.86000 28.02800
C  47.80900 37.73100 29.07800
C  48.46100 39.00100 28.61600
C  48.88900 38.71100 27.29500
C  48.21700 37.43400 26.90800
C  48.74200 40.09200 29.52900
C  49.74700 39.59800 26.37300
O  49.94000 39.13000 25.26000
C  50.16500 40.95100 26.73500
N  47.11900 34.61000 25.91400
C  47.68300 35.54000 25.15700
C  47.62500 35.14700 23.61700
C  47.43200 33.67700 23.74200
C  46.91600 33.47500 25.19600
C  46.35200 35.90500 22.97800
C  48.56900 32.70300 23.37300
C  50.09500 33.15700 23.43600
N  46.23200 32.91300 27.98500
C  46.06900 32.00800 26.94600
C  45.44200 30.76800 27.49700
C  45.11100 31.06400 28.81000
C  45.56600 32.40700 29.02300
C  45.14700 29.57300 26.59500
C  44.42900 30.66600 29.98900
O  43.80100 29.63600 30.23100
C  44.48000 31.91500 31.01600
C  44.92400 31.40200 32.32300
O  45.91800 30.78300 32.52800
O  44.01800 31.72600 33.25100
C  44.26500 31.03000 34.47600
H  47.27400 38.31200 31.03700
H  48.49900 37.34600 24.76000
H  46.23000 31.49100 24.93700
H  44.89000 34.31500 32.84600
H  46.60500 36.67800 32.77700
H  44.14700 37.61500 31.38400
H  44.55200 37.70400 33.09500
H  43.83500 36.25100 32.57600
H  47.81400 34.88000 32.82900
H  47.38200 33.18400 32.46900
H  48.05500 34.05200 34.81700
H  46.68800 32.88600 34.56600
H  49.81500 40.00700 29.70200
H  48.23300 40.08600 30.49300
H  48.51100 41.07000 29.10600
H  49.40800 41.61600 27.15000
H  50.65800 41.44500 25.89800
H  50.95200 40.78300 27.46900
H  48.53500 35.46200 23.10500
H  46.51800 33.39300 23.22000
H  46.80500 36.61600 22.28600
H  45.74400 36.38800 23.74200
H  45.73100 35.30900 22.30900
H  48.45500 32.44400 22.32000
H  48.47100 31.79000 23.96000
H  50.19300 34.17500 23.81000
H  50.46800 33.09600 22.41400
H  50.83800 32.54700 23.95100
H  45.95000 29.45300 25.86800
H  44.18500 29.64900 26.08900
H  45.10000 28.61900 27.12100
H  43.43100 32.20200 31.07800
H  43.46200 31.04700 35.21300
H  45.15200 31.53000 34.86500
H  44.43400 29.97800 34.24200

