158

Mg -1.87900 17.35600 26.63800
C  -2.30400 15.01600 29.47000
C  -2.23400 19.94000 28.93900
C  -1.84400 19.53800 24.21100
C  -2.51400 14.64800 24.52300
N  -2.29000 17.43900 28.93600
C  -2.26200 16.32700 29.84800
C  -2.48500 16.87100 31.23000
C  -2.53800 18.43800 31.01700
C  -2.33400 18.63200 29.55600
C  -3.77200 19.16200 31.51000
C  -1.42400 16.37300 32.26600
C  -0.85600 17.33800 33.30400
H  -0.22200 16.83400 34.62400
N  -2.04200 19.46500 26.58800
C  -2.10500 20.37600 27.61500
C  -1.89400 21.71800 27.13700
C  -1.70900 21.63100 25.73900
C  -1.81900 20.19300 25.48700
C  -1.86600 22.87800 27.97900
C  -1.29400 22.69400 24.75300
O  -1.06600 22.37600 23.58700
C  -0.94800 24.15000 25.23500
N  -2.29500 17.11200 24.70200
C  -2.12200 18.22300 23.83400
C  -2.30400 17.75800 22.34500
C  -2.49800 16.22300 22.52100
C  -2.44600 15.94200 24.01400
C  -3.28400 18.55900 21.50400
C  -1.45100 15.41400 21.60200
C  -0.02200 15.32500 22.24900
N  -2.22200 15.26400 26.87900
C  -2.39800 14.29600 25.88600
C  -2.52700 12.96300 26.49500
C  -2.42800 13.25200 27.89400
C  -2.24100 14.64100 28.07900
C  -2.86900 11.61600 25.81500
C  -2.54600 12.63000 29.24300
O  -2.61000 11.45800 29.53800
C  -2.40500 13.78100 30.35000
C  -1.11100 13.59900 31.14600
O  0.03300 13.79500 30.65900
O  -1.42300 13.14700 32.33800
C  -0.37900 13.10700 33.32500
H  -2.22100 20.77500 29.64300
H  -1.88400 20.23500 23.37100
H  -2.65200 13.91600 23.72400
H  -3.45200 16.57400 31.63700
H  -1.68300 18.95500 31.45200
H  -3.50800 19.95000 32.21600
H  -4.37100 18.46000 32.09000
H  -4.40800 19.49400 30.69000
H  -0.56300 16.09900 31.65700
H  -1.95700 15.56300 32.76400
H  -1.67000 17.97800 33.64300
H  -0.12900 17.94900 32.76900
H  -2.10300 22.65300 29.01900
H  -2.58400 23.64300 27.68200
H  -0.88100 23.33400 27.88300
H  -0.25700 24.21500 26.07500
H  -1.99000 24.46500 25.29200
H  -0.44100 24.69100 24.43600
H  -1.32200 17.93200 21.90600
H  -3.53400 16.11400 22.20200
H  -3.89200 17.85700 20.93300
H  -2.63500 19.06500 20.78900
H  -3.87700 19.29500 22.04600
H  -1.34800 15.77800 20.58000
H  -1.83200 14.42200 21.35900
H  0.68600 15.78900 21.56100
H  0.28800 14.29200 22.40400
H  -0.00800 15.79800 23.23000
H  -3.43900 11.77700 24.90100
H  -3.38900 10.96000 26.51300
H  -1.94400 11.11800 25.52400
H  -3.24800 13.71700 31.03800
H  -0.42400 14.06700 33.83800
H  0.62800 12.90600 32.96000
H  -0.58500 12.27600 34.00000
Mg 41.06700 9.90300 30.28800
C  42.91300 10.51100 33.15100
C  38.68600 8.25700 32.30600
C  39.51300 8.83800 27.50100
C  43.62800 11.09800 28.29700
N  40.84700 9.45400 32.51800
C  41.76600 9.82500 33.48900
C  41.23700 9.38100 34.87000
C  40.06900 8.38600 34.50700
C  39.84300 8.73700 32.99500
C  40.22900 6.83600 34.76700
C  40.87200 10.65100 35.80500
C  41.43400 10.86400 37.19500
H  40.80300 12.00200 38.08100
N  39.27700 8.76200 29.91300
C  38.40100 8.33100 30.93900
C  37.32900 7.68100 30.28300
C  37.40200 7.94600 28.89300
C  38.80600 8.54700 28.68200
C  36.30400 6.88100 30.98100
C  36.43900 7.61100 27.74800
O  36.61900 7.84100 26.58600
C  35.06300 7.03700 28.12100
N  41.54800 10.00300 28.24400
C  40.74200 9.44800 27.29200
C  41.25400 9.69200 25.88500
C  42.33100 10.74900 26.15700
C  42.51900 10.65000 27.62800
C  41.73400 8.34500 25.30300
C  41.98000 12.13700 25.70200
C  40.70600 12.72100 26.34600
N  42.87800 10.68100 30.64200
C  43.83200 11.11700 29.73500
C  44.93200 11.70300 30.42700
C  44.60900 11.52900 31.76200
C  43.36300 10.83600 31.85000
C  46.12600 12.28500 29.98100
C  45.06300 11.75400 33.18400
O  46.11800 12.32000 33.59300
C  43.97700 11.12400 34.10900
C  44.70900 10.20100 34.96200
O  45.04000 9.08400 34.59700
O  44.88600 10.80500 36.22500
C  45.59200 9.98700 37.20200
H  37.99200 7.67900 32.92000
H  38.90200 8.66500 26.61300
H  44.45300 11.61200 27.79800
H  42.03700 8.82800 35.36300
H  39.24700 8.81600 35.08000
H  40.35100 6.27600 33.84000
H  39.31300 6.51600 35.26400
H  41.01500 6.74300 35.51700
H  39.80800 10.64600 36.04300
H  41.11600 11.48800 35.15200
H  42.45900 11.20600 37.05300
H  41.59200 9.94800 37.76400
H  35.29900 7.29600 30.90600
H  36.49600 6.89300 32.05400
H  36.24100 5.86800 30.58500
H  34.28700 7.18800 27.37000
H  34.80500 7.73000 28.92200
H  35.07200 6.01900 28.51100
H  40.44000 10.15400 25.32600
H  43.25900 10.57500 25.61200
H  41.41200 7.43200 25.80400
H  42.80900 8.26700 25.13900
H  41.30800 8.34100 24.30000
H  41.86600 12.14800 24.61800
H  42.90300 12.69500 25.85500
H  40.92900 13.68700 26.79900
H  40.18900 12.14200 27.11200
H  39.89400 12.76300 25.62100
H  45.96300 13.20500 29.41900
H  46.68100 11.49600 29.47300
H  46.76500 12.56400 30.81900
H  43.60300 11.97600 34.67800
H  45.17400 8.99000 37.06300
H  45.44500 10.34400 38.22100
H  46.67500 9.97300 37.07900

