158

Mg -1.84400 17.41700 26.71400
C  -2.26700 15.16300 29.53900
C  -2.51200 19.92500 29.01200
C  -1.65900 19.38700 24.32000
C  -1.77600 14.59600 24.69100
N  -2.56400 17.48400 28.99500
C  -2.54500 16.46500 29.93700
C  -2.75900 17.01500 31.36800
C  -2.96200 18.57000 31.13200
C  -2.68700 18.69900 29.60400
C  -4.37100 19.00400 31.60500
C  -1.54300 16.67200 32.31300
C  -1.52900 17.43800 33.64200
H  -1.44100 16.67800 34.98300
N  -1.94300 19.38100 26.67800
C  -2.19600 20.26500 27.67900
C  -2.06800 21.65100 27.15800
C  -1.85300 21.52400 25.76500
C  -1.82800 20.04700 25.48300
C  -2.22000 22.86900 28.05400
C  -1.63200 22.58700 24.67600
O  -1.57900 22.32400 23.49400
C  -1.48900 23.98600 25.05200
N  -1.54900 17.04800 24.71200
C  -1.56200 18.07900 23.89000
C  -1.20500 17.67300 22.41700
C  -1.01000 16.11700 22.60500
C  -1.43100 15.86100 24.07700
C  -2.31300 18.00900 21.31700
C  0.39500 15.56000 22.27900
C  1.47000 15.38100 23.40900
N  -1.88900 15.37700 26.97600
C  -1.87600 14.33600 26.04500
C  -2.05600 13.04200 26.62300
C  -2.17600 13.34300 27.99100
C  -2.02600 14.75400 28.19100
C  -2.15200 11.68400 26.04600
C  -2.25500 12.73600 29.29500
O  -2.34800 11.54600 29.59400
C  -2.29000 13.83200 30.29700
C  -1.00600 13.64100 31.15200
O  -0.05100 14.31300 30.86900
O  -1.09900 12.73500 32.15900
C  -0.11400 12.81700 33.24100
H  -2.34900 20.74400 29.71500
H  -1.54500 19.98900 23.41600
H  -1.89700 13.71400 24.05800
H  -3.61300 16.54400 31.85500
H  -2.24300 19.17800 31.68100
H  -4.99600 18.12200 31.74000
H  -4.83100 19.69300 30.89700
H  -4.36800 19.63100 32.49700
H  -0.62000 16.98200 31.82100
H  -1.53700 15.60600 32.53900
H  -2.50200 17.92500 33.56700
H  -0.81800 18.26300 33.62800
H  -1.20300 23.14200 28.33500
H  -2.93500 22.63700 28.84300
H  -2.79300 23.60200 27.48600
H  -2.43000 24.40300 25.41200
H  -1.12700 24.48500 24.15400
H  -0.71500 24.13800 25.80500
H  -0.32900 18.11700 21.94500
H  -1.66500 15.59100 21.91100
H  -3.10300 17.26800 21.44200
H  -1.93500 17.90500 20.30000
H  -2.81600 18.97100 21.42200
H  0.76200 16.21100 21.48500
H  0.25200 14.63800 21.71500
H  0.98800 15.22500 24.37400
H  2.29800 16.07900 23.53800
H  1.96800 14.45700 23.11700
H  -1.48900 11.63100 25.18300
H  -3.15800 11.58000 25.63800
H  -1.83500 10.96700 26.80400
H  -3.11700 13.64500 30.98200
H  0.86600 13.23600 33.01200
H  0.10400 11.80400 33.57900
H  -0.51600 13.47100 34.01500
Mg 30.49800 57.60400 39.68600
C  27.68600 55.51100 38.59800
C  32.54100 54.82600 38.52000
C  32.92300 59.54800 39.55100
C  28.25200 60.23500 39.98500
N  30.09200 55.39200 38.46500
C  28.88200 54.83100 38.35500
C  29.00300 53.33100 38.04500
C  30.58900 53.12900 38.01800
C  31.13700 54.52700 38.35900
C  31.11900 52.01000 39.00600
C  28.33100 52.98600 36.57900
C  28.66500 53.71300 35.24300
H  27.63800 54.59400 34.46900
N  32.53300 57.21100 39.28300
C  33.14800 56.11400 38.74800
C  34.58100 56.43200 38.66300
C  34.71700 57.78600 38.91100
C  33.37300 58.23300 39.30700
C  35.55500 55.41000 38.41400
C  35.95600 58.59500 38.70400
O  36.96700 58.09900 38.16100
C  36.09000 60.06600 39.09000
N  30.55400 59.59200 39.64100
C  31.77300 60.22900 39.73900
C  31.67400 61.76100 39.78400
C  30.12700 61.99800 39.95300
C  29.57500 60.55000 39.85000
C  32.50500 62.54000 40.80600
C  29.45800 62.81100 38.73800
C  29.11800 64.24200 38.97900
N  28.36600 57.84200 39.45000
C  27.65500 59.02900 39.72800
C  26.31200 58.70700 39.58700
C  26.22200 57.40200 39.16800
C  27.52700 56.86300 39.08400
C  25.16200 59.71700 39.87500
C  25.36200 56.31600 38.85500
O  24.14500 56.31100 38.87100
C  26.21900 55.07200 38.45300
C  25.89600 53.99400 39.36100
O  26.27800 53.97300 40.50500
O  24.93700 53.17200 38.89900
C  24.11400 52.22300 39.76400
H  33.16200 53.94300 38.35500
H  33.64500 60.35600 39.41500
H  27.58000 61.07700 40.16500
H  28.37100 52.68600 38.65500
H  30.94100 52.87700 37.01800
H  31.41000 52.50500 39.93300
H  31.90300 51.39800 38.56000
H  30.27200 51.33800 39.14900
H  27.26200 53.17900 36.67300
H  28.47900 51.94800 36.28300
H  28.97000 53.00900 34.46900
H  29.54400 54.30400 35.50200
H  36.04100 55.52400 37.44500
H  35.20400 54.37800 38.41700
H  36.22800 55.42700 39.27100
H  37.07300 60.53000 39.01300
H  35.62900 60.32600 40.04300
H  35.50200 60.67900 38.40700
H  31.89300 62.14500 38.78700
H  29.81600 62.40900 40.91400
H  31.93600 63.17500 41.48600
H  33.25400 63.09500 40.24100
H  33.01100 61.83600 41.46600
H  28.50200 62.37500 38.44800
H  30.14900 62.81000 37.89600
H  29.08800 64.70200 37.99100
H  29.99900 64.66500 39.46100
H  28.13400 64.39600 39.42200
H  25.32300 60.53600 39.17500
H  25.23400 60.07100 40.90400
H  24.22400 59.16300 39.91700
H  25.78100 54.98700 37.45900
H  23.29500 51.78700 39.19200
H  23.71700 52.82500 40.58100
H  24.68300 51.42100 40.23400

