158

Mg 44.35200 5.07200 47.54700
C  42.04000 7.81100 47.51600
C  41.66800 2.97900 47.03000
C  46.56400 2.66200 46.93400
C  46.92000 7.45300 47.18700
N  42.15200 5.34100 47.45100
C  41.46900 6.56400 47.39900
C  39.92600 6.31100 47.39000
C  39.83000 4.68100 47.35700
C  41.29800 4.30100 47.28000
C  38.93800 4.07100 48.50300
C  39.11800 6.99200 46.23800
C  40.03600 7.17700 45.00700
H  39.43900 6.69500 43.66900
N  44.18200 3.04000 47.16200
C  42.97500 2.35200 46.97100
C  43.25500 1.01600 46.62100
C  44.64000 0.89900 46.46000
C  45.18700 2.20600 46.86800
C  42.18400 -0.01900 46.32700
C  45.30400 -0.40900 45.95800
O  44.74200 -1.52000 45.77900
C  46.73200 -0.31500 45.57200
N  46.44400 5.03100 47.17100
C  47.16300 3.88300 46.99900
C  48.65000 4.04000 47.12200
C  48.73300 5.59100 46.92400
C  47.30700 6.10800 47.08900
C  49.24000 3.60300 48.47700
C  49.24900 5.93900 45.51400
C  50.62200 5.48400 45.16300
N  44.50400 7.16300 47.37300
C  45.63100 7.97700 47.28500
C  45.18700 9.33000 47.24200
C  43.81900 9.33400 47.44600
C  43.38500 7.98700 47.44900
C  46.11600 10.52100 47.15100
C  42.62100 10.14900 47.65200
O  42.51400 11.38100 47.73700
C  41.42400 9.24300 47.66000
C  40.58500 9.44700 48.90600
O  40.60300 8.74300 49.91400
O  39.52500 10.32100 48.63700
C  38.27600 10.22300 49.47600
H  40.81400 2.33300 46.81600
H  47.34300 1.90200 46.83900
H  47.81300 8.05100 46.99300
H  39.48600 6.65900 48.32400
H  39.45700 4.37200 46.38100
H  39.55700 3.63300 49.28700
H  38.31800 3.22400 48.21200
H  38.29100 4.81100 48.97400
H  38.76600 7.99200 46.49100
H  38.24300 6.39500 45.98000
H  41.04900 6.78700 45.09800
H  40.12600 8.26200 44.96900
H  41.15300 0.26400 46.54000
H  42.34400 -0.93300 46.89900
H  42.22500 -0.24300 45.26000
H  46.95300 -1.13900 44.89400
H  47.29700 -0.57300 46.46700
H  47.04000 0.59800 45.06200
H  49.04700 3.62200 46.19600
H  49.40400 6.01400 47.67200
H  49.93900 4.31300 48.92100
H  49.67300 2.60300 48.48600
H  48.44600 3.45300 49.20800
H  49.15100 7.02400 45.47700
H  48.48200 5.56000 44.83900
H  51.12900 4.72100 45.75400
H  51.15200 6.43600 45.17800
H  50.70200 5.12900 44.13500
H  45.62900 11.49400 47.07500
H  46.69600 10.42200 46.23300
H  46.83300 10.35600 47.95500
H  40.87500 9.53900 46.76500
H  38.27400 11.08400 50.14400
H  38.25900 9.41100 50.20400
H  37.38800 10.13300 48.85100
Mg -2.00500 33.50300 27.37400
C  -3.74800 31.49800 29.48000
C  -0.79400 35.29300 30.15900
C  -0.29800 35.77300 25.34500
C  -3.32900 32.16500 24.63700
N  -2.45000 33.56600 29.59600
C  -3.09800 32.54600 30.20000
C  -2.93400 32.65800 31.75200
C  -1.83500 33.72200 31.98600
C  -1.76300 34.32800 30.54600
C  -2.18000 35.02000 32.87900
C  -2.64900 31.27800 32.50900
C  -3.41000 30.96200 33.75500
H  -2.58300 30.76100 35.02500
N  -0.78400 35.34700 27.75600
C  -0.37300 35.84500 28.91500
C  0.52800 36.93400 28.70600
C  0.74600 37.10400 27.30700
C  -0.12400 36.07900 26.73100
C  1.05700 37.83400 29.82500
C  1.70400 38.13300 26.60700
O  1.84000 38.14700 25.41000
C  2.56300 39.01800 27.37400
N  -1.93500 33.99800 25.34000
C  -1.16300 34.89200 24.69900
C  -1.16600 34.77800 23.16100
C  -1.97000 33.42600 22.96100
C  -2.44700 33.21000 24.39200
C  -1.83700 35.96000 22.47700
C  -1.11800 32.24400 22.43200
C  -1.46100 31.77800 21.05300
N  -3.39600 32.15500 27.07100
C  -3.81400 31.60100 25.89900
C  -4.78700 30.55900 26.15900
C  -4.78700 30.40500 27.58300
C  -3.90000 31.40500 28.09500
C  -5.44200 29.76300 25.13700
C  -5.26300 29.68400 28.70600
O  -6.05200 28.71100 28.70500
C  -4.66400 30.35200 29.94400
C  -5.74800 30.78300 30.90700
O  -6.51400 31.79200 30.87500
O  -5.81100 29.73000 31.81200
C  -6.94300 29.62400 32.73200
H  -0.26700 35.70100 31.02300
H  0.17200 36.51500 24.69600
H  -3.51800 31.52900 23.76900
H  -3.87500 33.07000 32.11800
H  -0.94500 33.23200 32.37800
H  -2.61200 35.83700 32.30200
H  -1.29100 35.37700 33.39700
H  -2.84000 34.60400 33.64100
H  -1.57700 31.24700 32.69900
H  -2.79200 30.45300 31.81100
H  -3.86700 30.00100 33.51600
H  -4.32400 31.55300 33.81700
H  2.09800 37.58100 30.02800
H  0.42900 37.55400 30.67100
H  1.03500 38.89900 29.59200
H  2.04100 39.74900 27.99100
H  3.21000 39.51000 26.64700
H  3.21100 38.35800 27.95000
H  -0.12600 34.68700 22.84800
H  -2.89800 33.68000 22.44800
H  -2.59100 36.32700 23.17400
H  -2.44600 35.73500 21.60200
H  -1.09000 36.73200 22.29000
H  -1.13200 31.41000 23.13400
H  -0.09300 32.61100 22.37600
H  -1.87800 30.77900 20.93400
H  -0.55600 31.74600 20.44600
H  -2.11500 32.47500 20.52900
H  -6.29700 30.34900 24.79700
H  -5.76600 28.79100 25.50800
H  -4.72600 29.64700 24.32300
H  -4.03200 29.59600 30.41100
H  -6.50200 29.65000 33.72800
H  -7.40100 28.63800 32.65900
H  -7.71500 30.38200 32.59400

