158

Mg 25.25000 51.00400 26.94800
C  22.94300 51.93800 29.33900
C  27.51500 50.17100 29.45600
C  27.83200 50.57400 24.59400
C  23.21200 52.14500 24.43800
N  25.22900 51.18100 29.10400
C  24.13100 51.46800 29.93000
C  24.42000 51.33300 31.45900
C  25.94100 50.69400 31.37200
C  26.26700 50.70700 29.89500
C  26.98200 51.56500 32.17200
C  23.44000 50.43400 32.33800
C  23.96900 50.03700 33.68300
H  23.37700 50.71800 34.95600
N  27.30000 50.31800 27.00100
C  27.98500 49.95100 28.15200
C  29.27000 49.41200 27.78700
C  29.31100 49.39100 26.40500
C  28.09700 50.11600 25.90500
C  30.29800 48.91300 28.76300
C  30.41500 48.89600 25.50300
O  30.43000 49.12300 24.31800
C  31.63500 48.07100 26.04200
N  25.58000 51.41600 24.84700
C  26.65500 51.11600 24.10100
C  26.47200 51.60300 22.63900
C  24.95300 51.91200 22.61300
C  24.54700 51.79200 24.00400
C  27.31200 52.83800 22.18400
C  24.13000 51.06900 21.72300
C  24.19300 51.42200 20.25300
N  23.50000 51.90800 26.86200
C  22.74800 52.21100 25.76300
C  21.37600 52.49600 26.23100
C  21.46500 52.57200 27.58400
C  22.74600 52.09900 27.93800
C  20.21800 52.94100 25.39200
C  20.70000 52.81100 28.78800
O  19.58800 53.24600 28.96700
C  21.68300 52.50900 29.97100
C  21.92400 53.79100 30.70000
O  22.28400 54.80900 30.16500
O  21.45000 53.64500 31.99200
C  21.44700 54.93900 32.71300
H  28.10100 49.79400 30.29700
H  28.57900 50.44900 23.80700
H  22.49700 52.42000 23.66000
H  24.24800 52.36200 31.77300
H  25.97300 49.69600 31.80900
H  27.89800 51.63400 31.58500
H  27.23900 51.15800 33.15000
H  26.60100 52.57800 32.30200
H  23.31500 49.46600 31.85300
H  22.47400 50.93800 32.35200
H  24.96000 50.46900 33.81800
H  23.99300 48.95300 33.79400
H  30.10900 49.17500 29.80400
H  31.25600 49.39300 28.55900
H  30.35500 47.82500 28.74800
H  31.20200 47.32700 26.71100
H  32.27400 48.75600 26.59800
H  32.22700 47.43200 25.38600
H  26.72500 50.87100 21.87200
H  24.76000 52.93800 22.29900
H  27.76000 53.38900 23.01000
H  26.80100 53.48100 21.46700
H  28.25200 52.57100 21.70200
H  23.05900 51.04300 21.92400
H  24.60400 50.08700 21.72000
H  24.01200 50.47600 19.74200
H  25.05100 52.05400 20.02500
H  23.29200 51.98300 20.00400
H  20.31300 52.60900 24.35800
H  20.19200 54.02500 25.50100
H  19.31600 52.57600 25.88300
H  21.18800 51.84400 30.67900
H  22.13300 55.69800 32.33600
H  21.55700 54.80200 33.78800
H  20.43800 55.33800 32.61200
Mg -0.28200 43.66400 24.38500
C  1.46200 43.21500 27.36000
C  -3.21600 43.00400 26.03300
C  -1.87300 43.35000 21.30900
C  2.77600 43.88200 22.61600
N  -0.81500 43.31400 26.50300
C  0.10400 43.14000 27.51900
C  -0.60400 42.78800 28.75100
C  -2.13500 42.63800 28.29700
C  -2.07600 42.95500 26.85000
C  -2.67600 41.23200 28.61400
C  -0.42600 43.80200 29.97600
C  -0.39700 43.22100 31.44100
H  -0.71800 41.76600 31.75500
N  -2.28000 43.37400 23.82500
C  -3.35500 43.19000 24.63000
C  -4.55100 43.26200 23.91500
C  -4.17300 43.22300 22.53600
C  -2.71700 43.32200 22.48500
C  -5.94700 43.20100 24.54900
C  -5.09300 43.12800 21.34500
O  -4.68800 43.27000 20.22400
C  -6.56600 42.64600 21.52600
N  0.31100 43.59400 22.35800
C  -0.47200 43.44000 21.25900
C  0.25000 43.40500 19.91400
C  1.63500 43.71700 20.33300
C  1.55200 43.68500 21.88700
C  0.05000 42.11800 19.02900
C  2.26600 45.01100 19.76000
C  1.50500 46.37100 19.86200
N  1.79500 43.52000 24.82800
C  2.89100 43.69800 23.99400
C  4.10200 43.63400 24.87100
C  3.58500 43.45600 26.16900
C  2.16700 43.38800 26.11600
C  5.62200 43.64400 24.43900
C  3.93000 43.28400 27.54500
O  4.98300 43.18500 28.10500
C  2.58900 43.06800 28.35000
C  2.71700 41.87800 29.16800
O  2.65300 40.75100 28.70800
O  3.00900 42.23200 30.44800
C  3.39700 41.19200 31.34400
H  -4.13400 42.89600 26.61400
H  -2.38200 43.15200 20.36400
H  3.64100 43.92300 21.95100
H  -0.22600 41.86100 29.18300
H  -2.85600 43.33300 28.72900
H  -1.94100 40.42900 28.65800
H  -3.40200 40.92700 27.86000
H  -3.06900 41.27200 29.63000
H  -1.29700 44.45600 29.94800
H  0.38200 44.49500 29.74000
H  -1.05600 43.86100 32.02700
H  0.64500 43.34800 31.73400
H  -6.43300 42.24500 24.35500
H  -6.54400 43.98000 24.07500
H  -6.07800 43.46500 25.59900
H  -7.22000 43.47800 21.78700
H  -6.63800 41.76000 22.15700
H  -6.82500 42.11200 20.61200
H  -0.15500 44.20300 19.29200
H  2.35200 42.95400 20.03100
H  0.72800 41.39700 19.48500
H  0.21800 42.34800 17.97700
H  -0.96000 41.73100 19.16900
H  2.42600 44.93800 18.68400
H  3.23400 45.19900 20.22500
H  0.93200 46.83000 19.05600
H  2.15500 47.22700 20.04700
H  0.83300 46.44200 20.71800
H  6.05300 44.54600 24.87300
H  5.72100 43.62800 23.35400
H  6.13800 42.73900 24.75900
H  2.46800 43.91400 29.02600
H  4.16500 40.60000 30.84700
H  2.54700 40.53200 31.51500
H  3.76900 41.63900 32.26600

