158

Mg 0.42800 7.90300 25.42400
C  0.81200 9.83100 28.39100
C  0.68200 5.27600 27.31300
C  -0.04500 6.13400 22.63800
C  0.41900 10.90700 23.58100
N  0.93000 7.62400 27.60000
C  0.80400 8.49300 28.63000
C  0.91700 7.87700 29.95500
C  1.08600 6.36800 29.54200
C  0.86900 6.42200 28.01900
C  2.52500 5.80700 29.95000
C  -0.36800 8.07000 30.75400
C  -0.30600 7.95000 32.31400
H  1.05200 7.68700 32.98200
N  0.31800 5.92800 25.06100
C  0.41000 4.97800 25.98700
C  0.13000 3.64400 25.35700
C  -0.20200 3.89900 23.97900
C  0.10400 5.36200 23.83000
C  0.30300 2.29200 25.99200
C  -0.71300 2.95800 22.99600
O  -0.85400 3.31900 21.80800
C  -1.03000 1.50200 23.28800
N  0.36400 8.40400 23.39400
C  0.11200 7.48600 22.41000
C  0.09900 8.16400 20.98100
C  -0.15400 9.66700 21.40000
C  0.22300 9.72300 22.90200
C  1.32500 7.97500 20.13800
C  -1.59000 10.24900 21.17300
C  -1.74400 11.22600 20.02500
N  0.80200 9.90100 25.79400
C  0.59800 11.06900 24.97700
C  0.86400 12.26200 25.72900
C  0.98200 11.81200 27.05500
C  0.88500 10.41600 27.07500
C  0.98700 13.68800 25.27500
C  1.24800 12.16700 28.41200
O  1.61300 13.22600 28.80700
C  1.04200 10.92600 29.34800
C  2.35500 10.76400 30.01700
O  3.32100 10.16300 29.55300
O  2.36200 11.49300 31.19400
C  3.51100 11.25300 32.04000
H  0.85300 4.40800 27.95200
H  -0.30100 5.62600 21.70600
H  0.24900 11.82700 23.01700
H  1.74500 8.28200 30.53800
H  0.24500 5.81700 29.96400
H  3.17700 6.48400 30.50200
H  3.11000 5.52000 29.07600
H  2.36200 4.88300 30.50400
H  -1.17100 7.42700 30.39500
H  -0.71400 9.08800 30.57200
H  -1.00300 7.12700 32.47000
H  -0.73900 8.91300 32.58300
H  0.88300 2.41200 26.90700
H  0.91300 1.69800 25.31100
H  -0.63900 1.80500 26.24600
H  -1.86000 1.47800 23.99400
H  -0.15300 1.03600 23.73800
H  -1.35800 0.94500 22.41100
H  -0.74500 7.84000 20.37300
H  0.53500 10.30500 20.84700
H  1.27000 8.71300 19.33800
H  1.42600 6.97700 19.71200
H  2.17500 8.24400 20.76500
H  -2.05600 10.58400 22.09900
H  -2.21600 9.42100 20.83900
H  -1.37000 10.59900 19.21600
H  -0.98400 12.00300 20.10900
H  -2.77300 11.50500 19.79600
H  0.43100 14.40600 25.87800
H  0.97500 13.78800 24.19000
H  2.01700 13.94700 25.52000
H  0.17900 11.04700 30.00300
H  3.36900 11.64300 33.04800
H  4.28500 11.93100 31.68000
H  3.78300 10.19900 32.10100
Mg 48.00800 15.84700 27.85900
C  45.71200 15.80100 30.49900
C  50.00900 17.88300 29.70600
C  50.12200 15.82000 25.31900
C  45.63100 14.16300 25.81000
N  47.85800 16.81700 29.78800
C  46.88300 16.46800 30.76100
C  47.21500 17.12200 32.15900
C  48.39300 18.10300 31.69800
C  48.80900 17.59100 30.29100
C  48.08700 19.59100 31.60800
C  47.69700 15.99700 33.19600
C  47.12400 16.03700 34.67700
H  48.13400 15.86600 35.81400
N  49.88300 16.68700 27.57800
C  50.50800 17.49000 28.41300
C  51.79700 17.81400 27.87600
C  51.93100 17.15900 26.62700
C  50.62100 16.48500 26.43800
C  52.74400 18.75900 28.61200
C  53.02000 17.29800 25.59700
O  52.85600 16.82700 24.47400
C  54.30500 17.93600 25.88900
N  47.78000 15.31200 25.77100
C  48.83800 15.39200 24.96700
C  48.60300 14.75000 23.62200
C  47.21400 14.02000 23.80300
C  46.78700 14.52100 25.21500
C  48.77400 15.64500 22.33800
C  47.23900 12.52800 23.73800
C  47.79100 11.68400 22.58700
N  46.10200 15.22000 27.97300
C  45.25500 14.48600 27.13600
C  43.98900 14.24300 27.82400
C  44.16500 14.70300 29.12400
C  45.44900 15.24800 29.22200
C  42.76300 13.48800 27.31500
C  43.50300 14.86100 30.44800
O  42.37000 14.56100 30.77800
C  44.56900 15.46900 31.43900
C  44.08900 16.54300 32.26600
O  43.53600 17.56800 31.83200
O  44.39200 16.27700 33.57100
C  43.94900 17.35000 34.45100
H  50.73200 18.50400 30.24000
H  50.82900 15.81400 24.48600
H  44.93600 13.57400 25.20700
H  46.34300 17.68300 32.49400
H  49.26100 17.96300 32.34200
H  48.78400 20.15900 32.22500
H  47.06900 19.80300 31.93600
H  48.28200 20.00400 30.61800
H  48.77700 16.03200 33.33300
H  47.72300 15.03500 32.68400
H  46.32800 15.30700 34.82100
H  46.73600 17.05100 34.77300
H  53.61700 18.17500 28.90300
H  52.57100 19.19200 29.59700
H  52.97800 19.55400 27.90400
H  54.03000 18.94200 26.20500
H  54.83000 17.95800 24.93400
H  54.87200 17.35500 26.61700
H  49.30200 13.92800 23.46700
H  46.54400 14.27000 22.98000
H  48.20500 15.21900 21.51200
H  49.78600 15.45500 21.98100
H  48.70500 16.71200 22.54700
H  46.25800 12.08400 23.90700
H  47.92600 12.33400 24.56200
H  47.15300 10.98500 22.04600
H  48.68300 11.14700 22.91100
H  48.18900 12.37600 21.84500
H  43.02300 12.44100 27.46900
H  42.66800 13.69900 26.25000
H  41.80200 13.79100 27.73200
H  44.74400 14.58500 32.05300
H  44.38900 17.24200 35.44300
H  42.88000 17.15000 34.52600
H  44.14000 18.36600 34.10500

