158

Mg 42.53700 41.79100 26.26200
C  41.35200 43.94400 28.70200
C  43.66000 39.81000 28.71500
C  43.63100 39.58600 23.81700
C  41.72200 44.07900 23.79000
N  42.27500 41.77400 28.50200
C  41.83300 42.79800 29.22700
C  41.88800 42.39300 30.68600
C  42.67600 41.03800 30.74200
C  42.90900 40.87600 29.25700
C  44.01300 41.04700 31.62900
C  40.45000 42.30200 31.21800
C  40.24000 41.59200 32.53600
H  39.69900 42.48000 33.71800
N  43.48200 40.00200 26.27300
C  43.93400 39.40800 27.42300
C  44.59400 38.12400 27.00300
C  44.50200 38.02700 25.60200
C  43.88100 39.25400 25.15700
C  45.12900 37.17400 28.08200
C  44.80600 36.84900 24.67500
O  44.94800 36.91500 23.46900
C  45.10600 35.54200 25.32800
N  42.68200 41.85300 24.06600
C  43.19700 40.81300 23.32500
C  42.96700 41.11500 21.83700
C  42.16800 42.47600 21.81100
C  42.13600 42.84200 23.28800
C  44.25000 41.12300 20.95200
C  40.75400 42.31100 21.17400
C  39.83500 41.13300 21.71400
N  41.75600 43.65800 26.17400
C  41.47400 44.44600 25.11100
C  41.04800 45.81800 25.56600
C  40.94200 45.57800 26.96200
C  41.36600 44.27400 27.30400
C  40.62700 46.92300 24.78800
C  40.57900 46.20400 28.26100
O  40.26300 47.36800 28.47300
C  40.87500 45.17500 29.41100
C  41.86000 45.80200 30.37700
O  42.99700 46.18100 30.10200
O  41.27100 45.96600 31.64700
C  42.00700 46.75400 32.61700
H  44.01100 39.17600 29.53100
H  43.85500 38.97900 22.93700
H  41.27600 44.83000 23.13400
H  42.40900 43.12800 31.30000
H  42.01700 40.21800 31.02600
H  43.97900 41.96100 32.22300
H  44.91600 40.94500 31.02600
H  44.10600 40.21900 32.33100
H  39.73200 41.92200 30.49200
H  40.14800 43.31400 31.48700
H  41.20900 41.21600 32.86300
H  39.47600 40.84800 32.31100
H  46.11400 36.80700 27.79600
H  44.44300 36.35200 28.28900
H  45.21400 37.71700 29.02400
H  45.02300 34.83400 24.50400
H  44.21500 35.29500 25.90500
H  46.02800 35.54700 25.90900
H  42.34300 40.27600 21.52700
H  42.73000 43.24400 21.28000
H  44.49000 42.05900 20.44800
H  44.27800 40.36100 20.17300
H  45.11800 40.89600 21.57200
H  40.99800 42.08000 20.13800
H  40.23500 43.26800 21.12700
H  39.67900 40.35000 20.97300
H  38.88800 41.62400 21.93900
H  40.19900 40.63600 22.61300
H  39.54300 46.85300 24.69600
H  41.13100 46.84100 23.82500
H  40.95400 47.87500 25.20500
H  39.92600 45.17000 29.94700
H  41.31300 47.10100 33.38200
H  42.52100 47.66700 32.31600
H  42.74500 46.08900 33.06600
Mg 29.94900 57.50700 39.75400
C  27.10900 55.61400 38.90900
C  31.93200 54.74300 39.04300
C  32.59700 59.63600 39.53000
C  27.78000 60.45800 39.93000
N  29.57300 55.52100 39.06000
C  28.31300 54.92900 38.90900
C  28.41700 53.47100 38.58000
C  29.91900 53.09800 38.91300
C  30.54100 54.52300 39.01400
C  30.22500 52.22400 40.15600
C  27.98100 53.10900 37.18400
C  28.59800 53.97600 36.03400
H  27.69600 54.74000 35.02600
N  31.95700 57.23200 39.34200
C  32.58500 55.97700 39.10400
C  33.97400 56.24500 39.02000
C  34.19400 57.64100 39.11400
C  32.83900 58.25700 39.40200
C  34.98600 55.05500 38.86100
C  35.58300 58.23900 39.04800
O  36.52700 57.49400 38.90400
C  35.79800 59.71200 39.18000
N  30.16700 59.74800 39.72100
C  31.34500 60.35200 39.75200
C  31.25600 61.80600 40.11200
C  29.68900 62.05800 40.19400
C  29.12400 60.66800 39.95500
C  32.04800 62.23300 41.37400
C  29.11000 63.26200 39.35800
C  29.76500 64.64500 39.67000
N  27.89900 57.93400 39.70300
C  27.19200 59.15800 39.86000
C  25.78800 58.80900 39.83100
C  25.70500 57.42200 39.40800
C  27.02200 56.99200 39.33200
C  24.61000 59.82600 39.92800
C  24.76900 56.41100 38.95000
O  23.51300 56.36100 38.90500
C  25.65300 55.06200 38.75800
C  25.20900 54.08000 39.82700
O  25.54500 54.11500 40.98700
O  24.25700 53.28700 39.27300
C  23.59400 52.40000 40.16700
H  32.47300 53.82400 38.80900
H  33.42100 60.35100 39.47000
H  27.11400 61.32200 39.99100
H  27.78800 52.91800 39.27900
H  30.36600 52.54700 38.08600
H  31.11300 51.63200 39.93300
H  29.39300 51.57200 40.42400
H  30.43300 52.88100 41.00000
H  26.89300 53.05800 37.14700
H  28.32200 52.08400 37.03600
H  29.28400 53.36800 35.44300
H  29.18900 54.82900 36.36700
H  34.64500 54.34400 38.10900
H  35.11900 54.51500 39.79900
H  35.92800 55.34500 38.39600
H  35.14200 60.24900 38.49500
H  36.78800 59.95200 38.79300
H  35.72600 60.00000 40.22900
H  31.55800 62.41300 39.25900
H  29.40500 62.37500 41.19700
H  32.54600 61.36300 41.80100
H  31.38600 62.62200 42.14800
H  32.79700 62.99700 41.16600
H  28.09000 63.45900 39.68900
H  29.28500 63.06000 38.30100
H  30.79100 64.43700 39.97400
H  29.36700 65.20600 40.51600
H  29.77600 65.25300 38.76500
H  25.07100 60.70600 40.37700
H  23.79800 59.44300 40.54500
H  24.20700 60.10400 38.95400
H  25.40000 54.71900 37.75400
H  24.25600 51.88800 40.86600
H  22.99200 51.67900 39.61500
H  22.94500 53.04400 40.76100

