158

Mg -3.01000 16.49000 26.37800
C  -3.39400 14.28500 29.04100
C  -4.36200 18.91300 28.31100
C  -3.25300 18.50200 23.55800
C  -2.77100 13.71900 24.20800
N  -3.66200 16.52900 28.40800
C  -3.56700 15.56800 29.37900
C  -3.89600 16.10600 30.84700
C  -4.54800 17.47500 30.41700
C  -4.09300 17.68100 28.93700
C  -6.07200 17.42000 30.64800
C  -2.63600 16.28700 31.76100
C  -2.56400 15.38600 32.94700
H  -3.17900 16.01800 34.16600
N  -3.43500 18.43200 26.00900
C  -3.98500 19.28000 26.97200
C  -3.89000 20.64800 26.43900
C  -3.35600 20.58900 25.11700
C  -3.34200 19.10800 24.83100
C  -4.37700 21.85300 27.30100
C  -2.97000 21.69000 24.13500
O  -2.58600 21.41000 22.99900
C  -3.07700 23.09600 24.54800
N  -3.18300 16.16300 24.15200
C  -3.13000 17.15300 23.24100
C  -2.98800 16.63300 21.79800
C  -2.41600 15.17900 22.13500
C  -2.80600 15.00400 23.61100
C  -4.35400 16.58500 20.95600
C  -0.87300 15.05700 21.75000
C  0.09000 15.64100 22.79100
N  -3.00200 14.41700 26.47900
C  -2.94100 13.41300 25.51500
C  -3.04600 12.15100 26.09700
C  -3.15000 12.42200 27.44300
C  -3.20100 13.81600 27.63300
C  -3.13200 10.79500 25.43400
C  -3.24900 11.79200 28.70400
O  -3.07100 10.60500 29.06800
C  -3.53700 12.94000 29.78200
C  -2.51900 12.66200 30.82600
O  -1.37800 13.06600 30.87100
O  -3.04300 11.87800 31.83300
C  -2.11200 11.55100 32.87300
H  -4.72200 19.66000 29.02100
H  -3.11600 19.07100 22.63500
H  -2.59000 12.92200 23.48300
H  -4.64100 15.40500 31.22300
H  -4.21400 18.33500 30.99600
H  -6.34600 17.05300 31.63700
H  -6.68400 17.02600 29.83600
H  -6.35800 18.47100 30.60800
H  -2.63500 17.34500 32.02200
H  -1.74800 16.25900 31.13000
H  -1.50000 15.15800 33.01900
H  -3.10300 14.46500 32.72700
H  -5.14700 21.54700 28.00800
H  -4.88300 22.55800 26.64200
H  -3.58200 22.49400 27.68100
H  -2.51500 23.16800 25.47900
H  -4.10000 23.44300 24.69000
H  -2.69300 23.76400 23.77700
H  -2.34900 17.31200 21.23300
H  -3.09900 14.55700 21.55700
H  -5.09900 16.80600 21.72000
H  -4.77500 15.73600 20.41700
H  -4.37000 17.35900 20.18900
H  -0.73500 15.66500 20.85600
H  -0.62600 14.00400 21.60800
H  -0.45300 16.30100 23.46700
H  0.81600 16.29000 22.30200
H  0.49900 14.77100 23.30400
H  -2.97200 10.96300 24.36900
H  -4.15200 10.48500 25.66200
H  -2.37600 10.14000 25.86800
H  -4.52600 12.78900 30.21500
H  -2.64100 11.62600 33.82300
H  -1.23300 12.15800 33.08900
H  -1.73500 10.54200 32.70700
Mg 52.88800 23.71600 44.15400
C  49.93000 25.60700 44.04100
C  51.06800 20.94500 43.71800
C  55.78100 21.89600 43.99600
C  54.77000 26.67800 44.12900
N  50.67700 23.38900 43.84200
C  49.66200 24.22400 43.88400
C  48.35800 23.48400 43.59400
C  48.77900 22.03200 43.81200
C  50.32200 22.13100 43.70300
C  48.26600 21.44500 45.17400
C  47.70900 23.83200 42.18400
C  48.65100 23.89700 40.97400
H  48.03200 24.25100 39.64800
N  53.38200 21.70900 43.90800
C  52.41900 20.77000 43.71900
C  52.99600 19.46700 43.79500
C  54.43200 19.66200 43.78400
C  54.63600 21.13800 43.97700
C  52.19800 18.22800 43.58000
C  55.45800 18.53500 43.45000
O  55.01300 17.41700 43.42800
C  56.92800 18.66000 43.25200
N  54.93100 24.22800 43.90500
C  55.96600 23.28800 43.88400
C  57.33600 23.91100 43.88900
C  56.95700 25.44800 44.14900
C  55.46900 25.45900 44.08600
C  58.26000 23.34500 45.05400
C  57.50700 26.32800 43.06800
C  57.97700 27.69500 43.57700
N  52.55800 25.77000 44.14500
C  53.36400 26.86700 44.15400
C  52.61300 28.04800 44.37800
C  51.29000 27.64600 44.30600
C  51.28200 26.22900 44.10600
C  53.16800 29.42400 44.55800
C  49.96400 28.08400 44.28100
O  49.52200 29.21900 44.58600
C  49.05800 26.83900 44.06800
C  48.30900 26.93700 42.84500
O  48.78400 26.92900 41.72200
O  47.04900 27.17900 43.23900
C  46.20700 27.76300 42.21200
H  50.48500 20.04600 43.50500
H  56.68600 21.34000 44.24800
H  55.23700 27.66500 44.13700
H  47.62000 23.77000 44.34500
H  48.31200 21.45700 43.01400
H  47.66200 22.19900 45.67800
H  49.12600 21.15000 45.77600
H  47.76000 20.50800 44.94400
H  47.04700 24.69000 42.29800
H  47.06900 22.96900 41.99800
H  49.20700 22.97800 40.78800
H  49.37200 24.68500 41.18900
H  52.62100 17.22800 43.67800
H  51.85200 18.16100 42.54800
H  51.33800 18.32000 44.24400
H  57.31500 17.91400 42.55800
H  57.47800 18.63600 44.19300
H  57.07800 19.61300 42.74300
H  57.82200 23.68700 42.94000
H  57.28400 25.86100 45.10300
H  58.85700 22.56300 44.58500
H  57.67700 22.97100 45.89600
H  58.93400 24.13100 45.39300
H  56.74700 26.54100 42.31500
H  58.31100 25.78700 42.57000
H  59.02200 27.67000 43.27000
H  57.83300 27.89200 44.63900
H  57.56900 28.51600 42.98700
H  54.01200 29.31400 45.23900
H  52.35100 30.00800 44.98300
H  53.50000 29.82500 43.60000
H  48.41800 26.88800 44.94900
H  45.48700 26.96700 42.02400
H  46.74800 28.00000 41.29600
H  45.62900 28.54600 42.70300

