158

Mg 26.90600 50.93300 26.43000
C  24.93500 51.63900 29.10900
C  29.46900 49.89400 28.64300
C  29.00200 50.25300 23.86900
C  24.58400 52.32200 24.36600
N  27.11500 50.68200 28.49200
C  26.06700 50.89800 29.39700
C  26.49600 50.57800 30.82800
C  28.04600 50.46400 30.71100
C  28.28300 50.38200 29.18400
C  28.80900 51.55700 31.41100
C  25.70400 49.44300 31.40800
C  25.18800 49.46600 32.87800
H  26.18300 49.93500 33.94000
N  28.94100 50.27200 26.24600
C  29.79200 49.88300 27.27600
C  31.04000 49.38800 26.73900
C  30.89300 49.39000 25.27200
C  29.56000 49.95900 25.01600
C  32.12500 48.82600 27.64500
C  31.93700 48.82000 24.28400
O  31.79200 49.00800 23.05100
C  33.13200 48.21300 24.78900
N  26.84000 51.29700 24.44200
C  27.76600 50.90700 23.51700
C  27.18400 50.88100 22.07400
C  25.72500 51.48500 22.29900
C  25.69100 51.67100 23.85100
C  28.04400 51.30800 20.84100
C  24.50100 50.66000 21.79900
C  23.56900 51.24200 20.69600
N  25.03900 51.72400 26.56800
C  24.27400 52.36900 25.70400
C  23.07100 52.79600 26.40900
C  23.26500 52.62500 27.76100
C  24.52700 51.99000 27.81100
C  21.73000 53.38200 25.83300
C  22.79300 52.73700 29.11900
O  21.71000 53.17200 29.48500
C  23.85100 52.08600 30.09900
C  24.31000 53.15100 31.02100
O  24.87800 54.21800 30.76700
O  23.85500 52.75200 32.29400
C  23.91300 53.82000 33.31800
H  30.13700 49.53100 29.42700
H  29.53200 49.89000 22.98600
H  23.72800 52.37200 23.68900
H  26.22300 51.50300 31.33600
H  28.41500 49.56100 31.19700
H  29.35300 50.94000 32.12700
H  28.24200 52.33900 31.91700
H  29.47700 52.11300 30.75300
H  26.14900 48.44800 31.37400
H  24.80400 49.43900 30.79300
H  24.82400 48.45100 33.03800
H  24.31600 50.12100 32.87100
H  32.11700 47.73900 27.72800
H  32.16100 49.28000 28.63500
H  33.13200 49.00600 27.26900
H  32.88700 47.39800 25.47000
H  33.75300 48.99600 25.22500
H  33.56900 47.66500 23.95400
H  26.95700 49.81800 21.99800
H  25.76700 52.50600 21.91900
H  28.42700 50.36100 20.46100
H  28.87900 51.91100 21.19500
H  27.51800 51.99000 20.17300
H  23.86000 50.45100 22.65600
H  24.87900 49.73100 21.37500
H  23.71700 50.71800 19.75200
H  23.71300 52.32100 20.64100
H  22.60200 50.99600 21.13600
H  22.00800 54.41500 25.62300
H  21.00100 53.23000 26.62900
H  21.43900 52.81400 24.95000
H  23.43000 51.22300 30.61400
H  23.83800 54.85700 32.99100
H  24.79600 53.70300 33.94500
H  22.97900 53.73300 33.87400
Mg 9.96900 47.78400 26.05000
C  8.20900 47.67400 28.88500
C  12.48400 49.30700 27.76400
C  11.85000 47.74500 23.21100
C  7.30800 46.49300 24.27500
N  10.17000 48.46600 28.04200
C  9.42500 48.21800 29.09200
C  9.92800 48.77200 30.38700
C  11.06500 49.65200 29.87600
C  11.29200 49.08000 28.45000
C  10.82000 51.21100 29.86200
C  10.36700 47.74500 31.49500
C  9.79100 47.72400 32.90900
H  9.77200 46.36800 33.65100
N  11.89500 48.37500 25.55700
C  12.83500 48.85600 26.42500
C  14.07600 48.94500 25.77000
C  13.98000 48.35700 24.45300
C  12.53000 48.13400 24.34700
C  15.38900 49.46800 26.43900
C  15.03300 48.06300 23.28000
O  14.71700 47.74600 22.15100
C  16.45900 48.29400 23.51900
N  9.50400 47.59600 23.96100
C  10.47300 47.46800 23.04700
C  9.94100 47.28400 21.59700
C  8.59600 46.51200 21.93400
C  8.42500 46.82700 23.47700
C  9.77800 48.61500 20.87600
C  8.75400 45.06500 21.50200
C  9.94200 44.34500 22.21100
N  8.07700 47.33700 26.44200
C  7.09400 46.82300 25.64000
C  5.87400 46.66000 26.29700
C  6.24400 46.93300 27.65500
C  7.60300 47.30300 27.65400
C  4.51400 46.24800 25.84400
C  5.79500 47.05300 29.03100
O  4.67100 46.94500 29.53400
C  7.11400 47.35000 29.89200
C  7.39800 46.06100 30.59600
O  8.12600 45.19000 30.16500
O  6.75600 46.01200 31.83700
C  6.89500 44.77300 32.57000
H  13.21500 49.81200 28.39800
H  12.42000 47.69900 22.28100
H  6.50800 45.99800 23.72000
H  9.13700 49.39200 30.81000
H  12.00200 49.44700 30.39300
H  9.89000 51.39600 30.40000
H  10.76900 51.61000 28.84900
H  11.64400 51.72200 30.36000
H  11.45300 47.76200 31.58300
H  10.17000 46.82300 30.94700
H  8.83600 48.25000 32.92700
H  10.48800 48.32200 33.49600
H  15.10600 49.67500 27.47100
H  15.85200 50.31200 25.92800
H  16.11100 48.65200 26.47900
H  17.07100 48.36900 22.62000
H  16.85400 47.54200 24.20200
H  16.47900 49.26800 24.00800
H  10.60300 46.68800 20.97000
H  7.68800 46.93300 21.50100
H  10.29700 49.36700 21.47000
H  8.76000 48.96600 20.70600
H  10.22900 48.52100 19.88800
H  8.98900 45.00300 20.43900
H  7.81900 44.56500 21.75500
H  10.42100 43.62300 21.55000
H  9.50100 43.79200 23.04000
H  10.75000 44.97900 22.57700
H  3.73900 46.76000 26.41400
H  4.37100 45.18100 26.02000
H  4.38000 46.50400 24.79300
H  6.89200 48.14400 30.60600
H  7.01600 45.04100 33.61900
H  7.67000 44.08400 32.23200
H  5.92700 44.32000 32.35500

