158

Mg 23.80900 -6.76000 46.45100
C  26.12600 -4.58500 45.13300
C  21.55700 -5.47300 43.94600
C  21.60700 -9.34500 47.02700
C  26.29000 -8.54400 48.12700
N  23.85300 -5.30500 44.74100
C  24.90300 -4.46600 44.45200
C  24.61600 -3.40700 43.43900
C  22.99100 -3.41400 43.39900
C  22.74100 -4.78800 44.05300
C  22.32400 -2.31200 44.20000
C  25.34300 -3.58100 41.99800
C  26.27000 -2.46000 41.50300
H  26.11000 -1.95600 40.04700
N  21.83800 -7.24200 45.73500
C  21.12100 -6.59000 44.71700
C  19.76500 -7.06000 44.69300
C  19.70300 -8.17500 45.67100
C  21.05200 -8.30900 46.25600
C  18.67500 -6.64700 43.80500
C  18.41100 -9.00700 46.11400
O  17.29100 -8.65200 45.69500
C  18.46500 -10.09600 47.12800
N  23.88600 -8.67200 47.49500
C  22.86700 -9.50800 47.63800
C  23.31400 -10.76500 48.42300
C  24.83200 -10.49600 48.76200
C  25.00700 -9.10300 48.15800
C  22.43400 -11.07800 49.68500
C  25.81800 -11.48200 48.17700
C  26.56900 -12.20600 49.30300
N  25.71800 -6.51500 46.74800
C  26.64900 -7.33500 47.44300
C  27.94200 -6.73300 47.24500
C  27.76800 -5.62700 46.40500
C  26.41100 -5.62200 46.11400
C  29.29200 -7.33500 47.49600
C  28.41500 -4.53700 45.74100
O  29.64200 -4.18400 45.81200
C  27.39500 -3.87200 44.78600
C  27.40700 -2.44800 45.16900
O  26.89200 -1.91200 46.14300
O  28.21100 -1.82200 44.29700
C  28.41000 -0.37800 44.47100
H  20.80000 -5.01200 43.30800
H  20.88900 -10.12600 47.28400
H  27.14800 -9.03200 48.59400
H  24.95800 -2.48200 43.90300
H  22.56000 -3.41300 42.39800
H  21.99400 -1.56100 43.48300
H  23.12400 -1.84200 44.77200
H  21.45400 -2.57800 44.80100
H  24.52400 -3.70400 41.29000
H  25.87300 -4.52500 42.12300
H  27.32700 -2.56000 41.74900
H  25.87900 -1.56600 41.98800
H  18.27300 -5.68800 44.13300
H  17.93200 -7.41000 43.57300
H  19.04900 -6.48700 42.79400
H  17.45800 -10.45700 47.33500
H  18.74900 -9.52900 48.01400
H  19.06400 -10.91200 46.72300
H  23.20800 -11.55700 47.68200
H  25.09800 -10.18800 49.77300
H  22.95300 -10.89000 50.62400
H  22.13500 -12.12300 49.59600
H  21.57100 -10.42200 49.79400
H  26.57400 -11.10000 47.49100
H  25.32700 -12.25900 47.59200
H  26.37500 -13.27000 49.44100
H  26.38300 -11.75500 50.27700
H  27.63500 -12.16500 49.08200
H  29.11400 -8.09400 48.25800
H  29.98900 -6.57900 47.85700
H  29.51500 -7.89500 46.58800
H  27.86000 -3.95300 43.80300
H  27.48500 0.04900 44.86000
H  28.50200 0.10600 43.49800
H  29.13000 -0.12100 45.24800
Mg 6.68300 53.67900 41.69800
C  5.69400 50.21000 41.01600
C  9.74300 52.83700 40.68600
C  7.29800 56.88600 41.60400
C  3.29400 54.28900 42.46700
N  7.48600 51.79000 40.81300
C  6.94900 50.55000 40.63000
C  7.91500 49.57100 40.03500
C  9.33200 50.25700 40.42000
C  8.85500 51.73900 40.64700
C  10.10900 49.62900 41.64100
C  7.74700 49.14400 38.60000
C  7.46900 50.29300 37.52500
H  6.67500 50.04400 36.31400
N  8.19700 54.74000 41.07700
C  9.47800 54.21300 40.79100
C  10.37500 55.33400 40.56500
C  9.63900 56.50600 40.88100
C  8.32600 56.04100 41.22100
C  11.77000 55.17500 40.17500
C  10.28300 57.87100 40.71400
O  11.41600 58.11200 40.40700
C  9.53900 59.08300 41.00600
N  5.44100 55.37600 41.88400
C  5.99700 56.60900 41.97300
C  4.88000 57.64000 42.13700
C  3.61200 56.80200 42.55000
C  4.11300 55.36600 42.23000
C  5.26500 58.79500 43.11900
C  2.24300 57.08700 41.76900
C  1.59700 58.51300 42.10100
N  4.82000 52.50500 41.79700
C  3.55000 52.91300 42.21900
C  2.68800 51.72000 42.34200
C  3.49600 50.66800 41.82800
C  4.77100 51.20300 41.58800
C  1.22000 51.72600 42.89900
C  3.50100 49.28700 41.49200
O  2.59800 48.47000 41.51600
C  4.94400 48.93300 40.96700
C  4.81100 48.24700 39.61100
O  4.39600 48.74800 38.58700
O  4.91100 46.88200 39.81800
C  4.35900 46.01800 38.76900
H  10.78000 52.58500 40.45800
H  7.47600 57.96200 41.64300
H  2.30000 54.49700 42.86900
H  7.78100 48.70900 40.68900
H  10.04000 50.34500 39.59600
H  10.20200 50.39600 42.40900
H  11.06700 49.23100 41.30600
H  9.46200 48.81900 41.97800
H  7.06400 48.29900 38.51400
H  8.77200 48.79400 38.47600
H  8.42500 50.61400 37.11100
H  7.05400 51.20200 37.96200
H  12.37600 55.69900 40.91400
H  12.21700 55.54400 39.25200
H  12.10100 54.14900 40.33700
H  8.72700 59.16000 40.28400
H  10.01800 60.05900 40.92600
H  9.23100 58.97500 42.04600
H  4.71800 58.03200 41.13300
H  3.41700 56.80300 43.62200
H  4.48600 58.87000 43.87800
H  5.38000 59.72100 42.55500
H  6.18300 58.50400 43.62900
H  1.43200 56.42400 42.07000
H  2.50100 57.00600 40.71300
H  2.32700 59.12700 42.63000
H  0.69200 58.29000 42.66600
H  1.40700 58.93600 41.11500
H  0.49900 51.59900 42.09200
H  1.12500 52.71800 43.34300
H  1.30300 50.94700 43.65700
H  5.34700 48.31900 41.77200
H  4.88200 46.28300 37.85100
H  3.28600 46.20600 38.74400
H  4.45900 44.95100 38.96600

