158

Mg 41.24100 41.36900 26.67300
C  40.74700 44.11800 29.01900
C  41.87100 39.31700 29.35900
C  42.06500 39.10400 24.52000
C  41.14300 43.77200 24.19000
N  41.27500 41.73900 28.92600
C  40.91900 42.80900 29.64100
C  40.96600 42.55500 31.10700
C  41.43700 41.02600 31.32500
C  41.63600 40.70700 29.80200
C  42.74500 40.60500 32.12800
C  39.64700 42.86300 31.92500
C  39.81400 43.78900 33.19400
H  39.32100 43.25900 34.54800
N  41.80500 39.48300 26.93000
C  42.00500 38.80600 28.08700
C  42.41300 37.45800 27.82800
C  42.38400 37.33000 26.42300
C  42.07600 38.70300 25.88200
C  42.90200 36.42200 28.90400
C  42.58400 36.14000 25.53000
O  42.46600 36.17500 24.31700
C  43.12900 34.89700 26.08000
N  41.69200 41.39000 24.65000
C  41.85600 40.31200 23.94900
C  41.67800 40.56600 22.43500
C  41.35700 42.10600 22.35000
C  41.41600 42.48000 23.82900
C  42.90400 40.10300 21.57500
C  40.01100 42.48300 21.69700
C  38.69300 42.26200 22.46500
N  40.94900 43.53400 26.56500
C  41.00500 44.31700 25.45000
C  40.83100 45.66500 25.90600
C  40.78000 45.62500 27.31500
C  40.84100 44.32300 27.66700
C  40.79200 46.85300 25.09700
C  40.70600 46.40800 28.46600
O  40.69100 47.61900 28.62500
C  40.68600 45.42300 29.65800
C  41.81700 45.79500 30.52900
O  42.96600 45.34000 30.40400
O  41.42100 46.79900 31.37600
C  42.56200 47.30500 32.17500
H  42.06300 38.79000 30.29600
H  42.11900 38.45200 23.64600
H  41.05200 44.57000 23.45000
H  41.77400 43.09500 31.60000
H  40.67700 40.33200 31.68300
H  42.69300 39.60800 32.56500
H  42.70700 41.36100 32.91200
H  43.59500 40.70600 31.45200
H  39.26800 41.92100 32.32100
H  38.89300 43.39400 31.34300
H  39.15900 44.64900 33.05800
H  40.86100 43.98700 33.42400
H  43.92300 36.07400 28.74100
H  42.32200 35.50500 29.01100
H  42.89500 36.87400 29.89600
H  42.41600 34.49600 26.80000
H  44.01000 35.08700 26.69400
H  43.38000 34.22100 25.26200
H  40.76300 40.02000 22.20500
H  42.15900 42.62000 21.82000
H  43.64400 39.53700 22.14000
H  43.57300 40.77500 21.03700
H  42.52200 39.33300 20.90500
H  39.85400 42.01000 20.72800
H  40.06500 43.52700 21.38700
H  38.80100 42.03500 23.52600
H  38.17300 41.48800 21.90000
H  38.15800 43.20300 22.34300
H  40.04300 47.57100 25.42900
H  40.57100 46.69100 24.04200
H  41.75800 47.34700 24.98800
H  39.69700 45.61000 30.07500
H  43.34900 47.72400 31.54800
H  43.06900 46.48900 32.69000
H  42.28500 48.11200 32.85300
Mg -10.62600 16.66200 41.03100
C  -7.20800 16.80100 41.58200
C  -10.58500 19.94500 40.19500
C  -13.97400 16.41000 40.31400
C  -10.54100 13.13700 41.40900
N  -9.07800 18.09400 40.85800
C  -7.75900 17.96200 41.06000
C  -7.01600 19.27300 40.59600
C  -8.14900 20.28500 40.76500
C  -9.40000 19.38700 40.64300
C  -8.25300 21.07300 42.10500
C  -6.47600 19.16400 39.19400
C  -5.00300 18.87700 39.04700
H  -4.65000 17.85900 38.04800
N  -12.07500 18.00700 40.30400
C  -11.87000 19.31800 40.04500
C  -13.10000 19.91100 39.73400
C  -14.02400 18.85600 39.65900
C  -13.37800 17.64300 40.04500
C  -13.30000 21.42400 39.43500
C  -15.41300 19.05300 39.15400
O  -15.76800 20.22200 38.93100
C  -16.45200 17.95700 38.87600
N  -12.00300 14.91700 40.57000
C  -13.34000 15.13600 40.56200
C  -14.16800 13.86200 40.91200
C  -12.99800 12.75900 41.02800
C  -11.73900 13.62500 40.98700
C  -14.98000 14.05700 42.26000
C  -13.07000 11.59800 39.94200
C  -12.31800 11.83600 38.57700
N  -9.18800 15.20200 41.45000
C  -9.26500 13.81500 41.61200
C  -7.95400 13.29100 42.08700
C  -7.10200 14.48300 42.08500
C  -7.86300 15.53500 41.64300
C  -7.56900 11.84100 42.26700
C  -5.79900 15.00500 42.39800
O  -4.80800 14.42800 42.77000
C  -5.89700 16.55900 42.15500
C  -5.72200 17.40500 43.40400
O  -4.95700 18.35900 43.49500
O  -6.52600 16.95800 44.40800
C  -6.15900 17.39300 45.78900
H  -10.49900 21.01600 40.00100
H  -15.06500 16.36500 40.35300
H  -10.57200 12.07300 41.65300
H  -6.09400 19.40600 41.16100
H  -8.24800 21.05600 40.00200
H  -7.30600 20.81900 42.58200
H  -9.03400 20.82400 42.82300
H  -8.24900 22.14500 41.91100
H  -6.57800 20.15700 38.75700
H  -7.01200 18.38000 38.65900
H  -4.64800 18.40700 39.96400
H  -4.54300 19.83000 38.78500
H  -13.74000 21.47700 38.43900
H  -12.33800 21.93600 39.47200
H  -13.94000 21.87100 40.19600
H  -15.94500 17.22500 38.24700
H  -17.20600 18.40400 38.22800
H  -16.93900 17.50500 39.74000
H  -14.88700 13.63800 40.12500
H  -12.84600 12.31900 42.01400
H  -14.69000 14.96000 42.79800
H  -14.96700 13.11900 42.81500
H  -16.01900 14.21800 41.97300
H  -14.13900 11.50500 39.75300
H  -12.67500 10.76900 40.52900
H  -13.06000 11.98600 37.79400
H  -11.72200 10.94300 38.38900
H  -11.67000 12.71200 38.60600
H  -7.83400 11.28200 41.37000
H  -8.13200 11.40600 43.09300
H  -6.49800 11.87200 42.46900
H  -5.06200 16.73200 41.47600
H  -6.80300 18.20200 46.13300
H  -5.19100 17.89500 45.80000
H  -5.95300 16.57600 46.48100

