158

Mg 47.80200 33.83100 27.02900
C  46.05300 32.69200 29.81800
C  48.33000 36.93700 28.75700
C  49.28600 35.00000 24.27800
C  47.28500 30.74500 25.43200
N  47.11800 34.79200 29.04500
C  46.54400 34.05700 30.02700
C  46.71100 34.79300 31.40900
C  47.20400 36.22600 30.95100
C  47.56800 35.98300 29.49700
C  46.04300 37.35900 31.00200
C  47.71100 33.96400 32.21000
C  47.66800 34.18400 33.72100
H  46.88000 35.46300 34.14600
N  48.70800 35.65800 26.61800
C  48.83900 36.76300 27.44100
C  49.55200 37.76000 26.76300
C  49.69200 37.28000 25.43500
C  49.18200 35.92100 25.39400
C  50.00600 39.07600 27.34200
C  50.51100 37.93900 24.31600
O  50.89300 37.37400 23.28000
C  50.84400 39.35400 24.38900
N  48.13500 33.01600 25.13900
C  48.74400 33.70700 24.20100
C  48.80600 32.95000 22.93500
C  48.54400 31.50900 23.40100
C  47.88500 31.73200 24.69200
C  47.83100 33.48800 21.88300
C  49.75200 30.55300 23.61800
C  51.22500 31.09900 23.64300
N  46.82000 32.06500 27.44700
C  46.65400 30.94600 26.70200
C  45.88500 30.03800 27.47500
C  45.62500 30.62000 28.71700
C  46.25300 31.90500 28.64400
C  45.59500 28.60700 27.05400
C  45.09500 30.36800 30.01200
O  44.55000 29.38700 30.51800
C  45.03300 31.85900 30.63000
C  45.05200 31.80200 32.14500
O  45.95200 31.35400 32.80100
O  43.92900 32.38300 32.65700
C  43.85300 32.41200 34.17800
H  48.49700 37.87600 29.29000
H  49.76600 35.38300 23.37500
H  47.19100 29.77100 24.94800
H  45.77700 34.88900 31.96200
H  48.07700 36.45100 31.56500
H  46.60200 38.24800 31.29300
H  45.27300 37.08900 31.72400
H  45.53000 37.76700 30.13100
H  48.71600 34.21700 31.87400
H  47.58700 32.88900 32.07900
H  48.70200 34.27900 34.05100
H  47.16700 33.37000 34.24600
H  50.95700 39.38400 26.90800
H  50.15500 39.00700 28.42000
H  49.26700 39.84900 27.13600
H  50.03300 39.89400 24.87800
H  51.06200 39.69100 23.37600
H  51.77200 39.45400 24.95200
H  49.80400 32.96700 22.49600
H  47.80800 30.95300 22.81900
H  48.22000 33.51000 20.86500
H  47.53700 34.53000 22.01000
H  46.94600 32.85400 21.94000
H  49.82500 29.72800 22.90900
H  49.54500 29.95300 24.50400
H  51.46500 31.20300 22.58500
H  51.81000 30.33000 24.14600
H  51.20700 32.04300 24.18700
H  46.44400 28.28900 26.45000
H  44.63200 28.54700 26.54700
H  45.52200 28.00500 27.96000
H  43.98200 32.09500 30.46100
H  44.54200 31.72400 34.66700
H  42.85100 32.05100 34.41000
H  43.84000 33.48100 34.39000
Mg -4.74900 24.86800 26.84900
C  -3.60300 26.89300 29.58800
C  -5.97300 22.60800 29.11500
C  -5.83800 23.02900 24.21400
C  -3.55700 27.33300 24.74600
N  -4.87200 24.85800 29.07600
C  -4.34500 25.75100 30.02500
C  -4.75600 25.26700 31.44600
C  -5.25900 23.80800 31.25500
C  -5.34600 23.73600 29.72500
C  -4.39800 22.69800 31.89000
C  -5.90800 26.24600 32.04000
C  -5.86400 26.51200 33.54500
H  -5.70200 25.18800 34.28600
N  -5.58700 23.00100 26.66400
C  -6.06800 22.30500 27.76300
C  -6.66100 21.02200 27.25100
C  -6.64900 21.16600 25.83000
C  -5.97600 22.40600 25.46400
C  -7.30800 19.96200 28.07800
C  -7.11400 20.19100 24.75300
O  -6.73000 20.30400 23.55900
C  -7.76600 18.87300 25.13800
N  -4.74700 25.17200 24.72200
C  -5.35200 24.30700 23.87300
C  -5.47500 24.90800 22.46900
C  -4.55600 26.21400 22.66600
C  -4.32000 26.29100 24.11200
C  -4.96800 23.99500 21.29600
C  -5.05500 27.56200 22.08200
C  -5.67000 27.43200 20.67200
N  -3.63600 26.61300 27.01800
C  -3.24900 27.56800 26.10300
C  -2.54500 28.66200 26.66800
C  -2.66700 28.43700 28.10100
C  -3.33200 27.17500 28.22600
C  -1.71400 29.77000 25.96000
C  -2.28600 28.97900 29.38800
O  -1.61700 29.94800 29.69800
C  -2.90900 27.98500 30.43200
C  -1.78500 27.39800 31.30600
O  -0.91400 26.56500 30.99600
O  -1.96300 27.78200 32.58200
C  -0.91800 27.24300 33.51400
H  -6.41000 21.85600 29.77600
H  -6.29700 22.60000 23.32000
H  -3.20000 28.07000 24.02400
H  -3.85700 25.35600 32.05600
H  -6.21900 23.73100 31.76600
H  -4.87700 22.64400 32.86700
H  -3.33400 22.88900 32.02500
H  -4.53800 21.76600 31.34300
H  -6.87200 25.79700 31.80200
H  -5.91300 27.23800 31.58700
H  -6.75300 27.04100 33.88900
H  -4.99700 27.14700 33.72800
H  -6.83800 18.98000 28.02600
H  -8.34000 19.83900 27.74900
H  -7.54100 20.28800 29.09200
H  -8.00800 18.36500 24.20500
H  -8.78500 19.14700 25.41500
H  -7.24500 18.33600 25.93000
H  -6.53700 25.08800 22.29900
H  -3.61600 26.00100 22.15600
H  -4.34700 24.63500 20.66900
H  -5.82900 23.65000 20.72500
H  -4.33200 23.15900 21.58600
H  -4.23800 28.26900 21.93600
H  -5.74400 28.13100 22.70700
H  -5.05800 27.88000 19.88900
H  -6.67200 27.85500 20.74500
H  -5.92700 26.44500 20.28700
H  -1.96500 30.70500 26.46200
H  -2.09900 29.84900 24.94300
H  -0.65300 29.55600 26.09000
H  -3.55500 28.52700 31.12300
H  0.05900 27.20500 33.03100
H  -1.05300 26.18300 33.73100
H  -0.76900 27.95400 34.32700

