158

Mg 46.83400 17.12000 28.43100
C  45.28700 16.48100 31.53700
C  49.33600 18.66700 30.23000
C  48.11300 18.18500 25.47900
C  44.13700 15.69600 26.88000
N  47.22400 17.56600 30.65000
C  46.38900 17.24900 31.74200
C  47.01500 17.77400 33.05100
C  48.31600 18.46600 32.53800
C  48.31500 18.27800 31.03500
C  48.57700 19.95800 32.89300
C  47.29800 16.61300 34.06500
C  47.95300 16.85000 35.38200
H  47.54300 18.00300 36.28900
N  48.52100 18.15300 27.92500
C  49.45100 18.60100 28.80400
C  50.63200 18.96100 28.01100
C  50.31900 18.89400 26.63500
C  48.89500 18.44200 26.63000
C  51.92000 19.37700 28.64800
C  51.21000 19.09800 25.32600
O  50.71700 19.12400 24.21400
C  52.67100 19.46300 25.39000
N  46.36400 16.65800 26.50600
C  46.94000 17.35300 25.41500
C  46.24600 16.98000 24.17100
C  44.97900 16.27100 24.56900
C  45.16800 16.11100 26.06200
C  45.98500 18.11600 23.21100
C  44.59300 14.97700 23.87600
C  43.75900 15.24700 22.58100
N  45.08600 16.21900 29.01000
C  44.07600 15.61400 28.28800
C  42.97500 15.19200 29.12500
C  43.44800 15.49700 30.42500
C  44.72600 16.10500 30.27600
C  41.68000 14.51600 28.65100
C  43.12800 15.38100 31.88800
O  42.19200 14.89300 32.50100
C  44.26000 16.02300 32.59100
C  43.74800 17.12500 33.46000
O  43.23900 18.17800 33.08500
O  43.79200 16.68300 34.74500
C  43.01600 17.45900 35.73900
H  50.21100 18.99100 30.79800
H  48.34000 18.52500 24.46600
H  43.28000 15.17800 26.44400
H  46.27000 18.43500 33.49400
H  49.22100 17.92200 32.80900
H  48.17500 20.71300 32.21800
H  49.55500 20.32600 33.20200
H  48.01200 20.10200 33.81400
H  47.89500 15.87300 33.53300
H  46.30800 16.17600 34.19600
H  49.03600 16.77900 35.28000
H  47.49600 16.02300 35.92600
H  52.67100 18.62400 28.88500
H  51.66200 19.93600 29.54700
H  52.31700 20.14700 27.98500
H  52.68000 20.38700 25.96900
H  53.05600 19.53500 24.37300
H  53.20000 18.62800 25.84900
H  46.85100 16.21400 23.68700
H  44.09500 16.90300 24.48000
H  45.89000 19.07900 23.71400
H  45.08500 17.94900 22.61800
H  46.75100 18.31800 22.46200
H  43.91800 14.52700 24.60400
H  45.43900 14.38200 23.53300
H  43.85800 16.25900 22.18900
H  42.72000 15.05400 22.84700
H  44.08500 14.46400 21.89600
H  41.48600 14.72100 27.59900
H  40.92100 15.03400 29.23600
H  41.86600 13.44800 28.76600
H  44.63300 15.16200 33.14600
H  42.28400 16.67700 35.94000
H  42.53500 18.37800 35.40500
H  43.63700 17.58400 36.62600
Mg 7.04900 53.43700 41.91900
C  6.22700 50.00300 41.18500
C  10.28300 52.79900 40.68900
C  7.73700 56.69500 41.87600
C  3.60700 54.01800 42.32300
N  8.11100 51.61800 40.85000
C  7.57300 50.34500 40.91100
C  8.71300 49.34300 40.35700
C  10.01700 50.17200 40.46800
C  9.45100 51.62500 40.71600
C  11.00900 49.67100 41.56100
C  8.31600 48.78400 38.94100
C  7.42400 49.66000 38.05900
H  7.15900 49.14900 36.71200
N  8.80900 54.60100 41.38200
C  10.02000 54.18200 40.96300
C  10.96000 55.24000 40.92000
C  10.13600 56.36600 41.17900
C  8.79200 55.93400 41.49300
C  12.44400 55.01200 40.44400
C  10.63200 57.78300 41.04100
O  11.81500 58.02400 40.78900
C  9.73500 59.00100 41.08400
N  5.81200 55.11300 41.96900
C  6.40600 56.40200 42.13800
C  5.29900 57.37900 42.43800
C  4.04500 56.52600 42.62400
C  4.47900 55.13700 42.26700
C  5.52300 58.49200 43.50300
C  2.80800 57.05700 41.77600
C  1.40700 56.94400 42.41900
N  5.33200 52.30000 41.90100
C  3.97500 52.68200 42.09000
C  3.11900 51.51600 42.05800
C  4.05200 50.41500 41.84500
C  5.31100 50.99900 41.59300
C  1.62300 51.48000 42.33400
C  4.12500 49.01000 41.82700
O  3.26600 48.20700 42.13800
C  5.56700 48.61500 41.33300
C  5.39400 47.68400 40.11800
O  4.93000 47.99800 39.03100
O  5.59400 46.42300 40.54700
C  5.18900 45.31100 39.62300
H  11.33800 52.56400 40.53300
H  7.72100 57.78500 41.82200
H  2.52500 54.15000 42.39000
H  8.66200 48.53700 41.08900
H  10.56400 50.15300 39.52500
H  11.96900 49.30900 41.19500
H  10.57300 48.81100 42.07000
H  11.26700 50.41500 42.31500
H  7.76100 47.86300 39.12000
H  9.17800 48.42800 38.37700
H  7.98200 50.59400 37.99300
H  6.48400 49.93800 38.53800
H  12.41500 54.41700 39.53000
H  12.90900 54.39800 41.21500
H  13.10400 55.87600 40.36900
H  10.36800 59.88700 41.03700
H  9.40500 59.03000 42.12300
H  9.00700 58.99300 40.27300
H  5.24400 57.85200 41.45800
H  3.86900 56.44500 43.69600
H  5.55300 59.50300 43.09700
H  6.43900 58.36600 44.08000
H  4.67500 58.51600 44.18800
H  2.80400 56.66200 40.76100
H  3.02400 58.08400 41.48100
H  0.73100 56.44100 41.72700
H  1.01400 57.94300 42.61000
H  1.43900 56.40300 43.36500
H  1.48400 51.93400 43.31500
H  1.21800 50.46800 42.33500
H  1.14400 52.25700 41.73800
H  5.99200 48.03300 42.15100
H  5.68400 44.35600 39.79900
H  5.43700 45.64300 38.61500
H  4.11100 45.15000 39.66600

