158

Mg 16.85500 52.04100 26.88900
C  18.93600 50.54600 29.43900
C  14.48900 52.48600 29.20600
C  14.87400 53.17100 24.32200
C  19.18900 51.11500 24.48700
N  16.69100 51.27900 29.05600
C  17.72500 51.02200 29.95500
C  17.31700 51.33100 31.41200
C  15.80900 51.69400 31.29500
C  15.61500 51.84700 29.73200
C  14.84500 50.70900 31.95600
C  18.23700 52.37000 32.00400
C  18.65000 52.30000 33.42500
H  17.80100 51.41900 34.31900
N  14.98300 52.73300 26.75400
C  14.14000 52.83300 27.86200
C  12.97900 53.55900 27.46500
C  13.09900 53.84200 26.05700
C  14.39100 53.24700 25.63300
C  11.86800 54.00100 28.42900
C  12.13300 54.58500 25.17200
O  12.32300 54.68900 23.96900
C  10.87800 55.24400 25.70400
N  17.03100 51.98400 24.63400
C  16.05600 52.50900 23.80900
C  16.58100 52.62100 22.34200
C  17.92100 51.93400 22.46600
C  18.12100 51.66600 23.93900
C  15.61600 52.11100 21.28900
C  19.12600 52.78400 21.80700
C  19.98100 53.82500 22.61700
N  18.64500 51.06900 26.89100
C  19.48600 50.81400 25.85900
C  20.69200 50.24300 26.37700
C  20.48300 50.00200 27.72500
C  19.28100 50.59400 28.06600
C  21.86400 49.79900 25.51100
C  21.12100 49.58800 29.00700
O  22.19700 49.03600 29.23900
C  20.14800 49.99700 30.15300
C  19.79300 48.88800 31.06000
O  19.09700 47.93300 30.74200
O  20.58800 48.97500 32.22200
C  20.13000 48.03000 33.22900
H  13.82300 52.75500 30.02900
H  14.34800 53.65500 23.49700
H  19.92700 50.88500 23.71600
H  17.43100 50.42100 32.00200
H  15.73000 52.69500 31.71700
H  14.42600 50.09000 31.16200
H  14.11700 51.30900 32.50300
H  15.33400 50.11300 32.72600
H  17.98400 53.37200 31.65800
H  19.20000 52.21700 31.51800
H  18.54500 53.31400 33.81200
H  19.71900 52.11200 33.52200
H  12.39900 54.02800 29.38100
H  11.17900 53.16400 28.31500
H  11.39000 54.97400 28.32200
H  10.35400 55.80100 24.92800
H  11.20400 55.91200 26.50100
H  10.29800 54.36400 25.98300
H  16.79300 53.68200 22.21100
H  17.94100 50.93100 22.03900
H  16.06400 51.25200 20.78900
H  15.44500 52.68200 20.37600
H  14.68000 51.73300 21.69800
H  18.77000 53.26200 20.89400
H  19.83400 52.01000 21.51200
H  19.67500 53.66400 23.65100
H  19.74600 54.83300 22.27600
H  21.04300 53.57900 22.59300
H  21.32200 48.97900 25.04000
H  22.70700 49.46000 26.11400
H  22.09200 50.54800 24.75300
H  20.54900 50.85900 30.68600
H  20.36800 47.01600 32.90700
H  19.07800 48.02500 33.51200
H  20.67600 48.35500 34.11400
Mg -12.32300 37.99800 41.91500
C  -10.23300 35.40700 40.83300
C  -10.28000 40.21000 40.15200
C  -14.52800 40.41600 42.50500
C  -14.24700 35.69700 43.44200
N  -10.59400 37.73800 40.58100
C  -9.88900 36.61300 40.29400
C  -8.83800 36.86100 39.19400
C  -8.71200 38.43300 39.33900
C  -10.02200 38.87000 40.03900
C  -7.44200 38.84700 40.21300
C  -9.03200 36.23500 37.76900
C  -7.78800 35.47900 37.17200
H  -6.78600 36.37600 36.30500
N  -12.34400 40.12600 41.50000
C  -11.41300 40.76800 40.81600
C  -11.84800 42.16800 40.81200
C  -13.16400 42.30400 41.44800
C  -13.39000 40.91000 41.88800
C  -11.02900 43.14800 40.16700
C  -13.94200 43.54800 41.73400
O  -13.51800 44.66000 41.44000
C  -15.30800 43.54400 42.34900
N  -14.14100 38.05400 42.69100
C  -14.89200 39.14600 42.88500
C  -16.21100 38.80500 43.72600
C  -16.12800 37.24700 43.94200
C  -14.77700 36.98500 43.29900
C  -16.19100 39.64400 44.94000
C  -17.21300 36.39200 43.26900
C  -17.91500 35.33600 44.09200
N  -12.32400 35.90600 42.06900
C  -13.07800 35.13500 42.93000
C  -12.53600 33.76800 43.09600
C  -11.32600 33.80600 42.32200
C  -11.31800 35.10200 41.67900
C  -12.99700 32.64900 43.99600
C  -10.15500 33.17500 41.81800
O  -9.73400 32.03900 42.01700
C  -9.55300 34.07800 40.65400
C  -8.03000 34.14600 40.77100
O  -7.24200 34.79600 41.46200
O  -7.57000 33.17300 39.90800
C  -6.11900 33.07600 39.83200
H  -9.58200 40.87300 39.63700
H  -15.32200 41.15000 42.65400
H  -14.81400 34.91200 43.94600
H  -7.88000 36.49500 39.56300
H  -8.67000 38.93800 38.37400
H  -6.81200 38.05200 40.61300
H  -7.82300 39.39200 41.07600
H  -6.81500 39.55200 39.66700
H  -9.26100 36.93300 36.96300
H  -9.78500 35.44900 37.81400
H  -8.14200 34.64700 36.56300
H  -7.24100 35.01200 37.99100
H  -11.66200 43.98600 39.87600
H  -10.48000 42.86700 39.26800
H  -10.29700 43.40000 40.93400
H  -15.97600 42.91200 41.76300
H  -15.66400 44.56000 42.52300
H  -15.26400 43.09400 43.34000
H  -17.09500 39.08000 43.15100
H  -16.07200 37.05700 45.01300
H  -15.13000 39.75300 45.16900
H  -16.60100 39.05900 45.76300
H  -16.73200 40.58900 44.89600
H  -16.74200 35.80900 42.47700
H  -17.88900 37.08800 42.77300
H  -17.96100 35.52200 45.16500
H  -17.61700 34.28900 44.03000
H  -18.91000 35.25700 43.65500
H  -12.36200 31.77100 43.87500
H  -14.03600 32.39800 43.78400
H  -13.11400 32.98200 45.02700
H  -9.95400 33.66500 39.72900
H  -5.69800 32.67400 40.75400
H  -5.74500 34.08400 39.65300
H  -5.87300 32.29100 39.11700

