158

Mg 24.39900 -6.39300 46.61300
C  26.40900 -3.77500 45.27300
C  21.81300 -5.34800 44.34700
C  22.58400 -9.20600 47.25600
C  27.14100 -7.73800 48.15600
N  24.18500 -4.73300 45.14800
C  25.11800 -3.80200 44.74200
C  24.62900 -2.91700 43.59100
C  23.11200 -3.27800 43.48100
C  23.04000 -4.58100 44.37700
C  22.14700 -2.08400 43.80000
C  25.48200 -3.04600 42.33400
C  25.77800 -1.79500 41.57000
H  24.83900 -1.65300 40.36100
N  22.41600 -7.07100 45.99600
C  21.59200 -6.50700 45.05100
C  20.31400 -7.21000 45.07500
C  20.49900 -8.37100 45.91500
C  21.82800 -8.20800 46.46900
C  19.09500 -6.82300 44.24500
C  19.47000 -9.43900 46.21900
O  18.41400 -9.50100 45.60100
C  19.66700 -10.32100 47.35200
N  24.83400 -8.21200 47.48000
C  23.85300 -9.16900 47.81400
C  24.49300 -10.38400 48.60100
C  25.93700 -9.89100 48.88700
C  26.01000 -8.53900 48.14000
C  23.76000 -10.86100 49.86800
C  27.03600 -10.84900 48.48500
C  28.04100 -11.19500 49.68300
N  26.34100 -5.81500 46.85100
C  27.31700 -6.43000 47.56700
C  28.50100 -5.68200 47.52300
C  28.24600 -4.60100 46.61600
C  26.88400 -4.72700 46.20200
C  29.70500 -5.92600 48.36500
C  28.84200 -3.48700 45.95000
O  30.02900 -3.08800 45.94300
C  27.61100 -2.83200 45.06100
C  27.33500 -1.42200 45.45900
O  28.01600 -0.42200 45.23900
O  26.13100 -1.36400 46.23200
C  25.76200 0.02200 46.68200
H  21.00000 -5.03800 43.68800
H  22.11000 -10.18400 47.36200
H  27.98400 -8.20100 48.67300
H  24.94300 -1.97600 44.04100
H  22.91300 -3.55900 42.44700
H  22.79500 -1.32800 44.24300
H  21.38100 -2.31800 44.54000
H  21.60700 -1.75900 42.91200
H  25.06400 -3.88300 41.77400
H  26.48800 -3.35600 42.61500
H  26.82700 -1.67100 41.30100
H  25.52500 -0.85900 42.06800
H  18.16700 -7.20700 44.66800
H  19.32100 -7.26100 43.27300
H  18.94100 -5.78600 43.94600
H  20.23900 -11.21300 47.09500
H  18.66100 -10.64000 47.62400
H  20.15400 -9.84400 48.20300
H  24.56200 -11.17900 47.85900
H  26.03200 -9.69100 49.95500
H  22.95900 -11.48600 49.47400
H  23.31500 -9.97500 50.32200
H  24.39600 -11.38900 50.57700
H  27.53500 -10.44100 47.60500
H  26.57300 -11.78400 48.17000
H  27.99900 -12.23600 50.00400
H  28.05900 -10.45500 50.48400
H  29.02200 -11.04500 49.23300
H  29.32100 -6.00400 49.38200
H  30.44900 -5.14300 48.21700
H  30.23400 -6.80100 47.99000
H  28.01400 -2.67100 44.06100
H  25.62500 0.59900 45.76800
H  26.45600 0.44600 47.40800
H  24.78700 -0.10600 47.15300
Mg 25.85800 0.83600 29.15700
C  27.92500 0.01100 31.85900
C  23.36600 1.20600 31.46000
C  23.84600 1.67000 26.63900
C  28.41300 0.13700 26.91300
N  25.67500 0.63600 31.54800
C  26.69000 0.43300 32.39300
C  26.13300 0.53200 33.81200
C  24.63300 0.94000 33.69700
C  24.50900 0.85500 32.18900
C  23.67000 0.09200 34.47000
C  26.99800 1.49300 34.67600
C  26.41000 2.39000 35.80700
H  27.18600 2.41600 37.11300
N  23.86500 1.28800 29.04300
C  23.00300 1.38600 30.10100
C  21.71500 1.72100 29.54800
C  21.77900 1.96700 28.11800
C  23.20200 1.64500 27.87800
C  20.45600 1.73500 30.46200
C  20.66800 2.32300 27.06800
O  20.87300 2.21300 25.88300
C  19.27900 2.78400 27.45600
N  26.15000 1.08200 26.98200
C  25.10900 1.35800 26.20600
C  25.54000 1.31500 24.71500
C  27.00500 0.85900 24.85900
C  27.20900 0.65900 26.32500
C  24.63300 0.53800 23.76300
C  28.06700 1.80800 24.23300
C  28.14000 3.19200 24.86100
N  27.74400 0.19700 29.30500
C  28.61900 -0.10400 28.29300
C  29.85300 -0.43800 28.95200
C  29.67700 -0.44700 30.29700
C  28.30300 -0.02300 30.49700
C  31.15400 -0.85600 28.20900
C  30.27300 -0.62300 31.62500
O  31.40500 -0.72600 31.97300
C  29.13900 -0.38900 32.62600
C  28.92000 -1.63100 33.35000
O  28.45400 -2.62300 32.88700
O  29.14400 -1.36400 34.71900
C  28.55500 -2.37400 35.61500
H  22.51100 1.41400 32.10800
H  23.12400 1.94900 25.86900
H  29.23900 -0.05300 26.22500
H  26.21900 -0.45300 34.26900
H  24.42700 1.99200 33.89800
H  23.52800 -0.82300 33.89500
H  22.71800 0.53000 34.77000
H  24.13300 -0.21200 35.40900
H  27.31000 2.31400 34.03100
H  27.71800 0.94000 35.27900
H  25.38200 2.06300 35.96500
H  26.33300 3.42500 35.47200
H  20.60900 1.18600 31.39100
H  19.64000 1.22600 29.95000
H  20.17500 2.76800 30.67000
H  19.32900 3.24800 28.44100
H  18.64700 1.90000 27.54100
H  18.97800 3.50800 26.69900
H  25.65600 2.36900 24.46500
H  27.06000 -0.14300 24.43400
H  25.01700 -0.43400 23.45500
H  24.61800 1.16400 22.87100
H  23.68700 0.20000 24.18500
H  27.75000 1.86900 23.19200
H  28.99600 1.27500 24.03500
H  27.51700 3.76500 24.17500
H  29.16200 3.56900 24.89500
H  27.71600 3.28800 25.86100
H  31.42900 -0.12500 27.44900
H  30.93500 -1.78800 27.68700
H  31.89600 -1.15700 28.94900
H  29.40400 0.45500 33.26200
H  29.21000 -2.68200 36.43000
H  28.39800 -3.33600 35.12600
H  27.55000 -2.03900 35.86900

