158

Mg 0.28200 44.03200 26.85100
C  2.46700 43.64100 29.45300
C  -2.31600 43.23300 29.11000
C  -1.83800 43.67400 24.24800
C  2.96900 44.35900 24.64000
N  0.10900 43.42200 29.00500
C  1.15900 43.48400 29.88600
C  0.62700 43.48800 31.34100
C  -0.78900 43.04200 31.10900
C  -1.04800 43.29700 29.63800
C  -1.17500 41.60700 31.56200
C  0.74700 44.90300 31.90300
C  1.07100 45.03100 33.40500
H  0.89300 43.76600 34.26300
N  -1.82300 43.67900 26.71000
C  -2.69600 43.50400 27.78500
C  -4.04900 43.52800 27.26300
C  -3.94700 43.49800 25.83300
C  -2.49600 43.60000 25.53700
C  -5.35600 43.49500 28.15300
C  -5.08800 43.38400 24.88400
O  -4.94400 43.41800 23.62400
C  -6.48100 43.26900 25.38400
N  0.53500 43.70600 24.72800
C  -0.49000 43.80400 23.83300
C  -0.13400 44.07700 22.40100
C  1.32700 44.55100 22.61400
C  1.62200 44.22200 24.09100
C  -0.25600 42.88200 21.35100
C  1.50500 46.04400 22.43400
C  1.45100 46.56800 20.95100
N  2.33700 43.96100 26.99300
C  3.30100 44.19500 25.99900
C  4.57600 44.33400 26.64700
C  4.32000 44.03200 28.04500
C  2.96300 43.85200 28.12900
C  5.87000 44.83900 26.03500
C  4.88300 43.83400 29.36400
O  6.02700 43.95800 29.77800
C  3.70900 43.57300 30.31300
C  3.95300 42.29400 30.94100
O  4.00900 41.18300 30.44200
O  4.26500 42.68900 32.19600
C  4.81600 41.59000 33.05900
H  -3.08200 42.99400 29.85000
H  -2.40700 43.65600 23.31600
H  3.71400 44.63700 23.89200
H  1.17300 42.72000 31.88800
H  -1.46400 43.73200 31.61600
H  -1.72100 41.09300 30.77100
H  -1.80200 41.78700 32.43500
H  -0.25600 41.06100 31.77400
H  -0.11600 45.51600 31.64200
H  1.65500 45.29000 31.44000
H  0.48400 45.82700 33.86300
H  2.10800 45.35700 33.48200
H  -5.89800 42.58400 27.89900
H  -6.11500 44.27300 28.07000
H  -5.16700 43.51700 29.22700
H  -6.50700 42.22500 25.69900
H  -7.12700 43.20900 24.50800
H  -6.85000 44.01300 26.09000
H  -0.74100 44.88300 21.98800
H  1.98300 43.95800 21.97700
H  -1.13100 42.96400 20.70700
H  -0.36200 41.99400 21.97500
H  0.59700 42.75100 20.68500
H  2.43900 46.26400 22.95100
H  0.73700 46.61500 22.95700
H  0.64100 47.29000 20.84100
H  1.21300 45.73800 20.28600
H  2.41900 47.05300 20.82700
H  6.47500 45.35700 26.77900
H  5.79600 45.44200 25.13000
H  6.41400 43.95800 25.69400
H  3.69500 44.39800 31.02500
H  4.06600 40.80400 32.98300
H  4.78300 41.89300 34.10500
H  5.77600 41.21400 32.70400
Mg -12.33900 16.96200 40.08300
C  -8.69000 15.98300 39.94800
C  -11.11500 20.25800 39.69600
C  -15.32500 17.69300 39.47800
C  -12.98500 13.46300 39.76200
N  -10.16400 18.02000 39.78400
C  -8.94100 17.42900 39.78700
C  -7.86600 18.40000 39.55300
C  -8.57200 19.80000 39.86900
C  -10.04300 19.35600 39.75000
C  -8.23100 20.61200 41.06300
C  -7.12500 18.26900 38.13100
C  -5.67600 17.83900 38.30200
H  -4.99400 16.95700 37.25800
N  -13.13100 18.74400 39.75300
C  -12.53800 19.94800 39.59700
C  -13.54600 20.87000 39.27300
C  -14.81700 20.22700 39.30000
C  -14.51300 18.78200 39.51900
C  -13.28200 22.34800 39.08900
C  -16.18400 20.88900 39.08400
O  -16.24300 22.12700 38.91900
C  -17.39200 20.10500 39.03100
N  -13.89600 15.71500 39.73100
C  -15.06100 16.25500 39.41200
C  -16.21200 15.20600 39.13300
C  -15.34400 13.90500 38.95400
C  -13.98700 14.38200 39.57000
C  -17.40700 15.04200 40.25900
C  -15.10500 13.42800 37.49800
C  -15.01700 11.88500 37.35500
N  -11.18400 15.04800 40.01900
C  -11.65100 13.73200 39.91100
C  -10.47700 12.87400 39.82000
C  -9.34500 13.72400 39.97700
C  -9.79600 15.07700 39.97600
C  -10.49300 11.39100 39.55200
C  -7.87400 13.73500 39.89600
O  -7.09200 12.78300 39.72400
C  -7.45100 15.16800 39.93300
C  -6.61900 15.33300 41.11800
O  -6.82100 16.02000 42.11700
O  -5.40500 14.69500 40.92200
C  -4.47000 14.65200 42.03100
H  -10.84600 21.31500 39.75500
H  -16.32100 17.92800 39.09700
H  -13.25100 12.40400 39.74900
H  -7.18100 18.19600 40.37600
H  -8.29900 20.48000 39.06200
H  -7.70300 21.52200 40.77800
H  -7.47900 20.04100 41.60700
H  -9.13800 20.72300 41.65700
H  -7.10100 19.29500 37.76400
H  -7.61100 17.65100 37.37600
H  -5.54600 17.42300 39.30200
H  -5.18400 18.81100 38.27500
H  -13.79000 22.71900 38.19900
H  -12.21400 22.53900 38.98700
H  -13.63200 22.92000 39.94800
H  -17.41600 19.69900 38.01900
H  -18.25200 20.74200 39.23800
H  -17.37000 19.39700 39.85900
H  -16.77700 15.38300 38.21700
H  -15.62000 13.19400 39.73400
H  -18.27500 15.61800 39.93700
H  -17.10900 15.34400 41.26400
H  -17.93400 14.09000 40.18600
H  -14.17500 13.78300 37.05500
H  -15.93300 13.70700 36.84600
H  -15.93500 11.62400 36.82800
H  -15.13100 11.47500 38.35800
H  -14.04900 11.53500 36.99600
H  -10.06200 11.11200 38.59000
H  -11.53100 11.05900 39.54800
H  -9.94100 10.95000 40.38300
H  -6.81600 15.50200 39.11300
H  -3.83700 13.76500 42.03700
H  -4.99100 14.69900 42.98800
H  -3.87000 15.54600 41.86000

