158

Mg 1.42800 -0.79400 43.78000
C  4.68900 0.09500 43.16300
C  0.35000 1.92400 41.96100
C  -1.81500 -2.16700 43.41000
C  2.57700 -3.95400 44.88500
N  2.42300 0.69200 42.58500
C  3.76600 0.98200 42.58200
C  4.02800 2.35100 41.90000
C  2.63700 3.04900 41.85000
C  1.70500 1.81600 42.21900
C  2.47500 4.38900 42.67700
C  4.73900 2.19300 40.44300
C  5.97200 3.06200 40.25300
H  5.88900 3.97500 39.11300
N  -0.53500 -0.17200 42.87400
C  -0.70700 1.01600 42.23400
C  -2.14100 1.15100 41.85000
C  -2.82300 0.00300 42.41300
C  -1.77300 -0.85700 42.99400
C  -2.73400 2.45300 41.22500
C  -4.33200 -0.26600 42.34400
O  -5.06800 0.56800 41.84600
C  -4.93500 -1.28300 43.34300
N  0.54200 -2.80300 44.17800
C  -0.77900 -3.03600 43.95000
C  -1.17800 -4.44500 44.37600
C  0.22400 -5.01300 44.82000
C  1.20100 -3.92700 44.61400
C  -2.20000 -4.61000 45.46400
C  0.70300 -6.39300 44.27400
C  0.82700 -7.55400 45.27700
N  3.24900 -1.68600 44.16400
C  3.51700 -2.96100 44.56800
C  4.94700 -3.14200 44.62600
C  5.49200 -1.91400 44.06600
C  4.39100 -1.08900 43.77900
C  5.72300 -4.28900 45.12300
C  6.74900 -1.14700 43.82500
O  7.93200 -1.34800 44.12200
C  6.19200 0.25000 43.24600
C  6.61800 1.37300 44.05600
O  5.90400 1.98200 44.82700
O  7.94800 1.66200 43.76700
C  8.59300 2.90000 44.22000
H  0.02000 2.90400 41.61000
H  -2.74400 -2.72100 43.56100
H  3.05200 -4.85100 45.28700
H  4.66400 2.95600 42.54700
H  2.36500 3.20800 40.80700
H  2.07300 5.11400 41.97000
H  3.34700 4.83100 43.16000
H  1.66300 4.31100 43.40000
H  4.03300 2.51700 39.67900
H  4.92800 1.12200 40.37000
H  6.81000 2.39500 40.05200
H  6.09500 3.62700 41.17800
H  -3.61900 2.64300 41.83300
H  -2.96200 2.27400 40.17400
H  -2.04600 3.28900 41.34800
H  -5.95300 -0.90000 43.40800
H  -4.37000 -1.28500 44.27500
H  -4.97600 -2.27000 42.88200
H  -1.57500 -5.05400 43.56400
H  0.20800 -5.01200 45.91000
H  -2.17000 -3.67900 46.02900
H  -1.96100 -5.34500 46.23300
H  -3.19000 -4.76900 45.03700
H  1.68200 -6.29600 43.80500
H  0.03600 -6.68300 43.46200
H  1.70100 -8.15700 45.03200
H  -0.04500 -8.20800 45.26200
H  1.08600 -7.15500 46.25700
H  5.27600 -4.71100 46.02300
H  6.75600 -4.08000 45.39900
H  5.66600 -5.03700 44.33100
H  6.83500 0.19800 42.36700
H  8.14800 3.29900 45.13200
H  8.42100 3.68000 43.47800
H  9.65700 2.81400 44.43800
Mg -2.66900 34.31300 26.44500
C  -4.46200 33.09200 29.12100
C  -1.80300 37.09400 28.29200
C  -1.04800 35.61100 23.69900
C  -3.79300 31.76400 24.48200
N  -3.13900 34.94100 28.46500
C  -3.70700 34.17000 29.44700
C  -3.49500 34.78100 30.85100
C  -2.99400 36.25400 30.48000
C  -2.53600 36.10500 28.92400
C  -3.99800 37.47500 30.67000
C  -2.46700 33.94200 31.65100
C  -2.51200 34.46100 33.17700
H  -2.72400 33.34400 34.25100
N  -1.60200 36.12900 26.10300
C  -1.45100 37.13800 26.93200
C  -0.73300 38.19800 26.31400
C  -0.43700 37.81700 25.00200
C  -1.05800 36.44300 24.89100
C  -0.37900 39.47100 27.06400
C  0.27200 38.50400 23.88100
O  0.22800 38.02500 22.75700
C  0.94400 39.91400 24.06000
N  -2.55100 33.89000 24.31600
C  -1.73500 34.46700 23.43300
C  -1.72700 33.71500 22.12600
C  -2.56400 32.47900 22.37100
C  -3.01500 32.72600 23.83200
C  -2.27400 34.59000 20.99500
C  -1.73500 31.19900 22.19300
C  -2.49900 30.02600 21.52400
N  -4.06900 32.81800 26.62900
C  -4.33500 31.84700 25.80500
C  -5.22800 30.90800 26.41700
C  -5.33200 31.36300 27.71400
C  -4.56200 32.53100 27.82000
C  -5.94600 29.77800 25.80200
C  -5.87900 31.09300 29.02600
O  -6.59900 30.16300 29.41400
C  -5.28400 32.18400 29.94300
C  -6.44800 32.96800 30.51800
O  -6.91700 33.98600 30.07700
O  -6.95400 32.34800 31.64700
C  -7.88300 33.08300 32.55800
H  -1.47300 37.98100 28.83600
H  -0.35600 35.85800 22.89100
H  -4.05200 30.90600 23.85700
H  -4.47400 34.80800 31.32900
H  -2.13300 36.51500 31.09500
H  -4.80100 37.25700 31.37500
H  -4.20000 37.80900 29.65300
H  -3.42600 38.26800 31.15200
H  -1.52900 33.96300 31.09700
H  -2.76600 32.89400 31.63000
H  -3.27700 35.22300 33.32600
H  -1.58900 34.98500 33.42600
H  -0.84800 39.69300 28.02200
H  -0.48600 40.28000 26.34100
H  0.68300 39.42100 27.30100
H  1.65600 39.80300 24.87800
H  0.06900 40.52800 24.27200
H  1.29100 40.25200 23.08400
H  -0.69300 33.41900 21.94800
H  -3.50500 32.45400 21.82200
H  -3.04200 35.21900 21.44500
H  -2.80100 34.00500 20.24100
H  -1.47900 35.15500 20.51000
H  -1.31800 30.88300 23.14900
H  -0.94900 31.35300 21.45400
H  -3.38800 30.44600 21.05400
H  -2.89800 29.31100 22.24300
H  -1.88100 29.51300 20.78700
H  -6.30100 29.95500 24.78700
H  -6.81400 29.49600 26.39900
H  -5.20600 28.98300 25.70100
H  -4.80300 31.65200 30.76400
H  -8.88300 33.28800 32.17800
H  -7.51000 34.10100 32.67400
H  -7.94100 32.53400 33.49800

