158

Mg 41.47200 9.13800 29.85800
C  43.27200 10.30300 32.72400
C  39.10900 7.93500 32.06000
C  39.72100 8.15100 27.27400
C  44.01000 10.40100 27.89300
N  41.23400 9.14300 32.16800
C  42.07700 9.66700 33.09200
C  41.52700 9.59000 34.48800
C  40.42000 8.52200 34.25200
C  40.21300 8.50300 32.75800
C  40.62800 7.11100 34.84700
C  40.91200 10.87500 35.04700
C  40.92400 10.89100 36.59400
H  41.71700 11.93100 37.43900
N  39.70900 8.18100 29.70900
C  38.83600 7.84900 30.70800
C  37.64600 7.22100 30.14600
C  37.74400 7.44900 28.74700
C  39.09000 7.88700 28.50500
C  36.64600 6.59500 31.05700
C  36.69200 7.34500 27.62800
O  36.93700 7.60300 26.42900
C  35.20100 7.10100 28.08200
N  41.92000 9.24300 27.92000
C  41.02100 8.69000 27.00200
C  41.46500 8.97300 25.54400
C  42.72800 9.81400 25.72600
C  42.90400 9.87200 27.25300
C  41.54000 7.72700 24.65400
C  42.62300 11.28900 25.08400
C  41.64600 12.25100 25.73800
N  43.33800 10.03700 30.19600
C  44.28100 10.49400 29.28700
C  45.46600 10.98800 29.89200
C  45.04400 11.02800 31.27100
C  43.75600 10.45300 31.42300
C  46.71000 11.42100 29.21100
C  45.44000 11.40300 32.63900
O  46.41000 12.00300 33.04800
C  44.33000 10.97200 33.60300
C  44.90000 10.15200 34.79700
O  45.34400 9.03100 34.72500
O  44.69100 10.88900 35.99500
C  45.13600 10.11000 37.14300
H  38.31500 7.90100 32.80900
H  39.22400 7.95800 26.32100
H  44.84500 10.67100 27.24200
H  42.28400 9.02800 35.03500
H  39.47700 8.87300 34.67100
H  39.69600 6.81200 35.32600
H  41.35300 7.20200 35.65600
H  41.06700 6.40900 34.13700
H  39.89100 11.12100 34.75600
H  41.46200 11.74000 34.67600
H  41.23500 9.91900 36.97800
H  39.84700 10.97700 36.74100
H  35.71500 7.13400 30.88100
H  36.70000 6.73600 32.13600
H  36.61400 5.51500 30.91400
H  34.84000 7.94300 28.67200
H  35.34700 6.18300 28.65200
H  34.64600 6.84900 27.17800
H  40.67100 9.59900 25.13700
H  43.56400 9.28100 25.27300
H  42.48600 7.68800 24.11300
H  40.75900 7.82600 23.90000
H  41.37900 6.80500 25.21100
H  42.24900 11.12900 24.07300
H  43.64300 11.66900 25.03200
H  41.48600 11.89000 26.75400
H  40.75300 12.17400 25.11800
H  42.05800 13.25900 25.77600
H  46.87300 10.82300 28.31500
H  47.47700 11.51700 29.98000
H  46.47200 12.42200 28.85200
H  43.97300 11.93800 33.95800
H  46.21500 9.97200 37.07600
H  44.65900 9.14800 37.33300
H  44.93800 10.66300 38.06200
Mg 48.60700 16.19300 29.22800
C  46.37700 15.63400 31.94800
C  50.58100 17.93500 31.22800
C  50.35900 16.83800 26.50000
C  46.09900 14.57000 27.17300
N  48.44500 16.70900 31.37400
C  47.55300 16.32900 32.32400
C  47.95200 16.76900 33.73100
C  49.04900 17.77200 33.31500
C  49.39100 17.49400 31.89800
C  48.54100 19.25800 33.48800
C  48.50300 15.52600 34.58900
C  48.23700 15.72700 36.10200
H  48.28100 17.12800 36.72700
N  50.28700 17.10400 28.94500
C  50.98100 17.77100 29.88000
C  52.26500 18.19600 29.28600
C  52.27800 17.80700 27.91000
C  50.90400 17.26600 27.74000
C  53.44100 18.75900 30.05500
C  53.30600 17.93500 26.87800
O  53.18900 17.65400 25.68900
C  54.66000 18.47800 27.21400
N  48.38100 15.61500 27.12000
C  49.16200 16.16300 26.21600
C  48.72300 15.81400 24.75300
C  47.38600 14.98700 25.02600
C  47.23500 15.07000 26.54200
C  48.64700 17.03200 23.76700
C  47.29000 13.66200 24.31000
C  47.69900 12.39200 25.12300
N  46.58500 15.41100 29.40400
C  45.77200 14.76700 28.53300
C  44.55700 14.39800 29.20900
C  44.71200 14.72600 30.58500
C  46.04200 15.28400 30.67700
C  43.47000 13.53700 28.54100
C  44.16100 14.59300 31.91700
O  43.04500 14.22300 32.28100
C  45.23100 15.22100 32.87200
C  44.57900 16.50500 33.46200
O  44.04100 17.36300 32.82500
O  44.54500 16.42100 34.81600
C  43.68200 17.39200 35.40200
H  51.25200 18.37900 31.96600
H  50.85000 17.10000 25.56000
H  45.40500 14.01500 26.53800
H  47.03800 17.15500 34.18200
H  50.01500 17.67800 33.81300
H  47.54500 19.31500 33.92600
H  48.48000 19.79300 32.54000
H  49.17500 19.76200 34.21700
H  49.55400 15.28300 34.43600
H  47.85500 14.68000 34.36000
H  48.95100 15.17200 36.71000
H  47.29600 15.20400 36.27200
H  53.95200 19.59600 29.57900
H  54.02000 17.83700 30.09400
H  53.21300 19.22900 31.01200
H  54.48300 19.53000 27.44000
H  55.22200 18.50800 26.28100
H  55.15400 17.86400 27.96800
H  49.33500 15.03300 24.30300
H  46.53600 15.47100 24.54600
H  48.00500 16.96300 22.88900
H  49.65800 17.20800 23.40000
H  48.52400 17.95100 24.33900
H  47.93600 13.66200 23.43200
H  46.27200 13.60400 23.92600
H  48.17500 11.58800 24.56200
H  46.89000 11.90100 25.66400
H  48.42100 12.69600 25.88000
H  42.72700 14.20000 28.09700
H  42.85000 12.96000 29.22800
H  43.88500 12.90800 27.75400
H  45.46900 14.53600 33.68700
H  44.13700 18.37200 35.26200
H  43.50600 17.15700 36.45200
H  42.72400 17.40200 34.88300

