158

Mg 26.35300 0.86700 29.17300
C  28.16700 0.73800 32.22000
C  23.42700 1.15700 31.09200
C  24.51300 0.86200 26.24700
C  29.22400 -0.05900 27.46200
N  25.83400 1.03900 31.48500
C  26.80600 0.94400 32.52000
C  26.01500 1.01000 33.85400
C  24.49000 1.07300 33.44500
C  24.57600 1.08300 31.88000
C  23.56600 -0.08600 33.96500
C  26.38000 2.23900 34.74100
C  25.68100 2.52700 36.05300
H  26.51700 2.76100 37.33800
N  24.30600 1.03900 28.70200
C  23.30400 1.23600 29.65400
C  22.04100 1.41300 28.91200
C  22.36400 1.24700 27.51600
C  23.79700 1.09200 27.42900
C  20.67300 1.48700 29.64400
C  21.40400 1.29500 26.31100
O  21.71800 1.09500 25.15500
C  20.07300 1.76700 26.54100
N  26.73500 0.22200 27.20000
C  25.88100 0.47300 26.19600
C  26.51800 0.17600 24.85700
C  28.00800 -0.14300 25.23300
C  28.03700 0.07100 26.72700
C  25.84800 -0.94100 24.13900
C  28.99700 0.73300 24.51600
C  29.49900 0.35000 23.09800
N  28.29200 0.51100 29.68000
C  29.37800 0.11500 28.89200
C  30.60000 -0.09900 29.67600
C  30.10200 0.14200 30.98300
C  28.75000 0.52600 30.94500
C  31.91700 -0.63500 29.12800
C  30.50400 0.25500 32.36400
O  31.60800 0.13200 32.83500
C  29.24800 0.55600 33.21100
C  28.97600 -0.54100 34.18000
O  28.19400 -1.48700 34.03900
O  29.47500 -0.13800 35.36700
C  29.22300 -1.03100 36.52100
H  22.51100 1.24500 31.67900
H  24.01000 0.87800 25.27800
H  30.12500 -0.32500 26.90400
H  26.24700 0.10200 34.41200
H  24.06600 2.04000 33.71700
H  22.98200 -0.63600 33.22700
H  22.84900 0.31500 34.68200
H  24.18500 -0.86700 34.40600
H  26.33800 3.11800 34.09800
H  27.42600 2.15800 35.03800
H  25.06300 1.63700 36.17100
H  25.06700 3.42000 35.93100
H  20.03200 0.65500 29.35600
H  20.03100 2.29400 29.28900
H  20.70700 1.51600 30.73400
H  19.60300 1.98200 25.58100
H  20.16500 2.64100 27.18500
H  19.56300 0.94500 27.04300
H  26.24200 1.04700 24.26300
H  28.16900 -1.21400 25.10900
H  25.32200 -1.53000 24.89100
H  26.53600 -1.61700 23.63100
H  25.13100 -0.60900 23.38800
H  29.92600 0.92400 25.05300
H  28.52400 1.70800 24.39400
H  30.57300 0.53400 23.05600
H  29.00600 0.99100 22.36700
H  29.49000 -0.72400 22.91100
H  31.76100 -1.40300 28.37100
H  32.37500 -1.08300 30.01000
H  32.46600 0.22500 28.74400
H  29.26700 1.49300 33.76900
H  29.42500 -2.05100 36.19700
H  28.30800 -0.85500 37.08700
H  29.92600 -0.88100 37.34100
Mg 48.47200 15.69900 29.35400
C  46.21900 15.40800 31.82200
C  50.47400 17.48200 31.37200
C  50.48600 16.35100 26.73900
C  46.03300 14.49400 27.08600
N  48.22400 16.55200 31.29400
C  47.34400 16.13500 32.19700
C  47.77600 16.39100 33.64400
C  48.96400 17.38300 33.41900
C  49.26200 17.13600 31.93500
C  48.68000 18.87000 33.64600
C  48.15500 15.07300 34.34700
C  47.86800 15.14100 35.89200
H  47.70500 16.54200 36.57800
N  50.26100 16.74900 29.09300
C  50.93200 17.34100 30.08500
C  52.27100 17.56900 29.62800
C  52.29300 17.42900 28.23500
C  50.95500 16.85600 27.96200
C  53.33900 18.21800 30.53000
C  53.33900 17.62500 27.22700
O  53.12300 17.43800 26.04000
C  54.78200 18.03600 27.65800
N  48.19300 15.69600 27.22100
C  49.26800 15.86900 26.36000
C  48.96800 15.50700 24.87800
C  47.63200 14.70700 25.09300
C  47.21900 14.97700 26.56300
C  48.81200 16.76500 24.08100
C  47.78800 13.25100 24.74500
C  48.46700 12.26800 25.73700
N  46.52200 15.00800 29.46400
C  45.64600 14.51700 28.55000
C  44.42300 14.09200 29.22000
C  44.62400 14.40100 30.52500
C  45.91600 14.96400 30.57200
C  43.25600 13.43000 28.65000
C  44.08400 14.32900 31.85000
O  42.98800 13.82400 32.10400
C  45.14600 14.93500 32.79400
C  44.47600 16.04100 33.55300
O  43.85900 16.92500 32.98900
O  44.49100 15.75200 34.91100
C  43.76600 16.79100 35.64700
H  51.15900 18.11700 31.93900
H  51.13500 16.46300 25.86700
H  45.33800 14.08300 26.35100
H  46.99800 16.90000 34.21400
H  49.88400 17.07800 33.91800
H  47.65700 19.13400 33.91500
H  48.85800 19.34400 32.68100
H  49.44000 19.30700 34.29400
H  49.23300 14.91500 34.32300
H  47.57800 14.24400 33.93800
H  48.62300 14.70600 36.54700
H  46.99000 14.49800 35.95600
H  53.53700 19.22900 30.17500
H  54.24700 17.65400 30.31400
H  53.10000 18.21500 31.59400
H  54.74900 19.07700 27.97700
H  55.51000 17.99500 26.84800
H  55.26400 17.41600 28.41400
H  49.80100 14.88200 24.55700
H  46.82100 15.08200 24.46900
H  49.66500 16.70800 23.40500
H  48.70600 17.71600 24.60300
H  47.93500 16.78600 23.43400
H  48.41700 13.20800 23.85600
H  46.80900 12.88400 24.44000
H  49.29200 11.84500 25.16200
H  47.81500 11.47100 26.09300
H  48.87700 12.80300 26.59400
H  42.43200 13.94300 29.14600
H  43.27900 12.38300 28.95200
H  43.17300 13.45000 27.56300
H  45.39500 14.19800 33.55700
H  42.70000 16.58300 35.55200
H  44.03900 17.81900 35.41300
H  43.89600 16.63300 36.71800

