158

Mg 17.11700 52.67200 25.64500
C  19.06300 51.22100 28.36500
C  14.75300 53.44800 28.20000
C  15.17700 53.96100 23.31300
C  19.35400 51.51100 23.49100
N  16.94000 52.34600 27.97800
C  17.88400 51.75100 28.82300
C  17.56600 52.06300 30.27000
C  15.99000 52.48700 30.14800
C  15.88100 52.75500 28.66700
C  14.95500 51.40400 30.56100
C  18.42300 53.16000 31.01500
C  18.67400 52.85100 32.50300
H  17.75900 53.50200 33.55100
N  15.21700 53.64500 25.74200
C  14.48200 53.95400 26.85900
C  13.30100 54.69100 26.44200
C  13.36300 54.87100 24.99100
C  14.61000 54.09100 24.60300
C  12.31500 55.23300 27.46600
C  12.50200 55.44600 23.98200
O  12.84300 55.75900 22.85500
C  11.05400 55.79000 24.43500
N  17.12800 52.52800 23.72200
C  16.26600 53.17300 22.92400
C  16.64200 52.90700 21.46800
C  18.02900 52.28000 21.53300
C  18.21200 52.10600 23.02500
C  15.50000 52.09100 20.85500
C  19.22000 53.18100 21.03800
C  19.27400 54.71300 21.45800
N  18.88800 51.57600 25.87600
C  19.71300 51.24300 24.83500
C  20.81700 50.58600 25.41300
C  20.59400 50.53200 26.75600
C  19.45500 51.17700 27.01900
C  21.89800 49.94800 24.75600
C  21.09400 50.01100 28.06200
O  22.05300 49.26700 28.32800
C  20.16300 50.72800 29.17100
C  19.71500 49.77900 30.24600
O  18.86900 48.90600 30.09300
O  20.46600 50.08000 31.30600
C  20.13900 49.18800 32.47100
H  13.95300 53.76900 28.87000
H  14.61600 54.39600 22.48300
H  20.22300 51.36300 22.84700
H  17.61100 51.11800 30.81200
H  15.73600 53.42600 30.64100
H  15.37800 50.55700 31.10100
H  14.38100 50.97700 29.73900
H  14.14600 51.78500 31.18400
H  17.88600 54.09900 30.88300
H  19.39800 53.23300 30.53400
H  19.73700 53.03000 32.66400
H  18.48800 51.78400 32.62800
H  11.35300 54.98600 27.01800
H  12.52100 56.30100 27.53000
H  12.34400 54.69100 28.41100
H  11.00600 56.44500 25.30500
H  10.36200 54.97600 24.65400
H  10.49800 56.29000 23.64200
H  16.66300 53.86600 20.95100
H  18.05500 51.26600 21.13500
H  15.05400 51.45000 21.61500
H  15.85400 51.46400 20.03700
H  14.70700 52.77500 20.55100
H  19.27600 53.31100 19.95700
H  20.15600 52.63800 21.16700
H  19.31600 55.37600 20.59400
H  20.24300 54.79700 21.94900
H  18.59100 55.21100 22.14600
H  22.76500 49.80300 25.40100
H  22.35100 50.54500 23.96500
H  21.59700 48.99400 24.32500
H  20.75800 51.57700 29.50800
H  19.06900 49.07400 32.64700
H  20.58200 49.55100 33.39800
H  20.67900 48.25600 32.30400
Mg -10.43100 16.52400 41.22800
C  -6.89100 16.21900 41.77700
C  -9.88300 19.83100 40.65800
C  -13.62700 16.77600 40.31500
C  -10.59400 13.07300 41.14900
N  -8.58100 17.78800 41.12100
C  -7.27500 17.49300 41.47600
C  -6.39800 18.74800 41.35100
C  -7.45700 19.84000 41.59900
C  -8.71900 19.16400 41.02100
C  -7.60800 20.50600 43.06500
C  -5.79100 18.78300 39.96100
C  -4.33500 18.37900 39.77000
H  -3.97200 17.16300 38.86500
N  -11.67300 18.18600 40.67400
C  -11.24700 19.46500 40.51100
C  -12.38600 20.23200 40.02800
C  -13.50400 19.32900 39.89200
C  -12.98300 18.06000 40.24600
C  -12.39200 21.72700 39.88200
C  -14.96500 19.72100 39.29600
O  -15.14700 20.84800 38.88000
C  -15.99700 18.71900 38.88900
N  -11.92500 15.19300 40.71300
C  -13.19000 15.50700 40.56600
C  -14.08300 14.25800 40.46300
C  -13.12000 13.10900 40.80200
C  -11.78500 13.82900 40.85900
C  -15.33400 14.30200 41.39300
C  -13.28100 11.83000 39.86500
C  -13.70200 10.45600 40.40800
N  -9.05400 14.89100 41.50100
C  -9.24300 13.55200 41.41500
C  -7.99800 12.82700 41.67000
C  -7.08400 13.90100 41.93400
C  -7.76900 15.10200 41.70800
C  -7.84900 11.30600 41.80600
C  -5.68200 14.18400 42.23500
O  -4.77800 13.39000 42.52400
C  -5.50300 15.72600 42.25900
C  -5.04100 16.12800 43.56200
O  -3.90200 16.43300 43.77100
O  -6.01100 16.01800 44.46800
C  -5.74900 16.53900 45.83400
H  -9.69400 20.90000 40.53900
H  -14.68600 16.87100 40.06400
H  -10.79500 12.01600 41.33600
H  -5.55100 18.85000 42.03000
H  -7.13500 20.67400 40.97500
H  -8.37800 19.96600 43.61700
H  -7.79200 21.57600 42.96700
H  -6.76900 20.35300 43.74300
H  -5.82100 19.81500 39.61300
H  -6.32600 18.06600 39.33800
H  -4.00800 18.20700 40.79600
H  -3.86400 19.28600 39.38900
H  -13.26200 22.12500 40.40500
H  -12.54000 21.87500 38.81200
H  -11.45600 22.24200 40.09500
H  -15.60500 17.78700 38.48300
H  -16.74100 19.26900 38.31300
H  -16.42900 18.50500 39.86700
H  -14.39400 14.11300 39.42900
H  -13.22900 12.78000 41.83500
H  -15.20600 15.14200 42.07600
H  -15.57900 13.35900 41.88100
H  -16.20000 14.46500 40.75200
H  -12.31700 11.68700 39.37700
H  -14.10900 11.96200 39.16900
H  -14.70100 10.13400 40.11200
H  -13.77100 10.52400 41.49300
H  -13.01300 9.69500 40.04000
H  -6.90000 11.01500 42.25600
H  -7.82300 10.90200 40.79400
H  -8.69500 10.84900 42.32100
H  -4.64800 15.91300 41.60900
H  -4.71100 16.73900 46.10000
H  -6.23900 15.76700 46.42700
H  -6.26800 17.48200 46.00700

