158

Mg 44.41900 5.34800 47.08800
C  42.25100 8.06400 46.54700
C  41.63600 3.25300 46.06300
C  46.45600 2.77100 47.06000
C  47.11200 7.47900 47.04200
N  42.13700 5.65200 46.29000
C  41.53500 6.88100 46.32800
C  40.08300 6.73700 45.88100
C  39.87600 5.20900 45.95900
C  41.30000 4.62300 46.03900
C  39.03900 4.68100 47.18800
C  39.65800 7.42800 44.50900
C  40.66600 7.38500 43.30000
H  40.17700 7.59800 41.86300
N  44.06400 3.28600 46.78400
C  42.85900 2.63400 46.31900
C  43.17800 1.19800 46.24700
C  44.55900 1.07700 46.68200
C  45.08900 2.40400 46.86700
C  42.10200 0.15600 45.87000
C  45.28700 -0.24100 46.95700
O  44.78300 -1.34400 46.73900
C  46.67800 -0.25500 47.52000
N  46.49500 5.15300 47.20800
C  47.08600 3.93400 47.20900
C  48.56100 4.10000 47.27700
C  48.81100 5.60200 47.40100
C  47.43100 6.14000 47.16600
C  49.21200 3.13600 48.39300
C  49.89700 6.18700 46.39000
C  51.05800 6.94200 47.03100
N  44.70400 7.33800 47.05700
C  45.83500 8.08400 46.84400
C  45.51600 9.48300 46.81500
C  44.16400 9.48000 46.76200
C  43.67600 8.15300 46.72000
C  46.45800 10.58200 46.78100
C  43.08400 10.43500 46.69100
O  43.11600 11.65200 46.77500
C  41.81200 9.54900 46.54600
C  40.76500 9.82400 47.68400
O  41.01400 10.12000 48.85500
O  39.46800 9.61800 47.22400
C  38.39800 10.06700 48.06200
H  40.80600 2.55100 45.95500
H  47.20700 1.99400 46.90300
H  48.03400 8.06300 47.06000
H  39.54000 7.13700 46.73700
H  39.33800 4.90100 45.06200
H  39.50100 3.92400 47.82300
H  38.15700 4.16800 46.80400
H  38.74100 5.51600 47.82200
H  39.40300 8.45800 44.75600
H  38.86100 6.86800 44.02000
H  41.39000 6.57200 43.36700
H  41.21900 8.29700 43.52300
H  42.26300 -0.44900 44.97800
H  41.09100 0.55400 45.77800
H  42.12300 -0.56200 46.69000
H  46.82900 -1.23600 47.97100
H  46.78200 0.53000 48.27000
H  47.47500 -0.25700 46.77700
H  48.86700 3.84100 46.26400
H  49.02500 5.86700 48.43600
H  49.58900 2.17000 48.05700
H  48.46200 2.76400 49.09200
H  50.04600 3.56400 48.94900
H  49.37700 6.79700 45.65200
H  50.28800 5.41000 45.73300
H  51.96900 6.35900 46.89100
H  50.81900 7.03800 48.09000
H  51.36100 7.93200 46.69000
H  47.42500 10.25600 47.16400
H  46.13400 11.45800 47.34400
H  46.62400 10.82100 45.73100
H  41.28700 9.58100 45.59200
H  38.60700 11.05200 48.48000
H  38.16400 9.28900 48.78900
H  37.53500 10.23500 47.41900
Mg 26.93500 50.46700 25.61200
C  24.86100 51.71300 28.07500
C  29.24100 49.81100 27.94700
C  28.82100 49.30200 23.14400
C  24.63700 51.84400 23.16800
N  27.02500 50.86600 27.78500
C  26.00600 51.19500 28.61100
C  26.30200 50.98000 30.14600
C  27.82700 50.49500 29.95600
C  28.09700 50.44800 28.46000
C  28.82600 51.43000 30.62300
C  25.41300 49.85500 30.61100
C  25.81100 49.30100 32.03200
H  24.96200 49.66500 33.20100
N  28.76900 49.74200 25.62200
C  29.62000 49.49400 26.65900
C  30.83400 48.80200 26.17200
C  30.77100 48.63000 24.78600
C  29.41800 49.21300 24.44100
C  31.93500 48.36800 27.14000
C  31.74800 48.00100 23.79000
O  31.49800 47.93000 22.62200
C  33.04200 47.33800 24.33900
N  26.67400 50.50300 23.50300
C  27.61900 49.91200 22.72500
C  27.02900 49.68600 21.31200
C  26.00400 50.79000 21.21300
C  25.72100 51.13800 22.67500
C  28.02600 49.59400 20.11600
C  24.67200 50.39400 20.50800
C  23.83600 49.37700 21.17900
N  25.14600 51.55800 25.54000
C  24.34200 52.05200 24.54300
C  23.17000 52.71100 25.13500
C  23.35800 52.56900 26.48000
C  24.53200 51.89900 26.72500
C  22.04100 53.41200 24.48100
C  22.78400 52.90100 27.76500
O  21.75300 53.52000 27.97400
C  23.62900 52.28500 28.80800
C  24.07300 53.26000 29.82300
O  24.93000 54.12500 29.64500
O  23.39200 53.02200 31.05600
C  23.70500 53.99100 32.14300
H  29.94000 49.53500 28.73900
H  29.45500 48.87400 22.36400
H  23.90100 52.31200 22.51100
H  26.17500 51.85200 30.78800
H  27.93200 49.46900 30.30700
H  28.41200 52.26000 31.19500
H  29.45100 51.87800 29.85100
H  29.38200 50.73700 31.25500
H  25.50700 49.09100 29.83900
H  24.39100 50.23100 30.65700
H  26.79600 49.67900 32.30800
H  25.90700 48.23000 31.85700
H  31.97000 47.27900 27.11900
H  31.64200 48.69800 28.13700
H  32.95500 48.73700 27.02800
H  33.40800 48.12100 25.00300
H  33.71100 47.08800 23.51500
H  32.72000 46.41900 24.82900
H  26.56600 48.71700 21.50100
H  26.34300 51.68700 20.69600
H  28.38800 48.56700 20.06200
H  28.90100 50.19100 20.37500
H  27.66000 50.01600 19.18000
H  24.97200 50.02100 19.52900
H  24.01200 51.24100 20.32500
H  24.26000 49.06800 22.13500
H  23.81100 48.53900 20.48200
H  22.81600 49.67100 21.43000
H  21.80600 52.86700 23.56700
H  22.26700 54.47600 24.41200
H  21.25500 53.34500 25.23300
H  23.03200 51.58000 29.38800
H  22.92100 54.02800 32.89900
H  23.67200 55.04900 31.88500
H  24.74200 53.82100 32.43300

