158

Mg 16.59700 -1.35400 27.70800
C  15.90400 0.58400 30.58800
C  19.08900 -2.95800 29.43900
C  17.70900 -2.79600 24.75200
C  14.65000 0.89300 25.82100
N  17.40700 -1.28700 29.91700
C  16.95200 -0.41400 30.89500
C  17.69100 -0.77600 32.21400
C  18.83000 -1.86400 31.72800
C  18.39000 -2.10300 30.30000
C  20.26300 -1.34100 31.93400
C  16.78000 -1.17100 33.49900
C  16.82000 -0.23700 34.69800
H  18.15900 -0.14300 35.37400
N  17.99700 -2.88200 27.24700
C  18.87000 -3.38300 28.12400
C  19.59800 -4.54600 27.47400
C  19.20200 -4.52100 26.08500
C  18.25800 -3.37200 25.97100
C  20.39400 -5.57400 28.15900
C  19.46800 -5.47700 24.93900
O  18.93600 -5.40600 23.84700
C  20.34400 -6.68500 25.18700
N  16.29700 -0.93300 25.63600
C  16.83000 -1.68900 24.65900
C  16.21300 -1.36300 23.32300
C  15.01600 -0.42600 23.72000
C  15.26600 -0.15400 25.19100
C  17.29600 -0.71900 22.36500
C  13.57100 -0.98600 23.42700
C  12.75600 -0.34500 22.30700
N  15.45800 0.38400 28.05500
C  14.66700 1.12700 27.15800
C  13.93000 2.07200 27.94900
C  14.32700 1.84100 29.24800
C  15.27400 0.85600 29.28400
C  12.82800 3.07900 27.52200
C  14.07500 2.29200 30.56700
O  13.26300 3.08300 30.98800
C  15.10300 1.55100 31.58300
C  15.99400 2.60600 32.19900
O  17.07300 2.95100 31.74000
O  15.39600 3.07300 33.32500
C  16.15400 4.01000 34.17800
H  19.93500 -3.45200 29.92100
H  17.95500 -3.33800 23.83600
H  13.98100 1.55600 25.26900
H  18.14500 0.16100 32.53800
H  18.79500 -2.82300 32.24500
H  20.21800 -0.41100 32.50000
H  20.55900 -1.09500 30.91400
H  20.96100 -2.10900 32.27000
H  17.09100 -2.18700 33.74200
H  15.72000 -1.06600 33.26400
H  15.98100 -0.50500 35.34200
H  16.63600 0.77700 34.34300
H  21.37800 -5.68800 27.70400
H  20.02500 -6.57200 27.92400
H  20.42200 -5.60100 29.24800
H  20.44600 -7.37500 24.34900
H  19.86200 -7.23800 25.99300
H  21.36700 -6.47600 25.49800
H  15.91600 -2.30300 22.85800
H  15.06300 0.46400 23.09200
H  18.27900 -0.94100 22.78100
H  17.17800 0.35800 22.47700
H  17.23200 -1.15600 21.36800
H  12.96000 -0.93500 24.32800
H  13.50900 -2.05900 23.24500
H  11.97500 -0.96600 21.86800
H  13.49300 -0.05600 21.55800
H  12.37600 0.61700 22.65100
H  13.03800 3.59900 26.58800
H  12.61200 3.76400 28.34200
H  11.89900 2.53400 27.35500
H  14.54000 1.05600 32.37400
H  15.70900 3.91700 35.16900
H  16.08600 5.03700 33.82100
H  17.21300 3.78000 34.29300
Mg 16.45700 51.10200 26.61200
C  18.58100 49.87900 29.12700
C  14.42800 52.20100 29.24400
C  14.52800 52.63000 24.32900
C  18.58700 50.02100 24.09200
N  16.48900 50.91000 28.95000
C  17.50100 50.43000 29.72600
C  17.29800 50.57600 31.23900
C  15.76400 51.00800 31.22600
C  15.56700 51.42200 29.72900
C  14.86800 49.78000 31.55200
C  18.20100 51.63700 31.96000
C  18.90700 51.09300 33.18100
H  18.25300 51.36200 34.46200
N  14.70100 52.20200 26.79100
C  14.08100 52.63900 27.98200
C  12.96600 53.46500 27.65600
C  12.92400 53.54500 26.18500
C  14.02100 52.75400 25.70200
C  11.94400 53.95200 28.73800
C  11.91100 54.21700 25.28500
O  11.93400 54.19200 24.04700
C  10.88400 55.00500 25.92400
N  16.47800 51.19100 24.43300
C  15.57400 51.96100 23.72100
C  15.78100 51.78000 22.19800
C  17.17000 51.01100 22.15000
C  17.45800 50.77300 23.60000
C  14.50700 51.06700 21.54500
C  18.33700 51.76000 21.46900
C  19.24000 50.77900 20.60900
N  18.13200 50.07000 26.53100
C  18.92300 49.70200 25.43800
C  20.08400 49.02800 26.02900
C  19.97300 49.03900 27.43800
C  18.76500 49.75100 27.68100
C  21.13500 48.39500 25.23500
C  20.60700 48.68100 28.66600
O  21.70800 48.06400 28.81700
C  19.75700 49.16500 29.82700
C  19.33000 48.13900 30.77700
O  18.31500 47.46000 30.76200
O  20.22900 48.02800 31.86600
C  19.92400 47.01300 32.91100
H  13.87000 52.53500 30.12100
H  14.03300 53.28900 23.61200
H  19.23300 49.65400 23.29100
H  17.43500 49.56100 31.61300
H  15.62500 51.85300 31.90100
H  13.95800 50.22400 31.95700
H  15.27500 48.96200 32.14700
H  14.67700 49.35000 30.56800
H  17.60400 52.47900 32.31100
H  18.97300 52.05900 31.31700
H  19.87300 51.58200 33.30800
H  19.11900 50.03600 33.02400
H  11.11200 53.27600 28.93300
H  11.59300 54.97300 28.58800
H  12.37100 53.92800 29.74000
H  10.09200 55.15800 25.19200
H  11.28800 55.93800 26.31800
H  10.44700 54.39800 26.71800
H  15.79000 52.72800 21.66100
H  16.99900 50.00200 21.77600
H  13.76500 50.95700 22.33600
H  14.84600 50.13700 21.08600
H  14.03800 51.75300 20.84000
H  19.08200 52.17500 22.14800
H  17.96600 52.60800 20.89300
H  19.08300 50.78200 19.53100
H  19.23700 49.77200 21.02600
H  20.29000 51.04600 20.73000
H  22.02300 48.20200 25.83800
H  21.49100 48.95000 24.36700
H  20.77100 47.39400 25.00200
H  20.28100 49.82900 30.51400
H  18.86400 46.85800 33.11500
H  20.37400 47.35700 33.84300
H  20.43000 46.11400 32.56000

