158

Mg 24.51800 -4.77500 46.55600
C  26.43500 -2.49600 44.87900
C  22.19100 -4.42900 44.06400
C  22.84900 -7.48800 47.88300
C  27.49500 -5.85500 48.42400
N  24.24800 -3.49100 44.75900
C  25.16000 -2.53600 44.32500
C  24.69600 -1.86600 43.00600
C  23.17600 -2.36100 42.94900
C  23.17200 -3.49700 43.96200
C  22.12000 -1.25400 43.36300
C  25.54600 -2.32600 41.76200
C  26.24600 -1.17300 41.03100
H  25.74900 -1.07400 39.58000
N  22.73500 -5.71700 46.16300
C  21.92100 -5.44800 45.05500
C  20.81700 -6.31500 45.01200
C  20.87400 -7.01100 46.25900
C  22.20700 -6.75800 46.88300
C  19.68500 -6.16700 43.99100
C  19.71800 -7.92300 46.75700
O  18.69300 -8.02000 46.11500
C  19.79700 -8.62000 47.99700
N  25.04800 -6.44400 47.96900
C  24.14500 -7.35000 48.40300
C  24.87500 -8.33700 49.32200
C  26.40100 -7.96800 49.37200
C  26.30400 -6.65900 48.62400
C  24.26400 -8.49800 50.77500
C  27.39700 -9.02800 48.75700
C  28.51600 -9.44700 49.77200
N  26.53100 -4.15200 46.88300
C  27.61200 -4.72400 47.58100
C  28.79000 -3.98200 47.21100
C  28.40100 -3.12000 46.17400
C  27.04600 -3.33000 45.95500
C  30.10900 -4.14000 47.79400
C  28.86800 -2.10000 45.27600
O  29.91100 -1.40800 45.19900
C  27.66000 -1.64400 44.35200
C  27.49200 -0.15800 44.63600
O  26.86400 0.29800 45.58300
O  28.20100 0.54000 43.76000
C  28.06100 1.97600 43.84900
H  21.43500 -4.23200 43.30100
H  22.30800 -8.35900 48.25700
H  28.38400 -6.25100 48.92100
H  24.65600 -0.78300 43.11400
H  22.81200 -2.77200 42.00700
H  22.60000 -0.41600 43.86700
H  21.41800 -1.55500 44.14100
H  21.47300 -0.98300 42.52800
H  24.97300 -2.89100 41.02700
H  26.39100 -2.89500 42.15100
H  27.31300 -1.39500 41.03100
H  26.04600 -0.19300 41.46600
H  19.99200 -5.78500 43.01800
H  18.81000 -5.70400 44.44800
H  19.34400 -7.14300 43.64500
H  20.17000 -7.91100 48.73500
H  20.29900 -9.58400 47.90900
H  18.79300 -8.78300 48.39000
H  24.84400 -9.33500 48.88300
H  26.50300 -7.83100 50.44900
H  24.77000 -7.91300 51.54400
H  24.29000 -9.56100 51.01300
H  23.21500 -8.27300 50.58600
H  27.91500 -8.62700 47.88600
H  26.96000 -9.91800 48.30400
H  29.46300 -9.84600 49.41000
H  27.99400 -9.96600 50.57500
H  28.76800 -8.48400 50.21600
H  30.01300 -4.28400 48.87000
H  30.75100 -3.26700 47.67800
H  30.61500 -5.01800 47.39200
H  27.82000 -1.82900 43.29000
H  28.23700 2.33900 42.83600
H  28.84800 2.39400 44.47700
H  27.07200 2.30800 44.16700
Mg 40.99300 9.11200 29.91200
C  42.88200 10.16200 32.65800
C  38.62600 7.91100 32.19900
C  39.39300 8.12300 27.32700
C  43.78400 9.90800 27.85300
N  40.84400 9.04100 32.21500
C  41.63300 9.75800 33.09300
C  41.00500 9.71200 34.53900
C  39.86300 8.69200 34.40100
C  39.79000 8.50500 32.85300
C  40.06900 7.30700 35.06800
C  40.68400 11.12500 35.07800
C  39.99200 11.17300 36.41600
H  40.61600 12.19500 37.36600
N  39.21700 8.28200 29.78200
C  38.31000 7.90400 30.74800
C  37.06900 7.50000 30.11800
C  37.35500 7.53400 28.73700
C  38.73600 7.95300 28.54600
C  35.84200 7.06000 30.83600
C  36.39100 7.06800 27.54300
O  36.69600 7.21100 26.34500
C  35.05600 6.50600 27.80100
N  41.57500 8.97000 27.88900
C  40.70400 8.46800 27.04700
C  41.14500 8.65300 25.59600
C  42.37000 9.53800 25.73900
C  42.64500 9.46200 27.25100
C  41.57100 7.38600 24.87600
C  42.20300 10.95700 25.14200
C  40.91400 11.80100 25.37300
N  43.03900 9.73600 30.15100
C  43.99000 10.05900 29.22700
C  45.06700 10.60200 29.92000
C  44.67200 10.70000 31.24400
C  43.45500 10.09000 31.33900
C  46.29500 11.16200 29.40400
C  45.05000 11.18800 32.50100
O  46.09000 11.74000 32.78000
C  43.91700 10.85800 33.46800
C  44.51100 9.98300 34.54200
O  45.38100 9.13000 34.48200
O  43.88800 10.52300 35.68300
C  44.26500 9.84100 36.93400
H  37.89500 7.45200 32.86800
H  38.78700 7.97100 26.43200
H  44.49900 10.29900 27.12500
H  41.91000 9.28900 34.97500
H  38.92700 9.05700 34.82400
H  39.72600 6.41300 34.54800
H  39.80000 7.32200 36.12500
H  41.14900 7.19800 35.17200
H  40.13100 11.48800 34.21200
H  41.61300 11.67600 35.22500
H  39.91200 10.14400 36.76800
H  38.98900 11.55000 36.21500
H  36.01100 7.41900 31.85100
H  35.82900 5.97200 30.90400
H  34.91100 7.44400 30.42000
H  34.70800 5.92800 26.94500
H  34.31200 7.28200 27.97800
H  35.17700 5.78700 28.61200
H  40.41600 9.17100 24.97400
H  43.25600 9.11900 25.26400
H  40.71200 6.75900 24.63500
H  42.14600 6.80500 25.59600
H  42.09700 7.66900 23.96400
H  42.43500 10.93200 24.07700
H  42.95600 11.55500 25.65700
H  41.12500 12.76800 25.83000
H  40.28000 11.37300 26.15000
H  40.30900 11.96100 24.48100
H  47.06000 11.07500 30.17600
H  46.06500 12.21500 29.24100
H  46.58200 10.74700 28.43900
H  43.50300 11.77800 33.88100
H  44.06400 8.79600 36.69600
H  43.64700 10.15700 37.77400
H  45.32100 9.92700 37.18900

