158

Mg 8.98700 3.97900 27.99400
C  10.34200 2.22200 30.67800
C  7.13700 5.80700 30.18200
C  7.67700 5.37700 25.33600
C  10.51400 1.46700 25.87900
N  8.75000 3.98500 30.20800
C  9.44600 3.22600 31.10600
C  9.18800 3.73100 32.57700
C  7.98700 4.78900 32.35800
C  8.02100 4.98700 30.82500
C  6.62900 4.23100 32.85500
C  10.50000 4.25800 33.39100
C  10.76600 3.71900 34.74400
H  11.10200 4.77500 35.82400
N  7.74800 5.43300 27.79900
C  7.04900 6.00200 28.81100
C  6.28100 7.11400 28.22100
C  6.58500 7.17000 26.79800
C  7.35300 5.89600 26.54200
C  5.51900 8.18100 28.98500
C  6.28700 8.21700 25.77700
O  6.71900 8.15900 24.63300
C  5.39500 9.46000 26.14900
N  8.97200 3.39300 25.90900
C  8.40800 4.21900 25.00200
C  8.68400 3.77500 23.55200
C  9.63000 2.54200 23.69400
C  9.72100 2.39900 25.24100
C  7.38700 3.54700 22.71000
C  10.99200 2.57100 22.99700
C  11.44200 1.29400 22.27100
N  10.15700 2.21000 28.15000
C  10.72900 1.31000 27.28100
C  11.37900 0.21500 27.96000
C  11.35900 0.55600 29.31800
C  10.64400 1.73500 29.36800
C  12.13000 -0.98000 27.32500
C  11.87300 0.18500 30.63500
O  12.62700 -0.74700 30.95300
C  11.17400 1.21700 31.58600
C  10.39000 0.38800 32.48700
O  9.27700 -0.07300 32.20500
O  11.04900 0.30400 33.68000
C  10.36900 -0.35300 34.76900
H  6.41800 6.32000 30.82400
H  7.33300 5.85400 24.41600
H  10.91800 0.68900 25.22900
H  8.76900 2.92800 33.18400
H  8.09000 5.72800 32.90300
H  6.48600 4.70600 33.82600
H  6.64600 3.15000 32.98800
H  5.76300 4.52900 32.26400
H  10.38000 5.33700 33.48900
H  11.41500 3.94800 32.88800
H  11.67700 3.13700 34.61200
H  9.96000 3.11900 35.16700
H  4.63800 8.38900 28.37800
H  6.04300 9.12900 29.11100
H  5.08200 7.93600 29.95400
H  4.37500 9.20500 26.43600
H  5.28500 9.98800 25.20200
H  5.83600 10.12500 26.89200
H  9.17900 4.65000 23.13100
H  9.00800 1.71600 23.34900
H  6.59100 4.13800 23.16400
H  7.11100 2.53100 22.42500
H  7.68300 4.04700 21.78800
H  11.77300 2.90200 23.68100
H  10.91800 3.30200 22.19200
H  12.12300 1.50600 21.44700
H  10.55700 0.76900 21.91100
H  11.85500 0.65900 23.05400
H  12.13200 -1.83100 28.00600
H  13.04800 -0.65500 26.83500
H  11.48600 -1.34600 26.52600
H  12.01800 1.70600 32.07300
H  11.01800 -0.85900 35.48400
H  9.62600 -1.08900 34.46200
H  9.90600 0.42800 35.37200
Mg 43.52100 3.51400 48.60600
C  41.50800 6.41100 48.10600
C  40.57100 1.65700 48.24100
C  45.37400 0.80200 48.32900
C  46.42900 5.61800 48.33100
N  41.34700 4.01300 48.30900
C  40.75100 5.26700 48.21000
C  39.30000 5.14000 47.85200
C  38.97700 3.63500 48.08300
C  40.40600 3.03300 48.26900
C  37.99000 3.28700 49.19800
C  38.80500 5.66800 46.44200
C  39.83300 5.69500 45.24800
H  39.52300 6.81300 44.27500
N  43.01300 1.51200 48.44100
C  41.78500 0.91900 48.28900
C  41.94100 -0.52800 48.12700
C  43.30800 -0.82400 48.36000
C  43.93400 0.53000 48.37800
C  40.85900 -1.52200 47.90200
C  43.97500 -2.29200 48.49400
O  43.33300 -3.32300 48.32400
C  45.44200 -2.40500 48.86800
N  45.67900 3.25400 48.39300
C  46.16600 1.98300 48.37300
C  47.64300 2.01800 48.42300
C  47.95700 3.51000 48.48800
C  46.64000 4.19300 48.39900
C  48.26600 1.07500 49.46400
C  48.99500 4.06900 47.46700
C  50.22700 4.71900 48.10600
N  43.96700 5.54900 48.27200
C  45.18100 6.25800 48.18900
C  44.83200 7.69900 48.02400
C  43.37600 7.71500 48.00800
C  42.93600 6.43700 48.19900
C  45.70600 8.93500 48.07800
C  42.23400 8.59500 47.79700
O  42.30100 9.80700 47.45700
C  40.98800 7.79600 47.78400
C  39.98500 8.17200 48.82700
O  40.03600 7.93600 50.00400
O  39.02000 8.91400 48.24500
C  38.03800 9.45000 49.15800
H  39.65600 1.11800 47.98500
H  46.04700 -0.05700 48.37100
H  47.36500 6.17200 48.23200
H  38.78100 5.69500 48.63300
H  38.75200 3.26600 47.08200
H  37.51700 4.20900 49.53800
H  38.47600 2.63700 49.92500
H  37.27400 2.69500 48.62800
H  38.55700 6.72100 46.57800
H  37.87000 5.25900 46.05800
H  39.81300 4.80500 44.61900
H  40.80400 5.84300 45.72100
H  41.03200 -2.37300 48.55900
H  40.90600 -1.92800 46.89100
H  39.90800 -1.02400 48.09300
H  45.57700 -1.66800 49.66000
H  46.00600 -2.04600 48.00700
H  45.93900 -3.35300 49.07300
H  47.89200 1.65900 47.42400
H  48.31500 3.69000 49.50100
H  47.46600 0.78100 50.14300
H  49.00500 1.58900 50.07800
H  48.77800 0.19300 49.07800
H  48.50700 4.78300 46.80300
H  49.41700 3.29800 46.82100
H  50.17800 4.84100 49.18800
H  50.28600 5.71600 47.66700
H  51.14900 4.18800 47.87100
H  45.69300 9.56700 47.19000
H  46.72000 8.54600 48.16400
H  45.60500 9.48500 49.01300
H  40.53100 7.85900 46.79700
H  37.30300 8.67800 49.38700
H  37.54400 10.27200 48.64000
H  38.50300 9.90000 50.03500

