158

Mg 47.82000 45.32400 42.74500
C  44.50400 44.25800 42.72500
C  48.71900 41.85400 42.60000
C  50.92600 46.13200 41.90700
C  46.73200 48.64500 42.60100
N  46.78300 43.33700 42.73200
C  45.43200 43.18000 42.71900
C  45.09700 41.68500 42.76500
C  46.41300 40.87800 42.91400
C  47.36100 42.07100 42.76500
C  46.58800 40.07400 44.30000
C  44.13300 41.04100 41.68400
C  44.74000 41.13900 40.19900
H  43.76900 41.00300 38.94400
N  49.60500 44.20200 42.39400
C  49.77200 42.80500 42.38400
C  51.23500 42.49100 42.24300
C  51.83600 43.71700 42.00100
C  50.85500 44.74900 42.08200
C  51.76900 41.10500 42.05400
C  53.29000 43.88700 41.62000
O  54.00200 42.89200 41.49900
C  53.91000 45.18900 41.41600
N  48.61800 47.03800 42.34000
C  49.97000 47.19000 42.05200
C  50.39100 48.66100 41.97900
C  49.20700 49.39500 42.52700
C  48.08500 48.30400 42.47500
C  51.68100 49.12900 42.67800
C  48.87000 50.68500 41.71600
C  48.55200 51.92200 42.54600
N  46.04000 46.26000 42.91100
C  45.68500 47.66800 42.65900
C  44.29700 47.79800 42.56800
C  43.74800 46.46500 42.69600
C  44.85700 45.59900 42.83600
C  43.49200 49.00400 42.16900
C  42.53400 45.71200 42.70900
O  41.34100 46.03800 42.61400
C  42.95900 44.18900 42.85200
C  42.37500 43.67900 44.15100
O  41.40500 42.90300 44.27200
O  42.89300 44.48400 45.12900
C  42.35200 44.43700 46.43600
H  49.03500 40.81300 42.69400
H  51.86500 46.60600 41.61400
H  46.44400 49.69400 42.69600
H  44.58300 41.61000 43.72400
H  46.66700 40.11600 42.17600
H  45.57400 40.01700 44.69400
H  47.15300 40.74700 44.94500
H  47.11700 39.12200 44.34000
H  43.08500 41.30700 41.82600
H  44.03900 39.98900 41.95500
H  45.37200 40.25300 40.26400
H  45.30300 42.05900 40.04700
H  52.24400 40.97400 41.08100
H  51.02100 40.34800 42.28800
H  52.63000 40.95800 42.70500
H  53.67800 45.64500 40.45300
H  54.98700 45.03800 41.48800
H  53.52700 45.80000 42.23400
H  50.49500 48.69900 40.89500
H  49.40500 49.65600 43.56700
H  51.63500 50.20200 42.86600
H  52.58900 48.86000 42.13700
H  51.76000 48.59700 43.62600
H  48.10900 50.40000 40.99000
H  49.71500 50.94300 41.07600
H  47.52800 52.27200 42.41800
H  49.10000 52.77900 42.15600
H  48.84900 51.73900 43.57900
H  42.61200 48.72700 41.58800
H  44.11900 49.69700 41.60800
H  43.25800 49.53800 43.08900
H  42.44500 43.67700 42.03900
H  41.52000 43.73700 46.51900
H  41.98600 45.38200 46.83600
H  43.21000 44.12700 47.03200
Mg -1.90700 34.36700 27.22400
C  -3.34000 32.71600 29.80000
C  -0.24500 36.28700 29.52200
C  -0.81200 36.32700 24.68700
C  -3.75300 32.55500 24.92900
N  -1.91200 34.55100 29.44800
C  -2.48800 33.65500 30.28100
C  -2.13700 33.88900 31.74800
C  -1.09200 35.09700 31.64200
C  -1.07100 35.32100 30.12200
C  -1.33400 36.40000 32.39500
C  -1.51700 32.60300 32.50100
C  -2.16400 32.00800 33.75000
H  -1.36100 31.64300 35.01100
N  -0.64800 36.03700 27.10100
C  -0.02700 36.65400 28.17900
C  0.91900 37.60000 27.64200
C  0.67500 37.73900 26.23500
C  -0.32700 36.72000 25.96300
C  1.70900 38.49100 28.65700
C  1.17400 38.77700 25.13600
O  0.77800 38.90900 24.03300
C  2.37000 39.54900 25.56500
N  -2.30100 34.47800 25.15700
C  -1.65600 35.32800 24.33700
C  -2.15100 35.16100 22.93300
C  -2.85200 33.77000 22.93900
C  -3.02100 33.58400 24.40100
C  -3.10000 36.25200 22.46100
C  -2.08000 32.65000 22.22400
C  -0.56900 32.39200 22.69500
N  -3.32800 33.00200 27.30400
C  -3.89700 32.17300 26.30000
C  -4.70000 31.12000 26.88700
C  -4.58000 31.33900 28.26400
C  -3.65100 32.42900 28.43400
C  -5.56500 30.06900 26.25400
C  -4.91400 30.81400 29.52800
O  -5.48900 29.77700 29.77700
C  -4.14700 31.77600 30.61300
C  -5.25500 32.43400 31.29200
O  -6.14500 33.05000 30.80800
O  -5.14500 32.01600 32.61600
C  -6.22000 32.53000 33.48700
H  0.35700 36.64100 30.36200
H  -0.47100 36.93000 23.84200
H  -4.17000 31.89700 24.16400
H  -3.01700 34.22600 32.29500
H  -0.09400 34.87900 32.02100
H  -0.43200 36.75100 32.89600
H  -2.09900 36.37000 33.17000
H  -1.69600 37.18300 31.72900
H  -0.47100 32.85900 32.67300
H  -1.52000 31.78800 31.77800
H  -2.71000 31.10600 33.47500
H  -2.77700 32.81000 34.16200
H  2.74200 38.61500 28.33200
H  1.73400 38.10500 29.67600
H  1.30600 39.49500 28.79100
H  2.87800 39.98700 24.70500
H  3.07600 38.88300 26.05900
H  1.95300 40.34100 26.18700
H  -1.29600 35.13900 22.25800
H  -3.87000 33.71100 22.55400
H  -3.33200 36.78800 23.38100
H  -4.02600 35.85600 22.04500
H  -2.54800 36.83200 21.72100
H  -2.09600 32.79000 21.14300
H  -2.63800 31.72600 22.37400
H  0.14800 32.55600 21.89000
H  -0.42600 31.36900 23.04100
H  -0.31100 33.12600 23.45900
H  -5.22800 29.87200 25.23600
H  -6.59600 30.40200 26.37700
H  -5.39500 29.06500 26.64300
H  -3.59000 31.10200 31.26400
H  -7.16700 32.08900 33.17600
H  -6.31000 33.61600 33.45400
H  -5.91700 32.29600 34.50800

