158

Mg 48.53100 35.33600 28.60400
C  46.55200 33.60500 30.80100
C  48.42100 37.94700 30.77400
C  49.57500 37.33100 26.00400
C  48.14400 32.76200 26.25800
N  47.87100 35.59400 30.64200
C  47.00200 34.79900 31.36500
C  46.90900 35.23500 32.85900
C  47.12200 36.77200 32.54500
C  47.88600 36.79700 31.27800
C  45.86500 37.78400 32.52500
C  48.14500 34.64900 33.60300
C  47.93800 34.39300 35.09100
H  47.00500 35.43700 35.72300
N  49.09900 37.43200 28.46600
C  49.00900 38.33300 29.50800
C  49.47200 39.58500 28.97500
C  49.89700 39.38200 27.60500
C  49.55600 37.97200 27.29000
C  49.58500 40.84200 29.90200
C  50.51000 40.36500 26.68900
O  50.75700 40.14700 25.50500
C  50.90400 41.77900 27.20200
N  48.77000 35.11500 26.38800
C  49.25600 36.06600 25.60700
C  49.21400 35.60900 24.06600
C  48.91800 34.02700 24.19900
C  48.74500 33.92000 25.73300
C  48.33700 36.28800 23.01100
C  49.99200 33.19500 23.49300
C  49.95500 33.28300 21.97400
N  47.81000 33.54700 28.58300
C  47.72000 32.57600 27.57600
C  46.87600 31.47200 28.03000
C  46.42300 31.83400 29.25800
C  46.99300 33.10900 29.55400
C  46.57400 30.22700 27.31100
C  45.55300 31.40100 30.33400
O  44.91300 30.38800 30.53500
C  45.43100 32.63500 31.30000
C  45.57600 32.21500 32.69600
O  46.59500 31.64900 33.04200
O  44.51300 32.63300 33.51200
C  44.62400 32.34500 34.99500
H  48.21400 38.78500 31.44300
H  50.01700 37.87500 25.16600
H  47.97300 31.89500 25.61700
H  45.95700 35.03400 33.35200
H  47.84400 37.09300 33.29500
H  44.98100 37.24800 32.87100
H  45.76000 38.11800 31.49300
H  46.20100 38.65200 33.09300
H  49.07200 35.21200 33.49100
H  48.24700 33.64500 33.19100
H  48.80700 34.46400 35.74500
H  47.56000 33.37900 35.21900
H  50.60400 41.22800 29.94400
H  49.38900 40.49900 30.91800
H  48.81200 41.57600 29.67300
H  50.01200 42.15300 27.70500
H  51.26200 42.39200 26.37400
H  51.73200 41.65400 27.89900
H  50.25700 35.76400 23.78800
H  47.97700 33.68200 23.77100
H  47.53700 35.58800 22.77100
H  48.90700 36.64200 22.15200
H  47.88000 37.17600 23.44800
H  49.73700 32.17900 23.79600
H  50.94900 33.48300 23.92700
H  48.98200 33.61700 21.61500
H  50.22100 32.33100 21.51400
H  50.66200 34.04700 21.65100
H  47.29500 29.98000 26.53100
H  45.69300 30.49800 26.72900
H  46.36000 29.38300 27.96600
H  44.54300 33.24200 31.12500
H  43.86300 31.59300 35.19900
H  44.43700 33.27800 35.52700
H  45.63400 31.98500 35.19100
Mg 17.18800 51.10500 26.58300
C  19.02200 49.49900 28.98100
C  14.97400 52.14400 29.01600
C  15.19800 52.29500 24.18900
C  19.24600 49.64800 24.11400
N  16.97400 50.76700 28.73500
C  17.89400 50.16100 29.51300
C  17.63900 50.48900 31.00000
C  16.18300 50.97100 30.96300
C  15.98600 51.30300 29.44900
C  15.13500 50.04100 31.50000
C  18.70200 51.49400 31.53900
C  19.16100 51.16600 32.92600
H  18.13600 50.54900 33.97800
N  15.38000 52.10200 26.59300
C  14.74000 52.56600 27.67400
C  13.79300 53.58300 27.30900
C  13.71700 53.60700 25.89900
C  14.71400 52.56500 25.45800
C  13.02300 54.50500 28.35000
C  12.92400 54.35300 24.84900
O  13.00300 54.14100 23.59800
C  11.99000 55.38500 25.40000
N  17.11300 50.76300 24.45500
C  16.35000 51.57200 23.70300
C  16.52300 51.33800 22.19700
C  17.94400 50.63600 22.20700
C  18.13600 50.36900 23.67600
C  15.35300 50.54800 21.53300
C  19.06000 51.50400 21.43500
C  19.84500 50.66700 20.37100
N  18.82200 49.85300 26.54900
C  19.54000 49.34300 25.47500
C  20.63800 48.54600 26.07000
C  20.47600 48.63600 27.41600
C  19.31500 49.37200 27.66600
C  21.82000 47.95400 25.27700
C  21.11200 48.25200 28.70600
O  22.08900 47.57900 29.00600
C  20.19500 48.83300 29.76800
C  19.83400 47.73700 30.73600
O  19.07200 46.84700 30.49500
O  20.45900 47.96800 31.98200
C  19.98300 47.10800 33.05600
H  14.47600 52.66600 29.83700
H  14.62000 52.67400 23.34400
H  19.98000 49.30900 23.38000
H  17.79700 49.52800 31.49000
H  16.14100 51.91700 31.50300
H  14.43300 50.53100 32.17500
H  15.62500 49.32100 32.15500
H  14.60800 49.53200 30.69300
H  18.16100 52.43700 31.62400
H  19.49700 51.77100 30.84700
H  19.56200 52.06000 33.40400
H  20.03900 50.52100 32.92500
H  13.02700 55.51400 27.93600
H  13.51000 54.45500 29.32300
H  11.99000 54.15900 28.39700
H  11.58400 55.97800 24.58000
H  12.65700 56.09300 25.89200
H  11.22700 55.01400 26.08400
H  16.59100 52.24700 21.60000
H  17.84500 49.68900 21.67700
H  15.82900 49.73700 20.98200
H  14.76700 51.14000 20.82900
H  14.81300 50.03800 22.33000
H  19.82000 51.90000 22.10900
H  18.55300 52.33400 20.94200
H  19.86400 49.59100 20.54500
H  20.91000 50.90000 20.36600
H  19.43700 50.91400 19.39100
H  22.28900 48.78700 24.75500
H  21.27700 47.27200 24.62300
H  22.49700 47.40600 25.93300
H  20.69000 49.65900 30.27700
H  20.13900 46.03100 32.99500
H  18.92900 47.38400 33.08700
H  20.46200 47.43700 33.97800

