158

Mg 6.00500 53.57500 41.36700
C  5.42500 50.12200 40.79200
C  8.97000 53.37600 39.82000
C  6.10500 56.94500 41.39700
C  2.73500 53.77200 42.76100
N  6.88800 51.92400 40.25200
C  6.57600 50.58900 40.18600
C  7.63100 49.90800 39.31200
C  8.85000 50.85300 39.36500
C  8.16700 52.22400 39.83300
C  10.00300 50.35600 40.26800
C  6.95800 49.77100 37.89600
C  7.30100 48.49000 37.15800
H  6.37600 47.83900 36.17400
N  7.37600 54.97300 40.82600
C  8.57500 54.71000 40.21900
C  9.35600 55.85700 40.06800
C  8.57300 56.93400 40.47600
C  7.25500 56.34600 40.89600
C  10.85600 55.72100 39.59800
C  9.06900 58.40100 40.44100
O  10.12200 58.70800 39.86600
C  8.21100 59.56700 40.91000
N  4.60500 55.14900 41.87100
C  4.89200 56.47100 41.75200
C  3.71000 57.41100 42.12100
C  2.73200 56.34300 42.66400
C  3.34700 55.00900 42.40700
C  4.10400 58.52400 43.17800
C  1.31500 56.57800 42.15100
C  0.61100 57.86600 42.65900
N  4.41100 52.27400 41.75100
C  3.18900 52.46200 42.39100
C  2.59600 51.18200 42.62900
C  3.37800 50.18900 41.92700
C  4.52600 50.88800 41.51500
C  1.30600 50.97400 43.49600
C  3.58700 48.83700 41.69200
O  2.81200 47.91500 41.91400
C  4.91700 48.69300 40.96500
C  4.93800 47.71800 39.87300
O  4.57300 47.89800 38.71900
O  5.33500 46.51000 40.29500
C  5.06300 45.30300 39.47700
H  9.93100 53.24600 39.31900
H  6.29300 58.01800 41.47800
H  1.79500 53.87900 43.30700
H  7.75100 48.91800 39.75300
H  9.28500 51.01600 38.37900
H  9.73800 49.45000 40.81400
H  10.31400 51.12300 40.97700
H  10.78700 50.07900 39.56200
H  7.25200 50.54300 37.18500
H  5.87200 49.86200 37.93600
H  7.48000 47.83100 38.00700
H  8.25400 48.60300 36.64300
H  11.51800 56.52100 39.93000
H  10.95100 55.57000 38.52200
H  11.25700 54.80700 40.03600
H  8.77600 60.49300 40.80800
H  7.84300 59.40900 41.92400
H  7.38800 59.45400 40.20500
H  3.39700 57.86500 41.18100
H  2.71500 56.50900 43.74100
H  5.06900 58.28700 43.62600
H  3.38100 58.63700 43.98600
H  4.29200 59.43100 42.60400
H  0.62500 55.79200 42.45900
H  1.33900 56.55500 41.06200
H  -0.29500 57.68800 43.23900
H  0.41800 58.50000 41.79300
H  1.30800 58.39100 43.31200
H  1.21200 49.88800 43.51700
H  0.48400 51.46600 42.97600
H  1.52000 51.28400 44.51900
H  5.62400 48.29700 41.69300
H  4.01000 45.05300 39.34700
H  5.51900 44.44300 39.96600
H  5.53900 45.37600 38.49900
Mg 9.97900 47.62400 25.97000
C  8.23900 47.90500 28.96900
C  12.65500 49.17600 27.56200
C  11.71000 47.58000 23.09500
C  7.06800 46.63600 24.40600
N  10.25400 48.59900 28.00400
C  9.48600 48.45500 29.07400
C  10.12500 48.98400 30.41800
C  11.37600 49.74700 29.82200
C  11.45700 49.12700 28.38400
C  11.11600 51.27900 29.79100
C  10.57700 47.84100 31.40600
C  9.96500 47.87200 32.82200
H  10.19100 46.62000 33.76000
N  11.90900 48.18100 25.44700
C  12.86100 48.76800 26.25700
C  14.12800 48.83600 25.56700
C  13.94900 48.37700 24.23100
C  12.44700 48.01200 24.21700
C  15.28400 49.50900 26.25500
C  14.90900 48.13500 23.14100
O  14.69900 47.58800 22.04400
C  16.27500 48.61100 23.36100
N  9.42300 47.39400 24.05000
C  10.37200 47.28500 22.95300
C  9.69400 46.85200 21.69000
C  8.40700 46.33500 22.22100
C  8.23200 46.87300 23.63800
C  9.53700 47.82700 20.43400
C  8.21900 44.81400 21.96200
C  9.18600 44.08400 22.90600
N  8.00100 47.50700 26.44900
C  6.93700 46.99300 25.78800
C  5.73800 46.98800 26.61700
C  6.28400 47.26400 27.87800
C  7.64500 47.58700 27.77000
C  4.37700 46.62700 26.22400
C  5.90800 47.29700 29.28200
O  4.82000 47.11800 29.77000
C  7.17700 47.67300 30.06500
C  7.45400 46.41500 30.83800
O  8.03800 45.41500 30.41600
O  6.93400 46.43200 32.17500
C  7.11500 45.17800 32.95200
H  13.47200 49.49900 28.21000
H  12.34800 47.69000 22.21500
H  6.29400 46.07400 23.87800
H  9.45600 49.68000 30.92300
H  12.19600 49.54500 30.51100
H  11.89200 51.79800 30.35400
H  10.19000 51.50100 30.32200
H  11.13600 51.55100 28.73600
H  11.65700 47.82800 31.55100
H  10.22100 46.89400 31.00200
H  8.90100 48.07600 32.70100
H  10.31900 48.81900 33.22800
H  15.90900 49.92300 25.46300
H  15.77600 48.96900 27.06400
H  15.10500 50.43600 26.79900
H  16.69500 48.15400 24.25600
H  16.25900 49.69800 23.29000
H  17.02200 48.33500 22.61700
H  10.31400 46.00600 21.39500
H  7.58000 46.71500 21.62200
H  9.95300 48.78300 20.75000
H  8.49400 47.88700 20.12300
H  10.11600 47.41400 19.60800
H  8.36200 44.59400 20.90400
H  7.19300 44.58100 22.24600
H  8.62400 43.73100 23.77000
H  10.03700 44.62500 23.31800
H  9.46500 43.19000 22.34800
H  3.97800 47.44900 25.63000
H  3.75700 46.40600 27.09300
H  4.34500 45.79900 25.51700
H  7.00200 48.45200 30.80700
H  7.51400 45.36300 33.95000
H  7.78400 44.47900 32.45100
H  6.18300 44.63400 33.10300

