158

Mg 35.66200 3.13500 30.44800
C  33.17600 3.76700 32.71000
C  38.05600 3.61400 32.85400
C  38.05600 2.54200 28.07400
C  33.28800 3.48700 27.85500
N  35.63600 3.78300 32.47700
C  34.50400 3.73900 33.30900
C  34.83100 3.80600 34.79900
C  36.33600 4.20500 34.73400
C  36.72300 3.83800 33.27300
C  36.61100 5.69700 35.14300
C  34.51200 2.51300 35.55100
C  34.38600 2.58000 37.09200
H  35.13200 3.63200 37.86300
N  37.78300 3.02900 30.47300
C  38.59700 3.25900 31.56100
C  39.97700 3.10700 31.15500
C  39.97800 2.76600 29.77600
C  38.54200 2.77400 29.37800
C  41.15600 3.05300 32.11000
C  41.09700 2.42800 28.77300
O  40.91800 2.26500 27.53100
C  42.47700 2.28300 29.15500
N  35.62000 3.04100 28.26500
C  36.74600 2.60200 27.58100
C  36.36700 2.19000 26.11100
C  34.78600 2.52200 26.00300
C  34.53900 3.12900 27.42800
C  37.33400 2.67900 24.97400
C  33.92400 1.25700 25.79300
C  32.66500 1.38500 24.81400
N  33.57900 3.60700 30.22200
C  32.74400 3.65300 29.15800
C  31.42800 3.88700 29.64500
C  31.53900 3.89200 31.03700
C  32.89500 3.78200 31.31200
C  30.32000 4.13900 28.70100
C  30.83800 4.12700 32.29000
O  29.65500 4.44600 32.50500
C  31.91600 3.99900 33.46700
C  31.99500 5.39000 34.09800
O  32.48300 6.45300 33.58000
O  31.57700 5.16700 35.37600
C  31.92600 6.21400 36.34000
H  38.80000 3.65200 33.65200
H  38.76500 2.41700 27.25300
H  32.57000 3.49900 27.03300
H  34.26000 4.66800 35.14300
H  36.82700 3.51500 35.42000
H  37.37100 5.72200 35.92400
H  35.69400 6.11100 35.56200
H  37.10600 6.34600 34.42200
H  35.33600 1.83600 35.32600
H  33.64800 1.97500 35.16000
H  34.45500 1.62000 37.60500
H  33.33600 2.87300 37.10800
H  41.71800 3.96200 31.89400
H  41.74900 2.15000 31.96700
H  40.74200 3.13600 33.11500
H  43.09800 2.03500 28.29400
H  42.55100 1.55200 29.96000
H  42.69800 3.24100 29.62500
H  36.47300 1.10800 26.19400
H  34.54200 3.21300 25.19600
H  37.88000 3.55600 25.32300
H  36.78600 2.82700 24.04400
H  38.03600 1.85300 24.85500
H  33.54600 0.89600 26.74900
H  34.59900 0.56100 25.29300
H  32.91500 0.77800 23.94400
H  32.28300 2.38000 24.58700
H  31.79200 0.96400 25.31300
H  29.32800 4.22300 29.14400
H  30.21500 3.38400 27.92200
H  30.49100 5.08500 28.18700
H  31.89000 3.13900 34.13600
H  32.07300 7.18300 35.86400
H  32.78500 5.92900 36.94800
H  31.02800 6.28900 36.95300
Mg -0.41900 43.98000 26.03000
C  1.53100 43.61100 28.84100
C  -3.22400 42.88800 27.96400
C  -2.29200 43.57100 23.21100
C  2.43100 44.50600 24.18200
N  -0.82000 43.26500 28.05400
C  0.15400 43.43600 29.07800
C  -0.44400 43.26400 30.46400
C  -1.90700 42.84500 30.13700
C  -1.97000 42.92600 28.60600
C  -2.28900 41.38000 30.66200
C  -0.27000 44.54300 31.34600
C  0.21800 44.33800 32.80000
H  -0.10600 43.08000 33.51400
N  -2.53500 43.52700 25.64900
C  -3.50800 43.20000 26.58600
C  -4.78000 43.03200 25.88900
C  -4.53000 43.23300 24.54000
C  -3.03700 43.45700 24.36200
C  -6.04700 42.75200 26.57900
C  -5.40900 43.16900 23.36600
O  -5.03000 43.44400 22.20500
C  -6.83500 42.80400 23.61300
N  0.00100 44.06400 24.07700
C  -0.89600 43.91900 23.08700
C  -0.25900 44.10800 21.71400
C  1.09600 44.66600 22.05900
C  1.22800 44.33700 23.57700
C  -0.22900 42.83500 20.89700
C  1.22600 46.16200 21.84300
C  1.31700 46.53100 20.36300
N  1.59700 44.11800 26.42400
C  2.65100 44.39600 25.62200
C  3.84100 44.63500 26.36200
C  3.42400 44.29400 27.67200
C  2.10800 43.95800 27.63700
C  5.08200 45.15200 25.85700
C  3.92700 44.14300 29.03100
O  4.99900 44.29600 29.55900
C  2.60100 43.86200 29.89000
C  2.87100 42.62000 30.78700
O  2.56300 41.45900 30.56000
O  3.70000 42.95100 31.85900
C  4.13300 41.84000 32.77100
H  -4.14800 42.55700 28.44300
H  -2.60800 43.48700 22.16900
H  3.41400 44.63200 23.72300
H  -0.06300 42.34600 30.91400
H  -2.59300 43.57200 30.57200
H  -2.98600 41.71000 31.43200
H  -1.48800 40.93400 31.25100
H  -2.75000 40.68000 29.96500
H  -1.25300 45.01300 31.39000
H  0.43200 45.23000 30.87400
H  -0.23600 45.14700 33.37200
H  1.28100 44.56600 32.87100
H  -6.95400 43.25900 26.25000
H  -6.07200 43.03400 27.63200
H  -6.17600 41.67300 26.66600
H  -7.07500 42.01600 24.32700
H  -7.24500 42.58700 22.62600
H  -7.37400 43.65600 24.02700
H  -0.92800 44.76400 21.15800
H  1.95300 44.23600 21.54000
H  -0.92800 42.09800 21.29300
H  0.69700 42.26100 20.91900
H  -0.54300 43.13200 19.89700
H  2.10500 46.56700 22.34500
H  0.39000 46.68300 22.30900
H  0.63200 47.34100 20.11200
H  1.21900 45.69700 19.66700
H  2.31400 46.91700 20.15100
H  4.93500 45.50200 24.83600
H  5.85300 44.38300 25.90800
H  5.48800 45.91500 26.52100
H  2.57700 44.79600 30.45000
H  4.84600 42.43500 33.34100
H  4.59200 41.06900 32.15200
H  3.39300 41.36200 33.41300

