158

Mg 8.20300 2.90900 27.42400
C  9.66300 1.52900 30.35500
C  6.30000 4.82000 29.66900
C  6.74100 4.07100 24.70000
C  9.34700 0.16400 25.66300
N  7.94100 3.10700 29.80400
C  8.88000 2.60200 30.69200
C  8.79200 3.24600 32.06300
C  7.56800 4.27800 31.80700
C  7.25300 4.08400 30.36300
C  6.31100 4.05700 32.66100
C  10.08100 3.92600 32.50000
C  10.53700 3.41600 33.92200
H  10.85400 4.46600 35.06800
N  6.83900 4.40100 27.17400
C  6.06700 4.95700 28.22000
C  5.01400 5.76900 27.59100
C  5.30900 5.73600 26.20800
C  6.34500 4.70800 25.95100
C  4.03500 6.61500 28.39100
C  4.64900 6.54000 25.15400
O  4.90700 6.38500 23.99000
C  3.61100 7.57500 25.56600
N  8.16900 2.34400 25.40900
C  7.57100 2.99000 24.46300
C  7.75200 2.25700 23.06400
C  8.50100 0.95800 23.43100
C  8.62400 1.06200 24.96800
C  6.50700 2.14700 22.13800
C  9.93800 0.73100 22.73700
C  10.17200 1.28400 21.31000
N  9.38800 1.29800 27.80800
C  9.75800 0.25700 26.99000
C  10.62200 -0.62400 27.73900
C  10.61400 -0.14600 29.05500
C  9.84400 1.03500 29.02200
C  11.27200 -1.86500 27.12900
C  11.23700 -0.27500 30.35800
O  12.03700 -1.17900 30.70600
C  10.68000 0.84800 31.21000
C  10.08300 0.17400 32.40600
O  9.00300 -0.40300 32.39800
O  10.91800 0.26800 33.47800
C  10.58600 -0.60600 34.57000
H  5.69000 5.50100 30.26500
H  6.21500 4.36100 23.78800
H  9.72400 -0.69500 25.10400
H  8.52500 2.46600 32.77600
H  7.78800 5.34400 31.86200
H  5.61800 3.31200 32.27100
H  5.73400 4.97500 32.77600
H  6.56900 3.71300 33.66300
H  10.04100 5.01300 32.57100
H  10.81200 3.69000 31.72700
H  11.47600 2.88300 33.76900
H  9.83700 2.66700 34.29300
H  4.50500 7.53900 28.72700
H  3.74200 6.03300 29.26500
H  3.11000 6.77000 27.83700
H  2.71100 6.97500 25.70000
H  3.33000 8.21000 24.72500
H  3.96400 8.16100 26.41500
H  8.54300 2.81300 22.56100
H  7.87900 0.07000 23.31800
H  5.65200 2.70200 22.52400
H  6.19200 1.16700 21.78000
H  6.95700 2.54500 21.22900
H  10.01200 -0.35100 22.62900
H  10.60500 1.16500 23.48100
H  9.25100 1.47300 20.76000
H  10.75500 0.57900 20.71600
H  10.78200 2.18100 21.41400
H  11.65500 -1.50900 26.17200
H  10.54900 -2.67700 27.04800
H  12.05700 -2.25300 27.77900
H  11.52800 1.47700 31.48200
H  10.11100 -1.48400 34.13300
H  9.93700 -0.08400 35.27400
H  11.45700 -0.83600 35.18400
Mg -11.59200 37.56100 41.88700
C  -9.48700 35.04100 40.67700
C  -9.74100 39.86600 40.05200
C  -14.17300 39.78300 42.28900
C  -13.54300 35.07200 43.24700
N  -9.83300 37.40900 40.45800
C  -9.08500 36.30800 40.21800
C  -7.92600 36.69600 39.31100
C  -7.94400 38.29200 39.25400
C  -9.28200 38.55600 40.03500
C  -6.68500 39.05900 39.73400
C  -7.97900 36.06900 37.88000
C  -6.76200 35.23300 37.50000
H  -5.72800 35.94000 36.62200
N  -11.80200 39.59600 41.43100
C  -10.92500 40.32600 40.68900
C  -11.41700 41.69100 40.55300
C  -12.64400 41.71500 41.32100
C  -12.87700 40.32600 41.81500
C  -10.78600 42.80600 39.81600
C  -13.46600 43.00600 41.57900
O  -13.03300 44.05800 41.05800
C  -14.73900 43.03000 42.41200
N  -13.56700 37.40000 42.60600
C  -14.45600 38.40800 42.69100
C  -15.90300 37.94000 43.13600
C  -15.72500 36.47000 43.40400
C  -14.15900 36.29800 43.07300
C  -16.44900 38.75100 44.35000
C  -16.53100 35.56100 42.44100
C  -17.60000 34.54400 42.91000
N  -11.43500 35.48800 42.18200
C  -12.28200 34.63600 42.78500
C  -11.67400 33.30300 42.77500
C  -10.51400 33.45000 42.02800
C  -10.46500 34.75400 41.58000
C  -12.29800 32.10700 43.42800
C  -9.39800 32.74600 41.37400
O  -9.08000 31.56400 41.44300
C  -8.70100 33.79200 40.54600
C  -7.24700 33.82200 41.04900
O  -6.43600 32.95300 40.78100
O  -7.05400 34.95700 41.77400
C  -5.79900 35.10900 42.53400
H  -9.09400 40.55300 39.50400
H  -14.98400 40.51300 42.33800
H  -14.18600 34.30000 43.67400
H  -6.98900 36.40000 39.78200
H  -8.06900 38.66300 38.23700
H  -6.91800 39.52700 40.69000
H  -6.38800 39.92000 39.13700
H  -5.90900 38.33300 39.97500
H  -8.11100 36.86200 37.14400
H  -8.92600 35.57000 37.67900
H  -6.95600 34.22200 37.14200
H  -6.31300 35.02700 38.47200
H  -9.93300 42.59700 39.17000
H  -10.37200 43.49700 40.55100
H  -11.47000 43.37400 39.18600
H  -15.02500 44.00200 42.81300
H  -14.66100 42.37900 43.28300
H  -15.57000 42.64700 41.82000
H  -16.52600 38.17400 42.27200
H  -15.93100 36.21100 44.44300
H  -15.60600 38.88300 45.02800
H  -17.27300 38.16500 44.75600
H  -16.83500 39.74400 44.12100
H  -15.89400 34.82400 41.95100
H  -16.99100 36.18500 41.67600
H  -18.54500 35.01600 43.17700
H  -17.13600 34.22500 43.84300
H  -17.71600 33.72400 42.20100
H  -12.82100 31.50800 42.68300
H  -13.02400 32.46400 44.15900
H  -11.38500 31.71000 43.87200
H  -8.66200 33.44000 39.51500
H  -6.12400 35.66100 43.41600
H  -4.99400 35.70300 42.10100
H  -5.30400 34.24300 42.97500

