158

Mg 46.45500 16.68200 28.32300
C  44.35900 15.99300 30.93000
C  48.61000 18.35900 30.44200
C  48.41400 17.40100 25.84400
C  44.25200 14.92200 26.14400
N  46.50900 17.12600 30.42400
C  45.56500 16.56100 31.34100
C  46.00300 16.85900 32.77200
C  47.38800 17.59000 32.55600
C  47.52000 17.74700 31.07000
C  47.56000 18.93200 33.27300
C  46.01300 15.64000 33.78700
C  45.41000 15.94800 35.13400
H  45.23800 17.42900 35.60200
N  48.28700 17.72800 28.15900
C  49.03000 18.37000 29.08800
C  50.19800 18.96300 28.56900
C  50.29500 18.58900 27.19700
C  48.95400 17.90000 26.98900
C  51.22000 19.85200 29.39900
C  51.44200 18.70500 26.19500
O  51.31200 18.30000 25.03400
C  52.72300 19.32200 26.56100
N  46.39000 16.16700 26.27000
C  47.25900 16.73200 25.45900
C  46.99800 16.31400 23.95500
C  45.70000 15.41000 24.01500
C  45.38500 15.50300 25.54200
C  46.77800 17.63200 23.08900
C  45.89500 13.85900 23.63000
C  45.07700 13.29700 22.42600
N  44.66200 15.66800 28.46500
C  43.83100 15.10700 27.49000
C  42.52300 14.73300 28.08000
C  42.71700 15.02700 29.43800
C  43.96600 15.59700 29.63600
C  41.28000 14.25100 27.37700
C  42.13900 15.03000 30.74100
O  40.97400 14.68100 31.03100
C  43.19900 15.52800 31.75300
C  42.53000 16.60900 32.60600
O  42.17900 17.71800 32.29500
O  42.33800 16.09100 33.82900
C  41.48800 16.93700 34.62700
H  49.38000 18.67300 31.15000
H  49.13100 17.66600 25.06500
H  43.49000 14.64600 25.41200
H  45.30500 17.59300 33.17500
H  48.17300 16.87300 32.79500
H  47.66900 19.77100 32.58600
H  48.46700 18.84600 33.87100
H  46.64600 19.07000 33.85100
H  47.03700 15.30600 33.95100
H  45.53600 14.78800 33.30400
H  46.07300 15.55000 35.90300
H  44.44800 15.44200 35.22200
H  50.80400 20.85300 29.51300
H  52.20800 19.92000 28.94500
H  51.39900 19.30500 30.32500
H  53.36300 19.31600 25.67900
H  53.06700 18.70100 27.38800
H  52.52700 20.36200 26.82400
H  47.82100 15.73000 23.54300
H  44.79700 15.68200 23.46900
H  45.72100 17.75000 22.85400
H  47.41000 17.37900 22.23700
H  47.14000 18.47300 23.67900
H  45.71500 13.13900 24.42900
H  46.96500 13.69700 23.50000
H  44.02500 13.48600 22.63900
H  45.25700 12.24600 22.20100
H  45.37100 13.89400 21.56200
H  41.22100 13.16400 27.43800
H  41.24700 14.58200 26.33900
H  40.35700 14.67700 27.77000
H  43.49400 14.64700 32.32200
H  40.55900 16.95300 34.05800
H  41.89000 17.90600 34.92300
H  41.24200 16.42700 35.55900
Mg 0.86400 42.57900 26.19100
C  3.27800 42.58100 28.77700
C  -1.49100 41.94900 28.53100
C  -1.23700 41.98800 23.61800
C  3.57400 42.85900 23.88600
N  0.91500 42.38300 28.35900
C  1.96900 42.56100 29.21900
C  1.59100 42.59400 30.70900
C  0.11300 42.05700 30.59600
C  -0.20700 42.15900 29.07400
C  -0.33600 40.60600 31.15400
C  1.78700 44.08100 31.27600
C  1.17500 44.25000 32.72100
H  1.18400 43.06200 33.69000
N  -1.17400 42.08600 26.14800
C  -1.96100 41.86900 27.16000
C  -3.31800 41.71100 26.66300
C  -3.23500 41.73700 25.24600
C  -1.86600 41.93400 24.92000
C  -4.43800 41.38800 27.71000
C  -4.33600 41.57100 24.26900
O  -4.17700 41.56900 23.05500
C  -5.78400 41.42300 24.84300
N  1.18200 42.65400 24.13200
C  0.11200 42.29900 23.29400
C  0.57500 42.17300 21.83300
C  2.08300 42.73500 21.91500
C  2.30600 42.80300 23.38400
C  0.38100 40.63700 21.36300
C  2.18700 44.23000 21.39800
C  1.48500 45.35500 22.12900
N  3.03500 42.62000 26.23500
C  3.99400 42.75300 25.23400
C  5.31700 42.90900 25.81400
C  5.07300 42.74600 27.25300
C  3.68700 42.60400 27.38200
C  6.61600 43.12300 25.12500
C  5.66000 42.62400 28.53700
O  6.85000 42.66000 28.80000
C  4.56700 42.55800 29.53000
C  4.88900 41.30700 30.32500
O  4.44100 40.17300 30.16800
O  5.61400 41.74600 31.37300
C  5.75700 40.60700 32.38200
H  -2.27900 41.86800 29.28300
H  -1.83200 41.81300 22.71900
H  4.36200 42.92300 23.13200
H  2.28300 41.89000 31.17300
H  -0.62000 42.73600 31.03200
H  0.30200 40.32500 31.99200
H  -0.32900 40.00000 30.24900
H  -1.35700 40.55200 31.53200
H  1.23600 44.68600 30.55600
H  2.84800 44.32000 31.34700
H  0.22800 44.78600 32.78300
H  1.74400 44.93400 33.35000
H  -5.38300 41.91500 27.57500
H  -4.11800 41.68300 28.70900
H  -4.72500 40.33800 27.67600
H  -6.52700 41.48600 24.04800
H  -6.12700 42.21200 25.51200
H  -5.71900 40.49800 25.41600
H  0.07700 42.79400 21.08800
H  2.78100 41.97500 21.56600
H  1.35300 40.16700 21.20800
H  0.02000 40.65500 20.33500
H  -0.29500 40.04600 21.98000
H  1.75000 44.13300 20.40400
H  3.21000 44.56500 21.22300
H  0.82900 45.03200 22.93800
H  0.84600 45.88600 21.42300
H  2.19000 46.05700 22.57300
H  6.54600 43.97700 24.45100
H  7.11700 42.24300 24.72100
H  7.27800 43.41500 25.94000
H  4.68100 43.37300 30.24500
H  6.43600 41.15000 33.03900
H  6.38000 39.80000 31.99600
H  4.87000 40.28100 32.92400

