158

Mg 25.90400 50.23400 27.10600
C  24.00400 51.78200 29.45100
C  28.34000 49.41300 29.48900
C  27.91200 49.27700 24.59300
C  23.65400 51.32700 24.60400
N  26.09000 50.45500 29.21600
C  25.09600 51.01800 30.03100
C  25.43800 50.83700 31.51100
C  26.93500 50.26000 31.51600
C  27.14000 49.98700 30.00200
C  27.95600 51.24300 32.06900
C  24.42600 50.00300 32.33500
C  24.05100 50.64100 33.69100
H  24.00700 49.62000 34.82900
N  27.86500 49.46700 27.04000
C  28.69000 49.15500 28.12700
C  29.86800 48.46500 27.61600
C  29.80000 48.55500 26.19300
C  28.49300 49.07500 25.87300
C  30.84800 47.86000 28.52400
C  30.81100 48.05700 25.19300
O  30.62400 48.10300 23.95000
C  32.13600 47.32100 25.66900
N  25.86000 50.42200 24.89600
C  26.67400 49.78100 24.14100
C  26.32000 49.82200 22.67100
C  24.89700 50.48200 22.70000
C  24.79100 50.76200 24.11900
C  27.24700 50.57300 21.66000
C  23.81900 49.54700 22.14000
C  23.29500 48.38600 23.02600
N  24.16500 51.38600 27.03000
C  23.31000 51.60100 25.91000
C  22.11900 52.25300 26.45800
C  22.37100 52.40600 27.86600
C  23.59500 51.85700 28.10800
C  21.05400 52.81900 25.62100
C  21.88300 52.95700 29.06300
O  20.88100 53.60600 29.28400
C  22.85200 52.40100 30.23400
C  23.16600 53.34800 31.33500
O  23.96100 54.24100 31.27100
O  22.26700 53.08900 32.29500
C  22.44600 53.85400 33.53400
H  29.02200 49.14900 30.30000
H  28.60000 48.97200 23.80200
H  22.90900 51.51700 23.82800
H  25.55000 51.80200 32.00600
H  26.99100 49.37900 32.15500
H  28.50100 51.71500 31.25200
H  28.71300 50.63600 32.56600
H  27.53300 51.95900 32.77400
H  24.81500 49.01400 32.57800
H  23.50900 49.96700 31.74700
H  23.07200 51.11000 33.58900
H  24.67700 51.51900 33.85100
H  30.95300 46.79700 28.30700
H  30.43000 47.83700 29.53000
H  31.86000 48.25800 28.59000
H  32.80800 48.01900 26.16800
H  32.53400 46.85300 24.76800
H  31.87800 46.60100 26.44600
H  26.26000 48.77800 22.36600
H  24.96100 51.41000 22.13200
H  26.63600 51.09000 20.92000
H  27.78900 49.79400 21.12400
H  27.93200 51.26500 22.15000
H  24.16600 49.06700 21.22500
H  23.01500 50.21400 21.83100
H  22.21200 48.37200 22.90200
H  23.57700 48.54100 24.06700
H  23.68000 47.48800 22.54100
H  21.44300 53.62600 25.00000
H  20.19500 53.16400 26.19600
H  20.82300 52.02000 24.91700
H  22.37000 51.47400 30.54600
H  23.48300 53.87600 33.87000
H  21.87000 53.22100 34.20900
H  22.06100 54.87200 33.47600
Mg -13.18800 38.46100 41.51000
C  -11.05600 35.77100 40.51400
C  -11.11700 40.58500 39.99500
C  -15.59800 40.76700 41.91000
C  -15.60900 35.94400 42.54900
N  -11.31000 38.28300 40.42000
C  -10.64900 37.04600 40.07600
C  -9.35600 37.33800 39.28500
C  -9.48900 38.87600 39.14200
C  -10.69700 39.28000 39.94500
C  -8.21500 39.71600 39.43200
C  -9.12900 36.48800 38.00000
C  -7.66600 35.92300 37.80100
H  -6.67900 36.73800 36.99700
N  -13.29200 40.45500 41.08800
C  -12.33300 41.14600 40.43300
C  -12.78600 42.49300 40.27000
C  -14.17900 42.55200 40.66200
C  -14.44700 41.21200 41.22600
C  -11.97700 43.57800 39.59300
C  -15.16600 43.66100 40.40900
O  -14.74700 44.75300 39.98000
C  -16.56200 43.42300 40.55100
N  -15.33900 38.34400 42.18600
C  -16.10800 39.46900 42.23800
C  -17.57800 39.21400 42.64200
C  -17.51300 37.65800 42.93100
C  -16.06000 37.25500 42.55000
C  -18.09900 40.07700 43.84000
C  -18.71300 36.93600 42.33200
C  -18.56600 36.60500 40.82900
N  -13.30200 36.36100 41.65900
C  -14.30100 35.53300 42.17100
C  -13.82200 34.16000 42.13300
C  -12.51700 34.25400 41.66800
C  -12.28300 35.60200 41.25800
C  -14.53200 32.88600 42.70700
C  -11.39600 33.44300 41.28500
O  -11.39700 32.15300 41.21100
C  -10.40200 34.39000 40.59300
C  -9.17500 34.42000 41.47900
O  -9.05400 35.00500 42.53800
O  -8.10900 33.72200 40.84600
C  -6.88200 33.52100 41.66000
H  -10.44200 41.30100 39.52100
H  -16.45400 41.44000 42.00000
H  -16.26800 35.13300 42.86500
H  -8.58500 37.17900 40.03900
H  -9.89900 38.99400 38.13900
H  -7.93000 40.31000 38.56400
H  -7.39000 39.02000 39.58100
H  -8.35900 40.38800 40.27800
H  -9.45200 37.11900 37.17200
H  -9.84200 35.66500 37.94600
H  -7.67800 34.93500 37.34200
H  -7.20400 35.75400 38.77400
H  -11.83900 44.36800 40.33200
H  -12.32800 44.03600 38.66800
H  -11.00900 43.16000 39.31700
H  -16.83100 42.48200 40.07300
H  -17.15300 44.13900 39.98000
H  -16.81900 43.51300 41.60700
H  -18.15500 39.41900 41.74000
H  -17.47800 37.52500 44.01300
H  -18.43100 39.51200 44.71100
H  -18.95100 40.67100 43.50900
H  -17.33600 40.82100 44.06900
H  -19.65500 37.44300 42.53900
H  -18.77900 35.98700 42.86300
H  -19.52700 36.79300 40.35100
H  -18.25000 35.56700 40.72800
H  -17.68100 37.16400 40.52600
H  -14.28700 31.99600 42.12800
H  -15.59300 33.12000 42.80400
H  -14.08700 32.78900 43.69700
H  -10.06900 34.09300 39.59800
H  -6.00900 33.63200 41.01700
H  -6.79700 32.60000 42.23700
H  -6.73200 34.41600 42.26500

