158

Mg 43.06100 41.57500 27.34200
C  42.23000 43.81300 29.77400
C  43.71400 39.19100 29.80800
C  44.40100 39.44100 24.93400
C  42.78600 44.06700 24.97200
N  43.09500 41.50400 29.55900
C  42.55800 42.53000 30.29400
C  42.42600 42.05800 31.78200
C  43.26000 40.76200 31.81100
C  43.42300 40.46500 30.28900
C  44.72800 41.04100 32.46600
C  40.90400 41.86600 32.11600
C  40.33900 42.76400 33.27100
H  39.80500 42.26500 34.66100
N  43.87000 39.59600 27.36000
C  43.95300 38.81000 28.47100
C  44.43800 37.51800 27.99600
C  44.64700 37.49200 26.61000
C  44.29100 38.89300 26.24800
C  44.74700 36.38800 28.93300
C  45.08800 36.32300 25.73100
O  45.36400 36.53200 24.55200
C  45.16400 34.93600 26.15900
N  43.31000 41.69800 25.26100
C  43.96800 40.69700 24.44700
C  44.05800 41.14400 22.96300
C  43.30000 42.49600 23.02500
C  43.05500 42.79100 24.53700
C  45.49200 41.14400 22.32100
C  42.00600 42.49500 22.17000
C  40.75400 41.66600 22.56500
N  42.60400 43.53900 27.34100
C  42.48700 44.43400 26.28600
C  41.98700 45.72400 26.76800
C  41.81400 45.56200 28.15300
C  42.30500 44.22300 28.43200
C  41.78500 46.99700 25.94400
C  41.42900 46.09500 29.40800
O  40.99000 47.18200 29.73300
C  41.67000 44.98900 30.48300
C  42.64800 45.52300 31.57100
O  43.88200 45.75100 31.59700
O  41.92000 45.53900 32.76400
C  42.71700 46.14100 33.92800
H  44.01300 38.45200 30.55400
H  44.89500 38.75100 24.24600
H  42.60700 44.86800 24.25100
H  42.93700 42.78500 32.41200
H  42.69100 39.98800 32.32600
H  45.55900 40.65100 31.87800
H  44.82000 40.52800 33.42300
H  44.94200 42.11000 32.48100
H  40.67000 40.81500 32.28400
H  40.27500 42.03500 31.24200
H  39.60200 43.35700 32.73000
H  41.18300 43.33600 33.65500
H  43.94000 35.65600 28.97400
H  44.81000 36.82100 29.93100
H  45.72800 35.99500 28.66600
H  46.00400 34.38400 26.58000
H  44.78600 34.54700 25.21300
H  44.26100 34.83400 26.76000
H  43.44100 40.43400 22.41200
H  43.97500 43.22000 22.56900
H  45.39100 40.66000 21.34900
H  46.05800 40.57200 23.05600
H  46.01700 42.09900 22.29800
H  42.40100 42.18000 21.20500
H  41.70600 43.53800 22.07000
H  40.45400 40.93200 21.81700
H  39.95000 42.38400 22.72500
H  40.92800 41.01400 23.42100
H  42.02300 47.89600 26.51200
H  40.73500 47.01000 25.65000
H  42.29800 46.91300 24.98600
H  40.72700 44.69800 30.94600
H  42.73300 47.19200 33.64000
H  43.68700 45.69400 34.14400
H  42.17200 46.09800 34.87200
Mg 27.16900 49.59900 26.08300
C  25.01800 50.67700 28.69700
C  29.51300 48.81200 28.42000
C  29.46300 49.12500 23.50700
C  24.91800 50.92200 23.79100
N  27.30400 49.90800 28.27700
C  26.28700 50.17900 29.19300
C  26.59300 49.79000 30.62100
C  28.15100 49.54000 30.46500
C  28.35000 49.34000 28.92400
C  29.20700 50.48000 31.17900
C  25.72000 48.53900 31.04900
C  25.45900 48.25700 32.61300
H  25.91700 49.27300 33.68900
N  29.11800 48.90600 26.02700
C  29.89800 48.65900 27.09000
C  31.16900 48.22600 26.68400
C  31.29300 48.47900 25.26000
C  29.94600 48.86800 24.87400
C  32.20000 47.69300 27.61000
C  32.53800 48.37400 24.42900
O  32.54800 48.58200 23.22200
C  33.79900 47.87800 24.97700
N  27.14100 49.79300 23.92900
C  28.14900 49.55000 23.08100
C  27.73900 49.75200 21.64800
C  26.29800 50.27000 21.72200
C  26.09700 50.37700 23.24800
C  28.72300 50.65100 20.77400
C  25.26900 49.34500 21.04300
C  24.21300 50.08800 20.26000
N  25.29200 50.64200 26.13200
C  24.53600 51.12100 25.11700
C  23.33700 51.60100 25.72000
C  23.44600 51.43100 27.13200
C  24.69900 50.90700 27.33700
C  22.18900 52.26900 24.99000
C  22.81600 51.74600 28.39700
O  21.69000 52.20500 28.64600
C  23.81200 51.15900 29.45900
C  24.16800 52.17400 30.51300
O  25.08700 52.96400 30.47700
O  23.18200 52.17200 31.51500
C  23.40400 53.06700 32.67600
H  30.11400 48.28900 29.16700
H  30.19500 49.00200 22.70600
H  24.18800 51.22700 23.03800
H  26.33100 50.63000 31.26400
H  28.37800 48.59300 30.95500
H  28.58300 51.20700 31.70000
H  29.72600 51.08200 30.43300
H  29.90600 50.01300 31.87200
H  26.30500 47.75000 30.57700
H  24.72600 48.69100 30.62900
H  25.86600 47.29500 32.92400
H  24.38000 48.10400 32.56500
H  32.76100 46.87300 27.16100
H  31.66400 47.28300 28.46600
H  32.86700 48.53100 27.81500
H  34.61400 47.92800 24.25500
H  33.86800 46.87500 25.39900
H  34.09000 48.55300 25.78200
H  27.70700 48.72500 21.28400
H  26.24800 51.24100 21.23000
H  29.11600 51.38200 21.48000
H  28.17300 51.16900 19.98900
H  29.60700 50.15800 20.37000
H  24.87800 48.61100 21.74800
H  25.73600 48.69400 20.30400
H  23.32900 49.45400 20.33200
H  24.51700 50.39100 19.25800
H  23.91300 50.94400 20.86500
H  22.46800 53.23500 24.57000
H  21.30500 52.35200 25.62300
H  22.04700 51.67000 24.09100
H  23.20200 50.30400 29.75100
H  24.31200 52.60900 33.06800
H  22.55800 52.94700 33.35300
H  23.52600 54.13800 32.51900

