158

Mg 16.68400 -2.70900 28.15600
C  15.37300 -0.29000 30.38600
C  18.65900 -4.10000 30.59500
C  18.26800 -4.57800 25.71600
C  15.37600 -0.65400 25.57100
N  16.93300 -2.25400 30.25200
C  16.29600 -1.22600 31.00000
C  16.80800 -1.25100 32.42200
C  17.86500 -2.38600 32.42400
C  17.87200 -2.95700 30.97300
C  19.19100 -1.85400 32.92200
C  15.65700 -1.42100 33.52100
C  15.46800 -0.49900 34.71200
H  16.83900 0.11300 35.26100
N  18.02600 -4.16800 28.18600
C  18.62100 -4.72500 29.32400
C  19.41700 -5.91800 28.94100
C  19.36900 -6.05600 27.50100
C  18.51700 -4.90800 27.06100
C  20.25900 -6.66200 29.93500
C  20.06700 -7.04500 26.54800
O  19.84800 -7.11000 25.34500
C  21.07100 -8.10900 27.18000
N  16.76800 -2.62800 25.93400
C  17.46700 -3.53600 25.18400
C  17.43300 -3.20000 23.70100
C  16.38200 -2.09600 23.61900
C  16.13800 -1.77100 25.13700
C  18.76600 -2.90900 23.09500
C  15.06000 -2.42700 22.91900
C  14.17600 -1.39600 22.37800
N  15.46200 -0.91900 27.99500
C  14.97000 -0.20900 26.89600
C  14.09900 0.89100 27.26600
C  14.16900 0.84500 28.66700
C  15.02900 -0.23600 29.04400
C  13.50200 1.84700 26.28300
C  13.79800 1.51300 29.87800
O  13.02200 2.47500 29.98300
C  14.50000 0.76100 30.99100
C  15.21100 1.89200 31.70600
O  16.34400 2.36100 31.48600
O  14.47600 2.36900 32.67900
C  15.00900 3.36800 33.57200
H  19.28600 -4.70300 31.25500
H  18.79700 -5.12700 24.93500
H  15.01000 0.00900 24.78400
H  17.30800 -0.29500 32.57700
H  17.42700 -3.10900 33.11100
H  19.29200 -0.77400 32.81700
H  19.93300 -2.35000 32.29700
H  19.32300 -2.07900 33.98000
H  15.56600 -2.45400 33.86000
H  14.75400 -1.19500 32.95400
H  14.91100 -1.20400 35.33000
H  14.84200 0.35700 34.46100
H  20.31300 -7.74100 29.79100
H  19.76200 -6.55800 30.89900
H  21.19200 -6.10000 29.98000
H  21.64200 -7.61400 27.96500
H  21.74600 -8.47800 26.40700
H  20.60500 -9.01500 27.56600
H  16.97700 -4.09400 23.27500
H  16.74500 -1.17300 23.16700
H  19.44600 -2.68600 23.91600
H  18.62700 -1.97900 22.54300
H  19.04900 -3.78700 22.51400
H  14.42000 -3.06400 23.53100
H  15.32900 -2.98100 22.02000
H  14.20700 -1.40000 21.28800
H  14.45900 -0.37500 22.63500
H  13.19400 -1.72600 22.71700
H  12.92700 1.33700 25.51000
H  14.27800 2.52200 25.92100
H  12.80800 2.56300 26.72400
H  13.83000 0.23300 31.67000
H  15.50100 2.97700 34.46300
H  14.12300 3.91500 33.89400
H  15.56500 4.09200 32.97500
Mg 53.87300 24.33900 44.36800
C  51.21700 26.41700 43.59700
C  52.19300 21.81200 42.88500
C  56.66900 22.58100 44.25300
C  55.56300 27.13200 45.73700
N  52.03000 24.22000 43.09700
C  51.08300 25.20900 42.93800
C  49.88000 24.65100 42.17300
C  50.00900 23.08900 42.50600
C  51.47600 22.96800 42.88600
C  49.10000 22.47000 43.62500
C  49.90600 25.04400 40.60800
C  48.57200 25.57700 39.89000
H  47.99600 24.58000 38.78000
N  54.34400 22.41800 43.74900
C  53.53200 21.53900 43.19800
C  54.22600 20.28400 42.97400
C  55.52900 20.45900 43.36200
C  55.56400 21.82700 43.87300
C  53.46500 19.01800 42.50100
C  56.54600 19.37400 43.41600
O  56.46700 18.25000 42.96500
C  57.83800 19.66400 44.09100
N  55.89700 24.95800 44.79600
C  56.78500 23.94600 44.76400
C  58.07600 24.41000 45.36900
C  57.76800 25.87000 45.95000
C  56.39300 26.02300 45.47000
C  58.66300 23.42400 46.39500
C  58.65200 27.03300 45.37000
C  58.84800 28.24900 46.28200
N  53.46100 26.30500 44.74100
C  54.18500 27.28000 45.36000
C  53.35300 28.48000 45.47800
C  52.13500 28.21800 44.90500
C  52.33500 26.90100 44.37600
C  53.64800 29.72200 46.22100
C  50.72300 28.60200 44.52900
O  50.15200 29.60500 44.73800
C  50.16600 27.43500 43.74100
C  49.55700 27.86900 42.38800
O  50.10700 28.20300 41.38800
O  48.19400 27.86200 42.54300
C  47.41100 28.59700 41.42800
H  51.63000 20.98100 42.45400
H  57.63500 22.07400 44.29900
H  56.07700 27.95900 46.23200
H  49.03800 25.09700 42.70200
H  49.87100 22.46900 41.62000
H  49.34700 22.89600 44.59700
H  49.05000 21.38600 43.52000
H  48.16200 22.93400 43.32000
H  50.25800 24.15900 40.07800
H  50.63300 25.85600 40.56000
H  48.77600 26.51400 39.37000
H  47.75600 25.83500 40.56500
H  53.98700 18.47200 41.71500
H  52.52600 19.29900 42.02400
H  53.27300 18.37500 43.36100
H  58.49400 20.31000 43.50800
H  58.31800 18.69800 44.24800
H  57.67000 20.22000 45.01300
H  58.80800 24.51300 44.56800
H  57.84300 25.74600 47.03000
H  59.54400 22.91200 46.00900
H  57.88900 22.72300 46.70800
H  59.09100 23.91900 47.26700
H  58.15000 27.37800 44.46600
H  59.61300 26.62500 45.05800
H  59.88300 28.57700 46.37700
H  58.35700 28.23100 47.25500
H  58.35500 29.05700 45.74200
H  53.41300 29.59300 47.27700
H  53.10000 30.54200 45.75600
H  54.71600 29.90400 46.10600
H  49.34500 27.00800 44.31900
H  47.50700 27.82400 40.66400
H  47.88300 29.54400 41.16800
H  46.36000 28.64000 41.71400

