158

Mg 42.12600 41.31800 26.82800
C  41.39900 43.26200 29.79300
C  43.61300 39.08400 28.85500
C  42.85000 39.47200 24.14700
C  40.86100 43.82200 24.89300
N  42.32400 41.09900 29.09400
C  41.93000 41.92600 30.03800
C  42.11300 41.34900 31.41600
C  43.19700 40.17400 31.12000
C  43.07900 40.07700 29.59100
C  44.66600 40.45900 31.60100
C  40.83400 41.02700 32.26700
C  40.47100 41.91900 33.55800
H  40.05800 41.20400 34.83400
N  42.89700 39.46900 26.58200
C  43.57700 38.74800 27.53100
C  44.03900 37.50400 26.89600
C  43.59200 37.49700 25.55900
C  43.14700 38.86400 25.34700
C  44.72800 36.42400 27.75000
C  43.67100 36.35900 24.51000
O  43.28400 36.50800 23.39700
C  44.35300 35.10400 24.81600
N  41.97400 41.75100 24.77700
C  42.26400 40.72900 23.89300
C  41.52300 41.01400 22.53100
C  41.11900 42.51200 22.66400
C  41.31600 42.74500 24.15500
C  42.53600 40.79900 21.38900
C  39.66400 42.79700 22.10400
C  39.36200 44.26100 21.76500
N  41.25500 43.09100 27.17800
C  40.89900 44.06800 26.25800
C  40.29600 45.19800 26.98500
C  40.39300 44.93000 28.35300
C  41.06600 43.63800 28.46500
C  39.78300 46.47500 26.33800
C  40.22100 45.42300 29.69800
O  39.60500 46.42000 29.99800
C  40.86400 44.36200 30.67700
C  42.03200 45.02100 31.36600
O  43.03800 45.36100 30.74500
O  41.72000 45.28300 32.67900
C  42.70100 46.12600 33.37900
H  44.14300 38.33700 29.45000
H  43.03400 38.76400 23.33600
H  40.35400 44.69200 24.46900
H  42.64100 42.13500 31.95600
H  43.01400 39.21900 31.61200
H  45.34800 40.64100 30.77100
H  44.88500 39.49400 32.05900
H  44.76400 41.20200 32.39200
H  40.79700 40.03400 32.71300
H  39.95800 41.07400 31.62000
H  39.58600 42.47100 33.24200
H  41.23400 42.69000 33.66600
H  44.97700 35.51600 27.20000
H  44.36800 36.28000 28.76900
H  45.71300 36.85800 27.92400
H  44.43700 34.67000 23.82000
H  43.93700 34.35400 25.48800
H  45.31900 35.38600 25.23400
H  40.65500 40.35500 22.50400
H  41.83000 43.18000 22.17700
H  43.56900 40.67600 21.71500
H  42.40400 41.55700 20.61700
H  42.25400 39.85800 20.91500
H  38.97300 42.46700 22.88000
H  39.58000 42.12600 21.24900
H  39.43500 44.37400 20.68300
H  40.05600 44.97300 22.21100
H  38.33500 44.58900 21.92500
H  38.87500 46.27000 25.77100
H  40.52200 46.95100 25.69300
H  39.61900 47.18400 27.15000
H  40.13000 43.95900 31.37500
H  43.53400 46.39800 32.73100
H  43.12900 45.66700 34.27000
H  42.20400 46.94400 33.90000
Mg -5.29000 25.56100 26.96100
C  -3.93700 27.27900 29.65900
C  -7.08900 23.72800 29.15100
C  -6.34700 23.73200 24.35000
C  -3.23600 27.30000 24.85000
N  -5.51100 25.54000 29.19500
C  -4.87800 26.33300 30.08500
C  -5.33200 26.00000 31.53900
C  -6.00600 24.57000 31.29800
C  -6.17600 24.55800 29.76600
C  -5.21200 23.30000 31.90000
C  -6.30000 27.03000 32.06500
C  -6.30500 27.10500 33.60200
H  -5.70000 25.99300 34.42400
N  -6.64200 24.08300 26.82200
C  -7.27600 23.41800 27.77200
C  -8.22700 22.58000 27.23600
C  -8.08400 22.57600 25.80400
C  -7.00800 23.51800 25.61800
C  -9.22900 21.78100 28.12200
C  -8.86100 21.88100 24.76400
O  -8.62400 22.12900 23.59500
C  -9.81300 20.81100 25.14700
N  -4.81100 25.47600 24.91400
C  -5.44800 24.66400 24.02500
C  -5.04600 24.93100 22.57100
C  -4.22100 26.24400 22.76000
C  -4.06500 26.39800 24.24100
C  -4.20100 23.78100 21.88200
C  -4.70000 27.54300 22.05400
C  -4.01700 27.71700 20.67700
N  -3.80400 26.89400 27.17100
C  -3.14600 27.65600 26.21700
C  -2.45100 28.76500 26.82100
C  -2.71700 28.67200 28.17700
C  -3.51400 27.50700 28.33700
C  -1.72200 29.89200 26.17600
C  -2.54800 29.24900 29.53800
O  -1.98300 30.27900 29.93400
C  -3.37600 28.37300 30.47600
C  -2.48900 28.03900 31.64300
O  -1.50300 27.36000 31.60600
O  -3.07000 28.58700 32.80200
C  -2.40100 28.32300 34.09900
H  -7.62600 23.17700 29.92600
H  -6.60000 23.10200 23.49500
H  -2.66600 27.94300 24.17600
H  -4.39300 25.95000 32.09000
H  -6.99800 24.65900 31.74100
H  -4.29400 23.80600 32.19800
H  -4.97400 22.58200 31.11500
H  -5.73000 22.77100 32.70000
H  -7.27200 26.75600 31.65500
H  -5.93300 27.97800 31.67200
H  -7.34500 27.11600 33.92700
H  -5.71600 27.99700 33.81300
H  -10.06100 22.47100 28.26200
H  -8.87400 21.73000 29.15100
H  -9.42100 20.79100 27.70800
H  -9.35200 19.94800 25.62600
H  -10.34200 20.49300 24.24800
H  -10.50400 21.31800 25.82100
H  -5.94200 25.16200 21.99400
H  -3.22100 26.07600 22.36000
H  -4.27800 22.89200 22.50700
H  -3.11900 23.91200 21.89300
H  -4.53100 23.49600 20.88300
H  -4.43400 28.44300 22.60900
H  -5.77500 27.36300 22.07600
H  -3.06200 28.21400 20.85000
H  -4.66900 28.23100 19.97100
H  -3.70800 26.75600 20.26600
H  -0.66000 29.74400 25.98100
H  -1.88600 30.83100 26.70500
H  -2.14300 30.24800 25.23600
H  -4.14100 29.08200 30.79100
H  -3.13000 28.26000 34.90700
H  -1.67100 29.08600 34.37000
H  -1.85800 27.38000 34.04700

