158

Mg 3.06900 -0.90600 44.25200
C  6.34300 -0.27100 43.22800
C  2.05100 1.64600 42.24800
C  -0.01600 -2.25500 44.19800
C  4.26800 -3.79800 45.80700
N  4.09500 0.39300 42.75500
C  5.44100 0.53700 42.57300
C  5.76700 1.79800 41.79500
C  4.38800 2.51500 41.67300
C  3.40100 1.50100 42.32400
C  4.36200 3.88000 42.42900
C  6.41300 1.51700 40.45400
C  7.16400 2.74400 39.83400
H  6.89200 3.23500 38.44900
N  1.12600 -0.21300 43.56500
C  0.97600 0.84100 42.68400
C  -0.37400 1.00400 42.39600
C  -1.06200 -0.06900 43.06200
C  0.00900 -0.92200 43.70500
C  -0.98300 1.99200 41.46500
C  -2.51200 -0.30200 43.07900
O  -3.22300 0.30000 42.31200
C  -3.08300 -1.06500 44.26000
N  2.30300 -2.74000 44.81400
C  1.00800 -3.06600 44.69900
C  0.69700 -4.50300 45.35800
C  1.98700 -4.86100 46.01400
C  2.89900 -3.70600 45.52900
C  -0.47400 -4.64100 46.33300
C  2.50400 -6.28500 45.63600
C  2.77800 -7.28900 46.75000
N  4.93000 -1.76700 44.66800
C  5.27400 -2.97000 45.34300
C  6.75600 -3.07100 45.43600
C  7.21300 -1.97600 44.67100
C  6.03000 -1.35800 44.11900
C  7.49500 -4.03500 46.28900
C  8.33900 -1.27300 44.15600
O  9.53300 -1.44800 44.33800
C  7.86500 -0.29300 43.12600
C  8.40400 0.96000 43.46500
O  8.33700 1.49500 44.55700
O  9.00900 1.55900 42.40800
C  9.68800 2.88100 42.54700
H  1.63600 2.42800 41.60900
H  -1.02600 -2.66900 44.22600
H  4.62500 -4.69600 46.31700
H  6.50600 2.36900 42.35700
H  4.07500 2.77200 40.66100
H  5.33400 4.16600 42.83100
H  3.76900 3.84600 43.34300
H  4.09000 4.69200 41.75400
H  5.67500 1.30300 39.68100
H  7.12400 0.69300 40.51700
H  8.22600 2.50400 39.79200
H  6.98000 3.56400 40.52800
H  -1.30000 1.56000 40.51600
H  -0.37400 2.86500 41.23000
H  -1.81900 2.48400 41.96300
H  -3.21700 -2.10300 43.95600
H  -4.02100 -0.51800 44.34900
H  -2.52900 -1.10700 45.19800
H  0.41900 -5.22000 44.58600
H  1.89500 -4.66400 47.08200
H  -0.08900 -4.98000 47.29500
H  -1.23700 -5.26600 45.87000
H  -0.93800 -3.65500 46.35800
H  3.43700 -6.11200 45.10000
H  1.91800 -6.83400 44.89900
H  3.85300 -7.45000 46.83800
H  2.33600 -8.26000 46.52600
H  2.31300 -6.95700 47.67800
H  8.56400 -3.99600 46.08400
H  7.09700 -4.98700 45.93700
H  7.33400 -3.80400 47.34200
H  8.08800 -0.62400 42.11200
H  8.93800 3.65500 42.38700
H  10.39400 2.95000 41.72000
H  10.12700 3.02500 43.53400
Mg 44.23100 2.94800 46.50200
C  42.30800 5.86000 46.25000
C  41.43800 1.08900 46.08700
C  46.25400 0.27300 46.26900
C  47.07900 5.01600 46.40200
N  42.11700 3.44300 46.25900
C  41.56100 4.64800 46.15400
C  40.04000 4.54200 46.17600
C  39.74400 3.01800 46.39900
C  41.15000 2.42900 46.23100
C  39.03700 2.58600 47.71800
C  39.22000 5.28000 45.07100
C  39.56800 4.84500 43.67600
H  40.31100 5.83500 42.82100
N  43.83500 0.88900 46.21200
C  42.60100 0.36200 46.09900
C  42.71900 -1.07700 45.88700
C  44.10500 -1.33700 45.93100
C  44.84700 -0.07300 46.13000
C  41.54400 -1.99200 45.69300
C  44.71900 -2.73300 45.82300
O  43.95800 -3.70000 45.71200
C  46.08700 -3.06000 45.68500
N  46.37200 2.68100 46.35700
C  46.90500 1.47000 46.36200
C  48.40600 1.55300 46.51300
C  48.66700 3.10400 46.21100
C  47.29900 3.64900 46.41000
C  48.80000 0.99500 47.90300
C  49.31900 3.43000 44.83500
C  50.75600 4.03100 44.98500
N  44.67400 5.06300 46.35100
C  45.88800 5.75700 46.42200
C  45.66200 7.20200 46.47800
C  44.27900 7.28400 46.43700
C  43.74100 5.99800 46.38600
C  46.71400 8.36000 46.49900
C  43.21100 8.17500 46.47700
O  43.19200 9.45100 46.63900
C  41.87600 7.28200 46.25200
C  40.87700 7.82000 47.21400
O  40.66300 7.44500 48.37900
O  40.10800 8.77200 46.55600
C  39.01000 9.38100 47.36300
H  40.47600 0.57300 46.08000
H  46.85600 -0.63600 46.21700
H  48.01900 5.56900 46.33900
H  39.82700 5.06400 47.10800
H  39.09600 2.67000 45.59400
H  39.15100 3.30500 48.52900
H  39.54800 1.67700 48.03400
H  37.99700 2.46600 47.41400
H  39.55200 6.30900 45.20800
H  38.15500 5.06000 45.14100
H  38.64400 4.57400 43.16600
H  40.24200 3.99100 43.75200
H  41.81600 -2.70000 44.91000
H  40.54200 -1.58300 45.55800
H  41.52000 -2.42800 46.69100
H  46.57600 -2.61500 44.81900
H  46.22000 -4.13400 45.55100
H  46.59400 -2.84900 46.62700
H  48.98400 0.93200 45.82900
H  49.30000 3.39100 47.05100
H  49.43500 0.11100 47.97200
H  47.94300 0.75300 48.53200
H  49.31200 1.78600 48.45100
H  48.78400 4.13200 44.19600
H  49.43700 2.54200 44.21400
H  50.85600 4.88300 44.31200
H  51.46700 3.22400 44.80600
H  51.05800 4.49200 45.92500
H  46.46900 9.22500 45.88400
H  47.68200 7.97300 46.18100
H  46.83600 8.75600 47.50700
H  41.61800 7.69900 45.27800
H  38.01100 9.00200 47.14800
H  39.00500 10.46100 47.21500
H  39.19800 9.35100 48.43700

