158

Mg -1.27300 16.74500 26.17000
C  -1.50100 14.59600 28.98300
C  -1.88200 19.36600 28.25100
C  -1.57100 18.71200 23.40500
C  -0.68700 14.01200 24.12700
N  -1.48600 17.00800 28.40700
C  -1.48800 15.96900 29.32400
C  -1.84000 16.48900 30.80200
C  -2.18800 18.02700 30.50400
C  -1.87500 18.13500 28.95900
C  -3.60700 18.44100 30.77200
C  -0.73500 16.40900 31.90100
C  -1.09300 15.72100 33.21700
H  -1.92500 16.34600 34.34800
N  -1.45600 18.79400 25.91000
C  -1.76000 19.74100 26.89200
C  -1.73900 21.00700 26.30100
C  -1.56600 20.85000 24.93700
C  -1.55400 19.37400 24.65700
C  -1.92700 22.29300 27.12500
C  -1.35500 21.87700 23.85300
O  -1.37500 21.60400 22.63800
C  -0.99100 23.34400 24.23300
N  -1.24400 16.41000 24.05600
C  -1.24000 17.37200 23.14500
C  -1.15000 16.79000 21.79500
C  -0.53600 15.39400 21.99500
C  -0.86400 15.24000 23.52000
C  -2.49000 16.95000 20.98900
C  1.01500 15.19900 21.62100
C  2.08200 15.57100 22.57900
N  -1.21300 14.68200 26.43500
C  -1.00700 13.67300 25.50000
C  -1.00700 12.43100 26.15600
C  -1.28300 12.72000 27.49500
C  -1.33600 14.09300 27.65400
C  -0.89000 11.10900 25.53200
C  -1.52500 12.14600 28.78900
O  -1.56900 10.96400 29.13500
C  -1.77600 13.35500 29.81700
C  -0.95200 13.00900 30.96900
O  0.18700 13.27500 31.14100
O  -1.71000 12.30900 31.86100
C  -1.09500 12.12600 33.18300
H  -2.36800 20.10800 28.88800
H  -1.64000 19.38000 22.54500
H  -0.43100 13.12200 23.54800
H  -2.74600 15.95200 31.08300
H  -1.60100 18.74700 31.07300
H  -4.01100 17.89500 31.62500
H  -4.20700 18.25100 29.88200
H  -3.67400 19.48900 31.06400
H  -0.47200 17.42000 32.21400
H  0.20700 15.99000 31.54700
H  -0.22600 15.13200 33.51600
H  -1.71800 14.85500 32.99800
H  -2.62600 22.94100 26.59500
H  -1.08200 22.93700 27.37000
H  -2.24000 21.95600 28.11300
H  -0.15100 23.36300 24.92800
H  -1.89700 23.83100 24.59100
H  -0.67600 23.85500 23.32300
H  -0.42400 17.45500 21.32800
H  -1.19100 14.62200 21.59200
H  -3.21100 17.45900 21.62800
H  -2.93500 16.02300 20.62800
H  -2.22300 17.72000 20.26500
H  1.32300 15.77300 20.74700
H  1.03400 14.14300 21.35200
H  1.72300 16.00500 23.51300
H  2.74300 16.32700 22.15500
H  2.74700 14.71600 22.70000
H  -0.23200 11.26200 24.67600
H  -1.87200 10.72900 25.25100
H  -0.29900 10.49400 26.21000
H  -2.83200 13.37200 30.08700
H  -1.41300 12.98100 33.78000
H  -0.02900 11.91500 33.10200
H  -1.45400 11.20300 33.63700
Mg 52.44100 22.70100 43.52100
C  49.66000 24.68100 42.68500
C  50.69000 19.89300 43.09200
C  55.39000 21.01500 43.15600
C  54.34400 25.82400 43.17800
N  50.53800 22.35400 42.66000
C  49.53600 23.27700 42.47000
C  48.20600 22.53400 42.11900
C  48.52800 21.14900 42.69100
C  49.97500 21.11900 42.89100
C  47.80400 20.76100 44.05900
C  47.85900 22.63500 40.58200
C  46.32800 22.28000 40.34600
H  46.03500 21.00900 39.47100
N  52.95300 20.67700 43.39500
C  52.05000 19.67200 43.18400
C  52.78300 18.43600 43.13000
C  54.16300 18.72300 43.20000
C  54.26000 20.19200 43.27100
C  52.06300 17.12300 42.89400
C  55.22800 17.62000 43.18700
O  54.92800 16.42600 43.21700
C  56.68700 17.90000 43.19900
N  54.44500 23.29500 43.07600
C  55.48800 22.38800 43.06200
C  56.83800 23.09000 42.87600
C  56.51200 24.65200 42.84900
C  55.01000 24.63000 42.97400
C  57.92800 22.73400 43.86400
C  57.00900 25.34100 41.53100
C  56.40700 24.76700 40.19100
N  52.07000 24.83200 43.19100
C  52.95300 25.98000 43.24800
C  52.05700 27.17600 43.37200
C  50.77700 26.65400 43.04500
C  50.85000 25.27800 42.95400
C  52.49800 28.63600 43.47100
C  49.38100 27.16200 42.88700
O  48.86800 28.28300 42.84700
C  48.63700 25.87200 42.45100
C  48.27800 26.06500 40.98000
O  49.07000 26.28400 40.09000
O  46.91400 26.12500 40.82600
C  46.33700 26.29000 39.47300
H  50.07300 18.99700 43.18100
H  56.34000 20.50900 42.97300
H  54.92000 26.75100 43.19800
H  47.41200 23.13000 42.56900
H  48.23500 20.33600 42.02700
H  47.15200 21.58800 44.34300
H  48.48300 20.64800 44.90400
H  47.22800 19.83600 44.05400
H  48.47500 21.88400 40.08800
H  47.99500 23.61900 40.13300
H  45.87300 23.07600 39.75600
H  45.71000 22.11100 41.22800
H  52.34900 16.65100 41.95400
H  50.98100 17.20100 42.78900
H  52.27700 16.52300 43.77800
H  57.34100 17.03000 43.25400
H  56.99100 18.60900 43.96900
H  56.85900 18.38300 42.23700
H  57.19200 22.84500 41.87500
H  56.97000 25.22200 43.65700
H  58.56000 23.59700 44.07400
H  58.61800 21.98200 43.48000
H  57.54200 22.37900 44.81900
H  58.08400 25.17300 41.47000
H  56.74500 26.38900 41.67400
H  55.85300 25.61900 39.79700
H  55.73600 23.92500 40.36400
H  57.19000 24.48200 39.48900
H  51.95600 29.33200 44.11100
H  52.56300 29.01700 42.45200
H  53.51800 28.72200 43.84300
H  47.68900 25.72700 42.96900
H  45.57400 25.51200 39.45100
H  46.98400 26.53500 38.63100
H  45.77800 27.22400 39.41200

