158

Mg 9.44300 3.86600 28.15700
C  10.64100 2.44000 31.14500
C  7.85100 6.22800 30.04200
C  7.88800 4.74600 25.39100
C  10.66600 1.01700 26.46600
N  8.97600 4.08600 30.49700
C  9.82000 3.61700 31.44900
C  9.64800 4.41100 32.76700
C  8.62000 5.55100 32.35200
C  8.50500 5.29600 30.83300
C  7.26900 5.47400 33.09500
C  10.99000 4.82500 33.43500
C  10.83000 5.73400 34.63900
H  11.31400 5.07800 35.96400
N  8.07900 5.37400 27.76100
C  7.56000 6.26500 28.62600
C  6.80900 7.28000 27.86100
C  6.77600 6.86800 26.47900
C  7.59500 5.57500 26.53300
C  6.10300 8.42000 28.67300
C  6.13600 7.52700 25.24200
O  6.14900 7.07700 24.09900
C  5.51000 8.90300 25.36700
N  9.42700 3.05700 26.21400
C  8.74800 3.65500 25.30000
C  8.60400 2.74900 24.08400
C  9.72100 1.73300 24.28800
C  9.97400 1.93000 25.70900
C  7.18200 2.05600 23.91900
C  11.07100 1.85600 23.52800
C  11.42000 0.67700 22.65400
N  10.37500 2.16100 28.65200
C  10.93800 1.21700 27.86200
C  11.69900 0.31100 28.62500
C  11.68800 0.84000 29.90500
C  10.79600 1.91600 29.86800
C  12.37400 -0.87200 28.08100
C  12.14900 0.61000 31.18600
O  12.97100 -0.17800 31.60200
C  11.57200 1.74900 32.07800
C  10.91500 1.07600 33.28000
O  9.89100 0.41100 33.27200
O  11.67400 1.18300 34.41000
C  11.03300 0.63000 35.60200
H  7.39900 7.03000 30.62900
H  7.37800 5.03400 24.46800
H  10.99500 0.19200 25.83000
H  9.11200 3.71500 33.41200
H  9.11100 6.52300 32.39500
H  7.60400 5.83500 34.06700
H  6.88100 4.45500 33.09000
H  6.54400 6.16600 32.66500
H  11.60000 5.32500 32.68300
H  11.55700 3.92500 33.67200
H  9.75100 5.85700 34.73600
H  11.31300 6.67300 34.36700
H  5.82300 8.27800 29.71700
H  5.06900 8.52500 28.34500
H  6.68900 9.33900 28.66300
H  5.03500 9.36500 24.50200
H  6.20800 9.60600 25.82200
H  4.65100 8.86900 26.03700
H  8.76200 3.38700 23.21400
H  9.35300 0.72000 24.12600
H  7.35200 0.99400 23.73700
H  6.57600 2.52100 23.14200
H  6.63700 2.08400 24.86200
H  11.87700 2.02100 24.24300
H  11.16900 2.72300 22.87400
H  11.59800 1.06900 21.65300
H  10.63500 -0.07700 22.70200
H  12.30700 0.19800 23.07100
H  12.58800 -0.80700 27.01400
H  11.73300 -1.71500 28.33800
H  13.35900 -1.06500 28.50500
H  12.36200 2.43700 32.37800
H  11.57000 0.99000 36.47900
H  11.06900 -0.45600 35.52200
H  10.00300 0.96600 35.72300
Mg -10.52400 40.80900 42.55600
C  -9.19600 37.78900 41.46900
C  -8.26100 42.44000 40.61400
C  -12.26000 43.76400 42.96100
C  -13.31400 39.03400 43.72800
N  -8.93900 40.18400 41.18700
C  -8.55500 38.88800 40.90000
C  -7.43200 38.89500 39.93300
C  -6.94700 40.42300 39.90600
C  -8.07600 41.07800 40.65200
C  -5.47300 40.67700 40.41900
C  -7.79100 38.29000 38.52400
C  -6.96800 37.04000 38.18800
H  -5.78700 37.17000 37.19300
N  -10.15200 42.87600 42.09600
C  -9.11400 43.33500 41.33700
C  -9.16400 44.78700 41.24100
C  -10.39000 45.18000 41.97800
C  -10.99000 43.91200 42.37800
C  -8.19000 45.66900 40.57400
C  -10.88400 46.65100 42.02800
O  -10.23300 47.55800 41.60600
C  -12.11600 47.07400 42.64300
N  -12.47600 41.34200 43.45400
C  -12.97400 42.60500 43.39300
C  -14.39500 42.62000 43.86500
C  -14.76900 41.11600 44.21700
C  -13.44500 40.41900 43.75900
C  -14.73700 43.57300 45.02700
C  -16.00400 40.57900 43.46000
C  -17.03500 39.78100 44.35100
N  -11.05300 38.84900 42.86600
C  -12.19500 38.25300 43.34900
C  -12.07500 36.84300 43.24800
C  -10.85900 36.59800 42.62500
C  -10.30400 37.83500 42.35400
C  -13.01600 35.73600 43.75200
C  -10.06900 35.54600 41.98500
O  -10.27000 34.33100 41.95400
C  -8.85400 36.25200 41.28400
C  -7.60400 35.77000 42.04500
O  -7.19800 36.21000 43.12100
O  -6.85400 34.79000 41.36100
C  -5.50900 34.32800 41.85000
H  -7.49100 43.03600 40.12000
H  -12.91400 44.63800 42.96700
H  -14.20400 38.43900 43.94200
H  -6.64300 38.25000 40.32100
H  -6.92600 40.75600 38.86900
H  -5.12300 39.67400 40.66300
H  -5.42500 41.34800 41.27600
H  -4.83200 41.10900 39.65000
H  -7.58300 39.08300 37.80600
H  -8.83800 38.05600 38.33000
H  -7.61700 36.26100 37.78700
H  -6.40600 36.46700 38.92500
H  -8.58500 46.14900 39.67900
H  -7.30800 45.08000 40.32400
H  -7.92700 46.49200 41.24000
H  -12.06000 46.61400 43.62900
H  -13.01000 46.72200 42.13000
H  -12.35200 48.13200 42.75700
H  -14.92500 42.96600 42.97700
H  -14.92600 40.89400 45.27300
H  -13.85700 44.20500 45.14400
H  -14.94300 43.09200 45.98300
H  -15.60900 44.20800 44.87000
H  -15.67400 39.92200 42.65600
H  -16.50100 41.40500 42.95100
H  -16.65700 39.66500 45.36700
H  -17.08800 38.76500 43.96200
H  -18.00100 40.27700 44.26000
H  -12.84100 35.63800 44.82400
H  -12.78600 34.73900 43.37700
H  -14.06100 35.91100 43.49600
H  -8.74500 35.94000 40.24500
H  -5.49400 33.97700 42.88200
H  -4.76800 35.11900 41.73700
H  -5.28700 33.50600 41.16900

