158

Mg -2.15500 17.09900 26.55700
C  -2.54500 14.86200 29.33900
C  -3.02600 19.61500 28.68500
C  -2.20800 19.23400 23.91900
C  -1.97500 14.27900 24.45000
N  -2.81500 17.13200 28.69700
C  -2.68500 16.21200 29.75900
C  -2.75700 16.74600 31.19500
C  -3.07000 18.26900 30.84000
C  -2.95900 18.33500 29.32600
C  -4.30200 18.92100 31.51600
C  -1.48100 16.42600 32.03300
C  -1.41200 17.40900 33.22000
H  -0.79300 16.73000 34.45500
N  -2.38100 19.11100 26.38000
C  -2.76400 19.96100 27.36500
C  -2.76100 21.32100 26.87600
C  -2.34400 21.30700 25.51000
C  -2.30300 19.81700 25.18900
C  -3.14100 22.48200 27.78500
C  -2.09400 22.42400 24.62700
O  -1.79100 22.26000 23.46300
C  -2.15100 23.88900 25.07500
N  -1.89100 16.76800 24.48600
C  -2.03200 17.83900 23.59200
C  -1.84200 17.36300 22.09800
C  -1.60800 15.78600 22.33500
C  -1.82100 15.58000 23.83100
C  -3.08500 17.72300 21.29100
C  -0.18700 15.38800 22.01700
C  0.92700 15.95100 22.94000
N  -2.21300 15.05000 26.79000
C  -2.19600 14.05400 25.83600
C  -2.22800 12.78200 26.48800
C  -2.30600 13.05600 27.82100
C  -2.43300 14.43600 27.94200
C  -2.03600 11.48900 25.65200
C  -2.40700 12.40100 29.18400
O  -2.21600 11.25000 29.51000
C  -2.66900 13.59100 30.14800
C  -1.69800 13.31000 31.23000
O  -0.51100 13.49000 31.10400
O  -2.34800 12.87300 32.37200
C  -1.44100 12.78600 33.55700
H  -3.03900 20.40200 29.44200
H  -2.14300 19.80800 22.99200
H  -1.93200 13.35100 23.87600
H  -3.60900 16.35600 31.75100
H  -2.19800 18.82300 31.18800
H  -4.80200 18.24200 32.20600
H  -5.04600 19.18100 30.76300
H  -4.09100 19.80500 32.11900
H  -0.58500 16.67300 31.46300
H  -1.60500 15.45000 32.50300
H  -2.43400 17.71600 33.44500
H  -0.74200 18.24900 33.03900
H  -2.25100 23.10300 27.88800
H  -3.52200 22.25500 28.78100
H  -3.87200 23.18600 27.38800
H  -3.07200 24.23400 25.54600
H  -1.75800 24.58000 24.33000
H  -1.32100 23.80900 25.77800
H  -0.92100 17.85500 21.78600
H  -2.24400 15.22400 21.65100
H  -2.83800 18.51300 20.58200
H  -3.88300 18.01600 21.97400
H  -3.51200 16.88300 20.74300
H  0.09800 15.69600 21.01100
H  -0.03800 14.30900 21.99400
H  0.70600 16.54800 23.82500
H  1.65600 16.38900 22.25800
H  1.43900 15.07400 23.33600
H  -1.37700 11.63000 24.79600
H  -2.99300 11.24500 25.19000
H  -1.76300 10.66600 26.31200
H  -3.67600 13.31700 30.46500
H  -1.77700 13.66800 34.10300
H  -0.37000 12.89700 33.39200
H  -1.52800 11.78200 33.97100
Mg 49.61900 45.98600 42.14400
C  46.31300 46.79300 41.50100
C  49.15100 42.81700 40.66700
C  53.03200 45.53700 41.96800
C  50.15700 49.16200 43.37500
N  47.93500 44.97400 41.21700
C  46.75400 45.53400 40.96200
C  45.80400 44.67300 40.12100
C  46.69700 43.36200 39.99000
C  48.03100 43.74700 40.65000
C  46.05500 42.15700 40.59000
C  45.41700 45.39700 38.71500
C  43.95600 45.17300 38.42400
H  43.58300 44.77500 36.98400
N  50.87200 44.32600 41.55500
C  50.49200 43.10300 41.04100
C  51.63600 42.23600 40.86200
C  52.77000 43.03300 41.18400
C  52.30900 44.38600 41.55300
C  51.52700 40.85900 40.20400
C  54.19600 42.49200 41.18600
O  54.40100 41.27500 40.92700
C  55.42800 43.37700 41.60800
N  51.30200 47.17100 42.55500
C  52.65800 46.74700 42.45100
C  53.68600 47.84300 42.95500
C  52.73000 49.01500 43.39100
C  51.25600 48.40700 43.14500
C  54.73800 47.42500 44.03100
C  52.99800 50.40000 42.64900
C  53.69100 51.45300 43.50600
N  48.49100 47.69000 42.34700
C  48.80900 48.86500 43.04200
C  47.66200 49.71800 43.17100
C  46.59700 48.86400 42.65600
C  47.18600 47.67200 42.08800
C  47.64600 51.08500 43.65300
C  45.10400 48.77000 42.38900
O  44.18600 49.48100 42.77400
C  44.86400 47.35400 41.63000
C  43.90300 46.52600 42.43100
O  43.99900 46.19500 43.59700
O  42.85500 46.09000 41.60500
C  41.90500 45.14900 42.28600
H  48.84100 41.83700 40.29800
H  54.10600 45.35500 42.04000
H  50.29500 50.14400 43.83200
H  44.96000 44.43000 40.76700
H  46.73300 43.17800 38.91600
H  46.24200 41.31900 39.91900
H  44.97100 42.23500 40.50800
H  46.33100 41.88500 41.60800
H  46.04500 44.92000 37.96300
H  45.63000 46.46500 38.77500
H  43.56800 46.18100 38.57200
H  43.59000 44.33300 39.01400
H  52.30500 40.09900 40.13100
H  51.19200 40.97100 39.17300
H  50.73100 40.27900 40.67000
H  55.11800 43.66300 42.61300
H  55.46800 44.20900 40.90600
H  56.35800 42.80800 41.62600
H  54.23900 48.04700 42.03800
H  52.87400 49.09800 44.46900
H  55.72700 47.66000 43.63800
H  54.64600 46.37600 44.31300
H  54.56200 48.08500 44.88100
H  52.08300 50.92700 42.38200
H  53.60100 50.25900 41.75100
H  54.71600 51.43600 43.13400
H  53.51500 51.23900 44.56000
H  53.30800 52.46500 43.36900
H  47.94200 51.78800 42.87400
H  48.20200 51.12800 44.59000
H  46.61900 51.36700 43.88600
H  44.38000 47.47600 40.66100
H  41.20200 44.64500 41.62300
H  41.46600 45.79100 43.05000
H  42.59100 44.44300 42.75300

