158

Mg 35.01000 3.08400 29.84400
C  33.17500 4.07700 32.65700
C  37.65500 3.04800 31.92600
C  36.92300 2.60000 27.19600
C  32.30000 3.94700 27.88700
N  35.36500 3.72000 32.01800
C  34.48000 3.98600 33.00200
C  35.13200 4.02400 34.40200
C  36.60500 4.02000 34.01700
C  36.55900 3.52300 32.53500
C  37.29400 5.40300 34.03100
C  34.66100 2.71700 35.24300
C  34.56600 2.88700 36.76300
H  35.35600 3.99400 37.46100
N  37.08100 2.80200 29.60200
C  38.00200 2.67300 30.61100
C  39.33200 2.38600 29.96600
C  39.14300 2.37900 28.60900
C  37.63800 2.56900 28.42500
C  40.57700 2.21100 30.75800
C  40.15700 2.26000 27.50400
O  39.89200 2.32000 26.33800
C  41.54500 1.75200 27.87900
N  34.69400 3.36200 27.87400
C  35.62400 3.05100 26.93400
C  35.05800 3.11400 25.52400
C  33.51400 3.31900 25.80700
C  33.51700 3.52000 27.26400
C  35.69100 4.27700 24.67100
C  32.59800 2.12500 25.34000
C  31.24600 2.48300 24.75800
N  33.01000 3.79600 30.13200
C  32.03500 4.15100 29.24100
C  30.86600 4.59000 29.87000
C  31.22100 4.42900 31.22600
C  32.55700 4.05100 31.37200
C  29.63400 5.04000 29.12200
C  30.72200 4.63500 32.53400
O  29.58100 4.93800 32.86700
C  31.96100 4.46800 33.55700
C  32.04100 5.78800 34.25300
O  32.41400 6.83300 33.70400
O  31.27400 5.77200 35.34900
C  31.00000 7.12800 35.87500
H  38.47500 2.95100 32.64100
H  37.53500 2.37100 26.32100
H  31.46200 3.98500 27.18800
H  34.71400 4.88400 34.92500
H  37.22500 3.31800 34.57500
H  38.23200 5.34800 34.58500
H  36.68800 6.18600 34.48700
H  37.35300 5.79900 33.01700
H  35.34200 1.91100 34.97200
H  33.66400 2.53900 34.84100
H  34.85700 1.97100 37.27800
H  33.51300 2.95300 37.03600
H  40.62100 2.15100 31.84600
H  41.25000 3.00300 30.42900
H  41.06400 1.29100 30.43700
H  41.51700 0.92400 28.58600
H  42.10300 2.48800 28.45900
H  42.18800 1.38000 27.08100
H  35.39700 2.26700 24.92800
H  33.19100 4.21700 25.28000
H  36.30400 4.84100 25.37400
H  34.95600 4.97700 24.27500
H  36.34300 3.95100 23.86000
H  32.47100 1.48300 26.21100
H  33.00200 1.52100 24.52600
H  30.42000 2.10500 25.36000
H  31.10000 2.03800 23.77300
H  31.06900 3.55000 24.62200
H  28.87800 5.33500 29.85000
H  29.23000 4.35200 28.38000
H  29.93900 5.86800 28.48200
H  31.77100 3.76900 34.37100
H  30.02200 7.49900 35.57000
H  31.77400 7.88600 35.75400
H  30.85500 7.01800 36.95000
Mg 47.34600 25.95000 28.95100
C  48.80000 28.00400 31.53500
C  46.33500 23.77700 31.35900
C  46.78200 23.60900 26.60900
C  48.87900 28.00300 26.59500
N  47.57800 25.89900 31.24200
C  48.10800 26.90500 32.04700
C  47.89300 26.54000 33.49300
C  47.00500 25.28200 33.36100
C  46.98300 24.90400 31.91800
C  47.32300 23.97200 34.16400
C  47.19300 27.71400 34.31100
C  46.28200 27.38600 35.52300
H  46.85900 27.59900 36.94500
N  46.49900 24.01900 28.94600
C  46.18900 23.28000 30.02900
C  45.55800 21.99200 29.63500
C  45.58500 22.05000 28.19900
C  46.33100 23.26600 27.83300
C  44.85400 21.02300 30.55900
C  44.94700 21.00600 27.12700
O  45.04400 21.08000 25.90700
C  44.29900 19.72000 27.65600
N  47.92600 25.78400 26.94600
C  47.47400 24.76400 26.18300
C  47.79300 25.05000 24.70200
C  47.81800 26.59700 24.68700
C  48.37300 26.79500 26.14900
C  49.08100 24.33600 24.19900
C  46.40600 27.17200 24.56000
C  46.22400 28.05800 23.26700
N  48.55900 27.69400 28.99200
C  49.08900 28.41100 27.95300
C  49.78500 29.56600 28.46900
C  49.65800 29.46000 29.86000
C  48.91900 28.30300 30.12700
C  50.49400 30.50400 27.63000
C  50.06400 30.08100 31.14800
O  50.78300 31.07200 31.34600
C  49.40200 29.15300 32.28900
C  50.44900 28.75000 33.18800
O  51.36500 28.03000 32.87600
O  50.17400 29.23000 34.43500
C  50.92600 28.51200 35.47500
H  45.78400 23.14700 32.06100
H  46.56700 22.86200 25.84200
H  49.00400 28.70800 25.77000
H  48.81500 26.19200 33.96000
H  45.95900 25.53400 33.53100
H  48.02100 24.21800 34.96500
H  47.94500 23.25600 33.62900
H  46.46600 23.41000 34.53700
H  46.73800 28.46200 33.66100
H  48.01400 28.25700 34.78000
H  45.87700 26.37800 35.62100
H  45.37200 27.96300 35.36000
H  43.79600 20.96100 30.30400
H  44.80400 21.39700 31.58100
H  45.12800 19.96900 30.49900
H  45.06300 19.00600 27.96200
H  43.65300 19.25800 26.90900
H  43.74100 20.05400 28.53000
H  47.01900 24.74700 23.99700
H  48.52700 27.02200 23.97600
H  49.44700 23.69000 24.99700
H  49.75000 25.06900 23.74900
H  48.90800 23.68000 23.34600
H  46.30400 27.79600 25.44800
H  45.68900 26.37000 24.73700
H  45.14100 28.14400 23.17800
H  46.59900 27.55200 22.37700
H  46.59600 29.07500 23.39000
H  49.95700 31.45200 27.60300
H  50.71000 30.09700 26.64200
H  51.46100 30.79800 28.03900
H  48.56300 29.58100 32.83900
H  51.27500 27.54100 35.12400
H  50.26500 28.36900 36.33000
H  51.67200 29.21800 35.84200

