158

Mg 24.81500 -6.98500 47.00100
C  26.42100 -4.09900 45.66800
C  22.19500 -6.40100 44.94000
C  23.70000 -9.92000 47.90400
C  27.85400 -7.34400 48.94800
N  24.42400 -5.37900 45.57700
C  25.14600 -4.29900 45.18500
C  24.42100 -3.49000 44.13700
C  22.91700 -4.04700 44.25300
C  23.18300 -5.40200 44.98000
C  21.89000 -3.08900 44.99300
C  24.91500 -3.64600 42.64600
C  25.47400 -2.34200 42.06600
H  25.20100 -2.09100 40.59800
N  23.12900 -7.98600 46.54400
C  22.14500 -7.57200 45.70200
C  21.10200 -8.63500 45.71700
C  21.59000 -9.76700 46.39800
C  22.87000 -9.24800 46.99500
C  19.74200 -8.43800 44.96300
C  20.93000 -11.09000 46.47600
O  19.79900 -11.32900 46.04000
C  21.50900 -12.18900 47.25900
N  25.83900 -8.54900 48.02200
C  25.00400 -9.52900 48.41700
C  25.76800 -10.43500 49.43200
C  27.02900 -9.59300 49.88000
C  26.92800 -8.44100 48.91100
C  24.94100 -10.75400 50.65400
C  28.41200 -10.34900 49.76900
C  28.96200 -10.86700 51.06700
N  26.72900 -5.88900 47.34000
C  27.81500 -6.20600 48.14300
C  28.81700 -5.19000 48.05000
C  28.29200 -4.37800 47.01700
C  27.04600 -4.84100 46.63700
C  30.16000 -5.12200 48.75700
C  28.57600 -3.19600 46.31000
O  29.50000 -2.37600 46.34600
C  27.49100 -3.05200 45.29700
C  27.13000 -1.69000 45.14900
O  27.31900 -1.04200 44.18100
O  26.50400 -1.26200 46.30700
C  25.90000 0.09600 46.28800
H  21.31800 -6.14300 44.34300
H  23.43700 -10.87000 48.37500
H  28.66700 -7.45200 49.66900
H  24.60800 -2.46900 44.46800
H  22.44700 -4.21300 43.28400
H  22.22600 -2.05200 44.96400
H  21.75200 -3.32700 46.04800
H  20.90100 -3.23800 44.55900
H  24.22300 -4.04800 41.90600
H  25.67700 -4.42000 42.73800
H  26.54600 -2.37100 42.26200
H  25.01000 -1.51300 42.60000
H  19.60000 -9.17900 44.17600
H  19.57900 -7.41900 44.61200
H  18.95300 -8.79800 45.62300
H  22.52700 -12.37700 46.91600
H  20.96500 -13.10200 47.01800
H  21.46300 -12.04400 48.33800
H  26.14800 -11.28400 48.86400
H  26.87600 -9.13900 50.85900
H  24.39000 -11.68500 50.52300
H  24.21400 -9.96200 50.82800
H  25.57800 -10.78000 51.53800
H  29.15700 -9.71900 49.28300
H  28.32300 -11.09800 48.98300
H  28.49200 -10.56300 52.00300
H  30.00600 -10.55800 51.11200
H  29.16400 -11.93700 51.02000
H  30.95200 -5.77700 48.39400
H  29.82100 -5.30700 49.77700
H  30.64700 -4.15300 48.85900
H  27.81200 -3.37600 44.30700
H  25.19900 0.21700 45.46200
H  26.59200 0.88900 46.00400
H  25.35500 0.41200 47.17800
Mg 26.26400 1.18600 28.16600
C  27.85800 0.89100 31.24900
C  23.27900 1.69800 29.93300
C  24.66000 1.15800 25.28500
C  29.18500 0.24300 26.57700
N  25.67800 1.34400 30.39700
C  26.52300 1.35200 31.42400
C  25.79300 1.57100 32.74500
C  24.30600 1.73700 32.29300
C  24.43900 1.68300 30.78400
C  23.34100 0.70800 32.88500
C  26.32200 2.69800 33.78700
C  26.68900 2.36000 35.21500
H  26.56500 3.41200 36.33800
N  24.25200 1.34500 27.66500
C  23.17900 1.58600 28.54200
C  21.99200 1.74300 27.79300
C  22.30000 1.55000 26.40400
C  23.77800 1.28300 26.37700
C  20.57800 1.95500 28.35700
C  21.38100 1.45900 25.14400
O  21.76000 1.19900 24.02300
C  19.92500 1.82900 25.30100
N  26.85200 0.77000 26.18800
C  26.00500 1.04000 25.16000
C  26.81000 0.93300 23.79000
C  28.25300 0.53000 24.17900
C  28.14000 0.55200 25.71500
C  26.13900 0.01900 22.73100
C  29.38600 1.58100 23.77900
C  29.65300 1.71100 22.27600
N  28.09500 0.67000 28.76000
C  29.16500 0.24700 28.00400
C  30.23900 -0.20300 28.86600
C  29.81500 0.15600 30.15400
C  28.48300 0.68500 30.01100
C  31.59900 -0.70500 28.40800
C  30.16800 0.09900 31.56800
O  31.20800 -0.19800 32.13600
C  28.91400 0.63500 32.28500
C  28.56700 -0.29000 33.35000
O  27.64600 -1.08000 33.35200
O  29.37100 -0.11400 34.47800
C  29.05300 -0.85200 35.61800
H  22.32300 1.81500 30.44900
H  24.16900 1.16100 24.31000
H  30.09900 -0.10700 26.09300
H  25.87300 0.56000 33.14300
H  23.91000 2.73600 32.47500
H  23.84400 0.12600 33.65600
H  22.94400 0.12300 32.05500
H  22.64700 1.33100 33.44900
H  25.54500 3.46200 33.80000
H  27.15400 3.18900 33.28200
H  27.71300 2.04200 35.41100
H  26.08400 1.48400 35.44900
H  19.96100 2.56600 27.69800
H  20.59400 2.49400 29.30400
H  20.14600 0.95600 28.41800
H  19.49800 1.90200 24.30100
H  19.92500 2.87400 25.61200
H  19.36100 1.23700 26.02200
H  26.84800 1.95600 23.41400
H  28.64200 -0.42900 23.83700
H  25.25800 -0.45900 23.16000
H  26.78100 -0.72900 22.26600
H  25.80100 0.64200 21.90400
H  30.37600 1.22300 24.06200
H  29.23000 2.51000 24.32700
H  29.04000 0.96700 21.76800
H  30.66500 1.48800 21.93800
H  29.36100 2.70700 21.94200
H  32.21600 -0.59000 29.29900
H  31.85000 -0.06800 27.56000
H  31.54700 -1.76200 28.14700
H  29.13100 1.59400 32.75500
H  29.26300 -1.88700 35.34700
H  28.04800 -0.75200 36.02800
H  29.69800 -0.49600 36.42100

