158

Mg 44.25500 5.01800 47.63300
C  42.25100 7.64100 46.78100
C  41.42100 2.88700 47.29200
C  46.31800 2.30500 47.40900
C  47.08100 7.15400 47.30600
N  42.07600 5.29900 47.16800
C  41.52600 6.48000 46.80000
C  40.03100 6.36600 46.51700
C  39.72300 4.90400 46.92700
C  41.20900 4.31000 47.07600
C  38.77600 4.67600 48.12100
C  39.62300 6.54800 44.98100
C  38.78100 7.84900 44.70800
H  38.70000 8.47400 43.29900
N  43.93100 2.97000 47.44100
C  42.75600 2.29000 47.39500
C  43.03300 0.85300 47.17500
C  44.40700 0.70100 47.16900
C  44.93000 1.99900 47.37300
C  41.99100 -0.17100 46.93800
C  45.17100 -0.69100 46.95400
O  44.49600 -1.72100 46.63800
C  46.64300 -0.85500 47.09600
N  46.38400 4.76700 47.38600
C  46.97500 3.54600 47.46000
C  48.51900 3.69100 47.63500
C  48.63200 5.20500 47.95800
C  47.29500 5.78700 47.58400
C  49.29700 2.81700 48.65200
C  49.88600 5.86100 47.30700
C  50.67000 7.03300 47.99600
N  44.65000 6.96200 47.29200
C  45.82300 7.72800 47.18300
C  45.51900 9.08700 46.88700
C  44.11900 9.10800 46.70700
C  43.67600 7.80400 46.92500
C  46.48800 10.21900 46.84700
C  43.03800 9.99600 46.53400
O  42.85400 11.17200 46.36600
C  41.74100 9.09000 46.62700
C  40.81000 9.54500 47.71800
O  40.63700 9.01600 48.83200
O  40.01000 10.58700 47.23100
C  39.06400 11.05900 48.27000
H  40.56900 2.26000 47.02300
H  47.07500 1.51900 47.42500
H  47.93300 7.83800 47.32100
H  39.53300 7.17500 47.05100
H  39.27100 4.27900 46.15700
H  38.27800 5.55700 48.52800
H  39.43300 4.28700 48.89800
H  38.05500 3.89700 47.87600
H  39.12800 5.69300 44.51900
H  40.54000 6.61500 44.39500
H  39.29400 8.62700 45.27200
H  37.81100 7.73900 45.19300
H  42.00200 -0.88100 47.76500
H  42.21000 -0.81000 46.08100
H  41.01500 0.27700 46.75200
H  47.28900 -0.45400 46.31600
H  46.81700 -1.92700 47.18700
H  46.98200 -0.37100 48.01200
H  48.83300 3.52100 46.60500
H  48.78000 5.26900 49.03600
H  49.69800 1.97300 48.09000
H  48.58500 2.38900 49.35800
H  50.08500 3.36300 49.17000
H  49.68600 6.07000 46.25600
H  50.54500 4.99300 47.29600
H  50.99400 7.74500 47.23700
H  51.55800 6.62900 48.48200
H  50.00600 7.54100 48.69600
H  46.95900 10.31200 45.86800
H  47.36800 10.05800 47.47000
H  46.05800 11.09400 47.33500
H  41.29700 9.15700 45.63300
H  38.72100 12.05300 47.98200
H  39.49000 11.19400 49.26400
H  38.22900 10.36200 48.34300
Mg 47.37800 16.82500 28.71700
C  45.15600 16.64300 31.41300
C  49.73100 18.56000 30.64100
C  49.19800 17.43000 25.89300
C  44.87500 15.29500 26.75800
N  47.40700 17.55400 30.71000
C  46.39700 17.33300 31.69900
C  47.00000 17.67600 33.14100
C  48.25300 18.55500 32.79400
C  48.57200 18.12400 31.31100
C  48.19500 20.13200 32.95800
C  47.25300 16.38600 34.03700
C  47.02100 16.51000 35.53300
H  46.77000 17.84700 36.24400
N  49.23800 17.79400 28.38000
C  50.05000 18.45400 29.28400
C  51.17000 19.07000 28.66800
C  51.02300 18.76200 27.26500
C  49.76700 18.00900 27.10100
C  52.15900 19.74500 29.47400
C  51.89300 19.18900 26.13900
O  51.64600 18.87300 24.97500
C  53.08900 20.01200 26.37900
N  47.06300 16.47300 26.73900
C  48.00000 16.74600 25.77900
C  47.66800 16.18100 24.37800
C  46.36800 15.40400 24.67100
C  46.08900 15.65700 26.17600
C  47.69600 17.13100 23.15300
C  46.47800 13.83300 24.43300
C  45.74700 13.35300 23.13100
N  45.33300 16.17600 28.95000
C  44.49100 15.50400 28.12600
C  43.35200 15.11800 28.90000
C  43.62800 15.50700 30.20200
C  44.79100 16.16500 30.16600
C  42.08300 14.40200 28.44500
C  43.06300 15.42700 31.49200
O  42.02400 14.89500 31.95100
C  44.07800 16.22200 32.37900
C  43.43100 17.32300 33.08200
O  43.26400 18.42100 32.55500
O  42.87500 17.02600 34.27400
C  42.27300 18.00900 35.14700
H  50.48900 19.05000 31.25600
H  49.70000 17.59700 24.93800
H  44.06700 14.69700 26.33200
H  46.27200 18.24000 33.72400
H  49.01400 18.24200 33.50900
H  48.67600 20.45100 33.88200
H  47.13500 20.36300 33.05600
H  48.59400 20.62900 32.07300
H  48.30900 16.14700 33.91200
H  46.57100 15.61300 33.68100
H  47.85800 16.02000 36.03100
H  46.13200 15.94100 35.80500
H  52.91100 19.02400 29.79400
H  51.80500 20.38700 30.28100
H  52.72900 20.53800 28.98900
H  53.40000 20.11900 25.34000
H  53.80900 19.35600 26.86900
H  52.93800 20.95800 26.90000
H  48.49100 15.51700 24.11300
H  45.57400 15.87500 24.09100
H  48.37300 16.81600 22.35800
H  48.09400 18.07100 23.53600
H  46.73700 17.24700 22.64700
H  45.99400 13.39300 25.30400
H  47.53400 13.58600 24.32800
H  46.45700 13.52000 22.32100
H  44.87500 13.97800 22.94100
H  45.54600 12.28200 23.14200
H  41.34500 14.38000 29.24700
H  42.42300 13.42100 28.11500
H  41.66400 14.99200 27.63000
H  44.61400 15.62900 33.12000
H  41.39300 18.43900 34.66800
H  43.04700 18.75000 35.34800
H  42.04400 17.65100 36.15000

