158

Mg 9.08300 3.15000 27.62200
C  9.92800 1.40400 30.59200
C  6.85600 5.03200 29.47500
C  8.01300 4.54500 24.75700
C  10.75400 0.68600 25.78900
N  8.64600 3.34000 29.79600
C  9.12500 2.52200 30.77900
C  8.61100 2.97400 32.13200
C  7.48300 4.06900 31.72900
C  7.67400 4.19000 30.23300
C  6.00600 3.69500 32.19100
C  9.69100 3.54700 33.10200
C  9.08000 4.37100 34.19200
H  9.61400 3.96300 35.57000
N  7.58100 4.56800 27.21500
C  6.79400 5.30900 28.08600
C  5.96700 6.28800 27.33000
C  6.38900 6.14400 25.93800
C  7.35500 5.02400 25.93300
C  4.99100 7.17400 28.00800
C  5.90400 6.91000 24.73100
O  6.18200 6.69100 23.57100
C  4.87400 7.86800 25.02900
N  9.30900 2.69300 25.55800
C  8.82600 3.43600 24.55500
C  9.20700 2.93600 23.11500
C  9.95900 1.62100 23.50900
C  10.03400 1.62200 25.05800
C  8.05600 2.61400 22.15800
C  11.35500 1.57000 22.84000
C  11.58300 0.53300 21.72200
N  10.16800 1.40700 28.03900
C  10.75600 0.49700 27.15300
C  11.30400 -0.53400 27.98800
C  11.13600 -0.11600 29.36500
C  10.35500 0.98200 29.32200
C  11.94400 -1.77400 27.50500
C  11.44100 -0.53100 30.67100
O  12.10200 -1.45000 31.03700
C  10.66100 0.47100 31.57800
C  9.78600 -0.38300 32.39800
O  8.65800 -0.82600 32.10000
O  10.38300 -0.49300 33.68100
C  9.53200 -1.10600 34.73300
H  6.22100 5.70700 30.05200
H  7.75700 5.07100 23.83400
H  11.07300 -0.06100 25.06000
H  8.21700 2.07700 32.61000
H  7.69100 5.04300 32.17200
H  6.10000 2.75900 32.74200
H  5.21600 3.50800 31.46300
H  5.52600 4.39100 32.87800
H  10.51200 3.96600 32.52000
H  10.12100 2.66100 33.56800
H  8.02800 4.13500 34.34700
H  9.33800 5.43000 34.16200
H  5.42200 8.17500 27.99000
H  4.90900 7.09500 29.09200
H  4.02300 7.16200 27.50800
H  3.97500 7.29200 25.25100
H  4.76100 8.44500 24.11100
H  5.29400 8.46100 25.84100
H  9.86500 3.72000 22.74100
H  9.26300 0.80100 23.33200
H  7.12000 2.73300 22.70400
H  8.14700 1.59500 21.78200
H  8.03700 3.28800 21.30100
H  12.10000 1.44100 23.62600
H  11.64500 2.54000 22.43800
H  10.65600 0.42000 21.16100
H  11.92200 -0.43200 22.10000
H  12.37500 0.94800 21.09800
H  12.29500 -2.42900 28.30200
H  12.89700 -1.44100 27.09300
H  11.42400 -2.39300 26.77400
H  11.16500 1.03800 32.36100
H  10.15300 -1.81900 35.27400
H  8.76300 -1.61000 34.14600
H  8.96400 -0.31900 35.22900
Mg 26.09300 50.54300 25.60200
C  24.05100 51.66000 28.09300
C  28.55500 49.91200 27.88200
C  27.99600 49.63000 23.02200
C  23.60100 51.63000 23.14900
N  26.24400 50.69900 27.70900
C  25.21900 51.12700 28.57100
C  25.63400 50.95100 30.05700
C  27.09500 50.64300 30.02000
C  27.30300 50.40800 28.43400
C  28.03900 51.69300 30.63600
C  24.63200 49.94600 30.80400
C  24.12300 50.52900 32.12200
H  23.94400 49.56800 33.25500
N  28.05900 49.90000 25.54300
C  28.91100 49.64500 26.56400
C  30.16600 49.12100 26.02800
C  30.04000 49.09000 24.57000
C  28.61600 49.52000 24.29300
C  31.41200 48.89700 26.87500
C  31.10700 48.80200 23.53700
O  30.84500 48.74200 22.35700
C  32.52000 48.52200 23.90400
N  25.94900 50.77900 23.32700
C  26.82000 50.15100 22.51800
C  26.34100 50.10700 21.12200
C  24.87900 50.59700 21.20100
C  24.82800 51.12400 22.63900
C  27.28900 50.89700 20.19800
C  23.78200 49.44000 20.84800
C  22.59800 49.90100 19.97700
N  24.22500 51.35700 25.53600
C  23.36000 51.76500 24.53300
C  22.14400 52.18000 25.02600
C  22.42000 52.26900 26.34200
C  23.66400 51.77500 26.65600
C  20.96900 52.69000 24.27300
C  21.81700 52.66100 27.64500
O  20.64400 53.00400 27.91000
C  22.82000 52.25500 28.76200
C  23.31900 53.38300 29.70800
O  24.35800 54.07900 29.65300
O  22.31700 53.54100 30.68200
C  22.87900 54.02000 31.94200
H  29.28500 49.73400 28.67500
H  28.57500 49.22300 22.19000
H  22.81200 51.82200 22.42000
H  25.62800 51.97200 30.43800
H  27.28700 49.69200 30.51700
H  27.62400 52.40900 31.34500
H  28.63500 52.23200 29.90000
H  28.75800 51.08300 31.18300
H  25.11500 48.97700 30.92900
H  23.79300 49.78400 30.12600
H  23.16100 51.01400 31.95400
H  24.81300 51.34500 32.33600
H  31.12300 48.59800 27.88300
H  31.96200 49.83400 26.96200
H  32.15800 48.17700 26.53900
H  32.71500 47.50200 24.23400
H  32.75400 49.25400 24.67700
H  33.16900 48.77700 23.06700
H  26.43300 49.07200 20.79300
H  24.73300 51.46800 20.56200
H  27.89600 51.62700 20.73400
H  26.61800 51.55300 19.64300
H  27.93100 50.32900 19.52500
H  23.30600 49.06900 21.75600
H  24.36100 48.67200 20.33400
H  22.83300 50.95800 19.85900
H  21.59500 49.88400 20.40400
H  22.50700 49.38000 19.02400
H  20.84500 52.11700 23.35400
H  21.13600 53.71600 23.94500
H  20.09000 52.64000 24.91600
H  22.42300 51.48800 29.42700
H  22.15100 53.84200 32.73300
H  22.93400 55.10600 31.87200
H  23.87800 53.61300 32.10200

