158

Mg 56.18300 24.74700 44.62400
C  53.88900 26.93600 43.23500
C  54.69400 22.15600 43.01000
C  59.09500 22.91900 45.07300
C  57.98400 27.72700 45.68300
N  54.58800 24.57600 43.07100
C  53.80900 25.64600 42.67800
C  52.70100 25.17200 41.72000
C  52.83100 23.58700 41.89600
C  54.09400 23.38900 42.69000
C  51.56000 22.76000 42.35100
C  53.09100 25.62200 40.19700
C  51.93500 26.06500 39.19100
H  51.72500 25.21800 37.94500
N  56.68400 22.76600 44.31500
C  55.86600 21.77100 43.76400
C  56.55100 20.55000 43.83300
C  57.79600 20.69100 44.46600
C  57.93600 22.20700 44.62500
C  55.88700 19.28800 43.35100
C  58.79900 19.58900 44.91700
O  58.64600 18.43800 44.60100
C  59.80800 19.86700 45.91000
N  58.16400 25.21400 45.41700
C  59.22000 24.25600 45.45700
C  60.41200 24.90900 46.15300
C  60.09600 26.45700 46.06400
C  58.65700 26.45000 45.78100
C  60.77700 24.41000 47.57800
C  60.88500 27.32700 44.98900
C  61.41100 28.69400 45.42800
N  55.93700 26.85700 44.72100
C  56.69100 27.90500 45.16600
C  55.95500 29.14000 45.10600
C  54.81500 28.78900 44.37500
C  54.90700 27.42500 44.11500
C  56.28500 30.50900 45.70700
C  53.51100 29.22100 43.91600
O  52.94000 30.28500 43.97700
C  52.83000 28.02400 43.09600
C  52.77800 28.69600 41.76800
O  53.74800 29.07600 41.17400
O  51.48700 28.85700 41.46000
C  51.11600 29.36500 40.14000
H  54.26100 21.29700 42.49200
H  60.03300 22.42300 45.33100
H  58.48600 28.61800 46.06600
H  51.69200 25.50800 41.95900
H  52.87000 23.14800 40.89900
H  51.58400 21.78400 41.86800
H  50.60600 23.28100 42.27200
H  51.71500 22.50300 43.39800
H  53.56800 24.82100 39.63300
H  53.90300 26.34800 40.15600
H  52.23700 27.04900 38.83300
H  51.00600 26.21100 39.74200
H  56.33000 18.77800 42.49500
H  54.87200 19.46400 42.99500
H  55.79600 18.58400 44.17800
H  60.72700 20.13600 45.38900
H  60.00600 18.99900 46.54000
H  59.45100 20.63100 46.60100
H  61.30300 24.85000 45.52800
H  60.28800 27.05100 46.95700
H  60.46200 25.08000 48.37800
H  61.84200 24.19300 47.50000
H  60.29100 23.44000 47.68600
H  60.25300 27.45700 44.11000
H  61.81100 26.85400 44.66000
H  62.49800 28.75400 45.37500
H  61.28100 28.86700 46.49700
H  60.99900 29.50900 44.83200
H  56.78400 31.12100 44.95600
H  56.95300 30.46400 46.56600
H  55.49300 31.19700 46.00500
H  51.90000 27.65400 43.52700
H  50.51000 30.23600 40.39000
H  50.53700 28.62400 39.58900
H  51.89600 29.71600 39.46400
Mg 48.82400 35.21300 26.45500
C  46.87400 34.26600 29.17300
C  49.27500 38.35100 27.85700
C  50.42300 36.28400 23.47500
C  47.57600 32.39000 24.66300
N  48.22700 36.18000 28.27900
C  47.53900 35.51000 29.31600
C  47.41700 36.39300 30.52700
C  48.02300 37.80700 30.04100
C  48.58300 37.43100 28.66000
C  47.10400 39.13100 29.97300
C  48.25100 35.80200 31.78500
C  47.48100 35.83300 33.04600
H  47.43000 37.05400 33.93400
N  49.76700 37.03300 25.82400
C  49.82900 38.19300 26.55000
C  50.42600 39.23100 25.71100
C  50.95600 38.57900 24.53900
C  50.39000 37.24900 24.54200
C  50.71900 40.63300 26.03200
C  51.85300 39.05300 23.37400
O  52.06200 38.49700 22.27600
C  52.62500 40.36600 23.58000
N  49.03600 34.41000 24.37700
C  49.78600 35.05700 23.41600
C  49.94500 34.11000 22.25400
C  49.27300 32.75400 22.67500
C  48.53100 33.18900 23.95700
C  49.48100 34.64800 20.90500
C  50.18100 31.43200 22.89700
C  49.64600 30.16800 22.24500
N  47.56500 33.60200 26.81100
C  47.14300 32.54400 25.99900
C  46.29600 31.71300 26.73500
C  46.08500 32.40900 27.97800
C  46.91100 33.52500 27.94500
C  45.76300 30.40500 26.17200
C  45.27900 32.37900 29.19400
O  44.32900 31.63500 29.50700
C  45.86000 33.61100 30.11400
C  46.36100 33.00700 31.38000
O  47.35400 32.30800 31.45800
O  45.52100 33.36500 32.40100
C  45.66900 32.98700 33.81300
H  49.47400 39.36300 28.21700
H  50.91200 36.49000 22.52100
H  47.30300 31.48600 24.11400
H  46.34500 36.52300 30.67500
H  48.81700 38.16200 30.69800
H  47.40700 39.78600 30.79000
H  46.06800 38.83900 30.14700
H  47.09200 39.47500 28.93800
H  49.15600 36.38900 31.94000
H  48.48200 34.75700 31.57900
H  47.86600 35.10800 33.76300
H  46.42100 35.60500 32.93600
H  51.79600 40.79800 26.05700
H  50.20000 40.72500 26.98600
H  50.14000 41.34500 25.44500
H  51.93700 41.17900 23.81200
H  53.16200 40.65800 22.67700
H  53.37500 40.12800 24.33500
H  51.02100 33.95100 22.18600
H  48.44300 32.62700 21.98000
H  49.26300 33.72600 20.36600
H  50.30600 35.20100 20.45700
H  48.63400 35.33000 20.98400
H  50.44300 31.21400 23.93200
H  51.11500 31.70100 22.40300
H  49.28600 29.42200 22.95300
H  50.34900 29.54400 21.69200
H  48.87000 30.39500 21.51400
H  46.43100 29.55600 26.31200
H  45.40400 30.30500 25.14800
H  44.90500 30.18800 26.80900
H  44.94300 34.15200 30.34500
H  46.70700 33.16500 34.09200
H  45.38700 31.95600 34.02500
H  45.10300 33.57900 34.53200

