158

Mg 36.31800 2.29300 30.25400
C  33.88400 3.27900 32.37400
C  38.69100 2.34300 32.71600
C  38.57800 1.37300 27.90800
C  33.95300 2.64700 27.54100
N  36.26700 2.81100 32.27700
C  35.17400 3.17000 33.00400
C  35.48400 3.30600 34.41100
C  37.05300 3.29500 34.41800
C  37.39200 2.76900 33.06900
C  37.78300 4.63900 34.69600
C  34.84300 2.26500 35.30600
C  34.72600 2.65300 36.77500
H  35.30800 3.97200 37.26600
N  38.25100 1.70500 30.32400
C  39.09800 1.81600 31.43100
C  40.39000 1.33700 31.10700
C  40.46600 1.22600 29.67300
C  39.04800 1.43700 29.20500
C  41.45900 1.23600 32.14400
C  41.68800 0.86800 28.80900
O  41.63100 0.93500 27.59200
C  42.92800 0.52000 29.58700
N  36.26500 2.21900 27.95000
C  37.38000 1.77000 27.28300
C  37.06100 1.45700 25.83400
C  35.47200 1.68100 25.76700
C  35.20300 2.18200 27.16400
C  37.79900 2.19700 24.70900
C  34.71500 0.43600 25.34500
C  33.24800 0.65400 24.88100
N  34.38500 2.82600 29.97100
C  33.53100 2.95800 28.85000
C  32.23100 3.33800 29.31800
C  32.28600 3.41600 30.67200
C  33.57300 3.09600 31.01300
C  30.93400 3.62400 28.45100
C  31.53300 3.86300 31.82100
O  30.41500 4.34100 31.94100
C  32.51400 3.62200 33.02600
C  32.38300 4.81000 34.01300
O  32.83100 5.89000 33.83900
O  31.66100 4.35900 35.10800
C  31.34400 5.38600 36.14200
H  39.45600 2.41900 33.49200
H  39.40900 1.05000 27.27800
H  33.14400 2.71100 26.81000
H  35.06500 4.28100 34.66000
H  37.41300 2.59600 35.17300
H  38.62500 4.51000 35.37600
H  37.03900 5.24800 35.21000
H  38.12700 5.11700 33.77900
H  35.46200 1.36900 35.34800
H  33.90000 1.98300 34.83700
H  34.93400 1.83900 37.46900
H  33.66700 2.88100 36.89800
H  41.36900 0.29500 32.68800
H  41.35800 2.03500 32.87900
H  42.49900 1.40200 31.86300
H  43.48400 1.36300 29.99700
H  43.54000 -0.06200 28.89700
H  42.68500 -0.21000 30.35900
H  37.24800 0.38700 25.74400
H  35.17500 2.48300 25.09200
H  38.16200 1.51900 23.93600
H  38.58500 2.78000 25.18700
H  37.05000 2.78800 24.18100
H  34.66800 -0.37900 26.06800
H  35.34300 -0.03700 24.59000
H  33.00400 0.20900 23.91600
H  32.90400 1.68500 24.79100
H  32.67000 0.05400 25.58400
H  31.36300 4.00400 27.52400
H  30.16500 4.20000 28.96600
H  30.42100 2.75100 28.04700
H  32.26200 2.70100 33.55200
H  30.62700 6.10700 35.74900
H  32.20700 5.94300 36.50600
H  30.97400 4.82500 37.00000
Mg 27.58800 56.39200 40.30500
C  25.41000 53.84900 39.79200
C  30.18900 54.26600 39.56200
C  29.71400 59.09600 40.31400
C  24.94300 58.48700 40.92500
N  27.69400 54.36000 39.57700
C  26.71500 53.44100 39.48000
C  27.15800 52.12400 38.96400
C  28.72500 52.20800 39.16400
C  28.89200 53.72500 39.48100
C  29.16500 51.31000 40.34000
C  26.70300 51.80300 37.46800
C  27.30400 52.60900 36.36100
H  26.40200 53.64100 35.57800
N  29.65700 56.60100 39.84400
C  30.56000 55.61300 39.74300
C  31.88800 56.24300 39.68600
C  31.73300 57.61600 39.83900
C  30.29800 57.85800 40.00900
C  33.14600 55.45200 39.41900
C  32.92200 58.57800 39.78300
O  34.00800 58.24300 39.33500
C  32.66200 59.95400 40.18200
N  27.33200 58.54800 40.35900
C  28.35500 59.46100 40.49400
C  27.73700 60.82300 41.03700
C  26.20800 60.63700 40.87700
C  26.14400 59.11900 40.74500
C  28.19600 61.07400 42.46900
C  25.46300 61.36500 39.77700
C  24.75000 62.60800 40.25000
N  25.58500 56.22400 40.43200
C  24.62900 57.11200 40.79700
C  23.35000 56.47900 40.96400
C  23.56500 55.19100 40.47300
C  24.93400 55.12400 40.13500
C  22.04700 57.03100 41.49100
C  22.94700 53.94100 40.14100
O  21.77900 53.62600 40.19000
C  24.12300 52.99300 39.67400
C  24.14500 51.62900 40.35600
O  23.65400 50.59900 39.88000
O  24.74700 51.69800 41.59400
C  24.70200 50.39500 42.32800
H  30.96500 53.52300 39.36400
H  30.25800 60.03900 40.40300
H  24.11500 59.11100 41.26900
H  26.59600 51.45200 39.61200
H  29.26600 51.88400 38.27500
H  29.48000 50.32500 39.99700
H  28.33000 51.35600 41.04000
H  30.08100 51.73400 40.75200
H  25.61400 51.75600 37.42800
H  26.92100 50.77800 37.17000
H  27.82200 52.05300 35.58100
H  28.14700 53.18200 36.74800
H  33.03900 54.36800 39.46800
H  33.98800 55.54000 40.10500
H  33.58400 55.62000 38.43500
H  32.32700 60.10800 41.20800
H  32.10300 60.33900 39.33000
H  33.56400 60.55100 40.04200
H  28.02400 61.65900 40.39900
H  25.80500 60.72400 41.88600
H  27.59400 61.76000 43.06600
H  29.25200 61.33700 42.40800
H  28.13300 60.09400 42.94200
H  24.80800 60.73300 39.17800
H  26.17600 61.76700 39.05800
H  24.90600 62.80200 41.31100
H  23.68000 62.55800 40.04900
H  25.13100 63.51200 39.77400
H  21.33500 57.27800 40.70400
H  22.18500 57.86000 42.18600
H  21.57200 56.22800 42.05400
H  24.07200 52.64300 38.64300
H  23.77100 50.24800 42.87600
H  25.53800 50.46100 43.02400
H  24.96900 49.56000 41.68100

