158

Mg 41.61800 8.57900 29.78900
C  43.57000 9.81500 32.43000
C  39.36300 7.24900 31.96800
C  39.94000 7.38000 27.14100
C  44.19600 9.69600 27.53800
N  41.57500 8.37100 31.94100
C  42.45300 8.99800 32.84200
C  41.97500 8.62000 34.27700
C  40.81300 7.58800 34.03500
C  40.53600 7.72400 32.54900
C  41.21900 6.19200 34.50800
C  41.51700 9.74000 35.12100
C  41.22800 9.50200 36.63400
H  41.85300 10.52200 37.63100
N  39.86700 7.50600 29.55500
C  39.00100 7.20800 30.61200
C  37.81600 6.62100 30.05700
C  37.90900 6.76000 28.60500
C  39.25800 7.23100 28.39000
C  36.62600 5.96000 30.73100
C  36.92800 6.57300 27.50100
O  37.08100 6.62100 26.28700
C  35.51200 6.54000 27.94800
N  41.99600 8.58900 27.61700
C  41.20500 7.92900 26.77500
C  41.65600 8.13400 25.35000
C  43.02500 8.76000 25.54900
C  43.09900 9.00600 26.98900
C  41.55900 6.83200 24.54000
C  43.26800 10.00600 24.64900
C  42.65900 11.34300 25.21900
N  43.48700 9.59800 29.87900
C  44.36900 10.03700 28.89600
C  45.48600 10.74900 29.59800
C  45.16000 10.78400 30.93500
C  43.95300 10.02600 31.04900
C  46.65000 11.43100 29.02700
C  45.59100 11.18700 32.23800
O  46.57900 11.83500 32.52500
C  44.53900 10.57500 33.19700
C  45.32300 9.79500 34.23400
O  45.64800 8.62800 34.05600
O  45.60100 10.53000 35.35500
C  46.27700 9.82900 36.49800
H  38.58900 6.77000 32.57200
H  39.34400 7.19500 26.24500
H  45.05100 9.92200 26.89700
H  42.91300 8.26700 34.70600
H  39.90800 7.89000 34.56200
H  41.07600 5.44000 33.73200
H  40.59600 5.85200 35.33500
H  42.28200 6.13500 34.74500
H  40.52600 10.03600 34.77600
H  42.11900 10.64300 35.01700
H  41.43000 8.46900 36.91800
H  40.14800 9.60600 36.73000
H  36.96000 5.60700 31.70700
H  36.38300 5.00600 30.26300
H  35.75500 6.61100 30.81100
H  34.91600 6.51300 27.03600
H  35.29700 7.50300 28.41000
H  35.41500 5.64900 28.56900
H  40.81700 8.72700 24.98600
H  43.69500 7.94300 25.28100
H  40.86200 6.93500 23.70800
H  41.18600 6.09800 25.25400
H  42.57800 6.56700 24.26000
H  42.86900 9.74000 23.67100
H  44.33600 10.11800 24.46400
H  43.41800 12.11900 25.11800
H  42.21600 11.29000 26.21300
H  41.83000 11.59800 24.55900
H  47.13300 10.85900 28.23400
H  47.34300 11.70200 29.82400
H  46.31600 12.33900 28.52500
H  43.95800 11.38200 33.64400
H  47.24500 10.27100 36.73400
H  46.52800 8.78600 36.31000
H  45.65300 9.85000 37.39200
Mg 26.47000 50.40300 26.66900
C  24.48500 51.98700 28.92500
C  28.87900 49.71600 29.12000
C  28.51000 49.31700 24.31300
C  24.20100 51.58300 24.08100
N  26.66300 50.78700 28.71300
C  25.63500 51.33800 29.46300
C  25.86200 51.08500 30.95400
C  27.28700 50.39400 31.05500
C  27.65700 50.29400 29.57100
C  28.37100 51.22400 31.91700
C  24.75400 50.21400 31.68300
C  24.10800 50.72000 32.95800
H  24.82100 51.25800 34.14700
N  28.43100 49.66900 26.70300
C  29.19100 49.44200 27.79200
C  30.43100 48.78700 27.36300
C  30.36800 48.71800 25.94700
C  29.07000 49.28300 25.55700
C  31.54400 48.19500 28.31300
C  31.34300 48.06800 24.94500
O  31.13400 47.92000 23.72500
C  32.61600 47.49600 25.46200
N  26.39100 50.46900 24.46800
C  27.32000 49.81600 23.78300
C  27.14700 50.11400 22.29700
C  25.61400 50.57400 22.19000
C  25.34200 50.92600 23.66900
C  28.12200 51.17600 21.68200
C  24.60700 49.42200 21.76200
C  24.59400 49.02800 20.24400
N  24.69700 51.63300 26.49400
C  23.87200 51.96000 25.39000
C  22.72300 52.66600 25.92200
C  22.92700 52.77900 27.27900
C  24.10700 52.10800 27.61000
C  21.62800 53.29400 25.02100
C  22.36500 53.23600 28.47900
O  21.33500 53.91600 28.72300
C  23.30400 52.65600 29.65600
C  23.73700 53.81000 30.50200
O  24.43900 54.74000 30.12000
O  22.98800 53.77600 31.71600
C  23.11500 55.06000 32.47500
H  29.56700 49.32700 29.87300
H  29.05500 48.82300 23.50600
H  23.47200 51.78400 23.29300
H  25.81000 52.03100 31.49300
H  27.20900 49.36000 31.39000
H  29.09800 51.59500 31.19500
H  28.88000 50.61600 32.66500
H  27.85600 51.97600 32.51400
H  25.29100 49.38200 32.13800
H  24.00700 49.80800 31.00000
H  23.53500 49.88100 33.35100
H  23.48200 51.50200 32.52800
H  31.71400 47.12500 28.19200
H  31.25500 48.23600 29.36300
H  32.51400 48.65000 28.11200
H  33.26500 47.18900 24.64200
H  32.39200 46.60100 26.04300
H  33.09900 48.32000 25.98700
H  27.27000 49.25100 21.64200
H  25.71900 51.41000 21.49900
H  28.85300 51.35400 22.47000
H  27.65000 52.14500 21.51900
H  28.58500 50.71500 20.81000
H  23.59600 49.65400 22.09500
H  24.89100 48.50000 22.26900
H  23.60100 49.31700 19.89900
H  24.85100 47.98000 20.09100
H  25.25200 49.59200 19.58400
H  21.26100 52.45300 24.43200
H  22.07700 53.95000 24.27500
H  20.88600 53.87100 25.57400
H  22.72700 51.92600 30.22400
H  23.47500 55.92700 31.92000
H  23.81600 54.77800 33.25900
H  22.21500 55.34300 33.02100

