158

Mg 0.75700 8.12600 24.97200
C  1.40800 9.68200 28.21700
C  0.91800 5.09600 26.69800
C  1.01500 6.62400 22.12100
C  1.32200 11.26600 23.52300
N  1.17100 7.53600 27.21700
C  1.29100 8.30300 28.32300
C  1.22900 7.46300 29.62900
C  1.07000 6.04300 29.09800
C  1.03700 6.21300 27.59800
C  2.20900 5.09900 29.52400
C  0.01100 7.91800 30.50600
C  0.20800 7.66600 32.07500
H  1.55800 7.32500 32.69200
N  0.75500 6.16400 24.41200
C  0.79500 5.03300 25.26300
C  0.72100 3.82500 24.43800
C  0.53300 4.25000 23.07000
C  0.78200 5.71100 23.12000
C  0.65700 2.44500 25.03000
C  0.31300 3.48400 21.80900
O  0.18100 4.04500 20.72300
C  -0.05600 1.97400 21.82600
N  1.16900 8.86200 23.11100
C  1.23500 8.00600 22.06900
C  1.21700 8.87400 20.68900
C  1.07200 10.33300 21.23700
C  1.18100 10.16600 22.75200
C  2.45500 8.67400 19.76800
C  -0.17800 11.13700 20.68300
C  -1.44000 10.99400 21.46000
N  1.09000 10.08600 25.67200
C  1.39400 11.20800 24.95900
C  1.51800 12.31600 25.84100
C  1.60900 11.76300 27.10400
C  1.35200 10.43900 26.96800
C  1.62000 13.75700 25.44100
C  1.87700 12.02600 28.54500
O  2.09900 13.15700 29.03600
C  1.63500 10.69600 29.30900
C  2.83000 10.51300 30.17300
O  3.92000 10.17000 29.88000
O  2.54800 10.94100 31.43900
C  3.67100 11.08800 32.41300
H  0.91500 4.13200 27.21100
H  1.26500 6.17000 21.16000
H  1.26100 12.24500 23.04300
H  2.08800 7.75600 30.23300
H  0.11400 5.65600 29.45000
H  1.79900 4.50400 30.34100
H  3.04200 5.67400 29.92700
H  2.63900 4.30600 28.91100
H  -0.87000 7.29900 30.34100
H  -0.19500 8.96700 30.29100
H  -0.46000 6.83100 32.28600
H  -0.24700 8.56400 32.49200
H  -0.33700 2.03000 24.86400
H  0.94200 2.37700 26.08000
H  1.34100 1.77000 24.51400
H  0.76900 1.27900 21.98600
H  -0.66300 1.80600 20.93600
H  -0.79700 1.82200 22.61100
H  0.27000 8.53700 20.26700
H  1.99200 10.83000 20.92700
H  2.93200 9.64300 19.62300
H  2.07600 8.27400 18.82800
H  3.26500 8.03100 20.11300
H  -0.39000 10.76400 19.68100
H  0.19100 12.16100 20.61500
H  -2.16800 10.45600 20.85400
H  -1.83900 11.96000 21.76800
H  -1.38400 10.44400 22.39900
H  0.96900 14.02100 24.60800
H  2.65200 14.09100 25.32700
H  1.32400 14.43800 26.23900
H  0.84800 10.84500 30.04800
H  4.31000 11.87400 32.01100
H  4.22300 10.16300 32.58200
H  3.39300 11.35000 33.43400
Mg 24.36300 -5.58400 46.31500
C  26.73100 -3.30000 44.67900
C  22.11600 -4.78200 43.94700
C  22.61100 -7.96800 47.59800
C  27.28100 -6.62900 48.26600
N  24.41700 -4.14200 44.51100
C  25.45300 -3.38500 44.02900
C  25.02700 -2.61800 42.76100
C  23.48800 -2.93400 42.77800
C  23.32000 -4.02500 43.78000
C  22.63500 -1.63500 43.03700
C  25.78500 -3.10400 41.49900
C  26.32300 -1.84100 40.69600
H  26.30600 -1.71900 39.11600
N  22.58600 -6.26500 45.86300
C  21.75400 -5.75000 44.88600
C  20.42000 -6.41300 45.06000
C  20.59200 -7.46100 46.06500
C  21.93400 -7.19800 46.63500
C  19.25500 -5.82500 44.28500
C  19.51400 -8.59900 46.23500
O  18.45700 -8.63200 45.62000
C  19.78800 -9.76800 47.20000
N  24.91800 -7.17000 47.71200
C  23.91700 -7.97400 48.18100
C  24.54400 -9.13900 48.89400
C  25.95600 -8.65600 49.21800
C  26.08500 -7.38800 48.39700
C  23.76700 -9.56800 50.24000
C  27.20900 -9.63500 48.94000
C  28.43600 -9.54300 49.78500
N  26.47200 -4.98000 46.62000
C  27.45500 -5.48200 47.45800
C  28.67400 -4.73200 47.24800
C  28.36600 -3.82000 46.21700
C  27.08000 -4.09400 45.77600
C  29.92600 -4.87800 48.03400
C  29.00700 -2.81700 45.34200
O  30.09900 -2.39900 45.38600
C  27.95000 -2.59000 44.16600
C  27.79300 -1.14200 44.25600
O  28.18500 -0.31600 43.41300
O  27.26600 -0.83100 45.44400
C  27.07200 0.65200 45.65100
H  21.44700 -4.67000 43.09100
H  22.13500 -8.87000 47.98800
H  28.24400 -6.96800 48.65400
H  25.21300 -1.55800 42.93600
H  23.32600 -3.33300 41.77600
H  21.58100 -1.88700 42.92300
H  22.70500 -0.90200 42.23300
H  22.77300 -1.22900 44.03900
H  25.10800 -3.63200 40.82800
H  26.48500 -3.90300 41.74300
H  27.32800 -1.69500 41.09200
H  25.93500 -0.86900 41.00000
H  19.01200 -4.88300 44.77600
H  18.40100 -6.47600 44.47300
H  19.60900 -5.65300 43.26900
H  20.68300 -10.36000 47.01100
H  19.02100 -10.54000 47.14800
H  19.87100 -9.39200 48.22000
H  24.54800 -10.04600 48.28800
H  26.00300 -8.28200 50.24100
H  23.44800 -10.61000 50.19700
H  22.94400 -8.97400 50.63700
H  24.42700 -9.68900 51.09800
H  27.68200 -9.49000 47.96900
H  26.82300 -10.64600 49.06800
H  29.35200 -9.47800 49.19700
H  28.54900 -10.46700 50.35100
H  28.39300 -8.68300 50.45400
H  29.95500 -5.36800 49.00800
H  30.16100 -3.82300 48.17600
H  30.67000 -5.36600 47.40400
H  28.27000 -2.94300 43.18500
H  25.99700 0.83100 45.63400
H  27.61500 1.19900 44.88100
H  27.53200 0.93200 46.59900

