158

Mg 7.51000 54.51600 41.15200
C  6.72100 51.05200 41.39500
C  10.39900 53.63400 39.57900
C  7.94700 57.69700 40.33300
C  4.04100 55.19200 41.90100
N  8.35900 52.53400 40.43800
C  7.87500 51.24200 40.62600
C  8.75300 50.19400 39.96100
C  10.09500 51.04600 39.81500
C  9.66000 52.46500 40.05200
C  11.34400 50.64500 40.74500
C  8.19700 49.67600 38.58400
C  7.42700 50.64300 37.62500
H  7.94400 50.94400 36.20000
N  9.05600 55.56200 40.20700
C  10.20500 55.03400 39.69700
C  11.06800 56.10700 39.19700
C  10.45600 57.37600 39.43700
C  9.09000 56.92100 39.94900
C  12.34300 55.86100 38.57500
C  10.97900 58.72800 39.07000
O  12.12200 58.75100 38.67700
C  10.18600 59.99600 39.21800
N  6.09800 56.16400 40.91300
C  6.60500 57.38800 40.69700
C  5.54200 58.42300 41.03900
C  4.25800 57.55600 41.25200
C  4.80300 56.15200 41.33100
C  5.93900 59.33100 42.31400
C  3.04200 57.66900 40.15700
C  2.95100 56.57700 39.12800
N  5.80200 53.46900 41.82200
C  4.48300 53.87500 42.07200
C  3.74600 52.69100 42.49700
C  4.59300 51.55800 42.35200
C  5.82300 52.08400 41.87100
C  2.35500 52.72700 43.01500
C  4.71000 50.18900 42.56100
O  3.91400 49.40800 43.06300
C  6.04400 49.81800 41.91600
C  5.72900 48.95900 40.76600
O  4.69000 49.01400 40.07800
O  6.57900 47.90800 40.76100
C  6.24600 46.78900 39.93200
H  11.14900 53.15000 38.95000
H  7.99200 58.78400 40.24400
H  3.02600 55.46600 42.19900
H  8.90300 49.37100 40.66000
H  10.49400 50.96800 38.80300
H  12.35300 50.53300 40.34800
H  11.06700 49.77700 41.34300
H  11.35600 51.39000 41.54100
H  7.61700 48.76900 38.75000
H  9.04300 49.33500 37.98600
H  7.30000 51.66300 37.98900
H  6.47900 50.14200 37.43100
H  12.39700 56.38500 37.62100
H  12.43100 54.81500 38.28200
H  13.16200 56.24000 39.18700
H  9.13800 59.89100 38.93400
H  10.54100 60.77500 38.54200
H  10.30900 60.32100 40.25100
H  5.19400 58.98200 40.17000
H  3.93800 57.74000 42.27700
H  6.84300 59.00000 42.82700
H  5.16200 59.43000 43.07200
H  6.01100 60.38700 42.05700
H  2.99600 58.59900 39.59000
H  2.11400 57.66800 40.73000
H  2.09400 55.92200 39.28700
H  3.89400 56.04700 38.99800
H  2.78200 57.07400 38.17300
H  2.05200 51.72700 43.32500
H  1.73300 52.96700 42.15200
H  2.16300 53.51900 43.73800
H  6.55100 49.22200 42.67500
H  5.87900 47.16800 38.97800
H  5.59500 46.08500 40.45100
H  7.16900 46.20900 39.92200
Mg -9.92800 39.35500 41.75300
C  -8.33400 36.47900 40.43100
C  -7.80400 41.21200 39.83700
C  -12.06200 41.88400 41.93300
C  -12.43200 37.20600 42.99800
N  -8.34100 38.90500 40.23800
C  -7.74900 37.67800 39.96700
C  -6.60500 37.79700 38.96600
C  -6.36000 39.31100 38.95700
C  -7.55100 39.88400 39.76200
C  -5.02000 39.72100 39.66700
C  -7.00600 37.19000 37.62600
C  -6.13000 36.14300 36.95400
H  -5.57800 36.45700 35.51700
N  -9.74200 41.33800 41.34000
C  -8.78400 41.95800 40.55000
C  -9.03200 43.39000 40.56500
C  -10.26300 43.60700 41.11400
C  -10.72500 42.21600 41.51200
C  -7.96500 44.36700 40.08400
C  -11.01400 44.99300 41.30300
O  -10.44900 46.10300 41.14300
C  -12.47600 45.01100 41.66700
N  -11.97900 39.48900 42.24700
C  -12.61900 40.70900 42.36200
C  -14.05900 40.66200 42.75000
C  -14.21500 39.07200 43.06100
C  -12.82700 38.56200 42.81400
C  -14.33300 41.52000 43.97300
C  -15.20500 38.42100 42.04000
C  -16.05300 37.27200 42.60900
N  -10.30600 37.24800 41.85700
C  -11.25100 36.55000 42.51300
C  -10.90200 35.15500 42.48500
C  -9.76000 35.10500 41.72200
C  -9.42100 36.42100 41.29100
C  -11.74100 33.99200 43.13300
C  -8.78400 34.21400 41.21400
O  -8.78100 33.02300 41.40400
C  -7.87500 34.99600 40.28100
C  -6.54700 34.64400 40.58300
O  -5.77300 34.01600 39.85000
O  -6.05400 35.15800 41.79800
C  -4.68400 34.73000 42.20900
H  -7.08700 41.80800 39.26800
H  -12.85300 42.63600 41.89100
H  -13.22000 36.53100 43.33900
H  -5.82900 37.16200 39.39300
H  -6.31200 39.72800 37.95100
H  -4.26100 39.91900 38.91000
H  -4.71800 39.01200 40.43800
H  -5.04000 40.67600 40.19100
H  -7.09400 37.99000 36.89200
H  -8.01200 36.77200 37.64700
H  -6.66200 35.19300 36.91900
H  -5.24700 35.97500 37.57000
H  -8.43100 45.01500 39.34100
H  -7.11000 43.75300 39.80200
H  -7.53500 44.92300 40.91700
H  -12.88700 46.01800 41.59800
H  -12.53500 44.61500 42.68000
H  -12.86700 44.37000 40.87600
H  -14.65700 41.01500 41.90900
H  -14.51900 38.88400 44.09100
H  -15.09600 42.25700 43.72300
H  -13.44300 42.00500 44.37400
H  -14.94700 41.01200 44.71600
H  -14.63700 38.09100 41.17000
H  -15.88700 39.16400 41.62700
H  -17.11500 37.51700 42.57000
H  -15.79600 37.12900 43.65900
H  -15.97900 36.38400 41.98200
H  -11.07300 33.19700 43.46500
H  -12.41500 33.58200 42.38000
H  -12.37400 34.33200 43.95300
H  -8.12700 34.67800 39.26900
H  -4.02200 34.64300 41.34800
H  -4.65200 33.93500 42.95500
H  -4.18200 35.53400 42.74700

