158

Mg 47.37600 25.04900 29.06500
C  48.00400 27.47100 31.46000
C  45.96000 23.07200 31.35200
C  46.90800 22.69700 26.67900
C  49.01500 26.95200 26.69100
N  46.96500 25.35000 31.15700
C  47.38000 26.37700 31.99700
C  46.92000 26.14100 33.43200
C  46.36300 24.66300 33.39100
C  46.44500 24.29500 31.88900
C  47.13400 23.58100 34.16300
C  45.76300 27.08100 33.92900
C  45.81100 27.64900 35.33000
H  46.34200 26.76100 36.54700
N  46.48900 23.22300 28.98900
C  45.86200 22.59300 30.06400
C  45.28500 21.42100 29.68100
C  45.55800 21.33000 28.24100
C  46.32600 22.45300 27.90900
C  44.50500 20.46700 30.67300
C  45.18600 20.21200 27.29400
O  45.46500 19.99200 26.08900
C  44.13800 19.20900 27.82900
N  48.04200 24.79300 27.00900
C  47.72700 23.67300 26.24400
C  48.17600 23.86300 24.79200
C  48.53600 25.37100 24.67400
C  48.63300 25.69100 26.18700
C  49.33600 22.87600 24.53000
C  47.59700 26.34100 23.84800
C  48.25700 27.50500 23.00900
N  48.25900 26.84000 29.06700
C  48.93000 27.43300 28.00400
C  49.42700 28.74200 28.48600
C  49.06500 28.81800 29.84800
C  48.36800 27.61900 30.17100
C  50.09200 29.78000 27.56800
C  49.06400 29.61300 31.09000
O  49.52700 30.71300 31.29000
C  48.45000 28.71700 32.23200
C  49.51700 28.42300 33.17800
O  50.60000 27.94200 32.92800
O  49.12300 28.82300 34.43000
C  50.15100 29.07200 35.48300
H  45.59600 22.55900 32.24500
H  46.65900 22.04200 25.84100
H  49.53000 27.64600 26.02300
H  47.76000 26.11700 34.12600
H  45.32100 24.52000 33.67900
H  46.33600 23.16300 34.77700
H  47.80400 24.02200 34.90100
H  47.48800 22.76800 33.53000
H  44.77600 26.63300 33.81200
H  45.68400 27.92200 33.24000
H  44.93600 28.23000 35.62100
H  46.63400 28.36100 35.39200
H  44.40400 20.80100 31.70500
H  45.05500 19.52800 30.74000
H  43.54200 20.27600 30.19900
H  44.37400 18.61200 28.71000
H  43.87500 18.59000 26.97100
H  43.25800 19.78000 28.12600
H  47.47900 23.59300 23.99900
H  49.52300 25.34500 24.21300
H  49.09100 21.95800 25.06500
H  50.29500 23.18500 24.94700
H  49.41000 22.63300 23.47000
H  46.90800 26.78200 24.56900
H  47.00000 25.72300 23.17800
H  47.88800 27.53600 21.98400
H  49.34000 27.38900 22.99100
H  47.97500 28.46700 23.43700
H  51.17200 29.63300 27.52300
H  49.85000 30.73000 28.04300
H  49.65200 29.80200 26.57100
H  47.61100 29.27300 32.65000
H  51.17800 29.12900 35.12300
H  50.06700 28.48100 36.39500
H  50.07000 30.11900 35.77800
Mg -11.79000 37.28400 41.79200
C  -9.72100 34.70600 40.76900
C  -9.54400 39.55100 40.60800
C  -14.25200 39.56800 42.03200
C  -14.14200 34.84600 42.95600
N  -9.98200 37.10500 40.58900
C  -9.24100 35.96600 40.38100
C  -7.91800 36.19900 39.57100
C  -7.82400 37.76200 39.84800
C  -9.18200 38.23500 40.38600
C  -6.62000 38.40600 40.68500
C  -7.99700 35.75100 38.04400
C  -6.82500 34.92300 37.41300
H  -6.24600 35.53600 36.17800
N  -11.83400 39.34100 41.34500
C  -10.73900 40.06900 40.95700
C  -11.21800 41.51100 40.93300
C  -12.66100 41.49600 41.25700
C  -12.97000 40.09400 41.60200
C  -10.33400 42.66800 40.60500
C  -13.56300 42.72300 41.35400
O  -13.11800 43.82100 41.06800
C  -15.01900 42.75400 41.85000
N  -13.93800 37.14100 42.29600
C  -14.70200 38.33800 42.31800
C  -16.23300 37.98800 42.65800
C  -16.12800 36.52400 43.13000
C  -14.64700 36.11600 42.80400
C  -16.94400 38.84200 43.69200
C  -17.23800 35.56200 42.43600
C  -18.22400 34.96400 43.48400
N  -11.95800 35.20100 41.84200
C  -12.88500 34.33400 42.48600
C  -12.30900 33.03000 42.52800
C  -11.00100 33.10600 41.94500
C  -10.90400 34.39800 41.42100
C  -12.97700 31.74100 43.07600
C  -9.75000 32.38000 41.70100
O  -9.38800 31.28700 42.06300
C  -8.90400 33.38000 40.74400
C  -7.59900 33.60500 41.25300
O  -7.29300 34.00300 42.32900
O  -6.70900 33.29200 40.29000
C  -5.33100 33.39700 40.80100
H  -8.74700 40.21800 40.27300
H  -15.03800 40.32600 42.04300
H  -14.89800 34.22500 43.44100
H  -7.08800 35.74500 40.11100
H  -7.65300 38.24300 38.88500
H  -6.08100 39.08600 40.02600
H  -5.86100 37.64000 40.84400
H  -6.99100 38.97600 41.53700
H  -8.16900 36.62300 37.41300
H  -8.90000 35.16300 37.87800
H  -7.26800 33.93900 37.26100
H  -6.04700 34.77700 38.16200
H  -10.67300 43.34400 39.82000
H  -9.35800 42.21600 40.42900
H  -10.13900 43.22200 41.52300
H  -15.70700 42.43000 41.06900
H  -15.18200 43.79900 42.11200
H  -15.17500 42.17900 42.76200
H  -16.82900 38.14600 41.75900
H  -16.24700 36.49800 44.21300
H  -17.65200 39.49300 43.17800
H  -16.29200 39.53200 44.22700
H  -17.57500 38.24900 44.35400
H  -16.72700 34.82900 41.81200
H  -17.77000 36.11400 41.66200
H  -17.86500 33.96400 43.72600
H  -19.24200 34.96800 43.09400
H  -18.29000 35.66300 44.31800
H  -12.29200 31.23300 43.75500
H  -13.04900 31.07500 42.21700
H  -13.89700 31.95900 43.61900
H  -8.85400 33.13400 39.68300
H  -4.99800 34.43400 40.78200
H  -4.66900 32.84800 40.13100
H  -5.05300 33.09200 41.81000

