158

Mg 42.76900 3.91000 46.63500
C  40.89000 6.90400 46.61300
C  39.78400 2.12200 46.72200
C  44.53900 1.28200 45.83200
C  45.61200 5.97100 46.15000
N  40.67600 4.45000 46.77800
C  40.14200 5.75200 46.78700
C  38.62900 5.68500 47.04500
C  38.29100 4.16400 47.08100
C  39.65600 3.52700 46.90500
C  37.69100 3.69700 48.44300
C  37.59200 6.51100 46.20200
C  37.40900 6.09600 44.73800
H  37.86600 7.00300 43.67200
N  42.26900 1.93100 46.42600
C  40.99100 1.38800 46.42400
C  41.07600 -0.02700 46.09400
C  42.45100 -0.28700 45.89100
C  43.12200 1.00600 45.95200
C  39.88900 -0.99800 46.04100
C  42.98500 -1.65000 45.62400
O  42.24100 -2.61500 45.87900
C  44.48200 -1.97500 45.27400
N  44.82200 3.71500 46.08100
C  45.29400 2.43300 46.00200
C  46.82000 2.47700 45.84800
C  47.14900 4.00800 45.94400
C  45.79900 4.60900 46.10200
C  47.51000 1.60600 46.96600
C  48.09100 4.58700 44.90100
C  49.26900 5.48000 45.43500
N  43.24500 6.02300 46.49800
C  44.41700 6.68500 46.24100
C  44.27100 8.15000 46.24000
C  42.84500 8.23900 46.34400
C  42.26800 6.91600 46.50000
C  45.22600 9.29900 45.98600
C  41.71300 9.20900 46.27700
O  41.71800 10.43100 46.12400
C  40.45600 8.32200 46.61000
C  39.87500 8.72400 47.96200
O  40.44100 8.50700 48.99900
O  38.76200 9.50200 47.78600
C  38.17000 9.77200 49.10400
H  38.87400 1.52600 46.81800
H  45.26400 0.46900 45.75400
H  46.51200 6.50800 45.84500
H  38.59500 6.14000 48.03500
H  37.66200 3.70300 46.32000
H  37.17100 4.51100 48.94900
H  38.37100 3.15900 49.10300
H  36.84400 3.08400 48.13600
H  37.67500 7.59300 46.30600
H  36.63100 6.34200 46.68700
H  36.35900 5.88200 44.54100
H  37.98200 5.18000 44.59100
H  38.94300 -0.45900 45.99200
H  39.85400 -1.65000 46.91400
H  40.08000 -1.54300 45.11600
H  45.20800 -1.67800 46.03100
H  44.72000 -1.47800 44.33400
H  44.46300 -3.03900 45.03900
H  47.14200 1.92400 44.96600
H  47.63400 4.16400 46.90800
H  46.83800 1.29800 47.76600
H  48.27800 2.20900 47.45100
H  47.92700 0.70400 46.52000
H  47.61000 5.12700 44.08500
H  48.57000 3.67300 44.55200
H  50.20200 5.23400 44.93000
H  49.45600 5.32700 46.49800
H  49.04700 6.54100 45.31600
H  45.86700 9.55300 46.83000
H  44.73500 10.18700 45.58700
H  45.89600 9.10100 45.14900
H  39.66900 8.53700 45.88700
H  37.16800 10.15600 48.91700
H  38.74500 10.57900 49.55600
H  38.12500 8.90300 49.76100
Mg 9.79400 47.81000 26.50500
C  7.69900 48.18700 29.42800
C  12.31400 49.22200 28.34500
C  11.62500 47.35800 23.89600
C  6.86600 47.53900 24.69600
N  9.97200 48.51000 28.70800
C  9.02500 48.46700 29.68700
C  9.72000 48.91600 31.00400
C  10.97700 49.69000 30.53100
C  11.15900 49.04800 29.15400
C  10.73700 51.21100 30.34800
C  10.19800 47.71600 31.93300
C  10.05900 47.87600 33.41800
H  9.75200 46.66000 34.33500
N  11.77500 48.25700 26.12400
C  12.64400 48.73800 27.03700
C  14.00000 48.62600 26.46600
C  13.82800 47.99100 25.21700
C  12.38600 47.86200 25.01400
C  15.24600 48.96100 27.29800
C  14.82600 47.55000 24.14800
O  14.45000 47.09000 23.09400
C  16.25900 47.61300 24.36500
N  9.30000 47.70200 24.47700
C  10.28700 47.35300 23.58200
C  9.70000 46.81600 22.31300
C  8.15600 46.95000 22.58000
C  8.06600 47.46700 23.98900
C  10.18400 47.60500 21.08600
C  7.38700 45.61800 22.30500
C  6.19900 45.71000 21.41000
N  7.69400 47.75700 26.92900
C  6.61700 47.65300 26.10200
C  5.40600 47.61300 26.77500
C  5.80200 47.79700 28.08500
C  7.17100 47.95100 28.13500
C  4.03500 47.33800 26.37400
C  5.32100 47.79500 29.47300
O  4.22500 47.65500 29.94400
C  6.56900 48.03300 30.41700
C  6.69800 46.92900 31.34700
O  7.27500 45.85800 31.13500
O  6.01300 47.22200 32.50000
C  5.64100 46.04600 33.36800
H  13.10100 49.72300 28.91100
H  12.20900 46.98100 23.05300
H  5.96500 47.31300 24.12200
H  8.99500 49.54400 31.52300
H  11.85700 49.50500 31.14700
H  11.39300 51.79300 30.99500
H  9.73100 51.52200 30.62800
H  10.88100 51.51500 29.31100
H  11.26200 47.52300 31.80100
H  9.72000 46.75400 31.74500
H  9.33300 48.64100 33.69400
H  11.02200 48.24200 33.77400
H  15.07400 48.89000 28.37200
H  15.70700 49.93400 27.13300
H  15.91500 48.15600 26.99500
H  16.51700 46.88200 25.13100
H  16.48600 48.58900 24.79300
H  16.77500 47.45400 23.41800
H  9.98400 45.76500 22.25400
H  7.80300 47.72000 21.89400
H  10.61500 48.51000 21.51600
H  9.45000 47.81100 20.30700
H  10.95600 46.97600 20.64100
H  6.98000 45.23200 23.23900
H  8.00000 44.81700 21.89300
H  5.97700 46.74200 21.13800
H  5.27600 45.40800 21.90400
H  6.31500 45.22200 20.44200
H  3.48400 48.27300 26.47100
H  3.54200 46.62900 27.03900
H  3.93500 46.93500 25.36600
H  6.44400 48.95400 30.98600
H  6.10500 46.14500 34.34900
H  5.92500 45.05700 33.00900
H  4.57200 46.07200 33.58100

