158

Mg 35.24800 47.40900 25.19700
C  35.92300 45.80000 28.06600
C  34.01300 50.05500 27.08100
C  34.53500 49.17200 22.30200
C  36.28400 44.66500 23.36900
N  34.87900 47.78000 27.42900
C  35.33000 46.97900 28.38400
C  35.12400 47.68200 29.72100
C  34.17300 48.93000 29.32500
C  34.33100 48.93000 27.87200
C  32.67000 48.91500 29.79700
C  36.39300 48.12200 30.50900
C  36.34400 47.96900 31.97800
H  35.16400 47.94300 32.95600
N  34.42900 49.35700 24.78200
C  34.05600 50.30500 25.69700
C  33.72100 51.54600 25.03100
C  33.78000 51.27600 23.61500
C  34.27900 49.91300 23.49500
C  33.43400 52.92200 25.67400
C  33.53200 52.20200 22.44600
O  33.47200 51.74400 21.32500
C  33.32300 53.68300 22.68700
N  35.33900 46.89700 23.14200
C  34.98000 47.81800 22.11600
C  35.34700 47.17100 20.75200
C  36.12500 45.86700 21.10800
C  35.87800 45.74700 22.61700
C  34.14000 46.86400 19.78800
C  37.61500 45.86200 20.76100
C  38.63700 46.12300 21.88300
N  35.92100 45.55300 25.61400
C  36.32500 44.49900 24.73900
C  36.66200 43.41500 25.52600
C  36.62700 43.86900 26.87500
C  36.03800 45.11500 26.81200
C  37.23400 42.08900 24.95600
C  36.85300 43.54800 28.24300
O  37.31300 42.51500 28.70400
C  36.39100 44.75200 29.10400
C  35.32000 44.32200 30.07400
O  34.18100 43.98000 29.74700
O  35.68800 44.49700 31.40500
C  34.69000 44.12200 32.41000
H  33.67600 50.96200 27.58800
H  34.37500 49.56900 21.29700
H  36.62900 43.80300 22.79400
H  34.60300 47.04900 30.43900
H  34.59500 49.86700 29.68900
H  32.46200 49.70500 30.51800
H  32.18600 48.01400 30.17300
H  32.12200 49.26600 28.92200
H  36.66900 49.15500 30.29700
H  37.18000 47.49900 30.08400
H  36.99500 48.71800 32.42900
H  36.80600 46.98400 32.03600
H  34.02400 53.75100 25.28100
H  33.73100 52.93500 26.72300
H  32.36700 53.10700 25.55200
H  34.09500 54.07200 23.35100
H  32.39800 53.71000 23.26400
H  33.28600 54.23200 21.74700
H  36.17700 47.76600 20.37200
H  35.63700 45.07600 20.53800
H  33.41300 47.67300 19.72200
H  33.72100 45.94400 20.19700
H  34.43400 46.61000 18.76900
H  37.77300 46.44300 19.85300
H  37.69800 44.87600 20.30400
H  38.97600 45.19100 22.33500
H  38.19300 46.65300 22.72500
H  39.50000 46.71900 21.58600
H  36.42100 41.37100 24.84900
H  37.91100 41.76500 25.74600
H  37.70700 42.35500 24.01000
H  37.25400 45.04300 29.70400
H  34.71000 43.04000 32.53600
H  33.70300 44.50900 32.15800
H  34.96700 44.34400 33.44100
Mg -10.87900 38.56900 40.84500
C  -9.34500 35.59200 39.93600
C  -8.49500 40.36300 39.28100
C  -12.83500 41.35000 41.12300
C  -13.64000 36.60500 42.08500
N  -9.12700 38.03900 39.76000
C  -8.64700 36.79500 39.48000
C  -7.44000 36.74100 38.49700
C  -7.07000 38.33900 38.55100
C  -8.37200 38.98500 39.19300
C  -5.87500 38.73500 39.56400
C  -7.77700 36.19900 37.04200
C  -6.75700 35.29000 36.20500
H  -6.43100 35.57600 34.70500
N  -10.66600 40.59000 40.33700
C  -9.54300 41.11900 39.76300
C  -9.55300 42.56100 39.73800
C  -10.80700 42.94900 40.23400
C  -11.49000 41.63400 40.66200
C  -8.42800 43.37700 39.11900
C  -11.35800 44.33600 40.36000
O  -10.63500 45.24200 40.03800
C  -12.76700 44.70000 40.77000
N  -12.97900 38.87600 41.43200
C  -13.52100 40.14400 41.43900
C  -15.07300 40.03600 41.71400
C  -15.32100 38.48800 41.87500
C  -13.87000 37.95200 41.83100
C  -15.51600 41.06700 42.83600
C  -16.32900 37.91800 40.80700
C  -15.81100 37.42700 39.46200
N  -11.35100 36.51600 41.05900
C  -12.43700 35.90200 41.65500
C  -12.12400 34.45600 41.77100
C  -10.91800 34.26400 41.08200
C  -10.53700 35.57100 40.69200
C  -12.98700 33.47700 42.54000
C  -9.80900 33.36600 40.71600
O  -9.64400 32.18600 41.08200
C  -8.91300 34.09400 39.77700
C  -7.44600 33.81900 40.11800
O  -6.70000 34.57800 40.81300
O  -7.02500 32.78000 39.37500
C  -5.65500 32.35300 39.65800
H  -7.64800 40.85300 38.79600
H  -13.44600 42.25500 41.08900
H  -14.42800 35.98400 42.51700
H  -6.55800 36.23500 38.88900
H  -6.68300 38.73500 37.61300
H  -5.90000 37.96100 40.33100
H  -5.96900 39.66500 40.12500
H  -4.93700 38.60600 39.02500
H  -8.02600 37.02300 36.37300
H  -8.74400 35.69700 37.04900
H  -7.06800 34.25500 36.34900
H  -5.84400 35.30200 36.80000
H  -8.75900 44.24900 38.55500
H  -7.82000 42.88100 38.36300
H  -7.75700 43.73500 39.90100
H  -12.84900 44.37200 41.80600
H  -13.54200 44.15500 40.23100
H  -12.86000 45.78600 40.73900
H  -15.57500 40.40600 40.82000
H  -15.71000 38.34100 42.88200
H  -16.19100 41.87900 42.56500
H  -14.56600 41.51000 43.13200
H  -15.92700 40.61600 43.74000
H  -17.06400 38.67000 40.52100
H  -16.82200 37.02900 41.20300
H  -14.72700 37.38800 39.56800
H  -15.99200 38.23900 38.75700
H  -16.22900 36.49300 39.08700
H  -12.68500 32.44100 42.38600
H  -14.05300 33.64200 42.38700
H  -12.62900 33.52300 43.56900
H  -9.01300 33.87700 38.71400
H  -5.58700 31.26900 39.55900
H  -5.32600 32.61900 40.66300
H  -4.91500 32.68500 38.92900

