158

Mg 35.98500 49.08100 24.38900
C  35.97800 47.47800 27.56300
C  34.33700 51.70600 26.14400
C  35.38900 50.46700 21.40600
C  37.06500 46.07600 23.08300
N  35.19300 49.55200 26.61400
C  35.48800 48.79400 27.69500
C  35.10700 49.59600 28.96900
C  34.40500 50.88100 28.52400
C  34.63400 50.72100 27.04800
C  32.91000 51.03500 28.84900
C  36.36700 49.83200 29.92700
C  36.05800 49.86200 31.41500
H  34.52900 49.80100 31.87500
N  35.19300 50.88500 23.83600
C  34.56300 51.82100 24.73500
C  34.13200 52.95200 23.89900
C  34.37300 52.66500 22.55400
C  35.01000 51.27900 22.49600
C  33.44400 54.25100 24.42900
C  34.06900 53.49700 21.29200
O  34.27700 52.97300 20.13400
C  33.83200 54.92000 21.32800
N  36.30400 48.48200 22.56200
C  35.98000 49.19700 21.43700
C  36.42500 48.45200 20.18100
C  37.21400 47.21600 20.72100
C  36.85800 47.19200 22.22100
C  35.34200 48.18100 19.06000
C  38.69900 46.99500 20.31500
C  39.70900 47.93000 21.06100
N  36.54100 47.13000 25.11300
C  36.99100 45.99700 24.50400
C  37.19200 44.93800 25.37300
C  36.87500 45.48100 26.61200
C  36.38800 46.76600 26.39600
C  37.65600 43.50900 25.03500
C  36.85300 45.16400 28.00200
O  37.12000 44.09400 28.58300
C  36.40200 46.45500 28.70400
C  35.27600 46.16000 29.59900
O  34.09200 46.01900 29.24900
O  35.72700 46.02500 30.94300
C  34.92900 45.13400 31.72300
H  33.71800 52.53100 26.50400
H  35.11300 50.60300 20.35800
H  37.59800 45.18100 22.75700
H  34.45400 48.95900 29.56500
H  34.99800 51.71700 28.89400
H  32.28800 51.01300 27.95400
H  32.72900 51.98100 29.36000
H  32.68900 50.25700 29.57900
H  36.85300 50.74700 29.58900
H  37.05500 49.06000 29.58000
H  36.51900 50.76200 31.82200
H  36.44900 49.01200 31.97300
H  34.22700 55.00800 24.47900
H  33.12700 54.17700 25.47000
H  32.49700 54.54500 23.97700
H  32.97000 55.16400 21.95000
H  33.75600 55.21400 20.28100
H  34.75800 55.34800 21.71200
H  37.20100 49.06000 19.71400
H  36.68000 46.32800 20.38100
H  34.54800 48.92700 19.11000
H  34.81800 47.25500 19.29600
H  35.86300 48.21800 18.10400
H  38.84000 47.16800 19.24800
H  39.09300 45.98000 20.36800
H  39.03800 48.69100 21.45800
H  40.48700 48.39700 20.45800
H  40.07200 47.34600 21.90700
H  37.62100 43.22400 23.98300
H  36.94700 42.80900 25.47700
H  38.64600 43.34800 25.46200
H  37.30900 46.61400 29.28600
H  34.92300 44.13100 31.29600
H  33.89300 45.47100 31.75900
H  35.24200 45.14500 32.76700
Mg 9.59800 47.09300 26.82200
C  7.52800 47.05400 29.76500
C  12.20600 47.76400 28.96800
C  11.35000 47.76600 24.13000
C  6.58100 47.07100 24.87600
N  9.77900 47.43600 29.10300
C  8.86800 47.22800 30.11200
C  9.49800 47.54400 31.53600
C  10.98400 48.05000 31.25300
C  10.97800 47.76600 29.67400
C  11.25400 49.56200 31.63900
C  9.21200 46.34400 32.57900
C  10.16600 46.23500 33.76100
H  9.61900 45.77900 35.11100
N  11.51900 47.37800 26.61200
C  12.44000 47.69900 27.58000
C  13.72900 48.01500 26.94500
C  13.43300 48.15100 25.55500
C  12.05400 47.68800 25.38500
C  14.96800 48.33000 27.73900
C  14.34900 48.63600 24.37600
O  13.98500 48.74100 23.18400
C  15.80800 48.82900 24.68200
N  9.02100 47.50400 24.75300
C  9.99800 47.63900 23.81500
C  9.27100 47.81700 22.40900
C  7.76300 47.46800 22.64700
C  7.79400 47.28100 24.16100
C  9.63700 49.22800 21.82800
C  7.28100 46.23700 21.78400
C  8.01900 44.91000 22.12900
N  7.48800 47.08000 27.13300
C  6.42900 47.00900 26.27400
C  5.19500 47.09300 27.02500
C  5.63400 46.97700 28.34400
C  6.98000 47.01800 28.40500
C  3.84300 47.05000 26.49800
C  5.08600 46.76600 29.70100
O  3.93800 46.69400 30.15600
C  6.38400 46.85000 30.66700
C  6.38800 45.52000 31.36600
O  6.95500 44.46300 31.02600
O  5.66100 45.61800 32.46400
C  5.54700 44.39700 33.31400
H  13.02600 47.94100 29.66600
H  11.82400 48.08900 23.20100
H  5.65700 46.93300 24.31000
H  8.91200 48.41400 31.83200
H  11.70100 47.39300 31.74500
H  11.98500 49.69500 32.43700
H  10.39400 50.03500 32.11300
H  11.53300 50.06900 30.71600
H  9.30100 45.45400 31.95600
H  8.19900 46.42100 32.97400
H  10.72300 47.15600 33.93100
H  10.79400 45.41200 33.41900
H  15.38300 49.24000 27.30400
H  15.70500 47.53400 27.63200
H  14.82300 48.57300 28.79100
H  15.93000 49.82400 25.11100
H  16.40400 48.67100 23.78300
H  16.12000 48.05100 25.38000
H  9.77800 47.18100 21.68400
H  7.19300 48.37900 22.46100
H  10.12300 49.78000 22.63300
H  8.82700 49.76300 21.33200
H  10.39000 49.14800 21.04300
H  7.32300 46.52600 20.73400
H  6.24900 46.06800 22.09200
H  8.63000 44.46000 21.34700
H  7.34400 44.13000 22.48300
H  8.74800 45.03100 22.93000
H  3.71100 48.01100 26.00200
H  3.19100 46.93900 27.36500
H  3.77100 46.31300 25.69700
H  6.30300 47.59100 31.46200
H  5.50500 43.42200 32.82700
H  4.59700 44.39900 33.84800
H  6.42400 44.38300 33.96100

