158

Mg -1.83700 17.14900 26.39800
C  -1.86500 14.92000 29.00300
C  -2.94200 19.63400 28.51600
C  -1.90600 19.21500 23.68900
C  -1.23900 14.41000 24.14100
N  -2.52700 17.20700 28.41100
C  -2.27100 16.26700 29.33200
C  -2.62000 16.73500 30.76000
C  -3.34900 18.12100 30.49000
C  -2.89200 18.35900 29.10500
C  -4.85100 18.06000 30.64900
C  -1.39500 16.80300 31.76800
C  -1.60600 17.67700 33.04300
H  -1.27000 16.98500 34.40800
N  -2.29200 19.07400 26.19900
C  -2.79500 19.96200 27.16100
C  -2.86100 21.31400 26.63000
C  -2.43900 21.17700 25.25100
C  -2.20300 19.80500 24.96700
C  -3.28400 22.47100 27.47400
C  -2.31700 22.30800 24.17000
O  -2.18000 22.07900 22.94300
C  -2.33200 23.80300 24.54500
N  -1.64900 16.83500 24.30200
C  -1.75100 17.83600 23.39500
C  -1.31700 17.34600 22.03400
C  -0.81000 15.95500 22.24500
C  -1.28100 15.68900 23.68500
C  -2.41000 17.55600 20.90500
C  0.66300 15.59100 22.00000
C  1.65500 16.35000 22.73700
N  -1.62000 15.06400 26.45800
C  -1.38400 14.12800 25.46800
C  -1.25400 12.84100 26.15900
C  -1.37300 13.11600 27.56100
C  -1.66400 14.47100 27.67300
C  -1.03900 11.51300 25.54500
C  -1.25200 12.55400 28.82800
O  -1.03500 11.42300 29.26400
C  -1.79300 13.61400 29.79000
C  -1.01500 13.55400 31.13000
O  0.12900 13.98400 31.23500
O  -1.60600 12.71000 32.03300
C  -0.79700 12.33600 33.22200
H  -3.39100 20.43200 29.11200
H  -1.73600 19.81400 22.79200
H  -0.90900 13.66600 23.41300
H  -3.28000 15.96000 31.14900
H  -3.00600 18.88400 31.18800
H  -5.37400 18.94800 31.00400
H  -5.13800 17.41900 31.48200
H  -5.22500 17.58500 29.74200
H  -0.58800 17.23600 31.17800
H  -1.13400 15.81000 32.13600
H  -2.55200 18.21700 33.04000
H  -0.84700 18.45900 33.04000
H  -4.02200 22.29400 28.25700
H  -3.74000 23.29000 26.91800
H  -2.38300 22.82400 27.97600
H  -1.92700 23.88200 25.55400
H  -3.38800 24.07100 24.58800
H  -1.80400 24.38100 23.78700
H  -0.38000 17.82200 21.74400
H  -1.32800 15.22600 21.62100
H  -2.13100 18.43300 20.32000
H  -3.42700 17.72200 21.26000
H  -2.52200 16.75500 20.17400
H  0.80400 16.00500 21.00100
H  0.72000 14.50400 21.95700
H  1.13000 16.75400 23.60200
H  2.00100 17.17300 22.11100
H  2.46500 15.71600 23.09700
H  -0.91200 11.64600 24.47000
H  -2.02300 11.06100 25.66300
H  -0.37700 10.79700 26.03400
H  -2.77100 13.18200 30.00000
H  0.20700 11.97800 32.99500
H  -1.45300 11.64700 33.75500
H  -0.56500 13.25500 33.75900
Mg 29.73400 58.68000 41.63700
C  26.68400 57.55300 40.53700
C  31.29200 56.06100 40.26300
C  32.68600 60.37800 42.08200
C  28.06700 61.90400 42.26300
N  29.03100 57.04400 40.40900
C  27.76200 56.74000 40.03600
C  27.79400 55.38800 39.22500
C  29.26900 54.79000 39.39300
C  29.90200 56.02600 40.12200
C  29.34300 53.46700 40.13500
C  27.32600 55.68100 37.81000
C  26.33500 54.74200 37.19300
H  26.19700 54.51500 35.74100
N  31.66300 58.20600 41.41700
C  32.15100 56.99600 40.90500
C  33.56400 56.94800 41.03100
C  33.99100 58.18600 41.50300
C  32.71900 59.00600 41.71600
C  34.40900 55.78300 40.58700
C  35.41100 58.59400 41.72600
O  36.31400 57.84900 41.40200
C  35.85400 59.98200 42.11200
N  30.30800 60.90000 42.01100
C  31.62600 61.29000 42.19100
C  31.76000 62.67900 42.79200
C  30.23800 63.16700 42.84800
C  29.46600 61.97900 42.37200
C  32.65500 62.83600 44.05300
C  29.99500 64.46300 42.25200
C  28.83100 65.26300 42.97700
N  27.74600 59.54600 41.51500
C  27.26100 60.75700 41.85800
C  25.80900 60.75100 41.73900
C  25.56000 59.48900 41.25000
C  26.78100 58.82300 41.13100
C  24.95700 61.88800 42.11800
C  24.49400 58.54600 40.80600
O  23.26000 58.60300 40.85100
C  25.21600 57.27900 40.40400
C  24.82600 56.19000 41.30800
O  25.22900 55.95500 42.41600
O  23.69200 55.68000 40.74900
C  22.85100 54.99700 41.68400
H  31.77400 55.15800 39.88200
H  33.65200 60.87400 42.20400
H  27.54200 62.80300 42.59300
H  27.03300 54.81300 39.75300
H  29.81100 54.64100 38.46000
H  29.74700 53.59500 41.14000
H  29.95000 52.76400 39.56400
H  28.30100 53.15300 40.19500
H  28.16400 55.72300 37.11300
H  26.98500 56.70700 37.67100
H  25.35300 55.09800 37.50500
H  26.47600 53.79000 37.70400
H  34.73200 55.95600 39.56100
H  33.87600 54.83500 40.52000
H  35.18400 55.52500 41.30900
H  35.46700 60.62700 41.32300
H  36.94200 60.00000 42.16900
H  35.32900 60.23000 43.03500
H  32.21800 63.30800 42.02900
H  30.05700 63.31200 43.91300
H  32.97300 63.87900 44.05500
H  33.48300 62.13200 44.13800
H  32.04100 62.84100 44.95400
H  29.74200 64.40200 41.19300
H  30.89400 65.05600 42.41900
H  29.11200 66.26000 43.31500
H  28.35400 64.66200 43.75200
H  28.10200 65.64700 42.26400
H  25.27900 62.57800 41.33800
H  25.24600 62.29800 43.08500
H  23.91700 61.57300 42.03000
H  25.03900 57.04700 39.35400
H  22.28100 55.79600 42.15700
H  23.32800 54.30600 42.37900
H  22.10100 54.44000 41.12200

