158

Mg 47.38700 16.57900 28.35600
C  45.48500 16.58900 31.35400
C  49.70000 18.57700 29.89000
C  48.92600 17.12900 25.42500
C  44.53600 15.31100 26.73500
N  47.50100 17.54500 30.34900
C  46.72300 17.23000 31.42800
C  47.32000 17.73800 32.80600
C  48.52800 18.59200 32.25200
C  48.60500 18.23600 30.74200
C  48.50300 20.13500 32.48200
C  47.84100 16.58500 33.81600
C  47.86100 16.94700 35.27600
H  47.40300 18.35300 35.62300
N  49.16100 17.56400 27.76400
C  50.00500 18.26600 28.57400
C  51.10100 18.78200 27.78200
C  50.99100 18.31100 26.50200
C  49.68500 17.59700 26.49100
C  52.24300 19.53400 28.52600
C  51.83100 18.50000 25.23000
O  51.49600 18.02500 24.14700
C  53.06800 19.24500 25.27000
N  46.87600 16.08100 26.35600
C  47.65600 16.45400 25.32100
C  46.99200 16.18400 23.95700
C  45.67400 15.37400 24.42700
C  45.67600 15.50500 25.91000
C  46.66100 17.50600 23.14300
C  45.52400 13.94600 23.77400
C  44.63200 13.87100 22.45800
N  45.42400 16.00900 28.90100
C  44.38600 15.51200 28.12700
C  43.25600 15.18000 29.02200
C  43.67100 15.56900 30.26700
C  44.98000 16.03400 30.14900
C  42.00500 14.67300 28.67800
C  43.22100 15.80000 31.62800
O  42.07700 15.65600 32.08900
C  44.37200 16.40200 32.43800
C  43.85300 17.69000 33.01500
O  44.12700 18.89400 32.66400
O  43.05200 17.33300 34.10300
C  42.53400 18.48000 34.92200
H  50.46400 19.18900 30.37400
H  49.36600 17.20200 24.42800
H  43.68500 14.88500 26.19900
H  46.62200 18.47500 33.20300
H  49.44000 18.27000 32.75400
H  47.52700 20.47800 32.82800
H  48.77600 20.62300 31.54700
H  49.35900 20.36700 33.11600
H  48.84100 16.31700 33.47700
H  47.10300 15.78300 33.78200
H  48.80500 16.69000 35.75500
H  47.17000 16.21800 35.70000
H  52.75400 18.72500 29.04600
H  51.83700 20.23500 29.25600
H  52.92300 20.08400 27.87500
H  53.40700 19.37900 24.24300
H  53.79700 18.67000 25.84200
H  52.87600 20.18200 25.79300
H  47.57300 15.50000 23.33800
H  44.78200 15.88100 24.06000
H  45.60900 17.78200 23.08100
H  46.98300 17.27500 22.12700
H  47.22100 18.40200 23.41000
H  45.04900 13.18500 24.39300
H  46.56200 13.63200 23.66700
H  44.82000 12.91200 21.97500
H  45.01700 14.53500 21.68400
H  43.55300 13.91500 22.61000
H  41.97700 14.68300 27.58800
H  41.12400 15.05300 29.19400
H  42.17400 13.62300 28.91700
H  44.63400 15.70500 33.23400
H  43.07500 18.56500 35.86500
H  41.48100 18.33600 35.16500
H  42.52600 19.42100 34.37200
Mg 48.92400 36.32100 28.16300
C  46.83900 34.52300 30.32700
C  48.87200 39.06700 30.25700
C  50.83100 38.04100 25.98000
C  48.54200 33.75000 25.89300
N  48.00400 36.69600 30.05800
C  47.32700 35.75100 30.83400
C  47.21900 36.29100 32.26100
C  47.56500 37.82500 32.17200
C  48.23300 37.89800 30.75000
C  46.28200 38.74900 32.21600
C  48.33100 35.60100 33.14200
C  47.84100 35.34300 34.61100
H  46.75600 36.24500 35.17000
N  49.63900 38.33300 28.04200
C  49.54900 39.29500 29.04400
C  50.12600 40.51100 28.57900
C  50.79100 40.24100 27.38400
C  50.44800 38.78800 27.09600
C  50.13500 41.78400 29.38500
C  51.80000 41.08800 26.62700
O  52.52300 40.58600 25.77600
C  51.95800 42.55500 26.92800
N  49.66300 35.88900 26.28000
C  50.41500 36.75600 25.57600
C  50.96000 36.11900 24.32900
C  50.32100 34.65600 24.36300
C  49.39000 34.81400 25.54700
C  50.64700 36.89900 22.96200
C  51.31200 33.42200 24.46600
C  51.17500 32.23100 23.41500
N  47.92000 34.47300 28.08200
C  47.85600 33.52500 27.11400
C  47.10500 32.36700 27.66000
C  46.67800 32.73100 28.92800
C  47.16800 34.03400 29.07700
C  46.87900 31.06500 27.00600
C  45.85200 32.32600 30.05300
O  45.28300 31.28300 30.28600
C  45.88100 33.60100 30.96100
C  46.07800 33.24500 32.41500
O  46.98000 32.51300 32.74900
O  44.90500 33.58500 33.16500
C  44.76300 32.78100 34.42300
H  49.00200 39.92200 30.92400
H  51.53700 38.45500 25.25800
H  48.47900 32.93100 25.17400
H  46.22500 35.94500 32.54300
H  48.20200 38.16200 32.99000
H  46.17900 39.43500 33.05700
H  45.34800 38.18800 32.22500
H  46.21800 39.28800 31.27000
H  49.19000 36.27100 33.19900
H  48.76200 34.72000 32.66700
H  48.68200 35.36900 35.30300
H  47.61400 34.27800 34.63100
H  50.09000 42.77800 28.94000
H  51.08900 41.79700 29.91300
H  49.40000 41.77800 30.18900
H  52.33100 42.75600 27.93200
H  51.00800 43.08500 26.85300
H  52.63900 42.82200 26.12000
H  52.01700 35.92800 24.51000
H  49.71900 34.47600 23.47300
H  50.03400 37.77500 23.17500
H  50.12500 36.26600 22.24500
H  51.47500 37.37200 22.43400
H  51.26600 33.05100 25.49000
H  52.34000 33.77600 24.37700
H  50.41400 32.40100 22.65200
H  50.92800 31.29300 23.91400
H  52.14900 32.09900 22.94400
H  47.15100 30.23400 27.65700
H  47.41000 30.81600 26.08700
H  45.81200 30.88700 26.86500
H  44.92300 34.10100 30.82200
H  45.56800 32.11400 34.73000
H  43.79100 32.28900 34.45000
H  44.75100 33.46300 35.27300

