158

Mg 53.93900 24.41900 44.22200
C  51.14700 26.70400 43.86800
C  51.61500 21.92400 43.31500
C  56.39400 22.39000 43.85300
C  56.06300 27.15300 44.50500
N  51.66000 24.39800 43.36300
C  50.69100 25.37900 43.49500
C  49.30400 24.82700 43.13100
C  49.50000 23.28600 43.41600
C  51.03500 23.14500 43.39800
C  48.93800 22.76400 44.79900
C  49.01900 25.18000 41.68300
C  47.56100 25.14100 41.22900
H  47.40200 24.65000 39.77600
N  54.04600 22.48400 43.68200
C  53.03500 21.62000 43.30900
C  53.53100 20.26300 43.20500
C  54.93000 20.30000 43.46100
C  55.20900 21.73200 43.67100
C  52.58700 19.01700 42.91900
C  55.78600 19.08800 43.41300
O  55.30200 17.96700 43.17600
C  57.27900 19.13500 43.81600
N  55.98800 24.78700 43.95900
C  56.80400 23.72700 44.06500
C  58.24300 24.12400 44.31400
C  58.12600 25.62100 44.41400
C  56.62200 25.88800 44.28000
C  58.94100 23.38400 45.46000
C  58.95400 26.39400 43.32200
C  59.84600 27.52600 43.88400
N  53.71100 26.48900 44.34200
C  54.66200 27.47200 44.51100
C  53.94600 28.72200 44.71300
C  52.61100 28.48000 44.53200
C  52.50600 27.09200 44.21800
C  54.52300 30.01300 45.07400
C  51.36600 29.10200 44.57300
O  51.11600 30.25200 44.84100
C  50.34600 28.04700 44.09500
C  49.92900 28.47700 42.72300
O  50.65200 28.75100 41.75300
O  48.58500 28.72000 42.68400
C  47.86900 29.20200 41.43700
H  50.83400 21.20200 43.06800
H  57.28200 21.75500 43.89600
H  56.80900 27.93200 44.67700
H  48.53100 25.37100 43.67300
H  49.06300 22.71100 42.60000
H  49.00900 23.47000 45.62600
H  49.37400 21.80600 45.08000
H  47.86800 22.61100 44.65800
H  49.63700 24.52800 41.06500
H  49.33700 26.19900 41.46100
H  47.05400 26.08600 41.42400
H  47.14500 24.34300 41.84300
H  53.01200 18.48800 42.06500
H  51.58000 19.28700 42.60100
H  52.57500 18.39300 43.81300
H  57.62900 18.11800 43.99800
H  57.23600 19.70500 44.74300
H  57.83700 19.62600 43.01900
H  58.80800 23.68200 43.49400
H  58.25000 26.01000 45.42400
H  59.15800 24.11400 46.24000
H  59.79600 22.77400 45.16700
H  58.31400 22.68300 46.01200
H  58.32000 26.86100 42.56800
H  59.55800 25.66400 42.78400
H  59.80500 28.42800 43.27300
H  60.88100 27.19400 43.80000
H  59.50700 27.79600 44.88400
H  54.20700 30.39200 46.04600
H  54.07700 30.72200 44.37600
H  55.58600 29.89000 44.86700
H  49.46500 27.96000 44.73000
H  46.84500 29.49700 41.66500
H  47.89200 28.40300 40.69700
H  48.45800 30.00600 40.99500
Mg -4.76200 25.14400 26.15100
C  -3.11400 26.49500 28.96700
C  -6.98000 23.67500 28.27600
C  -6.04600 23.52300 23.49800
C  -2.35200 26.58500 24.11200
N  -4.91100 24.91900 28.39400
C  -4.20700 25.65200 29.34000
C  -4.70300 25.37300 30.73500
C  -5.65100 24.13600 30.52300
C  -5.88400 24.23400 28.98100
C  -4.96600 22.80500 30.95400
C  -5.48200 26.59300 31.25100
C  -5.94400 26.60900 32.74600
H  -5.70400 25.42200 33.56600
N  -6.34200 23.90000 25.90100
C  -7.24500 23.50900 26.87000
C  -8.22500 22.59500 26.35400
C  -7.81600 22.45600 24.99600
C  -6.63600 23.30500 24.75000
C  -9.43200 22.04600 27.10400
C  -8.55400 21.62600 23.87400
O  -8.25000 21.62000 22.68300
C  -9.65500 20.50900 24.25900
N  -4.21100 25.01900 24.07900
C  -4.94900 24.28200 23.19500
C  -4.31700 24.44700 21.74600
C  -3.32700 25.63300 21.92700
C  -3.24000 25.73800 23.48000
C  -3.68400 23.18300 21.17400
C  -3.65100 27.00800 21.24500
C  -2.66400 27.54200 20.27300
N  -3.07000 26.36000 26.42500
C  -2.23900 26.91600 25.47500
C  -1.23800 27.70100 26.12100
C  -1.52800 27.58000 27.52000
C  -2.66400 26.79700 27.64800
C  -0.13900 28.37800 25.39600
C  -1.10400 27.91500 28.87500
O  -0.11400 28.53400 29.27500
C  -2.23600 27.27400 29.80400
C  -1.49100 26.40200 30.68900
O  -0.82300 25.41600 30.45000
O  -1.72900 26.81800 31.97700
C  -1.28800 25.93900 33.00200
H  -7.61300 23.37800 29.11500
H  -6.51200 23.15800 22.58000
H  -1.69900 27.23000 23.52100
H  -3.91000 25.10200 31.43200
H  -6.59600 24.38200 31.00800
H  -5.43700 22.39500 31.84700
H  -3.92200 22.93400 31.23800
H  -5.07100 22.03200 30.19200
H  -6.42000 26.75200 30.71900
H  -4.86900 27.46300 31.01600
H  -6.83000 27.21000 32.94800
H  -5.27300 27.38100 33.12200
H  -10.30700 22.09200 26.45600
H  -9.63800 22.58500 28.02900
H  -9.33200 21.02000 27.45900
H  -9.46800 20.13700 25.26700
H  -9.41000 19.66100 23.61900
H  -10.64600 20.95200 24.16900
H  -5.16900 24.58600 21.08100
H  -2.32500 25.25200 21.72900
H  -4.12900 22.98800 20.19800
H  -3.98300 22.30900 21.75300
H  -2.61800 23.17200 20.94600
H  -3.80400 27.64600 22.11500
H  -4.60300 26.98200 20.71600
H  -1.74500 26.97200 20.41100
H  -2.49200 28.56500 20.60600
H  -3.06300 27.53700 19.25800
H  0.61500 28.68100 26.12300
H  -0.49900 29.30900 24.95600
H  0.19900 27.79100 24.54300
H  -2.71700 28.07700 30.36400
H  -0.40900 26.33100 33.51500
H  -1.10800 24.92300 32.65000
H  -2.13500 25.83900 33.68000

