158

Mg 1.99900 -1.61600 43.91200
C  5.32500 -1.39100 42.97900
C  1.25300 0.98500 41.71600
C  -1.29600 -2.52500 43.75900
C  2.79600 -4.61400 45.58500
N  3.18400 -0.30600 42.51900
C  4.57500 -0.33000 42.41800
C  5.04200 0.79300 41.53700
C  3.69900 1.59800 41.29700
C  2.62400 0.69100 41.87500
C  3.62300 2.94000 41.99400
C  5.75300 0.40300 40.15800
C  6.88900 1.36700 39.68300
H  6.69000 2.17800 38.35900
N  0.18800 -0.78000 43.01100
C  0.08100 0.25800 42.14700
C  -1.23200 0.65500 42.01100
C  -2.05400 -0.26900 42.68300
C  -1.08800 -1.32100 43.17700
C  -1.64600 1.98000 41.33900
C  -3.59600 -0.18000 42.80800
O  -4.21500 0.68400 42.20700
C  -4.28700 -1.17900 43.86500
N  0.95800 -3.23000 44.59800
C  -0.35900 -3.44900 44.27200
C  -0.79700 -4.90100 44.61200
C  0.40000 -5.53600 45.31200
C  1.45800 -4.40400 45.17300
C  -2.12600 -5.10600 45.28000
C  0.87600 -6.91300 44.77900
C  -0.05100 -8.07100 45.07400
N  3.75100 -2.65600 44.48500
C  3.96000 -3.86400 45.17600
C  5.37200 -4.13100 45.24900
C  5.93500 -3.17200 44.41100
C  4.94500 -2.35200 43.89000
C  6.02600 -5.30200 45.83500
C  7.18500 -2.73400 43.86000
O  8.37000 -2.99100 44.08700
C  6.77700 -1.64000 42.84900
C  7.56000 -0.49200 43.22400
O  7.57200 0.14900 44.25600
O  8.38200 -0.16200 42.20100
C  9.19100 1.03700 42.38500
H  1.06700 1.90400 41.15600
H  -2.33100 -2.86400 43.68200
H  3.08900 -5.58700 45.98600
H  5.73900 1.40400 42.11100
H  3.46400 1.69500 40.23700
H  4.37200 2.84900 42.78000
H  2.63200 3.01700 42.44200
H  3.93600 3.68300 41.26000
H  4.94700 0.36600 39.42500
H  6.29000 -0.54400 40.19600
H  7.85100 0.89200 39.48900
H  7.20800 2.06300 40.45900
H  -2.67100 2.24600 41.59500
H  -1.57100 1.98100 40.25200
H  -1.11300 2.77400 41.86300
H  -5.17800 -0.69600 44.26500
H  -3.59200 -1.32800 44.69200
H  -4.51800 -2.16600 43.46500
H  -0.86800 -5.43200 43.66300
H  0.26600 -5.62100 46.39000
H  -2.84900 -5.47400 44.55300
H  -2.56100 -4.17200 45.63700
H  -2.03100 -5.81100 46.10600
H  1.85700 -7.17400 45.17600
H  1.06700 -6.79000 43.71300
H  -0.96700 -7.87100 45.63000
H  0.45400 -8.77000 45.74000
H  -0.23100 -8.58100 44.12700
H  6.25100 -6.15200 45.19100
H  5.55800 -5.70000 46.73600
H  6.90400 -4.86800 46.31400
H  6.98400 -2.00600 41.84400
H  9.79900 0.85100 43.27000
H  8.55800 1.91300 42.24800
H  9.95900 1.06900 41.61200
Mg 17.06200 -2.72000 29.01500
C  15.93200 -0.50200 31.54700
C  18.75600 -4.45500 31.29300
C  18.33400 -4.50300 26.44300
C  15.53600 -0.60400 26.66100
N  17.39900 -2.45100 31.21100
C  16.77200 -1.50400 32.04600
C  17.14300 -1.76800 33.55100
C  18.21000 -2.99300 33.45100
C  18.08100 -3.38800 31.93600
C  19.72300 -2.72100 33.82000
C  15.92400 -2.07800 34.43400
C  16.06700 -1.67000 35.90400
H  17.47200 -1.21800 36.45200
N  18.25800 -4.33100 28.93000
C  18.82400 -4.97600 29.96400
C  19.40100 -6.17700 29.43600
C  19.22600 -6.23100 28.04700
C  18.58200 -4.94400 27.75300
C  19.94400 -7.26800 30.33200
C  19.48500 -7.37400 27.12600
O  19.27700 -7.30900 25.92700
C  19.99300 -8.65400 27.63700
N  16.99700 -2.53400 26.83700
C  17.53500 -3.47100 26.01000
C  17.27000 -3.21800 24.55800
C  16.53200 -1.79100 24.60800
C  16.20800 -1.73000 26.12300
C  18.55600 -3.25600 23.69000
C  15.27600 -1.54700 23.66600
C  15.72500 -1.32300 22.15800
N  15.90200 -0.96500 29.01500
C  15.26200 -0.23200 28.00500
C  14.64000 0.96500 28.59800
C  14.87600 0.76100 29.91900
C  15.68400 -0.31300 30.18000
C  13.93500 2.10300 27.82300
C  14.58100 1.49500 31.14700
O  14.04800 2.57500 31.33700
C  15.13500 0.52500 32.22500
C  16.04500 1.45600 33.05400
O  17.20600 1.78700 32.80400
O  15.42200 1.80900 34.24400
C  16.13700 2.62800 35.15100
H  19.17000 -5.05900 32.10300
H  18.83000 -5.09200 25.67000
H  15.05600 0.08200 25.95900
H  17.68500 -0.89600 33.91700
H  17.82800 -3.84600 34.01200
H  19.86400 -1.74700 34.28900
H  20.37600 -2.81200 32.95200
H  19.95900 -3.44300 34.60200
H  15.72800 -3.15000 34.44500
H  15.03000 -1.52800 34.14100
H  15.80000 -2.56100 36.47300
H  15.30500 -0.91500 36.09400
H  19.13200 -7.98000 30.47600
H  20.20600 -6.90600 31.32700
H  20.90800 -7.64200 29.98700
H  19.35000 -9.11800 28.38600
H  20.99400 -8.49000 28.03600
H  20.03500 -9.29900 26.76000
H  16.51900 -3.96100 24.29200
H  17.22600 -0.98500 24.37000
H  19.40300 -2.80400 24.20600
H  18.27000 -2.52300 22.93600
H  18.76700 -4.23900 23.26900
H  14.66200 -0.69600 23.95800
H  14.65200 -2.44000 23.64200
H  15.14600 -0.47400 21.79400
H  15.50500 -2.20700 21.55900
H  16.78500 -1.07500 22.09900
H  12.87600 1.93800 28.01900
H  14.13400 1.97000 26.76000
H  14.27800 3.06700 28.19900
H  14.41800 0.20400 32.98100
H  17.20700 2.61300 34.94500
H  15.98400 2.30600 36.18100
H  15.86000 3.67500 35.02500

