158

Mg 26.50400 50.93600 26.76100
C  24.21400 51.85100 29.42300
C  28.70400 50.10500 29.06500
C  28.74800 50.38600 24.13200
C  24.37500 52.34800 24.63800
N  26.53800 51.21000 29.04600
C  25.48300 51.39300 29.90400
C  25.90900 51.33700 31.36700
C  27.48300 51.03400 31.25900
C  27.58800 50.72200 29.72400
C  28.49000 52.13200 31.69100
C  25.11300 50.13200 32.11700
C  24.62400 50.31700 33.61900
H  25.58700 50.53800 34.83400
N  28.47500 50.27300 26.62700
C  29.25900 49.95500 27.71900
C  30.57300 49.50100 27.25500
C  30.52600 49.64500 25.88300
C  29.22400 50.14200 25.46000
C  31.60800 49.02700 28.27500
C  31.66300 49.26100 24.92800
O  31.55400 49.46900 23.73700
C  32.97500 48.67700 25.51400
N  26.60500 51.25100 24.69300
C  27.49700 50.91500 23.83400
C  27.06800 51.20500 22.38400
C  25.62600 51.63400 22.53400
C  25.57600 51.81400 24.05900
C  28.03000 52.23000 21.57500
C  24.47900 50.68600 22.18100
C  23.29800 51.31400 21.50200
N  24.74400 51.90000 26.92200
C  24.00500 52.48700 25.93600
C  22.73500 53.00300 26.38200
C  22.84200 52.80300 27.78100
C  24.03500 52.09300 28.08500
C  21.61800 53.41700 25.52600
C  22.12100 52.91000 29.01800
O  20.99000 53.26900 29.23300
C  22.93200 52.21900 30.03800
C  23.13900 53.16600 31.13000
O  23.74900 54.20700 30.99000
O  22.37100 52.89100 32.27400
C  22.44600 53.84300 33.40700
H  29.37200 49.83200 29.88500
H  29.44600 50.20100 23.31300
H  23.64900 52.73100 23.91800
H  25.65400 52.25100 31.90300
H  27.72900 50.09800 31.76100
H  28.00200 52.66500 32.50700
H  28.78400 52.79900 30.88100
H  29.28600 51.46200 32.01600
H  25.71400 49.22300 32.15300
H  24.27400 49.86200 31.47600
H  24.12800 49.38100 33.87700
H  23.86700 51.08900 33.75700
H  32.62200 49.39000 28.10600
H  31.75100 47.94800 28.22900
H  31.26500 49.26800 29.28100
H  33.71000 48.48600 24.73200
H  32.76800 47.66800 25.86900
H  33.34400 49.39900 26.24200
H  27.05500 50.20100 21.96100
H  25.45800 52.48700 21.87600
H  28.93900 52.58500 22.06100
H  27.48700 53.11400 21.24100
H  28.39700 51.69300 20.70000
H  24.11300 50.12400 23.04000
H  24.85100 49.92000 21.50000
H  23.07300 50.67800 20.64600
H  23.41800 52.37600 21.29000
H  22.38700 51.26500 22.09700
H  20.82700 53.83900 26.14600
H  21.28900 52.57500 24.91600
H  21.97300 54.24300 24.91000
H  22.39500 51.34600 30.40900
H  23.42200 53.73500 33.88000
H  21.63000 53.69300 34.11500
H  22.30600 54.87700 33.09300
Mg -11.01600 15.73400 43.56300
C  -7.58700 16.78400 43.51500
C  -11.77100 19.04500 42.85100
C  -14.07400 14.74800 43.14000
C  -9.85800 12.49300 43.41500
N  -9.84200 17.72700 43.20100
C  -8.44800 17.87000 43.20700
C  -8.08500 19.32200 42.78900
C  -9.42900 20.12200 42.89900
C  -10.40000 18.92700 43.03300
C  -9.59300 21.02400 44.16800
C  -7.48500 19.41500 41.41500
C  -6.18000 20.21200 41.27100
H  -4.97900 19.53500 40.54900
N  -12.74700 16.68200 43.04700
C  -12.85100 18.06200 42.89000
C  -14.24700 18.34100 42.60200
C  -14.95100 17.13000 42.62600
C  -13.93900 16.13400 42.90500
C  -14.75600 19.76700 42.21300
C  -16.49200 16.97000 42.32600
O  -17.09200 17.94300 41.92600
C  -17.21700 15.69300 42.49700
N  -11.82400 13.79900 43.27400
C  -13.17400 13.71100 43.27000
C  -13.63400 12.24100 43.40300
C  -12.25400 11.45300 43.42300
C  -11.22500 12.64000 43.41200
C  -14.49000 11.99300 44.62600
C  -12.03900 10.29600 42.28200
C  -11.93000 8.82800 42.64500
N  -9.15700 14.80600 43.54600
C  -8.90000 13.47200 43.55000
C  -7.49600 13.26400 43.69600
C  -6.94900 14.53700 43.78000
C  -7.98300 15.42100 43.61100
C  -6.81300 11.98200 43.65300
C  -5.73600 15.33400 44.03300
O  -4.59500 15.04400 44.26700
C  -6.21700 16.80700 44.02700
C  -6.15100 17.27700 45.46400
O  -6.32900 16.55500 46.44000
O  -5.69900 18.56500 45.44000
C  -5.20800 18.99400 46.72000
H  -12.09900 20.07900 42.73000
H  -15.06500 14.29200 43.18300
H  -9.42200 11.49200 43.39600
H  -7.34400 19.63000 43.52600
H  -9.70500 20.69600 42.01400
H  -8.61500 21.21300 44.60800
H  -10.35700 20.81400 44.91700
H  -9.99100 21.96400 43.78400
H  -8.19600 19.87000 40.72400
H  -7.35400 18.34600 41.24900
H  -5.88600 20.57400 42.25600
H  -6.50600 21.04100 40.64300
H  -15.37000 19.66500 41.31900
H  -14.00200 20.50300 41.93300
H  -15.25700 20.20300 43.07800
H  -18.29300 15.75500 42.33100
H  -17.07800 15.23300 43.47500
H  -16.94800 14.93900 41.75800
H  -14.25400 12.04100 42.52900
H  -12.04100 10.93500 44.35900
H  -15.48200 11.90200 44.18300
H  -14.44600 12.76400 45.39600
H  -14.26900 11.02800 45.08200
H  -11.32500 10.68000 41.55300
H  -12.98200 10.32200 41.73600
H  -11.30400 8.35200 41.89000
H  -12.89500 8.32500 42.58200
H  -11.60600 8.67000 43.67300
H  -5.73000 12.08400 43.58200
H  -7.16200 11.55800 42.71100
H  -7.03800 11.26900 44.44500
H  -5.55200 17.37700 43.38000
H  -4.64900 18.17900 47.17900
H  -6.00700 19.38200 47.35300
H  -4.41500 19.73100 46.59600

