158

Mg -1.70500 34.09900 27.89300
C  -3.52300 32.18900 30.19800
C  -0.16100 35.52800 30.52100
C  -0.18400 36.07100 25.68800
C  -3.66600 32.58400 25.35100
N  -1.90300 33.82000 30.07200
C  -2.60800 32.98800 30.81400
C  -2.31600 33.15700 32.34300
C  -1.43000 34.45600 32.41100
C  -1.13300 34.61200 30.89200
C  -1.97000 35.77000 33.12400
C  -1.65900 31.89900 33.01600
C  -2.30900 31.44000 34.38300
H  -1.48800 31.43600 35.66200
N  -0.21300 35.43500 28.07100
C  0.20600 35.96200 29.24200
C  1.13700 37.08800 28.98300
C  1.26800 37.13400 27.50700
C  0.30500 36.18100 26.99200
C  1.80000 37.88500 30.06500
C  2.25600 37.97000 26.65600
O  2.25000 37.96300 25.41400
C  3.30100 38.80300 27.28300
N  -2.11300 34.42900 25.78700
C  -1.22000 35.20000 25.10900
C  -1.54500 35.14100 23.59400
C  -2.34200 33.86100 23.45500
C  -2.80400 33.62600 24.92900
C  -2.21200 36.37200 22.94300
C  -1.64800 32.64000 22.87700
C  -1.57300 32.61500 21.39600
N  -3.30300 32.71200 27.77900
C  -3.89800 32.11300 26.69200
C  -4.75400 31.13000 27.04700
C  -4.72500 31.00700 28.49300
C  -3.79000 32.06300 28.85000
C  -5.48700 30.24400 26.07500
C  -5.26500 30.40500 29.66600
O  -6.15200 29.55800 29.79900
C  -4.55300 31.17900 30.80200
C  -5.65100 31.85700 31.63300
O  -6.68600 32.37300 31.11700
O  -5.51000 31.60800 33.01900
C  -6.90400 31.73800 33.58400
H  0.32100 36.05400 31.34700
H  0.42600 36.57200 24.93300
H  -4.16700 31.97000 24.60000
H  -3.26400 33.42300 32.81000
H  -0.51500 34.15500 32.92300
H  -2.67800 35.49100 33.90500
H  -2.39500 36.45700 32.39100
H  -1.25300 36.38200 33.67100
H  -0.61100 32.05100 33.27300
H  -1.59700 31.12400 32.25200
H  -2.69900 30.42500 34.30400
H  -3.25000 31.98800 34.43100
H  1.49800 37.70400 31.09700
H  1.57700 38.91200 29.77600
H  2.86900 37.70300 29.95700
H  4.03500 38.12700 27.72100
H  2.92000 39.49400 28.03500
H  3.78400 39.47300 26.57100
H  -0.64400 34.98500 23.00100
H  -3.23200 34.05200 22.85500
H  -1.69500 36.97000 22.19300
H  -2.38500 37.02400 23.79800
H  -3.17900 36.12000 22.50700
H  -2.27500 31.82500 23.23800
H  -0.62400 32.42300 23.18000
H  -0.55700 32.71800 21.01600
H  -2.29700 33.33900 21.02300
H  -1.99200 31.65600 21.09000
H  -6.25500 30.61700 25.39700
H  -5.99200 29.56200 26.75800
H  -4.72000 29.77100 25.46200
H  -4.06400 30.45300 31.45200
H  -7.03300 31.77300 34.66600
H  -7.47000 30.87800 33.22900
H  -7.42800 32.62000 33.21600
Mg -12.93700 16.03400 42.80900
C  -10.13300 14.03000 42.00600
C  -11.48700 18.58900 41.19400
C  -15.94400 17.49200 42.72400
C  -14.43200 12.90900 43.81300
N  -10.99400 16.18700 41.66200
C  -10.00300 15.32100 41.51500
C  -8.77600 16.05900 40.84000
C  -9.19300 17.52800 40.87700
C  -10.65600 17.43500 41.18500
C  -8.32300 18.59100 41.62400
C  -8.35100 15.43000 39.48900
C  -6.88300 15.08200 39.22600
H  -6.16200 15.84600 38.07300
N  -13.58700 17.93300 42.09900
C  -12.84400 18.83000 41.54100
C  -13.61700 20.02600 41.36600
C  -14.92500 19.78600 41.91300
C  -14.88500 18.36400 42.25700
C  -13.12600 21.25000 40.63000
C  -16.05500 20.75900 42.16700
O  -15.82100 21.90000 41.96300
C  -17.41800 20.33700 42.67600
N  -14.91400 15.32600 43.13300
C  -15.99000 16.14600 43.00000
C  -17.22500 15.39400 43.43100
C  -16.73500 13.88700 43.59000
C  -15.21400 14.04800 43.58900
C  -17.93500 15.91200 44.69600
C  -17.26400 12.83100 42.60700
C  -17.55500 11.48300 43.17700
N  -12.31700 13.98100 43.26500
C  -13.03000 12.81100 43.63900
C  -12.11900 11.69200 43.77100
C  -10.98700 12.14200 43.14000
C  -11.18400 13.52000 42.79300
C  -12.37400 10.31400 44.39500
C  -9.66500 11.77800 42.76900
O  -9.01500 10.82200 43.07100
C  -9.05900 12.95600 41.92400
C  -7.88000 13.39800 42.64000
O  -7.88500 13.87000 43.77900
O  -6.77700 13.15400 41.83200
C  -5.45900 13.44600 42.38500
H  -11.06400 19.47300 40.71300
H  -16.93600 17.94900 42.72000
H  -14.99900 11.99600 44.00700
H  -7.99400 15.96000 41.59200
H  -9.09800 17.98800 39.89400
H  -7.93700 19.30300 40.89400
H  -7.47200 18.03600 42.01800
H  -8.85200 19.09300 42.43300
H  -8.67600 16.10500 38.69700
H  -8.92500 14.52700 39.28000
H  -6.88600 14.05000 38.87700
H  -6.23600 15.19100 40.09700
H  -12.23900 21.60200 41.15600
H  -13.88800 22.03000 40.62200
H  -12.86900 20.95300 39.61300
H  -17.99300 19.67900 42.02500
H  -18.02500 21.20900 42.92000
H  -17.29500 19.84200 43.64000
H  -17.90200 15.44000 42.57800
H  -17.01100 13.58000 44.59900
H  -17.11600 16.27700 45.31600
H  -18.54600 15.28600 45.34700
H  -18.52000 16.79100 44.42700
H  -16.48400 12.73900 41.85100
H  -18.15400 13.23600 42.12500
H  -17.62000 11.44300 44.26400
H  -16.76200 10.82000 42.83000
H  -18.45200 11.14700 42.65700
H  -13.07100 10.43100 45.22500
H  -11.37800 10.00500 44.71300
H  -12.84800 9.59800 43.72300
H  -8.76300 12.62000 40.93000
H  -5.30300 14.49500 42.13400
H  -4.66100 12.82500 41.97900
H  -5.46400 13.37900 43.47300

