158

Mg -11.81700 37.75000 42.11300
C  -9.88600 34.98700 41.00400
C  -9.27200 39.78800 40.98700
C  -13.97200 40.41700 42.46000
C  -14.42600 35.58100 42.93900
N  -9.75700 37.40500 41.01700
C  -9.27800 36.20600 40.62800
C  -7.97600 36.34000 39.78500
C  -7.77400 37.92300 39.84000
C  -8.98600 38.38300 40.64800
C  -6.41300 38.42400 40.18800
C  -8.05200 35.73500 38.37300
C  -6.95000 34.77500 37.84900
H  -5.78100 35.42500 37.07600
N  -11.67200 39.75000 41.73700
C  -10.51300 40.38200 41.29100
C  -10.84700 41.81500 41.12600
C  -12.25400 41.99100 41.38100
C  -12.71500 40.63700 41.88200
C  -9.76100 42.75700 40.60500
C  -13.03800 43.32100 41.15700
O  -12.39600 44.29400 40.76200
C  -14.53200 43.42600 41.30900
N  -13.97300 38.00500 42.40900
C  -14.52000 39.16500 42.73000
C  -15.91000 39.01100 43.27600
C  -16.10200 37.45400 43.37800
C  -14.73000 36.97500 42.90300
C  -16.12200 39.76100 44.55500
C  -17.21500 36.73000 42.50300
C  -18.23000 36.02300 43.35200
N  -12.15800 35.65200 42.00200
C  -13.30000 34.96000 42.39000
C  -12.99600 33.47200 42.20600
C  -11.67600 33.42300 41.62800
C  -11.22500 34.77600 41.53900
C  -13.88600 32.30500 42.66200
C  -10.54800 32.59000 41.10800
O  -10.50300 31.35800 41.06000
C  -9.40600 33.58200 40.66700
C  -8.05600 33.20800 41.23800
O  -7.36100 32.30600 40.86000
O  -7.62800 33.98300 42.29900
C  -6.36000 33.59600 43.07600
H  -8.53100 40.53400 40.69200
H  -14.71300 41.17700 42.71600
H  -15.26100 35.05000 43.40200
H  -7.08400 35.89100 40.22100
H  -7.97200 38.26300 38.82300
H  -5.62800 37.70800 39.94300
H  -6.40800 38.48300 41.27600
H  -6.17400 39.34000 39.64800
H  -7.96100 36.55700 37.66300
H  -9.06700 35.39900 38.16100
H  -7.52600 34.16600 37.15200
H  -6.45800 34.19400 38.62900
H  -9.18400 42.24900 39.83300
H  -9.14600 42.98800 41.47500
H  -10.14300 43.67900 40.16800
H  -15.08600 42.72400 40.68500
H  -14.81300 44.46100 41.11200
H  -14.93200 43.28100 42.31200
H  -16.64800 39.40100 42.57600
H  -16.26200 37.15100 44.41300
H  -15.14600 40.07700 44.92400
H  -16.45800 39.21800 45.43800
H  -16.68000 40.68600 44.40700
H  -16.81900 36.04400 41.75400
H  -17.73200 37.46900 41.89000
H  -19.07800 36.67200 43.56900
H  -17.85600 35.67200 44.31400
H  -18.62900 35.29600 42.64500
H  -14.36800 32.01100 41.72900
H  -14.75600 32.52800 43.28000
H  -13.29400 31.50100 43.09900
H  -9.40900 33.61100 39.57700
H  -6.06700 32.55700 42.92000
H  -6.50000 33.67200 44.15400
H  -5.53000 34.22700 42.75900
Mg -4.89100 24.97700 25.51900
C  -3.30100 26.00900 28.41500
C  -7.11000 23.16100 27.37800
C  -5.95700 23.56100 22.66100
C  -2.24200 26.48600 23.59600
N  -5.06600 24.57200 27.71000
C  -4.44500 25.26400 28.72700
C  -5.07900 24.96100 30.10600
C  -6.23700 23.92200 29.73700
C  -6.19100 23.89400 28.17300
C  -5.98400 22.48400 30.40100
C  -5.68600 26.27500 30.72600
C  -5.32200 26.66400 32.10300
H  -4.89600 25.51300 33.09300
N  -6.32200 23.53500 25.07600
C  -7.16800 22.92400 25.99900
C  -8.14300 22.12200 25.31800
C  -7.82800 22.17700 23.95500
C  -6.66700 23.16400 23.82000
C  -9.22300 21.34200 26.02600
C  -8.50500 21.45000 22.81600
O  -8.05100 21.57200 21.66300
C  -9.70800 20.65400 23.03700
N  -4.25100 25.10400 23.44900
C  -4.84200 24.40700 22.46100
C  -4.36700 24.77000 21.03700
C  -3.21700 25.80100 21.35000
C  -3.25500 25.83900 22.87300
C  -3.90500 23.51500 20.18400
C  -3.37000 27.22300 20.74800
C  -2.34800 27.66800 19.74200
N  -3.15700 26.05800 25.87600
C  -2.24400 26.67100 25.00300
C  -1.31100 27.43500 25.76600
C  -1.68500 27.20200 27.09500
C  -2.74600 26.28600 27.11300
C  -0.36100 28.50500 25.16000
C  -1.38300 27.55500 28.45500
O  -0.59900 28.37000 28.84400
C  -2.37300 26.74000 29.36700
C  -1.58200 25.92400 30.29000
O  -1.08400 24.84400 29.95400
O  -1.29100 26.61500 31.39100
C  -0.46600 25.99400 32.37800
H  -7.91900 22.66700 27.91900
H  -6.20700 23.17700 21.67000
H  -1.31800 26.89800 23.18500
H  -4.38200 24.54000 30.83100
H  -7.13400 24.39500 30.13600
H  -6.06000 21.65500 29.69700
H  -6.66000 22.39800 31.25200
H  -4.96800 22.35900 30.77500
H  -6.77000 26.15900 30.70800
H  -5.50800 27.10400 30.04100
H  -6.27000 26.97600 32.53900
H  -4.66100 27.52900 32.16500
H  -10.22600 21.61800 25.70100
H  -9.39600 21.54900 27.08200
H  -9.02400 20.28800 25.83300
H  -9.34400 19.85100 23.67800
H  -10.12900 20.32600 22.08700
H  -10.57300 21.17300 23.45200
H  -5.27400 25.24300 20.66000
H  -2.24900 25.37500 21.08500
H  -4.37600 23.64900 19.21000
H  -4.19400 22.59800 20.69700
H  -2.81700 23.52200 20.11700
H  -3.36700 27.96600 21.54500
H  -4.28000 27.19800 20.14900
H  -2.80200 27.84600 18.76700
H  -1.58100 26.91200 19.57700
H  -1.88900 28.58100 20.12200
H  -0.14300 29.20500 25.96700
H  -0.78500 28.93300 24.25200
H  0.61800 28.11500 24.88200
H  -3.01900 27.40800 29.93700
H  0.59900 26.04900 32.14800
H  -0.83300 24.97900 32.52800
H  -0.66300 26.51200 33.31600

