158

Mg 1.01000 7.99300 26.59700
C  1.68200 10.13000 29.38800
C  1.57100 5.38700 28.67200
C  0.85600 6.07000 23.82300
C  0.89700 10.87900 24.59600
N  1.48600 7.84800 28.76900
C  1.69300 8.79700 29.73700
C  1.80500 8.33500 31.12500
C  2.03500 6.79300 30.76500
C  1.68500 6.62900 29.29800
C  3.55400 6.16000 30.97900
C  0.60200 8.54000 31.96100
C  0.69000 8.38500 33.54300
H  1.94000 7.77500 34.23000
N  1.06900 5.99700 26.36500
C  1.35100 5.09300 27.30100
C  1.41200 3.78500 26.63300
C  1.09800 3.91000 25.31100
C  0.97300 5.44300 25.07800
C  1.82300 2.58800 27.42400
C  0.85600 2.87000 24.18100
O  0.29000 3.22400 23.17900
C  1.18800 1.41500 24.33400
N  0.74300 8.38000 24.52000
C  0.74900 7.41800 23.53400
C  0.49500 8.00700 22.15800
C  0.46300 9.57500 22.49000
C  0.55400 9.64800 24.04000
C  1.38600 7.58300 21.05100
C  -0.76500 10.34000 21.98000
C  -0.50100 11.70500 21.27800
N  1.19400 10.09500 26.85500
C  1.13500 11.13000 25.95800
C  1.41600 12.40600 26.63100
C  1.61200 12.02400 27.98400
C  1.41500 10.64600 28.09600
C  1.52700 13.64700 25.96800
C  1.87700 12.57000 29.26900
O  2.14900 13.70900 29.60800
C  1.79300 11.36600 30.28500
C  2.97300 11.48300 31.21900
O  4.07900 11.00400 31.00900
O  2.50400 12.20800 32.29900
C  3.43400 12.22500 33.37000
H  1.64100 4.57900 29.40300
H  0.77300 5.59800 22.84200
H  0.89800 11.76600 23.95900
H  2.60100 8.94300 31.55400
H  1.39000 6.33400 31.51400
H  4.26700 6.91000 31.32000
H  3.97000 5.67800 30.09400
H  3.57000 5.48200 31.83300
H  -0.14500 7.83000 31.60700
H  0.21400 9.53000 31.71900
H  -0.18100 7.78700 33.81200
H  0.48300 9.37600 33.94700
H  2.60800 2.70900 28.17100
H  2.16200 1.80300 26.74700
H  0.96900 2.22900 27.99700
H  0.66000 1.03000 25.20600
H  2.25800 1.54800 24.49500
H  1.07200 0.83900 23.41600
H  -0.50100 7.74300 21.80100
H  1.34000 9.92100 21.94200
H  0.81800 6.74700 20.64100
H  2.39500 7.27400 21.32200
H  1.52500 8.33400 20.27400
H  -1.43400 10.51600 22.82200
H  -1.31500 9.83000 21.18900
H  -0.65600 12.58000 21.90900
H  -1.17600 11.83300 20.43200
H  0.57300 11.78600 21.10600
H  1.06900 14.53200 26.41000
H  1.30900 13.58300 24.90200
H  2.53600 14.04400 26.07700
H  0.87300 11.51200 30.85100
H  3.21900 13.01700 34.08800
H  4.47800 12.25300 33.05900
H  3.37200 11.25700 33.86700
Mg 8.93900 47.37000 24.41300
C  6.84800 47.56600 27.19300
C  11.54600 48.49000 26.26700
C  10.72900 47.26200 21.62700
C  5.98200 47.15500 22.40200
N  9.15400 47.78800 26.48200
C  8.21200 47.86800 27.44100
C  8.74200 48.40700 28.78200
C  10.11100 48.97900 28.29800
C  10.29800 48.41100 26.89800
C  10.05500 50.55400 28.24100
C  8.88600 47.33900 29.87100
C  8.03900 47.61100 31.11200
H  8.04100 46.40100 32.12500
N  10.94600 47.78800 24.03300
C  11.87100 48.14300 24.93400
C  13.15400 48.25300 24.25900
C  12.93100 47.82800 22.94100
C  11.48700 47.60400 22.82000
C  14.45700 48.61700 24.90000
C  13.85000 47.65700 21.81100
O  13.49200 47.17200 20.75400
C  15.35200 47.85700 22.08000
N  8.37400 47.39100 22.27000
C  9.30500 47.17100 21.36200
C  8.71800 46.78300 19.99600
C  7.16900 46.68700 20.29400
C  7.17000 47.06700 21.74200
C  9.11500 47.80700 18.82800
C  6.58500 45.27900 19.94300
C  5.24800 45.24000 19.21800
N  6.87200 47.24300 24.71400
C  5.82600 47.24800 23.79300
C  4.52200 47.12600 24.46900
C  4.88700 47.30200 25.86000
C  6.28200 47.41400 25.93600
C  3.23100 46.92400 23.82800
C  4.35100 47.28800 27.21000
O  3.20600 47.28000 27.61400
C  5.63400 47.53600 28.10900
C  5.58600 46.36000 29.02400
O  6.27600 45.38400 29.01600
O  4.65400 46.62300 29.99900
C  4.70200 45.72000 31.21000
H  12.42300 48.85200 26.80800
H  11.24100 46.90900 20.73000
H  5.03600 46.93900 21.90200
H  8.01500 49.17000 29.06100
H  10.86000 48.60900 28.99800
H  10.73100 50.96900 28.98900
H  9.06900 50.96200 28.46000
H  10.32300 50.84400 27.22500
H  9.90000 47.18400 30.24000
H  8.52600 46.40400 29.44100
H  7.00600 47.64600 30.76500
H  8.35200 48.58900 31.47800
H  14.41400 49.04500 25.90100
H  14.86700 49.43500 24.30700
H  15.20600 47.82600 24.95200
H  15.49400 48.91400 22.30600
H  15.82400 47.65800 21.11800
H  15.82600 47.15100 22.76000
H  9.16300 45.82700 19.72100
H  6.63100 47.44500 19.72400
H  9.80300 48.55800 19.21500
H  8.31900 48.32700 18.29400
H  9.70000 47.30600 18.05700
H  6.34900 44.71000 20.84300
H  7.28300 44.67200 19.36600
H  4.55900 44.69600 19.86400
H  5.44600 44.71300 18.28500
H  4.92500 46.21900 18.86400
H  2.37100 47.14000 24.46200
H  3.22300 45.94000 23.35900
H  3.20800 47.61000 22.98100
H  5.57400 48.45300 28.69500
H  5.24400 46.31100 31.94800
H  5.07200 44.71900 30.98600
H  3.70000 45.77400 31.63500

