158

Mg 54.26500 24.54700 45.18500
C  52.06800 26.96600 44.01000
C  52.45200 22.07100 43.61400
C  56.78600 22.42900 45.76700
C  56.23900 27.21000 46.37400
N  52.69200 24.59600 43.64300
C  51.89000 25.73800 43.40200
C  50.73600 25.20100 42.54200
C  50.53000 23.69000 43.02100
C  51.96700 23.40300 43.47300
C  49.32500 23.62000 44.11100
C  50.95300 25.31600 40.94300
C  52.12000 26.20600 40.47400
H  53.45500 25.45600 40.09900
N  54.59200 22.51000 44.71300
C  53.65300 21.69000 44.19200
C  54.19300 20.41100 44.29300
C  55.49400 20.43900 44.81000
C  55.62700 21.80000 45.17600
C  53.36900 19.25600 43.65100
C  56.40700 19.29000 45.03400
O  56.08400 18.17700 44.58400
C  57.70400 19.37000 45.80200
N  56.25700 24.81200 45.70000
C  57.09800 23.76000 46.02100
C  58.44800 24.26000 46.16600
C  58.18200 25.66900 46.75800
C  56.83700 25.99500 46.11500
C  59.48100 23.45900 47.08300
C  59.25700 26.66200 46.31100
C  60.11700 27.20300 47.48000
N  54.09700 26.59600 45.41900
C  54.91200 27.49800 46.03000
C  54.18900 28.74000 46.24800
C  53.09400 28.65300 45.37800
C  53.09500 27.26900 44.93200
C  54.81200 30.00600 46.97000
C  51.91700 29.28500 44.74200
O  51.44800 30.42900 44.76600
C  51.17300 28.19900 43.82400
C  51.17900 28.76400 42.44600
O  52.12900 29.40900 41.95400
O  49.95800 28.60400 41.85800
C  49.74800 29.10600 40.47400
H  51.86200 21.21400 43.28500
H  57.61900 21.80100 46.09000
H  56.75200 28.12900 46.66400
H  49.92800 25.92800 42.62300
H  50.29100 23.03900 42.18100
H  49.75400 23.12700 44.98300
H  48.51000 22.97400 43.78500
H  49.06800 24.63800 44.40700
H  50.06500 25.65600 40.41000
H  51.20500 24.34300 40.52000
H  52.48500 27.01800 41.10300
H  51.69500 26.61400 39.55700
H  53.32900 19.68200 42.64800
H  52.44300 19.16700 44.21900
H  53.84100 18.27600 43.58600
H  58.08400 18.36500 45.98400
H  57.46900 19.77500 46.78600
H  58.47900 19.89000 45.24000
H  59.00600 24.38300 45.23900
H  58.07300 25.68600 47.84300
H  59.69300 24.04000 47.98000
H  60.45700 23.44100 46.59900
H  59.11600 22.47900 47.39000
H  58.77500 27.53600 45.87300
H  59.87600 26.41500 45.44900
H  59.99800 28.23300 47.81800
H  61.11400 27.16300 47.04100
H  60.19700 26.48800 48.29800
H  55.83600 29.98000 47.34100
H  54.08000 30.41900 47.66500
H  54.82800 30.77700 46.20000
H  50.14200 27.97500 44.09700
H  49.58400 30.15700 40.71000
H  48.93500 28.61500 39.94000
H  50.67700 29.02500 39.91000
Mg -6.77000 24.91900 25.47800
C  -5.06100 26.26200 28.16900
C  -8.45300 22.71000 27.66100
C  -7.95400 23.23500 22.82100
C  -4.73000 26.76300 23.32100
N  -6.82100 24.58300 27.70500
C  -6.09800 25.37500 28.52000
C  -6.47600 24.93400 30.04700
C  -7.36000 23.60600 29.82700
C  -7.61100 23.66500 28.36100
C  -6.70500 22.20000 30.15800
C  -7.23100 26.01400 30.84700
C  -7.00300 25.99200 32.29900
H  -6.27400 24.79500 32.97300
N  -8.20700 23.37300 25.22500
C  -8.75200 22.60400 26.24800
C  -9.72100 21.68400 25.65800
C  -9.54500 21.79300 24.22500
C  -8.50700 22.79800 24.05100
C  -10.64100 20.78000 26.51700
C  -10.16800 20.96100 23.13400
O  -9.92400 20.99100 21.92100
C  -11.04900 19.79900 23.60400
N  -6.42000 25.03700 23.40800
C  -7.04000 24.27000 22.51900
C  -6.38700 24.32300 21.11800
C  -5.52400 25.59100 21.25700
C  -5.61700 25.87700 22.75100
C  -5.62000 23.03200 20.64600
C  -5.93600 26.82600 20.35700
C  -4.97200 27.26600 19.26100
N  -5.12400 26.16400 25.66800
C  -4.50500 26.98000 24.74000
C  -3.46300 27.74600 25.37200
C  -3.63300 27.50000 26.73000
C  -4.64800 26.51600 26.80600
C  -2.45700 28.73000 24.75000
C  -3.11700 27.73900 28.03900
O  -2.20900 28.47400 28.39100
C  -4.04000 26.98200 29.01000
C  -3.24200 26.03700 29.81100
O  -2.81700 24.96800 29.39600
O  -2.97300 26.47100 31.07600
C  -2.11200 25.80600 32.00700
H  -9.01300 22.03300 28.30900
H  -8.34700 22.74900 21.92600
H  -4.23500 27.43000 22.61200
H  -5.51400 24.64300 30.46900
H  -8.31300 23.72400 30.34100
H  -5.69000 22.48700 30.43500
H  -6.55000 21.62000 29.24800
H  -7.13000 21.65800 31.00300
H  -8.30300 26.03900 30.65500
H  -6.84600 26.98900 30.54800
H  -7.99100 26.14600 32.73100
H  -6.41400 26.84300 32.64000
H  -11.03000 21.52800 27.20800
H  -10.10700 20.01200 27.07700
H  -11.49600 20.34400 26.00100
H  -11.22400 19.03000 22.85100
H  -12.01900 20.19700 23.90100
H  -10.58500 19.19600 24.38500
H  -7.11200 24.67200 20.38400
H  -4.49900 25.25400 21.10400
H  -5.92200 22.80800 19.62200
H  -6.06800 22.23200 21.23400
H  -4.55100 23.17700 20.80300
H  -6.08400 27.62300 21.08600
H  -6.81100 26.61600 19.74100
H  -3.95400 27.09900 19.61000
H  -4.93700 28.32700 19.01100
H  -5.03400 26.71500 18.32300
H  -2.16000 28.24700 23.81900
H  -1.51400 28.79300 25.29300
H  -2.96400 29.67500 24.55700
H  -4.59600 27.68000 29.63600
H  -2.48900 26.11500 32.98200
H  -1.03300 25.94700 31.94600
H  -2.39800 24.75800 31.91100

