158

Mg 54.50800 24.77400 44.00800
C  51.42300 26.75400 43.36300
C  52.72600 22.06400 42.84900
C  57.36800 23.10200 43.89400
C  56.07800 27.70800 44.91900
N  52.23400 24.47600 43.22100
C  51.20100 25.36500 43.06400
C  49.97700 24.68500 42.37000
C  50.35700 23.19000 42.60700
C  51.88300 23.24100 42.85300
C  49.70000 22.50700 43.85800
C  50.00500 24.97800 40.84500
C  51.34300 25.22700 40.12300
H  51.37700 26.01400 38.76300
N  54.96900 22.82300 43.45200
C  54.06700 21.88200 43.08300
C  54.75700 20.63800 42.99800
C  56.16600 20.84700 43.22600
C  56.23200 22.29200 43.54100
C  54.14500 19.27800 42.65300
C  57.22600 19.82200 43.20300
O  57.02900 18.65100 42.89300
C  58.69300 20.28600 43.30600
N  56.47300 25.36800 44.21700
C  57.49400 24.46200 44.27700
C  58.87300 25.14500 44.46200
C  58.42600 26.66600 44.79200
C  56.86800 26.57800 44.61900
C  59.66900 24.62000 45.59900
C  59.05300 27.73100 43.81100
C  59.41300 29.11300 44.42100
N  53.91100 26.75300 44.21200
C  54.68000 27.80400 44.68500
C  53.75200 28.96300 44.84500
C  52.54000 28.55000 44.30600
C  52.63000 27.23200 43.92600
C  54.04100 30.26600 45.51000
C  51.14400 29.04300 44.02800
O  50.69900 30.16000 44.18900
C  50.39700 27.81200 43.45900
C  49.73300 28.14100 42.15800
O  50.36400 28.52500 41.19900
O  48.37700 28.07400 42.30000
C  47.63600 28.42800 41.05800
H  52.22700 21.15800 42.49900
H  58.33900 22.61100 43.98200
H  56.58900 28.62000 45.23500
H  49.02000 24.93800 42.82500
H  50.17000 22.58100 41.72200
H  50.19900 21.54600 43.97600
H  48.63700 22.36900 43.65500
H  49.86800 23.03500 44.79600
H  49.46100 25.91300 40.71100
H  49.52900 24.23200 40.20900
H  51.67500 24.21500 39.89200
H  52.03100 25.77600 40.76500
H  54.17500 18.96900 41.60900
H  53.06700 19.29400 42.81700
H  54.43800 18.50100 43.35800
H  59.18200 20.42100 44.27000
H  58.74500 21.22000 42.74600
H  59.26400 19.52200 42.78000
H  59.21600 25.04300 43.43200
H  58.63400 27.03400 45.79600
H  59.81200 25.34200 46.40300
H  60.68000 24.41700 45.24700
H  59.18900 23.74000 46.02700
H  58.34400 27.92600 43.00700
H  59.93900 27.32100 43.32400
H  59.59000 28.87500 45.47000
H  58.43300 29.58800 44.38900
H  60.09900 29.77400 43.89100
H  53.33000 30.46800 46.31200
H  54.08700 31.03200 44.73600
H  55.00800 30.15500 46.00200
H  49.66700 27.60000 44.23900
H  47.80400 29.48100 40.83000
H  46.58500 28.14100 41.09500
H  48.10100 27.88100 40.23800
Mg 46.72000 25.06300 28.27600
C  47.42100 27.26400 30.83400
C  45.77900 22.68000 30.73500
C  46.14000 22.87100 25.87600
C  48.30400 27.23000 26.00200
N  46.81800 24.89000 30.49800
C  46.98000 26.06500 31.32800
C  46.63000 25.71000 32.78300
C  46.35500 24.14100 32.77200
C  46.31900 23.85000 31.21500
C  47.37000 23.20200 33.48400
C  45.59800 26.64500 33.35700
C  45.96300 27.40100 34.61200
H  46.62300 26.61300 35.76500
N  46.03700 22.97200 28.27900
C  45.72400 22.21100 29.36900
C  45.37900 20.90000 28.92400
C  45.34300 20.93000 27.48900
C  45.78900 22.28200 27.10700
C  44.97500 19.83800 29.86300
C  44.96200 19.95600 26.49900
O  44.92300 20.19000 25.29100
C  44.57300 18.59600 27.00400
N  47.12300 25.02100 26.20300
C  46.71500 24.03400 25.43200
C  47.22100 24.16700 23.99300
C  47.76400 25.60300 23.95400
C  47.83300 25.96800 25.49800
C  48.25300 23.08100 23.52800
C  46.86700 26.68900 23.26500
C  47.47400 27.93900 22.59900
N  47.65600 26.87200 28.30100
C  48.23600 27.66600 27.31700
C  48.62700 28.96100 27.86700
C  48.27500 28.85900 29.25200
C  47.69900 27.56200 29.47200
C  49.30100 30.07300 27.10500
C  48.31200 29.62000 30.48100
O  48.84500 30.65700 30.83200
C  47.88000 28.57700 31.54300
C  48.95800 28.31400 32.52800
O  49.90800 27.56600 32.28500
O  48.79800 29.15500 33.58400
C  49.85000 28.97400 34.57700
H  45.54700 22.01300 31.56800
H  46.09600 22.15800 25.05000
H  48.89300 27.86400 25.33600
H  47.54700 25.88400 33.34600
H  45.38300 24.06100 33.25900
H  46.74400 22.55100 34.09600
H  48.00300 23.77600 34.16000
H  47.91500 22.54000 32.81100
H  44.65800 26.13800 33.57400
H  45.35700 27.44600 32.65900
H  44.95800 27.61000 34.97900
H  46.49700 28.33800 34.45500
H  45.02500 19.91400 30.94900
H  45.55500 18.93100 29.69300
H  43.92800 19.68300 29.59900
H  43.57600 18.48200 27.43000
H  45.35900 18.28700 27.69300
H  44.60400 17.91700 26.15200
H  46.37200 24.05500 23.31800
H  48.73400 25.69300 23.46400
H  48.52300 22.46700 24.38700
H  49.20100 23.44800 23.13400
H  47.75900 22.52200 22.73300
H  46.10800 26.92800 24.01000
H  46.27600 26.21400 22.48300
H  47.10500 27.84300 21.57800
H  48.56100 27.87100 22.65900
H  47.15600 28.82900 23.14200
H  50.34600 29.98900 27.40100
H  48.91900 31.07800 27.28800
H  49.23100 29.89700 26.03200
H  47.00800 29.04900 31.99600
H  50.83800 28.77000 34.16400
H  49.55400 28.08500 35.13400
H  49.78700 29.68600 35.40000

