158

Mg 8.73100 48.06900 26.54200
C  6.82200 47.75400 29.38900
C  11.49200 48.93200 28.53100
C  10.70800 48.43300 23.75200
C  5.98200 47.81400 24.52400
N  8.95900 48.64600 28.72100
C  8.12700 48.25800 29.69100
C  8.77800 48.45000 31.05200
C  10.15200 49.18700 30.74900
C  10.26700 48.84100 29.26900
C  10.04900 50.70000 30.98500
C  8.94100 47.19600 31.99600
C  8.54400 47.52100 33.45900
H  8.78900 46.38300 34.50400
N  10.91000 48.49000 26.23900
C  11.83400 48.79400 27.22400
C  13.09400 48.81200 26.59700
C  12.88500 48.61900 25.20000
C  11.44600 48.56900 24.98500
C  14.38500 48.93100 27.32100
C  13.89400 48.57900 24.12000
O  13.60100 48.55600 22.94700
C  15.39600 48.46600 24.47900
N  8.40600 48.26200 24.39800
C  9.32700 48.36900 23.43300
C  8.70700 47.91900 22.03300
C  7.20800 47.80600 22.34600
C  7.18100 47.97200 23.83600
C  9.06200 48.90700 20.92000
C  6.62100 46.44100 21.85100
C  5.49700 46.47800 20.79900
N  6.82900 47.88600 26.87900
C  5.83700 47.68200 25.93400
C  4.56800 47.31300 26.63100
C  4.95200 47.28000 27.95500
C  6.31100 47.67200 28.09200
C  3.23600 47.10600 25.97200
C  4.47300 46.99100 29.33400
O  3.40000 46.53000 29.66800
C  5.72800 47.22700 30.27300
C  5.97300 45.98800 30.99500
O  6.47000 44.97500 30.50500
O  5.50600 46.13300 32.29100
C  5.66000 44.94400 33.13900
H  12.37200 49.06500 29.16400
H  11.30100 48.41600 22.83500
H  5.12700 47.63500 23.87000
H  8.17800 49.16200 31.61800
H  11.00100 48.80500 31.31600
H  9.03000 51.07700 31.07300
H  10.54800 51.34500 30.26200
H  10.55300 50.81500 31.94500
H  10.01500 47.00800 32.02600
H  8.52800 46.21500 31.76200
H  7.45900 47.59100 33.38000
H  8.91300 48.46900 33.85100
H  15.05800 48.08700 27.17200
H  14.24900 49.10500 28.38900
H  15.04900 49.70200 26.92900
H  15.48300 47.60400 25.14000
H  15.81000 49.29400 25.05400
H  15.96100 48.33300 23.55600
H  9.13400 46.95400 21.76100
H  6.62500 48.61500 21.90400
H  8.17300 49.14200 20.33400
H  9.71800 48.44400 20.18300
H  9.52000 49.77600 21.39100
H  6.11000 45.98600 22.70000
H  7.37000 45.70600 21.55600
H  4.61400 45.99500 21.21800
H  5.83200 45.80500 20.00900
H  5.17600 47.42400 20.36400
H  3.22100 46.73700 24.94600
H  2.87800 48.12900 25.86400
H  2.55700 46.55100 26.62000
H  5.54600 48.00600 31.01300
H  6.61400 44.65400 33.57900
H  5.32200 44.08900 32.55300
H  4.97700 44.99900 33.98800
Mg -11.18600 17.30900 42.20200
C  -7.92400 18.30600 42.24800
C  -12.14300 20.64500 41.94500
C  -14.51500 16.36500 41.93300
C  -10.27900 13.95700 41.99300
N  -10.16000 19.21900 42.17300
C  -8.83000 19.37000 42.13900
C  -8.39400 20.86700 42.02800
C  -9.71900 21.61700 42.28600
C  -10.76900 20.43800 42.12100
C  -9.72200 22.43800 43.56800
C  -7.77900 21.15000 40.64700
C  -6.38100 21.84800 40.78300
H  -5.35700 21.14800 39.87800
N  -13.01300 18.36400 41.83300
C  -13.20000 19.72600 41.76400
C  -14.55600 20.06100 41.50100
C  -15.28200 18.80400 41.56900
C  -14.25000 17.75000 41.73600
C  -15.15000 21.48000 41.23300
C  -16.78300 18.73400 41.46900
O  -17.46400 19.76000 41.59100
C  -17.46200 17.45900 41.36200
N  -12.27100 15.52200 41.78600
C  -13.59100 15.33700 42.02100
C  -14.03700 13.93300 42.13800
C  -12.72900 13.15900 42.05300
C  -11.67500 14.28700 41.95500
C  -14.86200 13.64400 43.35400
C  -12.70000 12.23000 40.68600
C  -12.62200 10.68900 40.94100
N  -9.43600 16.28800 42.15700
C  -9.15400 14.92300 42.07000
C  -7.76200 14.73400 42.11800
C  -7.19100 16.06100 42.14500
C  -8.28200 16.93500 42.25600
C  -7.03700 13.47300 42.16500
C  -5.97500 16.77800 42.13800
O  -4.83200 16.28600 42.01800
C  -6.36400 18.30300 42.35400
C  -5.83600 18.82800 43.64400
O  -6.11800 18.41000 44.77800
O  -4.91900 19.76600 43.32500
C  -4.12000 20.36100 44.44000
H  -12.55800 21.63000 41.72400
H  -15.57700 16.11400 41.98000
H  -9.99100 12.90800 41.89600
H  -7.79400 21.24400 42.85700
H  -10.04600 22.28200 41.48700
H  -9.07600 23.28800 43.35200
H  -9.43000 21.84000 44.43200
H  -10.76600 22.73600 43.66400
H  -8.43100 21.80700 40.07100
H  -7.69100 20.29600 39.97500
H  -6.05200 21.84400 41.82200
H  -6.45200 22.91100 40.55200
H  -16.11500 21.51300 40.72800
H  -14.32700 21.93900 40.68500
H  -15.25600 21.93600 42.21700
H  -18.39100 17.64500 40.82400
H  -17.49300 17.00400 42.35200
H  -16.87500 16.79100 40.73100
H  -14.75600 13.76000 41.33700
H  -12.62100 12.57000 42.96400
H  -14.77500 14.50400 44.01800
H  -14.59900 12.77700 43.96000
H  -15.89000 13.50500 43.01900
H  -11.87500 12.53800 40.04400
H  -13.59200 12.30600 40.06500
H  -12.55100 10.58400 42.02300
H  -11.76800 10.31200 40.37800
H  -13.43800 10.11500 40.50300
H  -5.99000 13.60200 42.43900
H  -7.10200 12.96200 41.20400
H  -7.55300 12.84200 42.88800
H  -5.83800 18.72400 41.49700
H  -3.50700 21.12900 43.96900
H  -3.43600 19.65000 44.90500
H  -4.77400 20.78300 45.20300

