158

Mg 26.30300 49.97300 25.54000
C  24.48800 51.30300 28.25800
C  28.70900 48.78500 27.74700
C  27.93900 48.68200 22.93300
C  24.04800 51.63700 23.38100
N  26.56400 50.02900 27.78000
C  25.65600 50.61800 28.63700
C  26.19500 50.44400 30.01300
C  27.67000 49.95800 29.87600
C  27.66800 49.55500 28.40300
C  28.67900 51.10600 30.09500
C  25.26200 49.46800 30.83200
C  24.63400 50.14000 32.08900
H  25.52900 50.44800 33.35200
N  27.98500 48.78500 25.36700
C  28.76600 48.40900 26.34500
C  29.93500 47.76500 25.69700
C  29.60900 47.51300 24.38000
C  28.41900 48.32300 24.16000
C  31.27800 47.36000 26.40600
C  30.41400 46.76100 23.30000
O  30.04300 46.51200 22.18200
C  31.79800 46.13100 23.62800
N  26.05400 50.25200 23.42800
C  26.87000 49.56500 22.53900
C  26.52600 49.88600 21.09300
C  25.22700 50.77700 21.25500
C  25.08100 50.92700 22.79300
C  27.63500 50.50300 20.27600
C  23.90900 50.18400 20.61300
C  23.24800 48.92200 21.17800
N  24.55200 51.20100 25.74800
C  23.80100 51.83500 24.78300
C  22.67000 52.47600 25.45600
C  22.91800 52.36700 26.81400
C  24.06400 51.56200 26.96700
C  21.56800 53.19100 24.75300
C  22.44200 52.78300 28.11100
O  21.49600 53.45300 28.44700
C  23.48800 52.14900 29.06000
C  24.07400 53.27500 29.90900
O  25.07300 53.89100 29.67200
O  23.31600 53.53700 31.02700
C  23.80700 54.54300 32.03000
H  29.52000 48.34700 28.33300
H  28.44900 48.29600 22.04800
H  23.37400 52.11300 22.66600
H  26.21100 51.38400 30.56500
H  27.92800 49.12900 30.53400
H  29.33500 50.78200 30.90300
H  28.22100 52.02800 30.45400
H  29.23200 51.29400 29.17500
H  25.91000 48.68000 31.21500
H  24.54000 48.87300 30.27300
H  23.79500 49.53700 32.43700
H  24.12800 51.03400 31.72300
H  31.35700 47.93900 27.32700
H  32.17100 47.48900 25.79500
H  31.44700 46.31600 26.67000
H  31.99100 45.47200 22.78200
H  31.73900 45.49600 24.51200
H  32.65700 46.79800 23.69800
H  25.98000 49.05500 20.64800
H  25.45800 51.78800 20.92000
H  28.60300 50.43100 20.77200
H  27.34900 51.52600 20.03300
H  27.68700 50.08200 19.27200
H  24.22900 50.03800 19.58200
H  23.25300 51.05200 20.55300
H  23.91500 48.35400 21.82600
H  22.99300 48.28700 20.33000
H  22.29500 49.15300 21.65300
H  21.17800 52.61200 23.91600
H  21.80400 54.16800 24.33100
H  20.76300 53.32500 25.47500
H  22.89600 51.57300 29.77200
H  23.02500 54.83300 32.73200
H  24.12600 55.44300 31.50300
H  24.53600 54.08200 32.69600
Mg -8.90100 17.25900 41.69500
C  -5.41600 17.02200 41.54000
C  -8.66100 20.51900 41.01700
C  -12.18100 17.21200 41.26300
C  -9.00200 13.79500 42.11700
N  -7.17200 18.54700 41.35800
C  -5.89200 18.24000 41.20400
C  -5.05700 19.42800 40.68500
C  -6.05300 20.58700 41.06600
C  -7.42500 19.85100 41.12000
C  -5.80600 21.45500 42.39900
C  -4.67000 19.22400 39.15900
C  -3.17500 19.04800 38.83000
H  -2.78000 17.71500 38.22200
N  -10.22900 18.68400 41.29900
C  -9.94200 20.01000 41.04500
C  -11.14600 20.70200 40.73000
C  -12.24800 19.76600 40.80000
C  -11.64400 18.46500 41.10700
C  -11.22200 22.10800 40.25300
C  -13.72800 19.99800 40.51800
O  -14.15100 21.12100 40.34200
C  -14.71800 18.90900 40.36300
N  -10.38800 15.64800 41.52000
C  -11.68100 15.94900 41.50400
C  -12.48400 14.69500 41.95700
C  -11.48600 13.58100 42.18700
C  -10.18900 14.41300 41.87900
C  -13.41600 14.94900 43.20000
C  -11.48800 12.36600 41.23500
C  -12.71700 11.46800 41.39100
N  -7.45100 15.68500 41.69200
C  -7.70300 14.37100 42.04700
C  -6.45600 13.71600 42.35400
C  -5.47600 14.69400 42.17500
C  -6.16900 15.88800 41.84600
C  -6.29000 12.34200 42.89300
C  -4.01900 15.06200 42.26800
O  -3.02900 14.40100 42.52000
C  -3.95800 16.61400 41.90600
C  -3.49000 17.49500 43.06600
O  -4.23100 18.23600 43.66300
O  -2.17100 17.48200 43.21100
C  -1.59100 18.54500 44.05200
H  -8.59000 21.58600 40.79500
H  -13.27100 17.19100 41.32100
H  -9.09600 12.75000 42.42000
H  -4.15100 19.47800 41.28900
H  -6.00500 21.31300 40.25400
H  -5.58900 22.49700 42.16600
H  -4.89900 21.15600 42.92600
H  -6.68100 21.39300 43.04500
H  -5.08400 20.02900 38.55300
H  -5.14900 18.38000 38.66300
H  -2.73600 19.11900 39.82500
H  -2.86300 19.85200 38.16300
H  -10.22700 22.53000 40.11400
H  -11.60100 22.77500 41.02800
H  -11.88600 22.21200 39.39600
H  -15.53500 19.27100 39.73800
H  -15.06800 18.42300 41.27300
H  -14.32200 18.11700 39.72800
H  -13.11300 14.30000 41.15900
H  -11.49500 13.16500 43.19400
H  -12.99000 14.53100 44.11200
H  -14.34000 14.46700 42.88000
H  -13.47300 16.01700 43.41000
H  -10.58300 11.75800 41.24000
H  -11.51900 12.86700 40.26800
H  -13.41600 11.63100 40.57100
H  -13.26100 11.74900 42.29200
H  -12.52400 10.39500 41.38300
H  -7.17300 12.05500 43.46300
H  -5.47000 12.22600 43.60200
H  -6.11800 11.65200 42.06700
H  -3.40100 16.70400 40.97300
H  -1.85500 19.50000 43.59900
H  -0.52300 18.33700 44.11800
H  -2.00900 18.50200 45.05800

