158

Mg 49.03700 45.26100 43.11800
C  45.66000 45.63600 41.88900
C  48.87600 41.92200 42.32500
C  52.35000 45.09400 43.31500
C  49.20700 48.82500 43.07200
N  47.46300 44.02400 42.02500
C  46.13400 44.32100 41.83400
C  45.45800 42.97600 41.36700
C  46.41100 41.83300 41.80000
C  47.64600 42.64800 42.12300
C  45.86900 40.78600 42.79500
C  45.08900 42.82900 39.81900
C  46.09500 43.48200 38.89000
H  45.46900 43.93200 37.61200
N  50.45100 43.69800 43.05200
C  50.17800 42.39700 42.65600
C  51.46700 41.67800 42.63500
C  52.48400 42.56400 43.07100
C  51.80000 43.83800 43.16500
C  51.56900 40.19100 42.32800
C  53.84800 42.17500 43.29700
O  54.28900 41.06300 43.07200
C  54.88900 43.20900 43.78300
N  50.56600 46.73900 43.17000
C  51.86400 46.38800 43.31900
C  52.81600 47.63200 43.11300
C  51.72700 48.84100 43.10600
C  50.39900 48.08900 43.09600
C  53.92200 47.78100 44.24000
C  51.90600 49.72400 41.79000
C  52.10200 51.20800 42.02400
N  47.75000 46.87800 42.87200
C  47.89500 48.27600 42.87200
C  46.62800 48.94500 42.68200
C  45.74000 47.92000 42.26900
C  46.47700 46.73400 42.41400
C  46.39200 50.46600 42.54800
C  44.43200 47.68300 41.83800
O  43.44400 48.40500 41.71900
C  44.34700 46.14600 41.53000
C  43.23800 45.55800 42.32000
O  42.34900 44.91500 41.83900
O  43.22100 45.92000 43.71600
C  41.95300 45.56900 44.48800
H  48.74600 40.90700 41.94500
H  53.43800 45.18000 43.35700
H  49.34700 49.90700 43.10400
H  44.52400 42.92500 41.92800
H  46.69800 41.26100 40.91700
H  45.79200 39.82100 42.29400
H  44.89400 41.18400 43.07700
H  46.45700 40.74900 43.71200
H  44.12000 43.26800 39.58100
H  45.07400 41.77400 39.54700
H  47.00100 42.88200 38.80800
H  46.44100 44.41800 39.32900
H  51.66500 39.62200 43.25300
H  52.46200 39.88100 41.78600
H  50.74000 39.76100 41.76600
H  55.10200 43.86600 42.94000
H  55.75400 42.83200 44.32900
H  54.46700 43.76500 44.62000
H  53.38700 47.45200 42.20200
H  51.62900 49.43300 44.01600
H  54.72700 48.42500 43.88500
H  54.18500 46.79100 44.61100
H  53.55800 48.35900 45.09000
H  51.06500 49.60000 41.10800
H  52.79300 49.37400 41.26300
H  51.31200 51.79200 41.55300
H  53.02900 51.63100 41.63700
H  52.02100 51.39000 43.09600
H  47.21400 51.06100 42.15000
H  46.17200 50.76800 43.57200
H  45.49000 50.64300 41.96400
H  44.10700 45.92700 40.49000
H  41.06200 45.35200 43.89900
H  41.63100 46.44500 45.05100
H  42.05500 44.73200 45.17900
Mg -1.51200 34.37900 26.26900
C  -3.14600 32.68500 28.94500
C  0.23600 36.17600 28.48900
C  -0.18900 36.20300 23.60400
C  -3.52700 32.70000 23.96500
N  -1.49500 34.39300 28.49900
C  -2.29600 33.65200 29.38300
C  -1.96600 34.09800 30.82100
C  -0.89800 35.23500 30.60900
C  -0.68300 35.28600 29.08500
C  -1.43600 36.62100 31.15700
C  -1.52700 32.95900 31.76900
C  -2.46500 32.61800 32.99600
H  -1.79000 32.34100 34.31200
N  -0.05900 35.83300 26.13600
C  0.55900 36.46600 27.16800
C  1.58100 37.38800 26.64300
C  1.35400 37.44800 25.23800
C  0.31900 36.45700 24.91800
C  2.54000 38.11900 27.48600
C  2.16800 38.23600 24.27900
O  2.05200 37.97700 23.03700
C  3.14800 39.11700 24.73000
N  -1.80600 34.40000 24.12000
C  -1.16300 35.21800 23.25700
C  -1.44800 34.75800 21.81300
C  -2.58500 33.62400 21.96000
C  -2.67300 33.54000 23.43600
C  -1.92900 35.80500 20.76900
C  -2.15700 32.36400 21.14800
C  -3.30200 31.47700 20.56100
N  -3.04800 33.01700 26.38700
C  -3.68300 32.35500 25.31500
C  -4.62700 31.40900 25.89400
C  -4.36300 31.43500 27.33200
C  -3.43800 32.46500 27.56600
C  -5.67100 30.64200 25.26700
C  -4.85000 30.82900 28.54800
O  -5.66300 29.94900 28.77400
C  -4.04700 31.68000 29.70500
C  -5.04900 32.47600 30.49300
O  -5.57200 33.48400 30.00000
O  -5.23800 31.95400 31.73600
C  -6.20200 32.69300 32.60400
H  0.87100 36.69900 29.20700
H  0.38800 36.51500 22.73000
H  -4.23600 32.16400 23.33100
H  -2.86000 34.55700 31.24300
H  -0.00100 35.12700 31.21900
H  -2.39200 36.91100 30.72100
H  -0.75500 37.41100 30.83800
H  -1.38500 36.74200 32.23900
H  -0.53400 33.16000 32.17100
H  -1.53000 32.04500 31.17600
H  -2.96300 31.67300 32.78000
H  -3.20200 33.41400 33.09200
H  3.59400 37.98600 27.24300
H  2.37800 37.80200 28.51600
H  2.17600 39.14500 27.42500
H  2.69900 39.87600 25.37100
H  3.59200 39.66500 23.90000
H  3.93000 38.56800 25.25500
H  -0.47800 34.35400 21.52100
H  -3.57800 33.81300 21.55200
H  -1.94200 36.77800 21.26100
H  -2.92000 35.70500 20.32700
H  -1.17300 35.82100 19.98300
H  -1.51200 31.74500 21.77200
H  -1.58300 32.67500 20.27500
H  -4.34200 31.69500 20.80200
H  -3.07200 30.45500 20.86500
H  -3.24600 31.50500 19.47300
H  -5.95000 29.72700 25.78900
H  -5.33900 30.42100 24.25300
H  -6.50100 31.34400 25.17600
H  -3.47300 31.00300 30.33800
H  -7.20400 32.31600 32.40000
H  -6.36900 33.75200 32.40400
H  -5.92800 32.51100 33.64300

