158

Mg -1.68700 17.53600 27.26800
C  -2.38800 15.12200 29.84300
C  -2.66100 19.96700 29.47500
C  -1.55900 19.76500 24.71900
C  -1.47800 14.97900 25.01200
N  -2.52800 17.45800 29.40100
C  -2.66300 16.44600 30.26400
C  -2.95600 17.01900 31.65400
C  -3.47600 18.44100 31.38500
C  -2.86700 18.65600 30.00500
C  -5.02500 18.61500 31.48400
C  -1.70400 16.79300 32.61900
C  -1.46900 17.74600 33.81900
H  -1.01500 17.17400 35.08600
N  -2.03400 19.63600 27.08700
C  -2.21400 20.41900 28.18100
C  -2.19900 21.76800 27.60000
C  -1.74200 21.77200 26.30400
C  -1.74900 20.37400 25.96300
C  -2.51800 22.94200 28.55400
C  -1.45000 22.93400 25.34100
O  -1.02000 22.78100 24.16500
C  -1.39900 24.44400 25.78900
N  -1.83200 17.48700 25.08800
C  -1.69400 18.52300 24.24100
C  -1.59700 17.93700 22.80400
C  -1.41900 16.43700 23.01800
C  -1.56100 16.27200 24.46700
C  -2.67400 18.57700 21.90500
C  -0.06300 15.90700 22.44500
C  -0.18400 14.64500 21.62800
N  -1.76700 15.51700 27.33800
C  -1.71100 14.63000 26.32200
C  -1.76300 13.26100 26.85200
C  -2.01700 13.43000 28.21900
C  -2.03600 14.83700 28.42600
C  -1.65000 12.01000 26.04100
C  -2.25700 12.73900 29.46200
O  -2.15700 11.52500 29.72200
C  -2.34300 13.80800 30.52500
C  -1.12800 13.78500 31.40500
O  -0.01300 14.23500 31.12200
O  -1.53400 13.33900 32.69800
C  -0.45100 13.34100 33.68200
H  -2.99600 20.68800 30.22400
H  -1.36100 20.46900 23.90800
H  -1.32100 14.19300 24.27000
H  -3.63700 16.24400 32.00600
H  -3.00300 19.21800 31.98500
H  -5.50500 18.53500 30.50900
H  -5.12400 19.65600 31.79100
H  -5.51700 17.97200 32.21300
H  -0.80800 16.74200 32.00100
H  -1.77300 15.79700 33.05600
H  -2.44700 18.22300 33.89400
H  -0.67200 18.43800 33.54900
H  -2.77800 22.72200 29.59000
H  -3.40900 23.46200 28.20200
H  -1.69400 23.65600 28.56200
H  -1.46700 24.50500 26.87500
H  -2.29000 24.92100 25.38000
H  -0.42800 24.82300 25.47200
H  -0.66200 18.40500 22.49700
H  -2.29800 15.89700 22.66600
H  -3.67600 18.31000 22.24200
H  -2.51300 18.09900 20.93900
H  -2.53100 19.65700 21.94200
H  0.67700 15.73700 23.22700
H  0.26800 16.68000 21.75100
H  -1.01600 13.97900 21.85800
H  0.64900 13.96900 21.82200
H  -0.11500 14.90900 20.57300
H  -0.76300 12.06000 25.41000
H  -2.50700 11.93100 25.37300
H  -1.55200 11.14100 26.69200
H  -3.27600 13.63300 31.06200
H  -0.10800 12.30600 33.71100
H  -0.86400 13.60900 34.65500
H  0.28300 14.12800 33.51100
Mg 35.46500 48.83100 25.13000
C  36.06700 46.94800 28.12300
C  34.46000 51.40200 27.26900
C  34.66000 50.67900 22.30400
C  36.34500 46.13600 23.23900
N  35.41900 49.13400 27.46900
C  35.67500 48.23200 28.48000
C  35.52000 48.89100 29.82100
C  34.66500 50.19200 29.44800
C  34.86800 50.30000 27.96100
C  33.18100 50.03200 29.80500
C  36.85500 49.09300 30.47600
C  36.87000 49.00900 32.06600
H  35.49100 48.83100 32.78500
N  34.71000 50.72500 24.78400
C  34.42600 51.60600 25.79200
C  34.04900 52.82100 25.17500
C  33.93900 52.63800 23.77000
C  34.51900 51.31300 23.57600
C  33.82700 54.10300 25.90200
C  33.30100 53.61500 22.76300
O  33.29000 53.40000 21.58500
C  32.76900 54.91000 23.15800
N  35.25700 48.44300 23.17200
C  35.03600 49.33000 22.16000
C  35.08200 48.72700 20.75900
C  35.75000 47.33000 21.01900
C  35.75600 47.26100 22.60000
C  33.69600 48.65300 20.08300
C  37.26800 47.19200 20.37100
C  38.44900 47.88800 21.15300
N  35.98700 46.91000 25.47300
C  36.40400 45.91900 24.62900
C  36.90300 44.79700 25.34700
C  36.71300 45.10700 26.72600
C  36.20200 46.42000 26.79200
C  37.31000 43.49400 24.80900
C  37.03600 44.70300 28.09500
O  37.70500 43.74600 28.55300
C  36.46200 45.83100 29.01400
C  35.25900 45.34300 29.72500
O  34.17300 45.05200 29.22700
O  35.60600 45.33400 31.09100
C  34.54900 44.93600 32.00300
H  34.09600 52.25400 27.84700
H  34.46200 51.32200 21.44400
H  36.74500 45.31400 22.64100
H  34.91600 48.15100 30.34600
H  35.03800 51.11900 29.88300
H  32.52000 50.09200 28.94100
H  32.87500 50.91100 30.37200
H  33.05500 49.09700 30.35100
H  37.12800 50.11300 30.20800
H  37.61200 48.41700 30.08000
H  37.33800 49.89400 32.49800
H  37.50900 48.18700 32.38900
H  34.27000 54.95500 25.38500
H  34.22500 54.11700 26.91600
H  32.75700 54.24200 26.05700
H  32.11900 54.91000 24.03300
H  32.14300 55.24300 22.33000
H  33.58600 55.60900 23.34100
H  35.67800 49.43100 20.17900
H  35.10300 46.58400 20.55700
H  33.47600 49.47700 19.40400
H  32.91600 48.45400 20.81700
H  33.63000 47.76700 19.45100
H  37.27500 47.53500 19.33600
H  37.46000 46.12400 20.47600
H  38.88900 48.53800 20.39600
H  39.20200 47.10600 21.24500
H  38.23600 48.30700 22.13700
H  36.74000 42.80500 25.43200
H  38.39900 43.47500 24.84600
H  36.89300 43.43900 23.80300
H  37.18300 46.14300 29.77000
H  34.99800 44.92900 32.99600
H  34.15000 43.95600 31.74300
H  33.85700 45.77400 31.91100

