158

Mg 17.35900 -2.50300 28.50100
C  16.68000 -0.27000 31.25200
C  19.04400 -4.34300 30.66700
C  18.40500 -4.07300 25.88200
C  15.88800 0.01900 26.33000
N  17.62600 -2.35500 30.73300
C  17.24400 -1.44200 31.68900
C  17.68300 -1.78700 33.07300
C  18.73100 -2.91500 32.80800
C  18.44700 -3.24700 31.30500
C  20.19200 -2.68100 33.08500
C  16.51000 -2.17200 33.91200
C  16.57400 -1.80600 35.38000
H  17.90100 -1.30500 35.95400
N  18.38800 -4.22100 28.37100
C  19.03300 -4.87700 29.36300
C  19.68400 -6.01400 28.79400
C  19.44800 -5.97600 27.38800
C  18.73300 -4.70400 27.11600
C  20.46400 -6.94300 29.69800
C  19.84900 -7.04100 26.32800
O  19.57400 -6.99800 25.11200
C  20.70600 -8.17500 26.76700
N  17.03800 -2.08800 26.37900
C  17.65600 -2.88400 25.52300
C  17.62400 -2.36000 24.11400
C  16.64400 -1.16300 24.14900
C  16.49300 -1.08000 25.68200
C  19.05600 -2.14000 23.57700
C  15.27100 -1.45600 23.45900
C  14.68200 -0.39400 22.49700
N  16.43700 -0.62400 28.71000
C  15.89800 0.20500 27.72400
C  15.33700 1.39400 28.34300
C  15.56000 1.27700 29.69500
C  16.26800 0.01100 29.86200
C  14.60900 2.52500 27.64600
C  15.48100 1.92000 30.98600
O  15.03400 3.07200 31.18800
C  16.16500 0.96900 32.09400
C  17.27300 1.60900 32.77600
O  18.48200 1.63000 32.58900
O  16.75200 2.21900 33.97300
C  17.59900 2.79300 35.04500
H  19.82400 -4.72700 31.32800
H  18.95700 -4.57400 25.08400
H  15.40800 0.74000 25.66500
H  18.28000 -1.01100 33.55200
H  18.49800 -3.82500 33.36000
H  20.74600 -2.47900 32.16800
H  20.78000 -3.54900 33.38300
H  20.36300 -1.87700 33.80100
H  16.38500 -3.24600 33.77300
H  15.60400 -1.79100 33.43900
H  16.29500 -2.73500 35.87600
H  15.81200 -1.05200 35.57600
H  21.38700 -7.27100 29.21900
H  19.84300 -7.81300 29.91200
H  20.57300 -6.42300 30.65000
H  20.24700 -8.75800 27.56500
H  21.69700 -7.92900 27.15000
H  20.80700 -8.93100 25.98800
H  17.23100 -3.15200 23.47600
H  17.17600 -0.28700 23.77800
H  19.22200 -1.15700 23.13500
H  19.35900 -2.86500 22.82200
H  19.77700 -2.16900 24.39400
H  14.57600 -1.66500 24.27200
H  15.26700 -2.33800 22.82000
H  13.94200 0.20800 23.02400
H  14.29300 -0.94100 21.63900
H  15.44500 0.31700 22.17900
H  13.73000 2.89300 28.17500
H  14.25100 2.23900 26.65800
H  15.35000 3.31100 27.49700
H  15.38500 0.71100 32.81100
H  17.05300 3.65500 35.42800
H  18.54800 3.20300 34.69900
H  17.67100 2.11100 35.89200
Mg 47.40400 14.37600 27.41800
C  45.41900 14.27400 30.31400
C  49.61500 16.43200 29.10100
C  49.24600 14.30600 24.64000
C  44.88200 12.54600 25.77100
N  47.50300 15.21900 29.45100
C  46.64100 14.95000 30.53100
C  47.13900 15.65000 31.77500
C  48.24700 16.57600 31.25000
C  48.45600 16.05500 29.80500
C  47.98400 18.16600 31.21100
C  47.54600 14.67300 32.90500
C  47.16200 15.21200 34.28200
H  48.03600 14.83900 35.49500
N  49.19000 15.35400 26.93400
C  49.97100 16.07200 27.79100
C  51.19100 16.43500 27.12600
C  51.14700 15.84000 25.81700
C  49.83400 15.09500 25.72000
C  52.31200 17.23800 27.76700
C  52.07000 15.84500 24.70800
O  51.91500 15.17000 23.66900
C  53.36900 16.65800 24.76000
N  46.93100 13.74600 25.38100
C  47.93500 13.75300 24.46200
C  47.52500 13.13500 23.14000
C  46.15200 12.43100 23.53400
C  45.98700 12.86200 24.99100
C  47.42800 14.08000 21.93100
C  46.21800 10.89600 23.33800
C  46.68600 10.09600 24.55800
N  45.56800 13.57800 27.88100
C  44.63100 12.90500 27.09300
C  43.47900 12.55900 27.91300
C  43.73000 13.07100 29.14900
C  45.01200 13.65600 29.13800
C  42.25400 11.85300 27.57700
C  43.19300 13.29800 30.41700
O  42.12600 13.03200 30.87800
C  44.31500 13.98400 31.34000
C  43.67900 15.15600 32.09100
O  43.06300 16.04100 31.48400
O  43.79500 15.14600 33.43600
C  42.97300 16.19100 34.09400
H  50.24900 17.17600 29.58800
H  49.76900 14.18600 23.69000
H  44.22400 11.88200 25.20800
H  46.29500 16.32700 31.91100
H  49.22900 16.32000 31.64600
H  47.20700 18.50300 31.89700
H  47.65600 18.49000 30.22400
H  48.85800 18.80700 31.32100
H  48.61600 14.48000 32.82900
H  47.00800 13.73200 32.79300
H  46.19900 14.75400 34.50800
H  47.05200 16.29300 34.37100
H  52.33200 17.25700 28.85600
H  52.12700 18.29600 27.57900
H  53.34100 17.02300 27.47700
H  54.14900 16.09700 25.27600
H  53.24500 17.65900 25.17100
H  53.69300 16.83000 23.73400
H  48.28000 12.40500 22.85000
H  45.30800 12.82500 22.96700
H  47.87500 15.03700 22.19900
H  46.38300 14.14600 21.62600
H  48.02600 13.66000 21.12200
H  46.88800 10.54800 22.55300
H  45.20500 10.58600 23.08000
H  47.16200 9.15800 24.27100
H  45.83100 9.59900 25.01600
H  47.41600 10.58200 25.20600
H  42.04000 12.10800 26.53900
H  41.47800 12.29000 28.20600
H  42.24500 10.78900 27.81200
H  44.65000 13.28500 32.10600
H  41.99600 16.17300 33.61100
H  43.56200 17.10700 34.06000
H  42.88900 15.93400 35.15000

