158

Mg 48.33400 25.07700 30.01200
C  49.27000 27.32100 32.35100
C  46.65900 23.27600 32.69200
C  47.53200 22.46700 27.97200
C  50.22500 26.35200 27.54300
N  47.94900 25.26200 32.23900
C  48.41800 26.33300 32.95900
C  48.09200 26.18500 34.48700
C  47.33100 24.79300 34.53200
C  47.30100 24.41500 33.08600
C  47.98600 23.75600 35.49200
C  47.21600 27.37100 34.92600
C  47.40300 27.77500 36.41400
H  46.20100 27.65500 37.42900
N  47.09000 23.24200 30.28200
C  46.47700 22.71400 31.42500
C  45.83900 21.41900 31.04200
C  45.94500 21.25100 29.63300
C  46.85200 22.36900 29.21200
C  44.91800 20.62200 32.00600
C  45.29400 20.26600 28.65500
O  45.45500 20.28800 27.45800
C  44.36100 19.28000 29.17800
N  48.75700 24.51800 27.95000
C  48.38000 23.40700 27.35400
C  48.85100 23.23800 25.90600
C  49.81300 24.48400 25.86200
C  49.52000 25.21600 27.13000
C  49.53200 21.86000 25.48700
C  49.70100 25.42500 24.60000
C  50.97600 25.45400 23.85600
N  49.59700 26.52300 29.93200
C  50.24900 27.04300 28.81500
C  50.87000 28.28500 29.33400
C  50.54800 28.41000 30.67300
C  49.72400 27.31200 30.98300
C  51.69500 29.23600 28.40700
C  50.75100 29.23600 31.83900
O  51.41000 30.28100 32.05500
C  50.09100 28.43000 33.00400
C  51.13100 28.00000 34.01400
O  51.99800 27.25200 33.79400
O  51.05400 28.68400 35.15900
C  52.09700 28.59500 36.22000
H  46.14100 22.68100 33.44700
H  47.31900 21.59600 27.35000
H  50.92900 26.84300 26.86800
H  49.04600 26.09500 35.00800
H  46.30200 24.86600 34.88500
H  48.50800 22.95000 34.97800
H  47.23200 23.25600 36.09900
H  48.66000 24.32100 36.13700
H  46.21100 26.96100 34.82600
H  47.26800 28.25400 34.29000
H  47.74900 28.80500 36.32200
H  48.26300 27.23400 36.81000
H  43.90900 20.82900 31.64900
H  44.98800 21.06000 33.00100
H  45.02700 19.53800 32.04700
H  43.46000 19.82400 29.46000
H  44.70000 18.74000 30.06200
H  44.11100 18.43900 28.53100
H  48.01300 23.38400 25.22400
H  50.85100 24.17000 25.75900
H  50.58400 22.07300 25.67700
H  49.51300 21.50600 24.45600
H  49.28800 21.05800 26.18300
H  49.40000 26.45900 24.77100
H  48.95200 24.94800 23.96800
H  51.79500 25.89700 24.42200
H  50.73700 26.03800 22.96700
H  51.35400 24.50400 23.47700
H  51.12300 29.95900 27.82600
H  52.24400 28.64500 27.67400
H  52.36500 29.78100 29.07100
H  49.47100 29.14900 33.54000
H  51.68300 28.02900 37.05400
H  52.34200 29.60300 36.55300
H  53.05000 28.17600 35.89500
Mg -1.69000 33.89100 26.53900
C  -3.51500 32.39700 29.24000
C  -0.27400 35.95100 28.65500
C  -0.40000 35.37000 23.82300
C  -3.55500 31.74700 24.43100
N  -2.03800 34.27700 28.73100
C  -2.69800 33.51900 29.58700
C  -2.21800 33.80100 31.02000
C  -1.18800 35.02100 30.83100
C  -1.12400 35.06700 29.32000
C  -1.78000 36.36400 31.39400
C  -1.59100 32.55800 31.66000
C  -2.33100 31.86300 32.83500
H  -1.81500 32.09200 34.23500
N  -0.50600 35.44700 26.26400
C  0.01000 36.16600 27.29900
C  1.05100 37.11700 26.72500
C  0.91000 37.01500 25.27800
C  -0.01300 35.90100 25.07100
C  1.79200 37.98600 27.66600
C  1.63200 37.82600 24.24300
O  1.46400 37.68200 23.03100
C  2.89000 38.58500 24.70600
N  -2.00300 33.66600 24.44900
C  -1.29500 34.34100 23.49200
C  -1.60000 33.81600 22.01600
C  -2.48600 32.54500 22.28900
C  -2.71400 32.66200 23.81800
C  -2.34500 34.80500 21.07200
C  -1.75300 31.24100 21.98400
C  -2.69000 30.07900 21.60600
N  -3.28500 32.36200 26.77100
C  -3.91500 31.62700 25.77400
C  -4.85400 30.74900 26.35900
C  -4.74800 30.93700 27.78400
C  -3.77000 31.94100 27.93300
C  -5.71000 29.78000 25.64100
C  -5.20100 30.50600 29.06900
O  -5.88000 29.53400 29.33500
C  -4.34900 31.49200 30.12700
C  -5.42900 32.24100 30.87800
O  -5.97200 33.31200 30.57200
O  -5.75000 31.53500 32.02000
C  -6.58600 32.36900 32.96600
H  0.31100 36.52300 29.37800
H  0.15800 35.77600 22.97700
H  -4.04700 31.14400 23.66500
H  -3.08100 34.11900 31.60400
H  -0.25500 34.76800 31.33500
H  -2.83200 36.26700 31.66300
H  -1.87400 37.08200 30.57900
H  -1.18800 36.87400 32.15400
H  -0.54700 32.70900 31.93700
H  -1.33600 31.83900 30.88100
H  -2.36000 30.79400 32.62600
H  -3.32800 32.29100 32.72300
H  1.47000 37.85500 28.69900
H  1.37100 38.98300 27.53600
H  2.88100 38.00900 27.63100
H  2.83900 39.36600 25.46500
H  3.27900 39.06400 23.80700
H  3.58900 37.80500 25.00800
H  -0.64900 33.52000 21.57300
H  -3.47200 32.61400 21.83000
H  -2.31700 35.73700 21.63800
H  -3.37800 34.52500 20.86600
H  -1.67000 34.99200 20.23700
H  -1.32100 30.82700 22.89500
H  -0.99000 31.34300 21.21200
H  -2.90200 29.44500 22.46700
H  -2.08200 29.47700 20.93100
H  -3.63600 30.30000 21.11100
H  -5.23000 29.64300 24.67100
H  -6.71100 30.19800 25.54100
H  -5.74600 28.85600 26.21900
H  -3.86700 30.81400 30.83100
H  -5.91600 32.85000 33.67900
H  -7.27800 31.70000 33.47600
H  -7.18800 33.16500 32.52700

