158

Mg -1.52700 17.27000 26.16200
C  -1.83300 14.94500 28.86500
C  -2.05100 19.77800 28.32600
C  -1.46900 19.24000 23.49800
C  -1.55200 14.37700 23.96300
N  -2.19900 17.28800 28.42100
C  -1.97100 16.34100 29.30200
C  -2.01600 16.82300 30.68200
C  -2.18100 18.37500 30.52800
C  -2.19300 18.52400 29.02300
C  -3.51000 18.99200 31.03300
C  -0.81400 16.24200 31.62400
C  -0.45000 17.17100 32.78200
H  -0.28300 16.55900 34.19100
N  -1.76400 19.29600 25.90200
C  -1.81200 20.18500 26.97100
C  -1.78000 21.50500 26.40400
C  -1.45500 21.33800 25.01300
C  -1.59100 19.93500 24.72200
C  -2.10400 22.72300 27.30300
C  -1.10200 22.39700 23.97000
O  -0.81900 22.06000 22.79500
C  -0.98700 23.88300 24.44800
N  -1.52000 16.88600 24.06100
C  -1.52700 17.89100 23.15700
C  -1.61800 17.37200 21.65000
C  -1.35400 15.82800 21.93600
C  -1.53200 15.68000 23.41200
C  -3.01200 17.73100 20.83100
C  -0.03100 15.24200 21.37600
C  1.20000 15.67100 22.22200
N  -1.65000 15.10000 26.32300
C  -1.63800 14.10500 25.31100
C  -1.70300 12.79100 25.93300
C  -1.72100 13.02800 27.30000
C  -1.77400 14.47600 27.49400
C  -1.75700 11.43700 25.27400
C  -1.83600 12.43100 28.62900
O  -1.80000 11.26400 28.92600
C  -1.87300 13.59300 29.64300
C  -0.82800 13.34500 30.63700
O  0.39200 13.52800 30.48100
O  -1.31100 12.76300 31.80200
C  -0.31000 12.44300 32.86100
H  -2.10000 20.63700 28.99900
H  -1.58500 19.83700 22.59000
H  -1.44600 13.53000 23.28200
H  -2.89700 16.35100 31.11900
H  -1.39700 18.99400 30.96400
H  -4.24100 18.68400 30.28500
H  -3.41500 20.07200 31.13700
H  -3.72500 18.60200 32.02800
H  0.06600 16.16400 30.98500
H  -1.11400 15.28700 32.05600
H  -1.21600 17.92900 32.94300
H  0.52200 17.62600 32.59200
H  -1.37100 23.50900 27.12000
H  -1.97400 22.63500 28.38100
H  -3.13300 23.03700 27.12400
H  -0.02300 24.03000 24.93400
H  -1.90000 24.25500 24.91400
H  -0.94700 24.39500 23.48700
H  -0.74500 17.63500 21.05200
H  -2.20900 15.29700 21.51600
H  -3.40100 18.66300 21.24200
H  -3.75300 16.93900 20.93900
H  -2.86300 17.93800 19.77100
H  0.23300 15.75800 20.45200
H  -0.13000 14.17500 21.17700
H  0.96100 16.47800 22.91400
H  2.02000 15.99200 21.58000
H  1.54100 14.84800 22.85000
H  -0.86300 11.00200 24.82700
H  -2.50800 11.42700 24.48500
H  -2.15600 10.84300 26.09600
H  -2.84100 13.59300 30.14500
H  0.72600 12.27900 32.56400
H  -0.64500 11.55000 33.38900
H  -0.34300 13.28400 33.55400
Mg 47.37100 34.56200 27.12100
C  45.81800 32.84600 29.79800
C  47.58400 37.27300 29.34300
C  48.59100 36.42400 24.55100
C  46.83900 31.96300 25.03300
N  47.07300 34.96000 29.44500
C  46.38000 34.08600 30.25000
C  46.34500 34.55900 31.72900
C  46.49400 36.13400 31.49600
C  47.14500 36.15800 30.01200
C  45.25500 37.04900 31.66800
C  47.59300 33.92600 32.56500
C  47.34900 33.35100 33.87000
H  48.13800 34.04900 34.97800
N  48.12300 36.56100 27.02600
C  48.10500 37.48700 28.04200
C  48.66700 38.72800 27.49100
C  48.95100 38.54600 26.15200
C  48.60800 37.14000 25.81800
C  49.10300 39.90700 28.44500
C  49.56000 39.56100 25.22600
O  50.05200 39.27800 24.11600
C  49.91000 41.03200 25.76300
N  47.67300 34.27800 25.07400
C  48.13600 35.15000 24.17800
C  48.15000 34.69500 22.72400
C  47.62000 33.20700 22.97900
C  47.41800 33.10300 24.49300
C  47.15700 35.60000 21.90500
C  48.57400 32.16400 22.43600
C  49.65500 31.72000 23.39100
N  46.52600 32.77800 27.31300
C  46.41200 31.81400 26.35300
C  45.68500 30.67300 26.95200
C  45.40800 31.05500 28.30000
C  46.01400 32.33300 28.44900
C  45.34200 29.39000 26.29300
C  44.68900 30.66500 29.49600
O  44.12900 29.56600 29.74700
C  44.78200 31.92600 30.45200
C  45.13000 31.28600 31.74900
O  46.18800 30.87600 32.12400
O  43.98900 31.27500 32.42700
C  44.07900 30.57900 33.75000
H  47.60200 38.17800 29.95500
H  49.09800 37.00300 23.77600
H  46.66100 31.02900 24.49500
H  45.43100 34.30200 32.26500
H  47.26900 36.60600 32.10000
H  45.20000 37.70600 32.53600
H  44.37200 36.41200 31.61400
H  45.23600 37.73100 30.81800
H  48.36200 34.69800 32.57400
H  47.98600 33.15600 31.90000
H  47.67500 32.31600 33.96600
H  46.28200 33.36600 34.09400
H  49.25000 39.58400 29.47600
H  48.50000 40.80100 28.28800
H  50.11600 40.16200 28.13600
H  49.02500 41.48000 26.21500
H  50.22900 41.52500 24.84400
H  50.75800 41.05500 26.44700
H  49.14700 34.75500 22.28800
H  46.59600 33.12600 22.61500
H  46.86800 36.42000 22.56200
H  46.31300 35.07400 21.46100
H  47.78800 36.11500 21.18000
H  49.00000 32.58900 21.52700
H  48.00900 31.26900 22.17400
H  50.52600 31.54200 22.76100
H  49.44500 30.79600 23.92900
H  49.90400 32.58100 24.01300
H  44.75600 28.68700 26.88500
H  46.22100 28.87200 25.90700
H  44.69900 29.59300 25.43700
H  43.83300 32.46100 30.43500
H  44.51900 29.59800 33.57100
H  43.11300 30.56300 34.25700
H  44.73000 31.10900 34.44500

