158

Mg 25.67200 1.32900 29.27200
C  27.76600 0.80700 32.04200
C  23.04700 1.70700 31.38000
C  23.80400 1.44500 26.58000
C  28.40600 0.30200 27.24200
N  25.47400 1.31000 31.40500
C  26.48500 1.22900 32.32800
C  25.96000 1.58400 33.68200
C  24.38300 1.47500 33.54000
C  24.24100 1.51300 32.03300
C  23.68200 0.19700 34.21600
C  26.42300 2.96100 34.19600
C  27.50500 3.03300 35.31400
H  27.16100 3.80100 36.59200
N  23.61600 1.57500 29.04000
C  22.71700 1.73600 30.00900
C  21.41300 2.02400 29.36800
C  21.71100 2.03700 27.94500
C  23.06500 1.71900 27.76400
C  20.18500 2.37700 30.11600
C  20.70300 2.27300 26.84300
O  20.97200 2.41600 25.62500
C  19.24100 2.35700 27.15000
N  25.92000 0.56700 27.35300
C  25.05000 0.88700 26.43700
C  25.52200 0.64600 24.99300
C  27.09600 0.57300 25.15800
C  27.12000 0.45900 26.71000
C  24.84600 -0.55000 24.43700
C  27.78100 1.90600 24.72800
C  29.04600 1.66400 23.83900
N  27.69900 0.61100 29.46900
C  28.74000 0.32400 28.58700
C  29.95300 0.06300 29.24100
C  29.62300 0.21900 30.64600
C  28.24000 0.53400 30.68100
C  31.26400 -0.24000 28.61100
C  30.20300 0.17400 31.95700
O  31.30700 -0.10100 32.38200
C  28.98300 0.65000 32.95700
C  28.90600 -0.27000 34.16600
O  28.28300 -1.28500 34.21900
O  29.56100 0.29600 35.18700
C  29.38800 -0.41700 36.43700
H  22.22300 1.91400 32.06600
H  23.26700 1.47700 25.63000
H  29.28500 0.20100 26.60200
H  26.28300 0.85000 34.42100
H  24.02000 2.37900 34.02900
H  22.97900 0.61500 34.93800
H  24.37700 -0.44100 34.76200
H  23.29300 -0.48500 33.46000
H  25.61100 3.64900 34.43300
H  26.78000 3.50000 33.31900
H  28.36800 3.55600 34.90300
H  27.78000 2.01100 35.57600
H  19.68100 3.24600 29.69300
H  20.35200 2.65400 31.15700
H  19.41300 1.60900 30.05900
H  18.88600 1.49900 27.72100
H  18.69900 2.49300 26.21400
H  19.17100 3.30100 27.69100
H  25.27800 1.58800 24.50200
H  27.57500 -0.33500 24.79100
H  24.80400 -1.32300 25.20400
H  25.29300 -1.05500 23.58000
H  23.84300 -0.23400 24.15200
H  28.14500 2.57000 25.51300
H  27.14500 2.44300 24.02400
H  29.84700 2.33000 24.16000
H  28.81300 1.76100 22.77900
H  29.45600 0.65700 23.92200
H  31.09000 -0.97500 27.82500
H  31.91200 -0.74200 29.32800
H  31.70900 0.63300 28.13400
H  29.24200 1.61300 33.39700
H  29.69100 -1.46400 36.39600
H  28.33700 -0.35400 36.71700
H  29.92200 0.05000 37.26400
Mg 16.86100 52.06500 26.13000
C  18.49200 50.74500 28.91900
C  14.32000 53.01200 28.25900
C  15.09000 53.03500 23.48000
C  19.37800 50.77800 24.06700
N  16.50500 52.03600 28.45500
C  17.32400 51.48800 29.30200
C  16.85100 51.77700 30.78200
C  15.40600 52.18500 30.55300
C  15.35600 52.49600 29.02700
C  14.33300 51.12200 31.00200
C  17.85200 52.75200 31.46900
C  18.17700 52.45100 32.92700
H  17.05000 51.79600 33.80300
N  15.03000 52.91800 25.91100
C  14.10600 53.21400 26.89300
C  12.91500 53.85500 26.30300
C  13.24000 53.97800 24.94800
C  14.54300 53.33300 24.72100
C  11.80400 54.49200 27.11900
C  12.37300 54.53500 23.82900
O  12.68300 54.54500 22.65400
C  11.09500 55.07600 24.17500
N  17.14800 51.88100 24.07500
C  16.31900 52.41800 23.16300
C  16.88000 52.29900 21.74500
C  18.30700 51.74800 21.95200
C  18.33000 51.46000 23.41400
C  15.99200 51.44200 20.78700
C  19.43300 52.70400 21.48900
C  19.50500 54.19200 21.84800
N  18.53300 50.82300 26.32800
C  19.52500 50.50500 25.43600
C  20.59800 49.74600 26.09900
C  20.18900 49.80200 27.51500
C  18.94400 50.53900 27.57800
C  21.88200 49.20100 25.50600
C  20.57000 49.44300 28.85500
O  21.51500 48.78600 29.23100
C  19.49700 50.05200 29.82200
C  18.94500 48.93000 30.54800
O  18.16800 48.11500 30.08300
O  19.29800 49.03800 31.84300
C  18.75800 48.10900 32.82500
H  13.49100 53.24000 28.93200
H  14.59200 53.10800 22.51100
H  20.28800 50.64200 23.48000
H  16.88400 50.80800 31.28000
H  15.10900 53.08800 31.08600
H  13.68400 51.60100 31.73500
H  14.89600 50.26000 31.36000
H  13.68900 50.73400 30.21300
H  17.49900 53.78300 31.48400
H  18.81800 52.65700 30.97200
H  18.37700 53.34700 33.51400
H  19.06200 51.82200 32.82100
H  12.06000 54.45500 28.17800
H  10.88800 53.90700 27.03900
H  11.64500 55.52200 26.79900
H  10.37800 54.39800 24.63800
H  10.53200 55.02900 23.24300
H  11.17900 56.08600 24.57700
H  16.91500 53.34900 21.45400
H  18.41800 50.75000 21.52900
H  16.51400 50.84300 20.04100
H  15.42700 51.97900 20.02400
H  15.32500 50.76600 21.32200
H  19.40900 52.87600 20.41300
H  20.37700 52.20300 21.70400
H  20.22900 54.35200 22.64700
H  18.55000 54.52600 22.25200
H  19.84400 54.72700 20.96100
H  21.94400 49.25800 24.41900
H  22.09400 48.14400 25.66900
H  22.73900 49.66100 25.99700
H  20.03800 50.69500 30.51700
H  19.28800 47.15900 32.76600
H  17.67200 48.02100 32.84400
H  18.96400 48.48900 33.82600

