158

Mg 44.60100 2.89200 47.26600
C  42.70400 5.69500 46.69300
C  41.92000 0.82000 46.53500
C  46.64800 0.19000 46.82400
C  47.49300 4.92100 47.13700
N  42.66600 3.30200 46.60000
C  41.96800 4.48700 46.60600
C  40.47100 4.33900 46.36800
C  40.28000 2.78400 46.50300
C  41.70300 2.22200 46.52800
C  39.53400 2.42200 47.92800
C  39.96400 4.93600 45.01200
C  40.53700 4.28000 43.70500
H  41.44900 5.12700 42.75700
N  44.35000 0.78000 46.88000
C  43.11600 0.16100 46.58600
C  43.33200 -1.27500 46.33900
C  44.70500 -1.53900 46.39100
C  45.35000 -0.16800 46.69800
C  42.22100 -2.32000 46.00700
C  45.38800 -2.82400 46.19500
O  44.84200 -3.90600 46.07300
C  46.88600 -3.02600 46.22500
N  46.77900 2.59700 47.07300
C  47.27900 1.41100 46.93500
C  48.75700 1.48900 47.18900
C  49.08300 2.93500 46.97500
C  47.72000 3.52000 47.07900
C  49.30800 0.95600 48.49800
C  49.89800 3.35300 45.71800
C  51.38200 3.68000 45.91600
N  45.02200 4.94300 47.15400
C  46.24700 5.60700 47.03600
C  46.00700 7.02200 46.95800
C  44.59700 7.15600 46.78200
C  44.07000 5.82100 46.87000
C  47.01300 8.17000 46.93100
C  43.47200 8.00100 46.49000
O  43.38100 9.25400 46.48100
C  42.21400 7.05900 46.60600
C  41.24800 7.46800 47.64800
O  41.23300 7.02800 48.82300
O  40.30600 8.30800 47.11000
C  39.02800 8.62100 47.81400
H  41.03100 0.18600 46.50300
H  47.27400 -0.68500 46.63800
H  48.35700 5.58500 47.20300
H  40.03400 4.95900 47.15100
H  39.72000 2.25200 45.73400
H  39.17900 3.29700 48.47300
H  40.14600 2.00000 48.72500
H  38.69700 1.77600 47.66200
H  40.14300 6.01000 44.95900
H  38.88800 4.77300 44.95900
H  39.74000 4.24200 42.96200
H  40.91300 3.27000 43.86900
H  41.29500 -1.85500 45.67000
H  41.91700 -2.88700 46.88600
H  42.32400 -3.03500 45.19100
H  47.47300 -2.46100 45.50100
H  47.15100 -4.06500 46.03300
H  47.14700 -2.70700 47.23400
H  49.17700 0.86400 46.40100
H  49.64800 3.23600 47.85800
H  48.43400 0.80500 49.13200
H  50.00700 1.52300 49.11300
H  49.69200 -0.02600 48.22100
H  49.40300 4.27500 45.41200
H  49.98700 2.48500 45.06400
H  51.60300 3.70900 46.98300
H  51.66100 4.64700 45.49600
H  52.07800 2.98800 45.44100
H  47.24300 8.33900 47.98300
H  46.57900 9.07800 46.51300
H  47.95100 7.86300 46.46900
H  41.61100 7.15800 45.70300
H  38.27700 8.14500 47.18300
H  38.76600 9.67900 47.81000
H  38.99500 8.30100 48.85600
Mg 36.97900 49.01700 24.99800
C  36.84300 47.18600 28.07800
C  36.22900 51.83800 26.74900
C  36.80500 50.70000 22.12200
C  37.41900 46.00200 23.29300
N  36.44200 49.41200 27.16600
C  36.53800 48.58500 28.19900
C  36.21600 49.26800 29.57000
C  35.73200 50.72800 29.11100
C  36.23800 50.69300 27.56500
C  34.21500 50.91800 29.18400
C  37.36700 49.31900 30.47600
C  37.02900 49.56600 31.98600
H  35.60500 49.63100 32.41200
N  36.57800 51.04500 24.56200
C  36.40000 52.09300 25.41800
C  36.40500 53.33400 24.71900
C  36.59100 52.99900 23.35100
C  36.66300 51.51200 23.28600
C  36.24800 54.67500 25.39500
C  36.56800 53.86100 22.12100
O  36.78600 53.54400 20.99100
C  36.36900 55.31400 22.25200
N  36.81900 48.40900 22.98700
C  36.89700 49.26300 21.95600
C  37.15200 48.64900 20.56400
C  37.42000 47.15300 21.07900
C  37.18300 47.16300 22.55700
C  36.02400 48.69300 19.50100
C  38.90100 46.68800 20.80300
C  39.10800 45.20700 20.32000
N  37.15800 47.03300 25.55300
C  37.32300 45.92600 24.70900
C  37.44700 44.76800 25.52400
C  37.28700 45.26700 26.86300
C  37.08700 46.60700 26.79200
C  37.62300 43.35100 25.04800
C  37.32500 44.84400 28.23800
O  37.47400 43.76400 28.77000
C  37.10500 46.08100 29.11700
C  35.99400 45.99800 30.18900
O  34.83800 45.80800 29.94700
O  36.48200 45.78700 31.50600
C  35.51600 45.24500 32.46000
H  35.95800 52.68200 27.38600
H  36.86800 51.15300 21.13100
H  37.43400 45.04000 22.77800
H  35.38800 48.64300 29.90300
H  36.19900 51.55900 29.64100
H  33.91000 51.79300 29.75700
H  33.68100 50.01400 29.47700
H  33.93900 50.93700 28.13000
H  37.97100 50.17400 30.17100
H  37.97700 48.44900 30.23400
H  37.51300 50.46500 32.36900
H  37.48700 48.74500 32.53800
H  36.26200 54.48700 26.46800
H  35.36500 55.24800 25.11000
H  37.10300 55.29600 25.13100
H  36.96600 55.69800 23.07900
H  35.32700 55.52900 22.49100
H  36.57800 55.79800 21.29800
H  38.10200 48.97500 20.14000
H  36.78700 46.32600 20.75700
H  36.36000 48.99200 18.50800
H  35.31400 49.45400 19.82700
H  35.43200 47.77800 19.52200
H  39.57100 46.83800 21.65000
H  39.24200 47.32300 19.98600
H  38.19900 44.68900 20.01400
H  39.53200 44.62500 21.13800
H  39.83600 45.19500 19.50900
H  37.72100 42.73300 25.94100
H  38.41500 43.33900 24.29800
H  36.64300 43.13900 24.62200
H  38.09900 46.02400 29.56300
H  35.13900 46.09100 33.03500
H  36.11000 44.60200 33.10900
H  34.66100 44.72800 32.02400

