158

Mg 9.51600 3.57100 27.57200
C  10.53200 1.84300 30.38100
C  7.61200 5.62000 29.68600
C  8.04900 4.91000 24.80800
C  10.88700 1.03800 25.52800
N  9.12600 3.72500 29.81300
C  9.64900 2.89100 30.75200
C  9.51600 3.53400 32.13700
C  8.54100 4.72600 31.82900
C  8.40800 4.72100 30.40500
C  7.13400 4.76100 32.48200
C  10.85300 4.08000 32.82200
C  10.59700 4.88200 34.06900
H  11.37500 4.26000 35.28600
N  8.29100 5.18600 27.28000
C  7.54800 5.85500 28.30700
C  6.73800 6.88500 27.64200
C  6.90100 6.74900 26.24400
C  7.81800 5.60100 26.02300
C  5.87200 7.79100 28.42400
C  6.30500 7.52600 25.09100
O  6.69000 7.42200 23.88800
C  5.30000 8.53400 25.44900
N  9.37900 2.99600 25.42500
C  8.78400 3.70500 24.55500
C  8.82300 2.94200 23.16500
C  9.95400 1.99000 23.38000
C  10.09400 1.96200 24.82300
C  7.44800 2.32500 22.79500
C  11.30300 2.39600 22.68800
C  12.07900 1.31500 22.02200
N  10.54500 1.82200 27.83600
C  11.07000 0.91100 26.94600
C  11.61100 -0.22800 27.63800
C  11.58000 0.17600 29.00800
C  10.85500 1.36700 29.04100
C  12.15000 -1.50000 27.10600
C  11.91400 -0.20400 30.37400
O  12.63100 -1.13500 30.76900
C  11.28000 0.87800 31.28000
C  10.44600 0.24400 32.39900
O  9.49600 -0.51000 32.27100
O  10.82900 0.74700 33.60900
C  10.07400 0.15600 34.76200
H  7.09300 6.35500 30.30400
H  7.34000 5.26400 24.05700
H  11.48600 0.31800 24.96700
H  9.11100 2.83400 32.86900
H  9.09400 5.65300 31.98300
H  6.55700 4.25100 31.71100
H  6.76700 5.76100 32.71000
H  6.97700 4.18500 33.39400
H  11.45300 4.61700 32.08700
H  11.52800 3.26200 33.07200
H  9.53400 4.89400 34.30800
H  10.99400 5.89500 33.99900
H  5.67400 7.63200 29.48400
H  4.89900 7.87400 27.94000
H  6.31300 8.78600 28.36900
H  5.73300 9.22100 26.17600
H  4.45100 7.98100 25.85200
H  4.88100 8.99600 24.55500
H  9.13700 3.77400 22.53400
H  9.82600 0.93600 23.13300
H  6.69700 2.30300 23.58400
H  7.71300 1.29700 22.54700
H  7.15000 2.84200 21.88300
H  11.99600 2.76100 23.44600
H  11.15300 3.19600 21.96300
H  11.41800 0.86000 21.28400
H  12.47400 0.63000 22.77200
H  12.96500 1.74000 21.54900
H  12.97100 -1.77600 27.76700
H  12.51800 -1.47000 26.08100
H  11.37400 -2.26100 27.19700
H  12.12500 1.39100 31.74000
H  10.28000 -0.91400 34.75400
H  9.00200 0.32800 34.85500
H  10.55800 0.53600 35.66200
Mg 46.94400 24.37600 27.75700
C  47.76400 26.75400 30.31900
C  46.38700 22.06600 30.28400
C  46.49600 22.08000 25.35000
C  47.90600 26.76700 25.42400
N  47.00400 24.45600 30.05000
C  47.22700 25.58900 30.88600
C  47.15500 25.16300 32.38200
C  46.67800 23.65400 32.31400
C  46.73300 23.37000 30.77100
C  47.52900 22.67700 33.06400
C  46.21200 26.09700 33.20300
C  46.65700 26.43200 34.66400
H  45.59400 26.35500 35.73500
N  46.48000 22.28200 27.78400
C  46.29500 21.56000 28.94800
C  45.92600 20.24300 28.46400
C  46.07400 20.17900 27.08400
C  46.35100 21.52800 26.63400
C  45.64000 19.03300 29.41300
C  45.87900 19.02800 26.17000
O  46.16600 19.02600 24.94400
C  45.20300 17.75000 26.58800
N  47.29000 24.38700 25.74600
C  46.84400 23.44400 24.94400
C  46.79200 23.85500 23.45000
C  47.27400 25.41500 23.49100
C  47.56900 25.50300 24.97900
C  47.76200 23.07900 22.50700
C  46.23200 26.47400 23.08900
C  44.86000 26.61500 23.86100
N  47.77100 26.26700 27.81000
C  48.12900 27.13100 26.75300
C  48.62000 28.35200 27.28500
C  48.57700 28.25200 28.68600
C  47.93200 27.02400 28.91300
C  49.16900 29.56400 26.58000
C  48.69300 28.90200 29.90900
O  48.99800 30.03600 30.21700
C  48.24200 28.02900 31.00300
C  49.28100 27.81400 32.15600
O  50.23600 27.07600 32.07700
O  49.02500 28.59100 33.26300
C  50.07500 28.33400 34.26000
H  45.99300 21.48100 31.11800
H  46.32500 21.37000 24.53900
H  48.12000 27.59800 24.74800
H  48.18500 25.29100 32.71400
H  45.67600 23.61800 32.74200
H  46.90500 22.16200 33.79500
H  48.36800 23.21200 33.50900
H  47.96900 21.84500 32.51400
H  45.29200 25.51500 33.26400
H  46.00400 27.06400 32.74700
H  47.15500 27.39400 34.77700
H  47.47400 25.74600 34.88600
H  46.23500 18.16800 29.11800
H  44.59000 18.74800 29.35800
H  45.85300 19.14700 30.47600
H  45.78300 17.18500 27.31700
H  45.19900 17.11100 25.70400
H  44.19600 18.02200 26.90600
H  45.73400 23.80000 23.19200
H  48.20200 25.66200 22.97500
H  47.35300 23.12800 21.49800
H  47.71000 22.03700 22.82200
H  48.78400 23.45600 22.48300
H  45.96400 26.19200 22.07100
H  46.75500 27.41000 22.89300
H  44.75100 25.98600 24.74400
H  44.01300 26.50700 23.18300
H  44.66800 27.58000 24.32800
H  48.62400 30.49600 26.72900
H  49.31700 29.45200 25.50600
H  50.18100 29.70800 26.95700
H  47.46700 28.69500 31.38400
H  50.13000 27.30400 34.61100
H  49.78200 28.89000 35.15100
H  51.07700 28.67500 33.99900

