158

Mg 53.23900 24.37600 45.27400
C  50.83600 26.68600 44.20700
C  51.22800 21.90100 44.05200
C  55.85800 22.24300 45.34500
C  55.39600 27.03700 45.91000
N  51.20500 24.38100 44.32900
C  50.40800 25.45400 43.95000
C  49.29000 24.89700 43.04500
C  49.30900 23.40700 43.32900
C  50.71300 23.18700 43.89300
C  48.20900 22.99800 44.38400
C  49.42800 25.09800 41.49900
C  48.23300 25.65200 40.66200
H  48.02000 25.06700 39.30300
N  53.51000 22.25900 44.79200
C  52.55900 21.40700 44.33700
C  52.99600 20.04000 44.35100
C  54.34200 20.09600 44.74700
C  54.66100 21.55800 44.93100
C  52.20500 18.84400 43.90900
C  55.33900 18.87400 44.91200
O  55.05500 17.72600 44.54100
C  56.63800 18.94600 45.48900
N  55.35000 24.65200 45.39000
C  56.15800 23.53500 45.60600
C  57.48900 23.89800 46.18400
C  57.39400 25.43100 46.45900
C  56.03800 25.77900 45.81900
C  58.08400 23.03500 47.35100
C  58.46700 26.36300 45.97900
C  59.49400 26.67400 47.09600
N  53.19400 26.39200 45.33100
C  54.05100 27.35600 45.66500
C  53.46000 28.63200 45.64200
C  52.20000 28.42400 45.07300
C  52.10300 27.03400 44.87100
C  54.07500 29.89200 46.16300
C  51.01700 29.09400 44.66000
O  50.68700 30.25700 44.78300
C  50.16900 27.99900 43.86400
C  50.17000 28.41700 42.42700
O  51.07400 28.22600 41.58900
O  48.91000 28.93200 42.08600
C  48.81500 29.53900 40.75500
H  50.60600 21.04200 43.79300
H  56.64800 21.51500 45.54300
H  55.92100 27.91400 46.29400
H  48.36500 25.38600 43.35100
H  49.17500 22.73600 42.48000
H  48.22300 23.77500 45.14900
H  48.59500 22.11300 44.88900
H  47.23600 22.82800 43.92400
H  49.76900 24.11800 41.16500
H  50.19600 25.80000 41.17400
H  48.37400 26.70900 40.43900
H  47.25100 25.56000 41.12500
H  51.40700 19.22100 43.26900
H  51.71700 18.30000 44.71700
H  52.87200 18.20500 43.33000
H  57.28800 19.64000 44.95600
H  57.06000 17.94100 45.48800
H  56.54300 19.37600 46.48700
H  58.18800 23.79300 45.35400
H  57.13500 25.39400 47.51700
H  57.36700 22.26600 47.63900
H  58.44100 23.54300 48.24700
H  58.93000 22.45900 46.97700
H  58.08400 27.27600 45.52400
H  58.99800 25.85200 45.17600
H  59.73700 27.73300 47.18800
H  60.45400 26.23100 46.83000
H  59.33900 26.50500 48.16100
H  53.48600 30.75200 45.84600
H  55.11800 29.78700 45.86600
H  53.97100 29.89700 47.24800
H  49.12800 27.98800 44.18700
H  48.73100 30.59300 41.01800
H  47.82900 29.33400 40.33700
H  49.58400 29.34200 40.00800
Mg 27.13700 51.20200 26.00900
C  25.15700 52.21100 28.77200
C  29.46400 49.89700 28.15300
C  28.76700 50.18000 23.42700
C  24.99100 53.01000 24.00500
N  27.25500 51.14100 28.18000
C  26.35000 51.53200 29.15800
C  26.93500 51.34100 30.55600
C  28.36300 50.64800 30.28700
C  28.38700 50.67800 28.75200
C  29.57400 51.29800 31.02000
C  25.93600 50.55100 31.56500
C  25.62800 51.35300 32.84500
H  26.73900 51.59800 33.91400
N  28.92900 50.19000 25.81700
C  29.75000 49.69200 26.79100
C  30.83500 49.00300 26.15800
C  30.56900 48.89700 24.79100
C  29.39500 49.78100 24.65500
C  31.91500 48.43300 26.98500
C  31.29400 48.21900 23.61500
O  30.90100 48.09800 22.48600
C  32.48900 47.39500 24.07500
N  27.10800 51.73900 23.98000
C  27.81300 51.00200 23.08900
C  27.25800 51.20300 21.63900
C  26.13800 52.20600 21.82300
C  26.05400 52.31500 23.37800
C  28.37400 51.63100 20.63400
C  24.84100 51.72600 21.01000
C  24.09400 50.54100 21.49800
N  25.36900 52.43000 26.26200
C  24.53400 53.04500 25.33300
C  23.25400 53.43300 25.94200
C  23.52100 53.22400 27.29500
C  24.78400 52.57100 27.43800
C  22.11100 54.10700 25.25600
C  22.93800 53.35100 28.66100
O  21.83600 53.74900 28.97000
C  24.07500 52.86000 29.67100
C  24.79900 54.00300 30.25100
O  25.57400 54.68700 29.65700
O  24.28800 54.27400 31.49700
C  24.73700 55.51400 32.15400
H  30.16600 49.45500 28.86200
H  29.10400 49.53500 22.61200
H  24.34600 53.61500 23.36500
H  27.06500 52.28700 31.08200
H  28.24300 49.64300 30.69200
H  30.34500 50.55000 31.20900
H  29.17300 51.79300 31.90400
H  29.86600 52.12100 30.36700
H  26.39000 49.58400 31.78000
H  25.00800 50.27500 31.06400
H  24.73900 51.04700 33.39700
H  25.44900 52.37600 32.51100
H  31.93500 48.97400 27.93100
H  32.90000 48.54800 26.53400
H  31.74300 47.36000 27.07900
H  33.16700 48.06100 24.60900
H  32.90000 46.81900 23.24700
H  32.15600 46.65600 24.80300
H  26.77200 50.36100 21.14600
H  26.45900 53.19800 21.50400
H  28.20500 52.64500 20.27100
H  28.26800 50.94500 19.79400
H  29.37200 51.69300 21.06900
H  25.22300 51.54100 20.00600
H  24.05000 52.47500 20.96700
H  24.08600 49.95900 20.57700
H  23.09400 50.79900 21.84700
H  24.77400 50.05900 22.20100
H  22.33900 55.13400 24.97200
H  21.35800 54.16000 26.04200
H  21.73200 53.59600 24.37100
H  23.77000 52.15100 30.44100
H  24.27800 55.75700 33.11300
H  24.59300 56.42000 31.56600
H  25.82600 55.49500 32.14100

