158

Mg -0.03400 7.47300 25.83700
C  1.12200 9.37700 28.64600
C  -0.20000 4.82500 27.91600
C  -0.95700 5.65700 23.17300
C  0.20500 10.27000 23.91800
N  0.65700 7.07100 27.94400
C  0.98400 8.01000 28.91400
C  0.82700 7.43200 30.32300
C  0.69300 5.89200 30.08900
C  0.38100 5.87300 28.55000
C  1.85700 4.91800 30.35900
C  -0.45200 8.04100 30.99300
C  -0.54700 8.09200 32.55500
H  0.65800 7.96800 33.37900
N  -0.42000 5.50100 25.61000
C  -0.45400 4.55800 26.52100
C  -0.85200 3.28500 25.89100
C  -1.11900 3.56400 24.53900
C  -0.88200 4.96000 24.38400
C  -0.74400 1.94000 26.53700
C  -1.43100 2.61500 23.34600
O  -1.79300 3.00600 22.23400
C  -1.61100 1.11600 23.62600
N  -0.26800 7.93100 23.82500
C  -0.66300 7.03900 22.97000
C  -0.83800 7.55300 21.57100
C  -0.48100 9.07700 21.74300
C  -0.12800 9.14600 23.16900
C  -0.09200 6.73300 20.50500
C  -1.57300 10.04800 21.34000
C  -2.82100 10.03900 22.11600
N  0.50600 9.43100 26.15800
C  0.60200 10.47700 25.24900
C  1.02100 11.69600 25.86400
C  1.16400 11.37500 27.20600
C  0.93600 9.90400 27.33900
C  1.28600 13.03600 25.13200
C  1.52900 11.89800 28.54700
O  1.83700 12.96900 29.03100
C  1.29900 10.61000 29.58100
C  2.42000 10.62600 30.47100
O  3.51900 10.10300 30.27100
O  2.02700 11.38100 31.56200
C  2.96300 11.63600 32.66100
H  -0.44700 3.90600 28.45200
H  -1.49000 5.23300 22.31900
H  0.15200 11.12200 23.23700
H  1.63700 7.71800 30.99400
H  -0.16400 5.48700 30.62600
H  2.41600 4.72000 29.44500
H  1.51000 3.97600 30.78500
H  2.46700 5.40200 31.12200
H  -1.27700 7.47000 30.56600
H  -0.60200 9.03800 30.57900
H  -1.31300 7.41900 32.93900
H  -0.87100 9.12900 32.65300
H  0.06100 1.37800 26.06200
H  -1.69100 1.40200 26.48800
H  -0.59800 2.02500 27.61400
H  -2.18200 1.05600 24.55300
H  -0.68600 0.55200 23.73900
H  -2.17000 0.72200 22.77700
H  -1.90200 7.46000 21.34800
H  0.48700 9.27400 21.28300
H  0.75300 6.26400 21.01000
H  0.39400 7.30400 19.71300
H  -0.81600 6.07200 20.02800
H  -1.91500 9.92200 20.31200
H  -1.19900 11.07100 21.29900
H  -3.77500 10.04000 21.59000
H  -2.80400 10.88700 22.80100
H  -2.86600 9.18000 22.78500
H  1.22700 12.79400 24.07100
H  2.31200 13.34100 25.33900
H  0.62500 13.84400 25.44500
H  0.42600 10.93500 30.14500
H  3.31100 12.66500 32.57000
H  3.73300 10.86600 32.68900
H  2.41500 11.63800 33.60400
Mg 25.20200 1.80900 30.11900
C  27.40100 1.71400 32.85800
C  22.59000 2.17400 32.36800
C  23.18700 1.81700 27.40200
C  27.87600 0.97600 27.93500
N  25.09300 2.13300 32.32300
C  26.10100 2.10400 33.21500
C  25.67800 2.48700 34.63700
C  24.14700 2.42900 34.52100
C  23.86700 2.20100 33.02500
C  23.39400 1.39800 35.46100
C  26.28500 3.78900 35.17600
C  26.92400 3.65800 36.56700
H  26.63600 4.71800 37.59000
N  23.12500 1.85500 29.88000
C  22.29500 2.02300 31.00900
C  20.96700 1.99400 30.36600
C  21.07100 1.86600 28.92500
C  22.50900 1.78800 28.72800
C  19.64600 2.13100 31.16300
C  19.98900 1.80500 27.83500
O  20.25600 1.54800 26.66600
C  18.56400 1.98100 28.15100
N  25.53800 1.33300 28.00900
C  24.52700 1.64600 27.03500
C  25.04100 1.54500 25.56700
C  26.60900 1.38400 25.83700
C  26.71800 1.27600 27.34600
C  24.38100 0.50100 24.64500
C  27.54000 2.50800 25.14900
C  27.61600 3.81100 25.98000
N  27.17500 1.42400 30.31500
C  28.11300 1.01500 29.38100
C  29.31800 0.57600 30.07800
C  29.16600 0.99500 31.43300
C  27.78300 1.46400 31.51500
C  30.53200 -0.01200 29.42300
C  29.76100 1.13300 32.68300
O  30.92000 1.05000 33.01500
C  28.67300 1.65900 33.66500
C  28.56300 0.70500 34.75500
O  27.86000 -0.35500 34.79900
O  29.30100 1.22400 35.81800
C  29.28800 0.52300 37.11300
H  21.77200 2.36800 33.06500
H  22.54100 1.77500 26.52200
H  28.71900 0.82500 27.25700
H  26.01200 1.65800 35.26200
H  23.64900 3.35700 34.79800
H  22.87100 0.59500 34.94100
H  22.62800 1.99800 35.95200
H  24.00200 0.99600 36.27200
H  25.47400 4.51400 35.11200
H  27.09000 4.01100 34.47600
H  28.00600 3.60500 36.44400
H  26.62300 2.67300 36.92400
H  19.03100 3.01800 31.01500
H  19.73700 1.96800 32.23700
H  19.01000 1.30300 30.85000
H  18.56000 2.93800 28.67400
H  18.32200 1.16300 28.82900
H  17.91500 1.94100 27.27600
H  24.89300 2.56200 25.20200
H  26.85400 0.40900 25.41800
H  23.96400 0.98900 23.76400
H  23.57000 -0.00900 25.16500
H  25.09400 -0.28400 24.39500
H  27.38800 2.54900 24.07000
H  28.57000 2.16700 25.25100
H  27.37900 4.62900 25.29900
H  28.63800 3.99400 26.31100
H  26.89100 3.86400 26.79200
H  30.85000 -0.84100 30.05500
H  31.36400 0.68400 29.31400
H  30.47300 -0.50600 28.45300
H  28.97000 2.61700 34.09400
H  28.47500 0.82800 37.77300
H  30.16700 0.83200 37.67900
H  29.54200 -0.53400 37.04500

