158

Mg 49.26100 46.14400 42.65300
C  45.74300 46.23500 41.66100
C  49.41300 42.95300 41.51200
C  52.55200 46.30300 42.94100
C  48.96700 49.60000 43.13100
N  47.72600 44.76000 41.77400
C  46.40900 44.95900 41.50100
C  45.82900 43.59600 41.04600
C  46.97500 42.56200 41.11500
C  48.11900 43.45600 41.60300
C  46.84600 41.39700 42.14200
C  44.89600 43.52300 39.76000
C  45.57800 43.82900 38.34800
H  45.50500 42.65400 37.35300
N  50.77500 44.70700 42.44200
C  50.64500 43.42300 42.02300
C  51.90400 42.77500 41.93900
C  52.86600 43.69600 42.36700
C  52.05800 44.97600 42.67300
C  51.93200 41.28000 41.55000
C  54.33600 43.50400 42.40100
O  54.78400 42.38400 42.22400
C  55.27400 44.55600 42.66900
N  50.55100 47.78800 43.02700
C  51.90200 47.59800 43.07300
C  52.61800 49.00600 43.16500
C  51.41700 50.01400 43.04000
C  50.24600 49.06800 43.13400
C  53.46200 49.19100 44.41300
C  51.46900 50.79400 41.70500
C  51.47300 52.32600 41.79100
N  47.61700 47.61500 42.67300
C  47.69200 48.97900 42.88900
C  46.37400 49.59700 42.76000
C  45.56300 48.51500 42.35800
C  46.38400 47.38000 42.30000
C  45.93800 51.07100 42.91600
C  44.24400 48.17400 41.93800
O  43.25800 48.81800 41.90900
C  44.30700 46.70200 41.37500
C  43.32900 45.82900 42.18000
O  42.38200 45.15400 41.67400
O  43.66300 45.78800 43.48000
C  42.83800 44.92700 44.41900
H  49.49600 41.93200 41.13300
H  53.60100 46.60300 42.97700
H  48.79900 50.65100 43.37800
H  45.14400 43.46700 41.88400
H  47.26700 42.31000 40.09500
H  45.85900 41.33000 42.60000
H  47.45900 41.56100 43.02800
H  47.06100 40.43800 41.67000
H  44.11600 44.26500 39.93000
H  44.42500 42.54100 39.78400
H  46.58700 44.22200 38.47300
H  45.01000 44.65200 37.91600
H  52.38600 41.30100 40.55900
H  51.01500 40.73100 41.33500
H  52.45400 40.73400 42.33400
H  55.01000 45.34400 41.96300
H  56.25300 44.16000 42.40400
H  55.11000 44.93100 43.68000
H  53.27900 49.02700 42.29800
H  51.29200 50.65900 43.90900
H  54.51400 49.06800 44.15300
H  53.09400 48.51500 45.18400
H  53.42900 50.16700 44.89700
H  50.55900 50.55600 41.15400
H  52.30700 50.43100 41.11000
H  50.58900 52.76400 41.32800
H  52.27400 52.65300 41.12900
H  51.67600 52.60800 42.82400
H  45.23200 51.39300 42.15100
H  46.82400 51.69800 43.01400
H  45.43700 51.17700 43.87900
H  44.00200 46.58400 40.33500
H  43.12300 45.11600 45.45400
H  42.81000 43.84900 44.26100
H  41.78600 45.15300 44.24100
Mg -2.14500 33.84400 26.92200
C  -3.75600 32.05400 29.53900
C  -0.38600 35.51300 29.39000
C  -1.23700 35.90500 24.61300
C  -4.11100 32.01600 24.56000
N  -2.15200 33.81600 29.19800
C  -2.89400 33.03600 30.06500
C  -2.55200 33.31500 31.55000
C  -1.41900 34.44300 31.45700
C  -1.27500 34.63000 29.92600
C  -1.91700 35.79800 32.03900
C  -2.04800 31.97400 32.18500
C  -1.17100 31.94000 33.53400
H  -1.67900 31.07700 34.68500
N  -0.89100 35.45800 26.98300
C  -0.18000 35.93500 28.06700
C  0.77800 36.91200 27.53300
C  0.49300 37.07000 26.14500
C  -0.56900 36.16000 25.84000
C  1.70300 37.73100 28.41100
C  1.24800 37.82700 25.08300
O  1.04100 37.83800 23.90000
C  2.59000 38.45800 25.46800
N  -2.75700 33.98300 24.88500
C  -2.19400 35.01700 24.14000
C  -2.56100 34.87000 22.69400
C  -3.33400 33.47000 22.64600
C  -3.46200 33.11500 24.06900
C  -3.40000 36.06000 22.14900
C  -2.73200 32.38300 21.67500
C  -1.81900 31.27700 22.28400
N  -3.59200 32.27000 26.95800
C  -4.26800 31.64700 25.99400
C  -5.21900 30.68600 26.53800
C  -5.03600 30.80600 27.95000
C  -3.99600 31.74000 28.12400
C  -6.22100 29.80200 25.68200
C  -5.46500 30.33900 29.23700
O  -6.30200 29.57700 29.57800
C  -4.46900 31.08500 30.28000
C  -5.46100 31.65000 31.20900
O  -6.25200 32.55300 30.91000
O  -5.50000 30.99000 32.44000
C  -6.76500 31.16800 33.23200
H  0.29900 35.89600 30.14900
H  -0.78400 36.47200 23.79700
H  -4.69200 31.31700 23.95400
H  -3.46800 33.58500 32.07600
H  -0.58400 34.15300 32.09600
H  -2.55000 35.57700 32.89800
H  -2.52500 36.34200 31.31600
H  -1.12500 36.42200 32.45500
H  -1.48900 31.46400 31.40000
H  -2.96200 31.47900 32.51200
H  -0.99200 32.95700 33.88200
H  -0.17200 31.52500 33.40500
H  1.35700 38.76200 28.48600
H  2.69800 37.78700 27.96800
H  1.81200 37.31000 29.41000
H  2.90900 39.01600 24.58700
H  3.27000 37.61900 25.61400
H  2.72400 39.15100 26.29900
H  -1.69100 34.73900 22.05100
H  -4.34100 33.63400 22.26300
H  -3.47500 36.81900 22.92700
H  -4.41300 35.82700 21.82000
H  -3.00500 36.54600 21.25700
H  -2.13600 32.81300 20.86900
H  -3.62700 31.94100 21.23700
H  -1.39000 31.56000 23.24500
H  -1.11600 31.04400 21.48400
H  -2.44700 30.40800 22.48000
H  -6.30800 29.89900 24.59900
H  -7.25800 29.97400 25.96800
H  -6.19800 28.73600 25.91000
H  -3.92600 30.30400 30.81500
H  -6.80100 31.99600 33.94000
H  -6.89500 30.24200 33.79200
H  -7.62900 31.17300 32.56700

