158

Mg 25.83800 -8.15200 47.36100
C  27.86400 -5.51400 46.23400
C  23.59800 -7.54900 44.89300
C  24.05200 -10.86900 48.52000
C  28.58200 -9.20300 49.33800
N  25.92400 -6.88100 45.56700
C  26.72700 -5.76700 45.40000
C  26.19500 -4.84200 44.28200
C  24.70900 -5.37100 44.07400
C  24.69200 -6.69400 44.85400
C  23.59700 -4.35200 44.43900
C  27.13800 -4.93200 43.03800
C  27.90300 -3.60900 42.60200
H  27.66000 -3.28100 41.13000
N  24.04400 -8.93100 46.89900
C  23.29900 -8.55200 45.83000
C  22.19500 -9.37300 45.74100
C  22.25500 -10.35400 46.81000
C  23.49200 -10.09100 47.47300
C  21.19100 -9.38200 44.64600
C  21.16600 -11.44400 47.05300
O  20.15700 -11.70400 46.39900
C  21.21300 -12.28900 48.21700
N  26.26400 -9.87400 48.64700
C  25.37600 -10.79800 49.05500
C  25.94200 -11.67400 50.25600
C  27.45500 -11.25800 50.27200
C  27.47800 -10.06500 49.35400
C  25.29900 -11.31700 51.67800
C  28.43300 -12.38600 49.83700
C  29.75300 -12.57300 50.73600
N  27.82800 -7.58100 47.73000
C  28.76100 -7.97800 48.63700
C  29.93600 -7.09100 48.57900
C  29.61500 -6.10800 47.70500
C  28.32200 -6.42700 47.17900
C  31.25100 -7.32900 49.29500
C  30.06200 -4.80100 47.26200
O  31.03300 -4.15700 47.63300
C  28.85700 -4.33400 46.27600
C  28.20600 -3.05700 46.54100
O  28.35200 -2.02700 45.98000
O  27.37100 -3.23000 47.64300
C  26.76100 -1.97700 48.11300
H  22.86600 -7.35600 44.10600
H  23.44300 -11.65900 48.96400
H  29.41500 -9.58600 49.93200
H  26.22600 -3.78500 44.54700
H  24.54400 -5.63200 43.02900
H  23.06600 -4.12300 43.51500
H  24.08700 -3.50500 44.92000
H  22.94600 -4.68100 45.24900
H  26.60500 -5.47600 42.25800
H  28.00200 -5.50800 43.36800
H  28.95100 -3.63300 42.90100
H  27.53300 -2.77000 43.19100
H  20.31500 -8.78500 44.90300
H  20.94700 -10.39900 44.34200
H  21.71400 -9.04800 43.75000
H  21.97500 -13.06700 48.17100
H  20.31400 -12.90000 48.29800
H  21.22200 -11.73700 49.15600
H  25.73800 -12.71600 50.01100
H  27.79000 -10.93900 51.26000
H  24.50600 -12.04100 51.86600
H  24.95200 -10.28400 51.71100
H  25.98200 -11.56700 52.49000
H  28.87800 -12.13200 48.87600
H  27.91700 -13.34700 49.85600
H  29.55000 -13.28400 51.53700
H  30.08600 -11.56300 50.97300
H  30.54000 -12.96600 50.09300
H  31.67200 -8.21200 48.81500
H  31.06900 -7.51500 50.35400
H  31.94700 -6.50400 49.14500
H  29.35900 -4.11600 45.33300
H  26.20000 -1.45500 47.33700
H  27.53400 -1.23600 48.31600
H  26.14600 -2.26100 48.96600
Mg -11.90300 38.99800 41.87400
C  -9.88000 36.14500 41.22400
C  -9.45100 41.03500 40.61700
C  -14.17100 41.51500 42.02800
C  -14.49400 36.68600 42.69400
N  -9.93600 38.62400 40.91100
C  -9.30700 37.39700 40.80200
C  -7.97000 37.61300 40.10300
C  -7.73000 39.13900 40.07100
C  -9.12500 39.69100 40.55100
C  -6.50900 39.77000 40.73600
C  -7.71600 36.74100 38.78400
C  -6.50700 35.72600 38.74500
H  -5.53500 35.99100 37.67100
N  -11.77000 41.06200 41.47700
C  -10.64100 41.72500 40.90700
C  -10.93300 43.12700 40.92900
C  -12.32900 43.28000 41.15700
C  -12.85400 41.94500 41.58900
C  -9.97600 44.17000 40.38500
C  -13.04200 44.61700 41.10500
O  -12.44900 45.65200 40.85800
C  -14.56400 44.72300 41.39000
N  -14.04600 39.05700 42.18600
C  -14.65400 40.20900 42.34200
C  -16.08900 40.03000 42.90900
C  -16.22000 38.52000 43.03800
C  -14.82300 38.05400 42.61100
C  -16.30700 40.95200 44.13400
C  -17.42500 37.96400 42.14100
C  -18.72200 37.43600 42.90300
N  -12.21900 36.86300 41.90500
C  -13.30900 36.10900 42.31400
C  -12.95300 34.75400 42.31600
C  -11.61500 34.70900 41.93000
C  -11.19600 36.00000 41.68600
C  -13.84200 33.66300 42.81500
C  -10.47800 33.87000 41.66600
O  -10.30500 32.64800 41.74100
C  -9.28400 34.83200 41.20200
C  -8.19300 34.65100 42.20800
O  -8.29000 34.80800 43.41800
O  -7.12200 34.05100 41.61000
C  -5.97300 33.99500 42.44900
H  -8.70500 41.65300 40.11400
H  -14.90600 42.31100 42.16400
H  -15.28400 36.06700 43.12600
H  -7.26600 37.17300 40.80900
H  -7.69500 39.32400 38.99700
H  -5.69900 39.09200 41.00300
H  -6.75700 40.24200 41.68600
H  -6.09300 40.61400 40.18500
H  -7.72700 37.36000 37.88600
H  -8.56200 36.06100 38.68400
H  -6.90300 34.72700 38.56200
H  -6.03000 35.76700 39.72400
H  -8.94500 43.84700 40.52900
H  -10.12900 45.15800 40.81800
H  -10.18800 44.22600 39.31700
H  -14.96000 43.87000 40.83800
H  -14.81000 45.66400 40.89900
H  -14.85500 44.82400 42.43600
H  -16.83200 40.31500 42.16400
H  -16.39700 38.37300 44.10300
H  -15.39700 41.43500 44.48800
H  -16.70400 40.33400 44.94000
H  -16.99300 41.79700 44.07600
H  -17.07500 37.10500 41.56900
H  -17.76100 38.60800 41.32800
H  -19.56500 37.94900 42.43800
H  -18.71600 37.65200 43.97100
H  -18.94800 36.38500 42.72600
H  -14.46300 33.97800 43.65400
H  -13.21700 32.78900 43.00200
H  -14.55000 33.45800 42.01300
H  -8.90200 34.46800 40.24800
H  -5.23000 34.63100 41.96700
H  -5.60000 32.97200 42.50600
H  -6.00200 34.24100 43.51000

