158

Mg 8.31500 2.76300 27.27300
C  9.81200 1.05900 30.05500
C  7.00300 4.94900 29.44700
C  6.46400 3.78600 24.74600
C  9.68100 0.21300 25.25100
N  8.32200 2.86200 29.55100
C  9.09200 2.16600 30.43100
C  8.92600 2.77700 31.83100
C  7.88800 3.94900 31.62600
C  7.79100 4.00900 30.13100
C  6.56800 3.71800 32.40500
C  10.28300 3.29900 32.39200
C  10.13700 3.92900 33.79500
H  11.09900 3.47400 34.91500
N  7.02200 4.26400 27.04700
C  6.62900 5.06800 28.08900
C  5.79700 6.18000 27.50800
C  5.54400 5.83800 26.11300
C  6.33100 4.59900 25.91000
C  5.49500 7.39000 28.29000
C  4.78500 6.50700 25.06200
O  4.63000 5.92200 23.96300
C  3.96400 7.69400 25.28200
N  8.02300 2.14100 25.29500
C  7.15800 2.65400 24.39700
C  7.14200 2.06600 23.03700
C  8.33400 1.06900 23.11500
C  8.72600 1.13300 24.62300
C  5.77400 1.56400 22.61000
C  9.49200 1.48300 22.15100
C  10.23900 0.31100 21.58800
N  9.51000 1.13700 27.51800
C  9.97200 0.14400 26.59000
C  10.84200 -0.78400 27.31700
C  10.80600 -0.44500 28.62800
C  9.96200 0.67000 28.73600
C  11.60900 -1.99100 26.83600
C  11.26100 -0.84100 29.96600
O  11.98600 -1.81300 30.33400
C  10.62200 0.16200 30.96800
C  10.02500 -0.57800 32.15000
O  8.96800 -1.14100 32.11500
O  10.91900 -0.49600 33.26600
C  10.30200 -1.16100 34.42000
H  6.74400 5.79600 30.08600
H  5.81600 3.92000 23.87800
H  10.04400 -0.60500 24.62500
H  8.49200 2.00800 32.47000
H  8.28500 4.94700 31.81100
H  5.77400 3.47700 31.69900
H  6.22900 4.61500 32.92300
H  6.67000 2.97800 33.19900
H  10.84400 3.97700 31.74900
H  11.02700 2.51300 32.52200
H  9.07900 3.75100 33.98500
H  10.42300 4.97700 33.70300
H  6.03900 7.47200 29.23100
H  4.43200 7.41700 28.53200
H  5.77000 8.15400 27.56200
H  3.02400 7.59400 24.73900
H  4.44000 8.66200 25.12600
H  3.74900 7.67800 26.35000
H  7.46200 2.83200 22.33200
H  7.92600 0.09000 22.86200
H  5.33800 2.30900 21.94400
H  5.09300 1.40500 23.44600
H  5.86700 0.63900 22.04000
H  10.17200 2.12200 22.71400
H  9.19300 2.14500 21.33800
H  10.47600 0.48700 20.53900
H  9.71700 -0.62200 21.80000
H  11.21000 0.29000 22.08400
H  11.44700 -2.76100 27.59000
H  12.64000 -1.64600 26.75500
H  11.11600 -2.31000 25.91700
H  11.43800 0.79700 31.31200
H  10.09700 -2.22900 34.34100
H  9.44400 -0.56500 34.73100
H  10.90900 -1.14300 35.32600
Mg 46.89400 35.15700 28.82500
C  45.67400 33.21400 31.34200
C  47.33300 37.76700 31.01800
C  47.40700 37.40500 26.24100
C  45.89600 32.78500 26.47200
N  46.38600 35.45900 30.84700
C  46.05800 34.49200 31.78400
C  46.24500 35.00300 33.21900
C  46.37100 36.52300 33.08300
C  46.63900 36.61500 31.52900
C  45.12000 37.33400 33.56000
C  47.50900 34.31900 33.84000
C  47.46300 34.08500 35.39100
H  46.98800 35.20900 36.29400
N  47.47300 37.25100 28.63800
C  47.72500 38.04300 29.69400
C  48.31200 39.30600 29.19600
C  48.31000 39.25200 27.77800
C  47.69900 37.93300 27.47200
C  48.91900 40.36400 30.10200
C  48.78400 40.29500 26.77100
O  48.79000 40.08600 25.59400
C  49.18700 41.70200 27.23400
N  46.57800 35.17900 26.68500
C  46.95400 36.13500 25.84500
C  47.01800 35.69700 24.39600
C  46.40900 34.19700 24.45200
C  46.34000 33.97700 25.92900
C  46.39400 36.62000 23.37000
C  47.19800 33.21100 23.53900
C  46.30800 32.17600 22.82800
N  46.03200 33.33400 28.88100
C  45.65400 32.49600 27.83900
C  45.23900 31.22500 28.41000
C  45.18600 31.50200 29.74800
C  45.62800 32.78900 29.99900
C  44.90500 30.03500 27.48500
C  44.89700 30.90000 31.03600
O  44.53400 29.81400 31.32100
C  45.01000 32.03400 32.07000
C  45.71700 31.34500 33.14700
O  46.93600 31.21100 33.27600
O  44.82800 30.94700 34.08000
C  45.29600 30.15400 35.19300
H  47.63000 38.51500 31.75600
H  47.72700 38.13300 25.49300
H  45.64600 31.99400 25.76200
H  45.35200 34.73000 33.78000
H  47.26100 36.87200 33.60700
H  44.83800 37.97800 32.72600
H  45.39000 38.02200 34.36100
H  44.25400 36.69500 33.73400
H  48.33800 35.02300 33.77600
H  47.67900 33.36400 33.34400
H  48.27500 33.49500 35.81700
H  46.60200 33.41700 35.39200
H  48.92200 40.09900 31.16000
H  48.51400 41.36900 29.98800
H  49.92800 40.61300 29.77300
H  50.12100 41.67000 27.79500
H  48.38500 41.97800 27.91700
H  49.25600 42.35400 26.36300
H  48.10200 35.67400 24.28700
H  45.39400 34.25500 24.05800
H  47.01700 37.45100 23.03900
H  45.50900 37.02100 23.86500
H  46.10800 36.02800 22.50100
H  47.90600 32.63100 24.13200
H  47.81900 33.76400 22.83400
H  45.68200 32.44300 21.97600
H  45.61100 31.99700 23.64700
H  46.70900 31.18900 22.59900
H  44.30600 30.34300 26.62800
H  44.52100 29.19200 28.05900
H  45.88800 29.98400 27.01600
H  43.99800 32.23300 32.42400
H  45.01800 30.60500 36.14600
H  46.36600 29.95200 35.23000
H  44.76800 29.20200 35.14900

