158

Mg -2.51400 17.09100 26.11200
C  -2.96500 14.90800 28.84800
C  -2.96500 19.74200 28.05700
C  -2.17400 18.88400 23.26700
C  -2.72200 14.12100 23.91200
N  -3.00500 17.29000 28.27700
C  -3.02500 16.24800 29.18900
C  -3.30400 16.85100 30.60500
C  -3.28100 18.41400 30.32700
C  -3.05600 18.50300 28.77900
C  -4.49600 19.20100 30.78200
C  -2.42300 16.30100 31.77000
C  -2.20600 17.28000 32.94200
H  -2.27000 16.70500 34.36500
N  -2.55800 19.04300 25.78300
C  -2.74300 20.02900 26.69500
C  -2.81400 21.33300 26.10600
C  -2.50300 21.04900 24.67600
C  -2.32900 19.57400 24.52500
C  -3.08800 22.67000 26.73800
C  -2.53000 22.06100 23.49300
O  -2.09400 21.79300 22.39700
C  -2.78500 23.52900 23.73700
N  -2.53800 16.53800 23.80400
C  -2.23600 17.50500 22.94600
C  -2.08700 16.98200 21.56300
C  -2.01400 15.42100 21.76900
C  -2.49200 15.30800 23.28600
C  -3.18700 17.43500 20.55100
C  -0.58300 14.86900 21.33200
C  0.62000 15.25900 22.26100
N  -2.61100 15.00100 26.33000
C  -2.77100 13.98600 25.32800
C  -3.09800 12.68800 26.01500
C  -3.08500 13.08200 27.37000
C  -2.81000 14.43500 27.50400
C  -3.40000 11.34900 25.38200
C  -3.28500 12.56300 28.73700
O  -3.53900 11.37500 29.07100
C  -3.10300 13.70300 29.71300
C  -1.97300 13.39000 30.64000
O  -0.78400 13.50900 30.44800
O  -2.53400 12.82700 31.73300
C  -1.61600 12.43700 32.81500
H  -2.97000 20.58900 28.74500
H  -1.91100 19.47400 22.38700
H  -2.71400 13.24400 23.26100
H  -4.35000 16.57600 30.73800
H  -2.41500 18.95500 30.70800
H  -4.24800 20.18300 31.18400
H  -5.06500 18.54500 31.44000
H  -5.25100 19.22500 29.99600
H  -1.43500 16.16600 31.32800
H  -2.88600 15.35300 32.04600
H  -2.93500 18.09000 32.94600
H  -1.26800 17.82500 32.82900
H  -2.18100 23.18700 27.05000
H  -3.54400 22.59400 27.72500
H  -3.64700 23.31400 26.05900
H  -3.85200 23.46400 23.94800
H  -2.63200 23.93900 22.73800
H  -2.19200 24.00700 24.51700
H  -1.07000 17.26700 21.29100
H  -2.71200 14.78800 21.22000
H  -3.76100 18.24400 21.00400
H  -3.92400 16.66900 20.30800
H  -2.80700 17.81300 19.60200
H  -0.33900 15.39500 20.40900
H  -0.56800 13.77900 21.32000
H  1.06000 14.29500 22.51600
H  0.29600 15.80700 23.14600
H  1.39500 15.69400 21.63000
H  -4.22600 10.86700 25.90600
H  -2.52400 10.72900 25.57300
H  -3.75100 11.40500 24.35200
H  -4.01300 13.78600 30.30700
H  -0.93100 13.24800 33.05900
H  -1.05600 11.56900 32.46700
H  -2.26500 12.09200 33.62000
Mg -9.43500 39.65000 41.64400
C  -8.35400 36.24700 41.32100
C  -6.28200 40.57000 40.39400
C  -10.74300 42.60700 40.88600
C  -12.76300 38.34200 42.15700
N  -7.53300 38.54200 40.98400
C  -7.35300 37.17300 40.92300
C  -5.98500 36.87700 40.39700
C  -5.24700 38.30800 40.44700
C  -6.43200 39.21700 40.63100
C  -4.07800 38.52300 41.48000
C  -6.15100 36.26700 38.96800
C  -5.71500 34.77300 38.85800
H  -4.98600 34.35600 37.56300
N  -8.57900 41.36900 40.80700
C  -7.32500 41.54400 40.40600
C  -7.25400 42.92200 39.82500
C  -8.47900 43.57900 40.13500
C  -9.29900 42.50500 40.64000
C  -6.10000 43.55000 39.18800
C  -8.86100 45.07500 39.86400
O  -8.12100 45.81300 39.16000
C  -10.15600 45.69200 40.22500
N  -11.45400 40.37000 41.47800
C  -11.69600 41.65000 41.31900
C  -13.21300 42.07800 41.73800
C  -13.77000 40.63200 42.01900
C  -12.60800 39.71400 41.89300
C  -13.27400 43.07600 42.93800
C  -15.05900 40.21300 41.18800
C  -16.35500 40.00900 42.00300
N  -10.44400 37.70900 41.79100
C  -11.76200 37.34600 42.00500
C  -11.84800 35.98500 42.04200
C  -10.56300 35.48000 41.85400
C  -9.68100 36.56700 41.63600
C  -13.15200 35.29100 42.21900
C  -9.74200 34.28900 41.76300
O  -10.06900 33.14100 41.88400
C  -8.29200 34.72400 41.38000
C  -7.30000 34.26800 42.45200
O  -6.94300 34.81800 43.46100
O  -6.75600 33.15500 41.91600
C  -5.54000 32.63400 42.65500
H  -5.23900 40.81700 40.18100
H  -11.10300 43.63600 40.81700
H  -13.77300 38.13200 42.51400
H  -5.51600 36.10800 41.01000
H  -4.89500 38.53700 39.44100
H  -4.17000 39.25800 42.28000
H  -3.39500 39.04500 40.81000
H  -3.71800 37.57300 41.87500
H  -5.42000 36.74200 38.31400
H  -7.17300 36.48600 38.65900
H  -6.65500 34.24500 38.70100
H  -5.26900 34.43100 39.79200
H  -6.27700 43.91300 38.17500
H  -5.33100 42.77900 39.14000
H  -5.63800 44.31700 39.81000
H  -10.44700 45.43700 41.24400
H  -10.87200 45.31400 39.49600
H  -10.09100 46.78000 40.23100
H  -13.57300 42.50800 40.80400
H  -13.97000 40.61500 43.09100
H  -12.24700 43.33100 43.19800
H  -13.73700 42.70500 43.85200
H  -13.88400 43.92700 42.63300
H  -14.84000 39.30100 40.63300
H  -15.32100 41.07000 40.56900
H  -16.25900 40.12900 43.08200
H  -16.66800 38.96900 41.91000
H  -17.03100 40.73700 41.55500
H  -13.40800 34.98600 41.20400
H  -14.00700 35.82900 42.62800
H  -13.14600 34.45200 42.91500
H  -8.02500 34.19400 40.46600
H  -4.84500 32.14700 41.97100
H  -5.86800 31.92700 43.41700
H  -5.05800 33.44700 43.19800

