158

Mg 29.93000 59.65100 39.43800
C  27.42100 57.26500 38.43800
C  32.31300 57.29300 38.51800
C  32.20400 62.10300 39.76600
C  27.28300 62.08000 39.48900
N  29.87300 57.47600 38.61800
C  28.74800 56.70200 38.32100
C  29.12100 55.35000 37.71700
C  30.61300 55.28000 38.26900
C  30.98200 56.79200 38.41600
C  30.82300 54.38700 39.51800
C  28.94100 55.27700 36.12000
C  27.78000 54.41300 35.49500
H  26.90100 55.07800 34.46000
N  31.94500 59.71100 39.16700
C  32.78300 58.64100 38.72000
C  34.21700 59.13400 38.64100
C  34.19900 60.49900 39.21200
C  32.76300 60.86400 39.39000
C  35.30400 58.24200 38.25000
C  35.47600 61.30400 39.48700
O  36.61800 60.86700 39.24100
C  35.42900 62.68200 40.11200
N  29.72700 61.69800 39.72200
C  30.83700 62.48400 39.87200
C  30.41400 63.96700 40.08800
C  28.86400 63.90600 39.96200
C  28.60200 62.41800 39.80100
C  31.07200 64.79700 41.32400
C  28.29000 64.80500 38.83200
C  27.20300 65.80000 39.19300
N  27.74000 59.71100 39.22100
C  26.89600 60.77800 39.30500
C  25.56900 60.23900 39.06800
C  25.70300 58.92300 38.76800
C  27.04000 58.60500 38.79300
C  24.30300 61.02900 39.06300
C  24.98300 57.66600 38.42800
O  23.83200 57.38400 38.25800
C  26.04900 56.59600 38.11500
C  25.84300 55.38700 38.94700
O  25.92200 55.34600 40.18000
O  25.30000 54.33900 38.18100
C  24.84800 53.23100 38.94500
H  33.00400 56.49800 38.22800
H  32.82700 62.98600 39.92000
H  26.53500 62.87300 39.42500
H  28.47500 54.69900 38.30700
H  31.39900 54.94000 37.59500
H  30.54000 53.34800 39.35200
H  30.14500 54.66200 40.32600
H  31.83800 54.46000 39.91000
H  29.91200 54.86300 35.84800
H  28.87400 56.31000 35.77900
H  27.15900 54.02100 36.30000
H  28.17100 53.51800 35.01300
H  35.63300 58.46000 37.23400
H  34.93900 57.21900 38.34600
H  36.12400 58.13400 38.96100
H  34.71500 62.59300 40.93200
H  35.14100 63.46600 39.41200
H  36.41000 62.90600 40.53200
H  30.82500 64.45500 39.20400
H  28.41300 64.13800 40.92600
H  31.37600 64.03900 42.04600
H  30.23900 65.36800 41.73400
H  31.99500 65.30900 41.05100
H  27.90700 64.09500 38.09900
H  29.08400 65.29100 38.26500
H  27.57900 66.80600 39.00900
H  27.04700 65.83700 40.27200
H  26.26000 65.61800 38.67700
H  24.34200 61.71700 38.21800
H  24.11200 61.54600 40.00400
H  23.37100 60.48900 38.90000
H  26.08800 56.23500 37.08700
H  24.82000 52.32600 38.33700
H  23.85900 53.44400 39.35000
H  25.40800 52.87100 39.80800
Mg 6.13400 53.30900 41.99000
C  6.07500 49.86600 41.24900
C  9.39300 53.45400 40.72500
C  6.11400 56.66800 42.35600
C  2.65100 53.12500 42.73000
N  7.42900 51.87000 40.87000
C  7.23400 50.49500 40.81500
C  8.47400 49.78300 40.14400
C  9.52600 50.96200 40.04600
C  8.77700 52.22100 40.64600
C  10.91500 50.91200 40.77700
C  8.38200 49.04600 38.84500
C  7.47900 49.70600 37.70200
H  6.79500 48.86800 36.59700
N  7.55600 54.88500 41.63800
C  8.83000 54.72100 41.14300
C  9.42100 56.03300 40.98500
C  8.58000 57.00000 41.54700
C  7.37400 56.25300 41.94800
C  10.79800 56.20000 40.39300
C  8.99300 58.45000 41.76500
O  10.10200 58.86000 41.40100
C  8.16300 59.36300 42.55100
N  4.58200 54.62700 42.43700
C  4.86700 55.99600 42.61300
C  3.59800 56.76800 42.91700
C  2.49800 55.70000 43.00300
C  3.27700 54.34400 42.76000
C  3.72400 57.60000 44.16500
C  1.24200 55.97200 42.15600
C  1.26500 55.39900 40.70500
N  4.64300 51.83700 42.10200
C  3.26600 51.84700 42.50400
C  2.81700 50.52600 42.58700
C  3.86400 49.66500 42.22300
C  4.95900 50.57100 41.89400
C  1.44200 50.12600 42.84800
C  4.24800 48.28000 41.96900
O  3.64200 47.21400 42.09500
C  5.65400 48.38300 41.19900
C  5.43300 47.82500 39.84800
O  4.84500 48.38500 38.95400
O  5.99800 46.56800 39.77700
C  5.60600 45.57500 38.75700
H  10.39900 53.49700 40.30200
H  5.98800 57.73500 42.54700
H  1.64200 53.10500 43.14600
H  8.83900 49.08100 40.89400
H  9.71600 51.06500 38.97800
H  11.73000 51.14400 40.09200
H  11.17900 49.92400 41.15500
H  11.04900 51.69200 41.52600
H  7.99600 48.04500 39.03700
H  9.36700 49.02400 38.37900
H  8.11100 50.51600 37.33800
H  6.63800 50.18300 38.20500
H  10.69500 57.00000 39.66000
H  11.23900 55.28700 39.99300
H  11.52100 56.60200 41.10300
H  8.69100 60.28500 42.79600
H  7.82400 58.77600 43.40400
H  7.26100 59.58400 41.98000
H  3.40700 57.53800 42.17000
H  2.06400 55.50300 43.98200
H  3.27000 57.02300 44.97100
H  3.22600 58.54900 43.96900
H  4.78800 57.82700 44.24000
H  1.20600 57.05900 42.08500
H  0.37000 55.66200 42.73000
H  0.27500 54.96200 40.57300
H  2.02700 54.64400 40.50900
H  1.34000 56.26400 40.04600
H  1.35700 49.97100 43.92300
H  1.32600 49.21000 42.26800
H  0.66200 50.84500 42.59700
H  6.45000 47.78100 41.63800
H  6.04300 44.59900 38.96700
H  5.68600 45.87500 37.71200
H  4.53900 45.41700 38.91600

