158

Mg 8.60500 4.23400 27.47600
C  9.74900 2.44700 30.57800
C  6.66500 6.16300 29.61600
C  7.62300 5.63900 24.81000
C  10.29600 1.89500 25.60900
N  8.21800 4.10700 29.88100
C  8.78300 3.39100 30.90900
C  8.25600 3.92400 32.27500
C  7.31600 5.09100 31.89300
C  7.38700 5.14200 30.33100
C  5.87800 4.91700 32.42300
C  9.43300 4.35100 33.28000
C  8.94100 5.04700 34.55600
H  10.08700 5.27100 35.52700
N  7.39800 5.79300 27.25300
C  6.62800 6.38200 28.21300
C  5.89000 7.44300 27.54000
C  6.22100 7.38700 26.15700
C  7.03700 6.18900 25.96500
C  5.00500 8.46900 28.29000
C  5.70200 8.34900 24.96000
O  6.04700 8.14600 23.79800
C  4.95400 9.52200 25.32400
N  8.75000 3.73900 25.50800
C  8.31900 4.50400 24.55700
C  8.44800 3.89700 23.11400
C  9.57300 2.82000 23.38800
C  9.56300 2.79400 24.96200
C  7.13900 3.38900 22.45200
C  10.94200 3.15300 22.74800
C  11.90000 2.11600 22.26000
N  9.81100 2.52700 27.90800
C  10.50300 1.76300 26.95900
C  11.30600 0.84700 27.69000
C  11.05700 1.07700 29.08300
C  10.12000 2.11500 29.16100
C  12.30300 -0.22000 27.20400
C  11.43100 0.64900 30.43800
O  12.29200 -0.12700 30.82900
C  10.52800 1.61600 31.45300
C  9.67800 0.79500 32.33700
O  8.94400 -0.07100 32.00100
O  10.20500 0.93000 33.60100
C  9.63800 -0.00900 34.69300
H  6.07500 6.79000 30.28900
H  7.26300 6.23200 23.96700
H  10.86200 1.11100 25.10200
H  7.70800 3.02800 32.56900
H  7.62000 6.06300 32.28200
H  5.14800 4.73800 31.63300
H  5.61300 5.91400 32.77500
H  5.90000 4.13900 33.18500
H  9.95500 5.08200 32.66400
H  10.10600 3.53000 33.53000
H  8.22600 4.37200 35.02600
H  8.57500 6.04900 34.33300
H  4.00200 8.51100 27.86600
H  5.48400 9.44600 28.34600
H  4.65900 8.13500 29.26800
H  5.59000 9.95000 26.09900
H  4.06100 9.16800 25.83900
H  4.82000 10.24700 24.52200
H  8.82300 4.65300 22.42400
H  9.28300 1.78900 23.18700
H  7.23200 2.34900 22.13900
H  6.94200 3.93300 21.52900
H  6.21900 3.52600 23.02000
H  11.48900 3.76600 23.46400
H  10.70600 3.77900 21.88700
H  12.00800 2.19500 21.17800
H  11.63000 1.07800 22.45500
H  12.87500 2.39900 22.65700
H  12.71200 -0.75400 28.06200
H  13.08800 0.26700 26.62500
H  11.81200 -0.95200 26.56300
H  11.19300 2.21100 32.07800
H  9.32100 -0.98700 34.33100
H  8.74700 0.45600 35.11400
H  10.37000 -0.20800 35.47500
Mg 45.32100 4.60200 48.69000
C  43.31400 7.35500 48.18400
C  42.53500 2.69900 48.34900
C  47.27700 1.81800 48.73800
C  48.18500 6.61100 48.46800
N  43.17100 4.97600 48.28400
C  42.58800 6.19600 48.17200
C  41.10200 6.06000 47.72800
C  40.78900 4.60500 48.21000
C  42.23200 4.05800 48.47300
C  39.82800 4.49800 49.35200
C  40.91600 6.36600 46.25500
C  39.81100 7.41000 45.91800
H  39.06900 7.28800 44.62600
N  44.95800 2.57800 48.45500
C  43.75700 2.00700 48.22000
C  43.97000 0.64100 47.90700
C  45.36400 0.28200 47.99700
C  45.92300 1.53700 48.50500
C  42.86800 -0.32700 47.52400
C  45.94600 -1.04000 47.78000
O  45.29000 -1.99700 47.43900
C  47.43500 -1.28400 47.93800
N  47.47300 4.27900 48.46200
C  47.98500 3.00200 48.65100
C  49.50300 3.16500 48.90500
C  49.72300 4.68800 48.86800
C  48.40600 5.25500 48.54500
C  50.17600 2.38300 50.12100
C  50.76100 5.23300 47.72900
C  51.77500 6.19000 48.40100
N  45.69000 6.52300 48.50800
C  46.89200 7.22300 48.51600
C  46.63900 8.67700 48.41800
C  45.22500 8.69500 48.19700
C  44.70800 7.41500 48.33600
C  47.67400 9.83300 48.35700
C  44.16500 9.61900 47.85700
O  44.32100 10.80800 47.62800
C  42.84900 8.80700 47.96100
C  42.18900 9.41700 49.09400
O  42.24600 8.98400 50.18500
O  41.28800 10.44900 48.80500
C  40.18500 10.58400 49.74600
H  41.69000 2.02900 48.17900
H  48.00800 1.03000 48.93000
H  49.10700 7.13300 48.73200
H  40.47200 6.64200 48.40000
H  40.45100 3.88600 47.46300
H  39.49000 5.49200 49.64500
H  40.11600 4.02600 50.29100
H  38.95200 3.91400 49.07100
H  40.64600 5.46900 45.69800
H  41.86700 6.79200 45.93700
H  40.38100 8.33700 45.85600
H  39.14100 7.54400 46.76700
H  43.22300 -0.85900 46.64100
H  41.94500 0.14700 47.19200
H  42.59000 -0.92300 48.39300
H  47.71800 -1.27000 48.99000
H  47.95800 -0.50600 47.38000
H  47.67700 -2.25500 47.50600
H  49.83300 2.57200 48.05200
H  49.97500 4.98500 49.88700
H  50.72600 1.49300 49.81800
H  49.42500 1.98800 50.80500
H  50.67600 3.21300 50.62000
H  50.29400 5.71000 46.86700
H  51.24800 4.35200 47.31200
H  52.79200 5.80700 48.48500
H  51.54300 6.41000 49.44300
H  51.81800 7.12900 47.84900
H  47.23900 10.72100 47.90000
H  48.43100 9.54800 47.62600
H  48.08300 10.03700 49.34700
H  42.32100 8.85600 47.00900
H  39.62600 11.51900 49.70700
H  40.57800 10.43700 50.75200
H  39.55000 9.72300 49.53900

