158

Mg 34.56900 2.37600 29.45200
C  32.72900 3.41700 32.18900
C  37.30300 1.86300 31.53300
C  36.37600 1.82700 26.62600
C  31.81500 3.17200 27.33600
N  34.94700 2.69600 31.50200
C  33.97600 3.00400 32.53100
C  34.49800 2.72500 33.95200
C  36.03300 2.72500 33.63700
C  36.13100 2.33300 32.11700
C  36.90600 3.91000 33.83000
C  33.90000 1.36000 34.53900
C  33.48000 1.41700 36.00500
H  34.31700 2.22700 36.95100
N  36.48000 1.84800 29.14500
C  37.48700 1.72700 30.09400
C  38.73900 1.36900 29.43700
C  38.51500 1.34900 28.01100
C  37.03700 1.67900 27.84700
C  39.94500 1.18800 30.17100
C  39.48000 0.98300 26.89700
O  39.06100 0.84600 25.76300
C  40.89400 0.56600 27.14600
N  34.11400 2.33000 27.30800
C  35.05000 2.18100 26.38200
C  34.47600 2.31900 24.96200
C  33.03700 2.73000 25.23200
C  32.93800 2.79200 26.69700
C  35.24700 3.43500 24.12200
C  31.96300 1.74100 24.61000
C  32.20400 0.23000 24.87800
N  32.71200 3.17600 29.66100
C  31.66400 3.29100 28.73300
C  30.46500 3.67600 29.43200
C  30.76100 3.67400 30.76500
C  32.18900 3.45800 30.85800
C  29.09600 4.04300 28.82500
C  30.21400 3.83800 32.06300
O  28.98400 3.83100 32.39800
C  31.50600 3.77000 33.05100
C  31.58200 5.04300 33.80700
O  32.13800 6.10300 33.53000
O  30.88100 4.80100 34.94900
C  30.61200 6.02100 35.78900
H  38.15700 1.60900 32.16400
H  36.95700 1.82000 25.70200
H  30.94300 3.50000 26.76600
H  34.30800 3.65400 34.49100
H  36.49000 1.86800 34.13300
H  37.09100 4.34800 32.84900
H  37.83700 3.69200 34.35300
H  36.36600 4.61300 34.46300
H  34.58900 0.52000 34.44800
H  33.00400 1.22700 33.93300
H  33.47000 0.37800 36.33600
H  32.46500 1.79800 35.89000
H  40.28800 0.20300 29.85600
H  39.89400 1.49400 31.21600
H  40.66700 1.89800 29.76600
H  41.40300 1.49000 27.42100
H  41.31700 0.24900 26.19300
H  41.11300 -0.25300 27.83000
H  34.50100 1.42500 24.34000
H  32.77200 3.69900 24.80900
H  35.71200 2.92300 23.27900
H  36.13600 3.82800 24.61600
H  34.66200 4.28700 23.77700
H  31.90700 1.95600 23.54200
H  30.93800 1.92000 24.93500
H  33.04000 0.12800 25.57000
H  32.49900 -0.22500 23.93200
H  31.28400 -0.21800 25.25400
H  29.27900 4.18600 27.76000
H  28.70500 4.92400 29.33400
H  28.55100 3.10000 28.85400
H  31.33000 2.97500 33.77600
H  30.51400 6.90000 35.15300
H  31.51400 6.13600 36.39000
H  29.66200 5.85900 36.29900
Mg 26.66400 50.35100 26.31300
C  24.55600 51.58800 28.76100
C  28.72500 48.99900 28.81200
C  28.90500 49.54400 23.91800
C  24.79200 52.08100 23.83600
N  26.64100 50.25100 28.56000
C  25.65300 50.82600 29.34100
C  25.91700 50.52000 30.84900
C  27.31600 49.88700 30.86100
C  27.60300 49.68000 29.34000
C  28.46800 50.75000 31.47800
C  24.77300 49.67300 31.51300
C  24.22500 50.10600 32.95800
H  25.22500 50.64700 33.88100
N  28.51100 49.31700 26.33200
C  29.18200 48.85300 27.44600
C  30.45400 48.33400 27.06000
C  30.53100 48.36800 25.66800
C  29.32300 49.07400 25.23400
C  31.50200 47.75100 28.12900
C  31.68000 47.92200 24.81500
O  31.64100 48.02300 23.57800
C  32.90300 47.26000 25.42600
N  26.76600 50.63400 24.17300
C  27.76500 50.14100 23.43800
C  27.49400 50.41700 21.89600
C  26.00800 50.94700 21.93300
C  25.83100 51.28300 23.37600
C  28.53500 51.38300 21.19500
C  24.91600 50.01100 21.39500
C  24.06700 50.42700 20.26100
N  24.95300 51.53400 26.29800
C  24.34700 52.19000 25.24800
C  23.25500 52.93300 25.78900
C  23.21700 52.70700 27.15900
C  24.36400 51.87000 27.38800
C  22.27400 53.71200 25.05300
C  22.57700 53.03200 28.36900
O  21.53000 53.66500 28.61900
C  23.39700 52.28600 29.48700
C  23.88900 53.29400 30.40600
O  24.66300 54.22200 30.14400
O  23.04500 53.33100 31.48800
C  23.33100 54.33700 32.45700
H  29.35200 48.56800 29.59500
H  29.76900 49.27700 23.30600
H  23.96000 52.36400 23.18700
H  26.05200 51.39500 31.48500
H  27.23600 48.90800 31.33200
H  28.68700 51.53700 30.75600
H  29.43300 50.24300 31.49700
H  28.26600 50.92300 32.53500
H  25.17000 48.66100 31.59200
H  23.85300 49.68300 30.92900
H  23.77100 49.17000 33.28100
H  23.47200 50.88100 32.81500
H  32.40600 48.34500 27.98800
H  31.79300 46.71500 27.95800
H  31.15200 47.89300 29.15200
H  33.52400 48.01900 25.90000
H  33.55000 46.89200 24.63000
H  32.65200 46.50500 26.17200
H  27.58200 49.42800 21.44600
H  25.91700 51.88400 21.38300
H  28.93100 50.99000 20.25800
H  29.37700 51.53600 21.87000
H  28.07100 52.34100 20.96100
H  24.33400 49.62800 22.23400
H  25.41500 49.11000 21.03900
H  23.01600 50.41300 20.55000
H  24.21700 49.72600 19.44000
H  24.36800 51.38700 19.84300
H  22.24500 53.37600 24.01600
H  22.49600 54.77600 25.13200
H  21.26400 53.64900 25.45800
H  22.75200 51.56500 29.98900
H  22.50400 54.56400 33.12800
H  23.48800 55.26400 31.90600
H  24.15000 53.96700 33.07300

