158

Mg 30.01100 57.57900 40.98000
C  27.29300 55.70900 39.78400
C  32.11500 55.44500 39.51100
C  32.40900 59.76000 41.67900
C  27.64200 59.97000 42.21200
N  29.73500 55.91700 39.67000
C  28.52400 55.18100 39.43100
C  28.87000 54.04200 38.54100
C  30.32200 53.72000 39.03100
C  30.74100 55.10600 39.45500
C  30.53100 52.65300 40.14700
C  28.62500 54.11200 36.96000
C  27.24900 53.59100 36.48000
H  26.31600 54.63100 35.80500
N  32.01300 57.62500 40.60500
C  32.69900 56.63600 39.93700
C  34.10100 56.92500 39.99600
C  34.26000 58.17900 40.67200
C  32.85800 58.54500 41.03400
C  35.14300 55.99500 39.28800
C  35.52400 58.89400 40.90700
O  36.52900 58.31900 40.54200
C  35.65600 60.07900 41.64100
N  29.97100 59.70800 41.67200
C  31.19700 60.29400 41.88800
C  30.96400 61.76000 42.43200
C  29.45900 61.72600 42.74200
C  28.96100 60.46500 42.18800
C  31.91400 62.03800 43.58300
C  28.67900 63.10100 42.40800
C  27.75600 63.64200 43.42800
N  27.90800 57.91600 41.02800
C  27.09900 58.88000 41.60400
C  25.72400 58.49800 41.32800
C  25.76700 57.25800 40.65700
C  27.12200 56.97300 40.44200
C  24.54800 59.24800 41.90800
C  24.93200 56.19500 40.06400
O  23.72000 56.11500 40.02500
C  25.92300 55.16000 39.44000
C  25.64600 53.88000 40.18900
O  26.19900 53.53000 41.21800
O  24.73800 53.13900 39.41500
C  24.24600 51.98300 40.07300
H  32.76800 54.57200 39.45200
H  33.17900 60.44500 42.04000
H  26.98900 60.70400 42.68900
H  28.18300 53.24200 38.81800
H  30.88100 53.48600 38.12500
H  29.62000 52.06700 40.26800
H  30.70500 53.29400 41.01100
H  31.40200 52.08400 39.82200
H  29.36500 53.55400 36.38800
H  28.76700 55.15200 36.66600
H  26.65300 53.33600 37.35600
H  27.39500 52.69100 35.88200
H  34.77700 55.04700 38.89300
H  36.01300 55.77900 39.90700
H  35.43200 56.50600 38.37000
H  35.06200 60.77700 41.05000
H  36.72300 60.29900 41.61800
H  35.27900 59.96800 42.65800
H  31.20100 62.41300 41.59200
H  29.40200 61.58700 43.82200
H  32.66100 62.72700 43.18700
H  32.48000 61.18400 43.95400
H  31.42800 62.53700 44.42100
H  28.04400 62.87700 41.55100
H  29.39400 63.84100 42.04900
H  28.27200 64.45100 43.94600
H  27.58400 62.95000 44.25200
H  26.85600 63.88500 42.86300
H  24.89900 60.02300 42.58800
H  23.79000 58.54600 42.25700
H  24.06400 59.69600 41.04000
H  25.68300 54.99700 38.39000
H  23.95700 52.26000 41.08600
H  25.01900 51.22300 40.18500
H  23.33700 51.70000 39.54300
Mg 35.43200 47.79700 25.13000
C  35.48500 46.13400 28.20600
C  34.47000 50.63900 26.90900
C  35.03700 49.32000 22.22200
C  36.29700 44.90300 23.48200
N  34.92600 48.32800 27.28100
C  35.15400 47.48600 28.39100
C  34.84900 48.25300 29.73800
C  34.26600 49.57100 29.21500
C  34.67900 49.52600 27.71600
C  32.79500 49.74000 29.56900
C  36.17900 48.45800 30.53700
C  36.08600 48.29000 32.03900
H  34.72100 48.25600 32.79300
N  34.84400 49.71000 24.65900
C  34.46500 50.76900 25.54900
C  34.17100 51.95200 24.77200
C  34.38700 51.57800 23.36400
C  34.79200 50.13700 23.34700
C  33.62500 53.31000 25.34300
C  34.22100 52.38000 22.11500
O  34.33400 52.00100 20.93200
C  33.86800 53.82800 22.23800
N  35.78600 47.28200 23.16100
C  35.42700 48.03400 22.11900
C  35.77000 47.44800 20.73600
C  36.43900 46.08000 21.13500
C  36.15000 45.99800 22.66900
C  34.54100 47.28500 19.83400
C  37.93700 46.01100 20.73700
C  38.50100 44.57800 20.71700
N  35.89900 45.92600 25.69300
C  36.17500 44.78200 24.90300
C  36.49500 43.70000 25.74900
C  36.22100 44.16100 27.03600
C  35.87100 45.53500 26.93500
C  36.72700 42.32000 25.31800
C  36.08300 43.78300 28.38400
O  36.28900 42.71600 28.93200
C  35.59100 45.09000 29.21900
C  34.29800 44.70300 29.75600
O  33.28600 44.44100 29.09800
O  34.33700 44.81600 31.06500
C  33.09700 44.36200 31.80800
H  34.20400 51.54900 27.45100
H  34.91400 49.76600 21.23300
H  36.44000 43.92200 23.02400
H  34.14300 47.71700 30.37300
H  34.83900 50.40000 29.63000
H  32.16300 49.86800 28.69100
H  32.61100 50.69500 30.06100
H  32.37600 48.87200 30.07800
H  36.66700 49.42300 30.40600
H  36.82400 47.64900 30.19300
H  36.65100 49.10200 32.49600
H  36.65100 47.41900 32.37300
H  34.46400 53.94000 25.63700
H  32.94500 53.07300 26.16100
H  33.08800 53.93500 24.62800
H  32.84400 53.86800 22.60900
H  33.99700 54.31900 21.27300
H  34.57700 54.29500 22.92200
H  36.45800 48.23000 20.41700
H  35.89400 45.23500 20.71300
H  34.22100 48.29000 19.56000
H  33.73900 46.84500 20.42700
H  34.82800 46.87200 18.86700
H  38.54600 46.56500 21.45100
H  37.96400 46.39300 19.71700
H  39.32400 44.39400 21.40700
H  38.92200 44.56000 19.71200
H  37.70100 43.84400 20.81500
H  36.40800 41.70500 26.16000
H  37.79300 42.28600 25.09600
H  36.10200 42.14400 24.44200
H  36.24300 45.33400 30.05700
H  32.23900 44.95500 31.49000
H  33.11600 44.74500 32.82900
H  32.96400 43.29500 31.63600

