158

Mg 16.56700 -1.92400 28.11800
C  15.45500 0.01200 31.00000
C  18.71200 -3.49400 30.20100
C  17.76900 -3.29100 25.36000
C  14.89900 0.55100 26.14200
N  17.03800 -1.67800 30.29800
C  16.53600 -0.85600 31.27500
C  17.17200 -1.09100 32.60700
C  18.24600 -2.12900 32.30600
C  18.06200 -2.42000 30.84800
C  19.70600 -1.72100 32.70900
C  16.15800 -1.61700 33.69400
C  16.20700 -0.97600 35.10900
H  17.53200 -0.23400 35.47400
N  17.88200 -3.36100 27.84300
C  18.55800 -3.99400 28.87300
C  19.14400 -5.23200 28.31600
C  18.93400 -5.19500 26.88800
C  18.09600 -3.94300 26.63700
C  19.83100 -6.21700 29.20700
C  19.38500 -6.18000 25.83400
O  19.06300 -6.04900 24.68400
C  20.18000 -7.43800 26.24800
N  16.29400 -1.47700 26.05400
C  17.02100 -2.17000 25.12100
C  16.89200 -1.45300 23.74100
C  15.74700 -0.45300 23.92800
C  15.61300 -0.44200 25.41100
C  18.27600 -0.91800 23.25300
C  14.43100 -0.78300 23.18600
C  14.20000 -0.03900 21.84100
N  15.23200 -0.26900 28.38500
C  14.60700 0.56300 27.49600
C  13.83500 1.57400 28.17100
C  14.10100 1.36300 29.56700
C  14.99600 0.22700 29.66500
C  13.14700 2.70100 27.56600
C  13.87400 1.89300 30.91600
O  13.18300 2.88800 31.27500
C  14.78500 0.99200 31.95400
C  15.67600 2.05200 32.62500
O  16.84600 2.41900 32.38200
O  14.99800 2.65400 33.70500
C  15.69100 3.66200 34.48200
H  19.44700 -4.08000 30.75700
H  18.20100 -3.82600 24.51200
H  14.34500 1.21000 25.47000
H  17.61000 -0.15800 32.96100
H  18.16300 -3.01800 32.93100
H  20.37600 -1.71100 31.85000
H  20.03200 -2.41500 33.48400
H  19.73300 -0.77100 33.24200
H  16.20700 -2.69200 33.86700
H  15.18700 -1.44500 33.23100
H  15.77300 -1.63900 35.85600
H  15.47600 -0.16800 35.13400
H  19.22000 -6.42500 30.08600
H  20.76500 -5.80400 29.58600
H  19.92800 -7.22100 28.79500
H  19.41100 -8.02100 26.75500
H  21.08600 -7.20700 26.80800
H  20.37700 -7.96500 25.31400
H  16.64900 -2.28100 23.07500
H  16.09600 0.54600 23.66800
H  18.17100 0.15900 23.12300
H  18.63600 -1.37100 22.32900
H  19.04500 -1.08600 24.00700
H  13.62800 -0.47600 23.85500
H  14.40100 -1.87100 23.11400
H  15.12700 0.38300 21.45100
H  13.66000 0.84800 22.17200
H  13.51600 -0.65500 21.25800
H  13.22500 3.48100 28.32300
H  12.11500 2.38500 27.41800
H  13.43700 3.04600 26.57300
H  14.09500 0.47900 32.62400
H  15.67200 4.53600 33.83100
H  16.72400 3.39200 34.70300
H  15.13200 3.88600 35.39000
Mg 27.29400 51.21200 26.59100
C  25.36400 52.25800 29.17600
C  29.66300 50.03800 28.91800
C  29.46000 50.43600 24.03400
C  25.01800 52.45500 24.32000
N  27.45100 50.99000 28.73600
C  26.49500 51.52700 29.60600
C  26.79000 51.12500 31.01700
C  28.31400 50.67600 30.93500
C  28.51100 50.58500 29.42700
C  29.24600 51.75000 31.54200
C  25.72500 50.08400 31.48700
C  25.08600 50.07200 32.88500
H  26.05000 50.37600 34.05500
N  29.24500 50.25000 26.50000
C  30.01900 49.80300 27.56200
C  31.21700 49.14600 27.05400
C  31.17000 49.41000 25.61000
C  29.91100 50.11500 25.31700
C  32.35000 48.49800 27.91000
C  32.26600 49.16700 24.63400
O  32.21800 49.47400 23.40800
C  33.52100 48.51000 25.02600
N  27.33700 51.61600 24.51600
C  28.34700 51.15600 23.67800
C  27.84900 51.07500 22.22800
C  26.40900 51.66700 22.30700
C  26.19200 51.90800 23.81400
C  28.78200 51.90200 21.25800
C  25.38400 50.74400 21.79200
C  24.90100 49.51600 22.58600
N  25.49000 52.09900 26.70600
C  24.63300 52.52900 25.72700
C  23.54600 53.32200 26.28100
C  23.74300 53.15600 27.68800
C  24.93500 52.43500 27.88300
C  22.52000 54.13600 25.50200
C  23.20200 53.45200 28.95400
O  22.18600 54.03800 29.22800
C  24.17400 52.78000 29.98100
C  24.58900 53.78000 31.01800
O  25.42000 54.67900 30.78400
O  24.02500 53.59700 32.24600
C  24.29100 54.54000 33.33900
H  30.29500 49.54300 29.65800
H  30.05900 50.06400 23.20000
H  24.21600 52.67900 23.61400
H  26.82500 52.04100 31.60600
H  28.62500 49.66400 31.19200
H  30.26800 51.50800 31.25100
H  29.25300 51.61300 32.62300
H  29.07600 52.79000 31.26400
H  26.34300 49.18700 31.45000
H  24.99200 49.89100 30.70400
H  24.72700 49.06100 33.07700
H  24.19300 50.69600 32.86300
H  32.25900 47.41600 27.82300
H  32.17800 48.58900 28.98300
H  33.29700 48.99900 27.71200
H  33.37700 47.61600 25.63200
H  34.26900 49.08100 25.57500
H  34.01000 48.23100 24.09200
H  27.76900 50.01500 21.99000
H  26.35500 52.58800 21.72600
H  29.75300 52.17900 21.66900
H  28.30200 52.76300 20.79200
H  29.09800 51.35400 20.37100
H  25.73700 50.38000 20.82700
H  24.50800 51.32900 21.51300
H  25.70300 49.27400 23.28200
H  24.82200 48.58100 22.03100
H  24.05100 49.71400 23.23900
H  22.81700 55.14000 25.20100
H  21.74000 54.29800 26.24600
H  22.24100 53.68400 24.55100
H  23.48300 52.03700 30.37900
H  24.86000 55.40600 32.99900
H  24.88900 53.95500 34.03800
H  23.35000 54.90600 33.74800

