158

Mg -2.96400 16.50400 26.85700
C  -3.47400 14.65100 29.83100
C  -3.78800 19.26200 28.64700
C  -3.25500 18.10000 23.93500
C  -2.93900 13.45300 25.12100
N  -3.55100 16.87100 29.16100
C  -3.63500 15.99900 30.17400
C  -4.03300 16.66500 31.49200
C  -4.18000 18.14700 31.04300
C  -3.86600 18.10300 29.49500
C  -5.48400 18.88100 31.34400
C  -3.14300 16.53700 32.75500
C  -3.87300 16.33500 34.01700
H  -2.96900 16.22000 35.29100
N  -3.33700 18.42200 26.39800
C  -3.53300 19.42300 27.25400
C  -3.58100 20.68300 26.50400
C  -3.28600 20.40300 25.12100
C  -3.33100 18.88900 25.07600
C  -3.68900 22.05500 27.20900
C  -3.16400 21.34100 23.94100
O  -3.14000 21.03200 22.74300
C  -3.21500 22.82600 24.21700
N  -3.07600 15.82400 24.86500
C  -3.21600 16.73400 23.75500
C  -3.11800 15.98400 22.42700
C  -2.60700 14.61500 22.89100
C  -2.86100 14.58600 24.40400
C  -4.34300 15.91900 21.49900
C  -1.11000 14.32800 22.63200
C  -0.05600 15.26200 23.17700
N  -3.17800 14.49200 27.33300
C  -3.25100 13.40700 26.47400
C  -3.60000 12.16800 27.30900
C  -3.60400 12.62500 28.65500
C  -3.33700 14.01500 28.57600
C  -3.80700 10.77900 26.77000
C  -3.82100 12.23400 30.03500
O  -4.19000 11.20200 30.53600
C  -3.76600 13.54500 30.89200
C  -2.72800 13.48000 31.83700
O  -1.58700 13.73800 31.61000
O  -3.19100 12.88800 33.01500
C  -2.22300 12.65400 34.07200
H  -3.88000 20.16200 29.25800
H  -2.95700 18.62200 23.02400
H  -2.75600 12.59700 24.46900
H  -5.00800 16.29400 31.80700
H  -3.39900 18.76400 31.48700
H  -5.91200 19.43700 30.50900
H  -5.14900 19.67100 32.01600
H  -6.10100 18.06800 31.72400
H  -2.62100 17.47000 32.97000
H  -2.37900 15.77000 32.62700
H  -4.28300 15.34300 33.82700
H  -4.74700 16.94900 34.23600
H  -2.71500 22.53700 27.29000
H  -3.96800 22.06400 28.26300
H  -4.55700 22.60500 26.84600
H  -2.51400 22.99300 25.03500
H  -4.13500 23.30500 24.55000
H  -2.70300 23.41700 23.45700
H  -2.32600 16.44000 21.83300
H  -3.17000 13.79000 22.45300
H  -4.94100 16.80700 21.70500
H  -4.93000 15.00400 21.56900
H  -3.94000 16.10200 20.50300
H  -1.04500 14.31800 21.54400
H  -0.77700 13.29700 22.75400
H  0.15500 16.07600 22.48300
H  0.90400 14.75400 23.07800
H  -0.24000 15.72800 24.14400
H  -2.83400 10.34600 26.53900
H  -4.43900 10.73200 25.88300
H  -4.24100 10.28500 27.63900
H  -4.65600 13.75400 31.48600
H  -1.56700 13.52100 34.14400
H  -1.66100 11.75800 33.80500
H  -2.67100 12.70500 35.06400
Mg 27.36900 50.20300 26.65400
C  25.43100 51.01500 29.34000
C  29.76800 48.99900 28.83600
C  29.64700 50.02100 24.10400
C  25.00900 51.44000 24.52300
N  27.60800 50.19000 28.88900
C  26.56900 50.45100 29.76300
C  27.03400 49.99700 31.17100
C  28.57000 49.55700 30.97400
C  28.66400 49.53900 29.45300
C  29.57900 50.46900 31.78900
C  26.17000 48.87900 31.77800
C  25.39600 49.21200 33.00000
H  26.14100 49.75800 34.18400
N  29.40900 49.47800 26.49600
C  30.20400 49.01200 27.49900
C  31.38100 48.44500 26.97500
C  31.46400 48.87000 25.65300
C  30.15500 49.58700 25.38100
C  32.30700 47.61300 27.84100
C  32.63100 48.85300 24.57700
O  32.57600 49.36100 23.47000
C  33.89800 48.17400 24.89400
N  27.36800 50.59800 24.56900
C  28.41000 50.38500 23.69700
C  27.98200 50.73900 22.27300
C  26.45100 51.22500 22.43800
C  26.24700 51.07300 23.92800
C  28.95900 51.87400 21.61300
C  25.47400 50.37400 21.52400
C  24.20900 51.13600 21.00100
N  25.62600 51.12700 26.85900
C  24.74900 51.55600 25.86900
C  23.56500 52.08000 26.50200
C  23.77300 51.83000 27.88200
C  25.05300 51.32100 28.05200
C  22.36500 52.76100 25.91900
C  23.10800 51.87400 29.21600
O  22.01400 52.32900 29.53500
C  24.15800 51.34800 30.23700
C  24.36700 52.20100 31.39100
O  25.26600 52.96900 31.59800
O  23.32700 51.86100 32.26000
C  23.39500 52.45200 33.53600
H  30.44800 48.58400 29.58300
H  30.44500 49.98800 23.36000
H  24.19000 51.75400 23.87200
H  26.92900 50.91400 31.75000
H  28.83300 48.54800 31.29400
H  30.61900 50.20100 31.60400
H  29.45100 50.51600 32.87000
H  29.41900 51.51900 31.54600
H  26.84700 48.03300 31.89400
H  25.48200 48.50700 31.01900
H  24.86600 48.28000 33.19400
H  24.65100 49.97000 32.75800
H  33.14100 48.28100 28.05600
H  32.65100 46.79000 27.21600
H  31.95500 47.32900 28.83300
H  34.64800 48.33700 24.11900
H  33.57400 47.13300 24.88600
H  34.18200 48.45000 25.90900
H  27.96900 49.80600 21.71100
H  26.34500 52.29700 22.26800
H  29.84400 52.02600 22.23100
H  28.32800 52.73700 21.39900
H  29.35700 51.57800 20.64200
H  25.08300 49.56400 22.14100
H  26.05600 50.05200 20.66100
H  24.05700 52.12400 21.43700
H  23.29100 50.60900 21.25700
H  24.25200 51.33300 19.92900
H  21.59200 52.07600 25.57000
H  22.68800 53.28800 25.02100
H  21.98800 53.44500 26.67900
H  23.76400 50.40000 30.60400
H  22.49000 52.03800 33.97900
H  23.45900 53.54100 33.54200
H  24.24000 52.02800 34.07900

