158

Mg 1.01500 7.19800 25.74500
C  1.64100 9.20100 28.60000
C  1.38900 4.44500 27.61000
C  0.46300 5.38800 22.95400
C  1.14100 10.17100 23.78300
N  1.59300 6.93800 27.88300
C  1.60400 7.83900 28.86500
C  1.71100 7.06500 30.21600
C  2.03200 5.60900 29.80300
C  1.73400 5.65900 28.28600
C  3.47400 5.08400 30.08800
C  0.47600 7.25300 31.17500
C  0.76400 7.71400 32.61100
H  1.97300 7.12600 33.25900
N  0.79400 5.23100 25.38400
C  0.94100 4.21700 26.28100
C  0.62700 2.92900 25.71100
C  0.41300 3.13800 24.30500
C  0.49600 4.62200 24.17300
C  0.64900 1.61000 26.39400
C  0.09400 2.09500 23.20900
O  -0.13900 2.41500 22.02500
C  0.04400 0.58900 23.49100
N  0.52500 7.77800 23.75100
C  0.59100 6.73900 22.78600
C  0.66700 7.40700 21.34900
C  0.56400 8.93900 21.64100
C  0.71400 9.00600 23.14400
C  1.94100 6.98900 20.59800
C  -0.69500 9.68900 21.06300
C  -0.37600 10.90600 20.20600
N  1.35000 9.20700 26.03000
C  1.45500 10.30400 25.14000
C  1.57500 11.56100 25.89900
C  1.71700 11.13000 27.24100
C  1.52300 9.72700 27.28900
C  1.55600 12.96300 25.42600
C  1.98800 11.59400 28.57600
O  2.30500 12.72200 28.98200
C  1.86000 10.36900 29.53300
C  2.98100 10.19200 30.43100
O  4.06600 9.63200 30.26500
O  2.63900 10.80400 31.61400
C  3.70300 10.80900 32.63600
H  1.44000 3.55500 28.24000
H  0.30600 4.89900 21.99000
H  1.32100 11.05900 23.17200
H  2.55100 7.52200 30.74000
H  1.41800 4.90300 30.36200
H  4.05400 5.87300 30.56600
H  3.98000 4.89100 29.14200
H  3.49300 4.23800 30.77500
H  -0.14200 6.35900 31.26500
H  -0.13300 8.08400 30.82100
H  -0.11200 7.49900 33.22400
H  0.91700 8.79100 32.66400
H  0.41200 1.72900 27.45100
H  1.54900 0.99900 26.32000
H  -0.20000 0.99600 26.09300
H  0.94500 0.16300 23.93300
H  -0.19600 0.17600 22.51200
H  -0.82300 0.49600 24.14400
H  -0.10500 7.05400 20.66500
H  1.44900 9.41100 21.21500
H  2.31700 7.81800 19.99900
H  1.80800 6.11200 19.96500
H  2.74000 6.74300 21.29700
H  -1.32800 10.09200 21.85400
H  -1.19100 8.93700 20.45100
H  -1.27500 11.23100 19.68300
H  0.54200 10.87300 19.61800
H  -0.31000 11.76000 20.88000
H  0.55500 13.16900 25.04700
H  2.50400 13.19300 24.93900
H  1.63600 13.51300 26.36400
H  0.92700 10.52200 30.07500
H  3.61700 9.92100 33.26200
H  3.59300 11.59200 33.38600
H  4.74000 10.85100 32.30300
Mg 25.90400 -0.34700 28.98500
C  27.83600 -0.30500 31.93600
C  23.12400 -0.07800 30.93400
C  24.09100 -0.33700 26.17700
C  28.72900 -1.39300 27.19800
N  25.56400 -0.37300 31.29400
C  26.46500 -0.07700 32.25900
C  25.88200 0.17800 33.68400
C  24.36900 0.16000 33.27000
C  24.34400 -0.10900 31.68800
C  23.47400 -0.96800 34.02500
C  26.48500 1.36900 34.42300
C  27.09200 1.24100 35.72700
H  26.78200 2.22800 36.86700
N  23.84900 -0.22800 28.62100
C  22.88100 -0.08900 29.55800
C  21.62800 0.11500 28.88000
C  21.86500 0.17700 27.48500
C  23.28200 -0.16800 27.36900
C  20.32700 0.16900 29.67800
C  20.98700 0.39300 26.27800
O  21.39600 0.41300 25.11200
C  19.52700 0.61500 26.48800
N  26.35900 -0.87700 26.92700
C  25.42900 -0.66400 25.91400
C  26.05900 -0.92700 24.58900
C  27.56200 -1.22600 24.96600
C  27.55400 -1.17600 26.43400
C  25.49000 -1.87900 23.53700
C  28.63700 -0.37600 24.16900
C  28.97900 1.01600 24.69400
N  27.90000 -0.79000 29.39500
C  28.91400 -1.22300 28.56700
C  30.19800 -1.26000 29.37500
C  29.77500 -0.87900 30.62200
C  28.41300 -0.67000 30.63600
C  31.58400 -1.58300 28.85100
C  30.31200 -0.65200 31.93000
O  31.46300 -0.82400 32.28700
C  29.05100 -0.30600 32.80200
C  28.83800 -1.35400 33.81300
O  28.32200 -2.45500 33.64000
O  29.41400 -0.93400 35.00400
C  29.31600 -1.77800 36.20700
H  22.34200 0.00400 31.69100
H  23.59500 -0.23000 25.21000
H  29.59200 -1.58700 26.55900
H  26.07900 -0.79200 34.13900
H  23.83400 1.10900 33.30000
H  23.98300 -1.32300 34.92200
H  23.40900 -1.80900 33.33600
H  22.43100 -0.73000 34.23600
H  25.78400 2.20300 34.44600
H  27.27700 1.83300 33.83500
H  28.17100 1.11900 35.63700
H  26.85400 0.23600 36.07500
H  20.58100 0.39600 30.71300
H  19.83800 -0.79100 29.50600
H  19.80700 1.01500 29.22800
H  19.05800 0.66500 25.50500
H  19.32100 1.48400 27.11300
H  19.21600 -0.33700 26.91800
H  26.18500 0.02900 24.08100
H  27.80500 -2.28200 24.84900
H  26.29400 -2.37500 22.99300
H  24.88900 -1.29900 22.83700
H  24.81000 -2.60100 23.98700
H  28.37400 -0.41200 23.11200
H  29.53000 -1.00100 24.18500
H  29.97300 0.99200 25.14300
H  28.27600 1.20100 25.50600
H  28.95300 1.81800 23.95700
H  32.26500 -1.00000 29.47000
H  31.69200 -1.39000 27.78400
H  31.70100 -2.63000 29.13200
H  29.07600 0.70900 33.19800
H  29.34300 -2.84400 35.98500
H  28.39200 -1.62300 36.76300
H  30.26800 -1.57600 36.69800

