158

Mg 34.71400 2.97600 29.65900
C  32.63900 3.97700 32.17900
C  37.43300 2.98700 31.91700
C  36.95300 2.38900 27.13300
C  32.19900 3.33700 27.33300
N  34.98800 3.27800 31.85400
C  33.98100 3.79500 32.63500
C  34.38900 3.85500 34.13300
C  35.94400 3.77300 33.92500
C  36.20700 3.32600 32.49100
C  36.69800 5.08400 34.28900
C  33.78900 2.75600 35.08600
C  33.57700 3.12400 36.58000
H  34.66300 4.05500 37.12600
N  36.81600 2.49400 29.55900
C  37.73600 2.62200 30.55700
C  39.00200 2.30200 30.03800
C  38.94800 2.09400 28.71000
C  37.51300 2.40400 28.36100
C  40.25700 2.43100 30.88600
C  39.95700 1.56900 27.70200
O  39.75800 1.49900 26.45700
C  41.28900 1.04600 28.10600
N  34.64100 2.87600 27.53200
C  35.67300 2.50900 26.72000
C  35.31200 2.51500 25.32000
C  33.71600 2.40200 25.45900
C  33.44500 2.82900 26.91000
C  35.96000 3.76200 24.53400
C  33.14100 0.96400 25.16000
C  32.09300 0.92600 24.06600
N  32.83500 3.53900 29.68800
C  31.87800 3.62600 28.65700
C  30.62100 4.01800 29.22900
C  30.84300 4.20900 30.56400
C  32.25500 3.87200 30.79600
C  29.35300 4.21200 28.47000
C  30.26100 4.52500 31.86100
O  29.10200 4.69600 32.18600
C  31.36400 4.44400 32.90000
C  31.50000 5.54000 33.75800
O  32.01200 6.58100 33.40300
O  31.29500 5.29300 35.05500
C  31.54500 6.31600 36.05600
H  38.27300 2.92300 32.61200
H  37.71400 2.32500 26.35200
H  31.40100 3.47400 26.59900
H  34.23300 4.88700 34.44800
H  36.37800 2.89500 34.40200
H  36.05900 5.73800 34.88200
H  36.93900 5.59200 33.35600
H  37.63500 4.83700 34.78700
H  34.45600 1.89800 35.16300
H  32.80800 2.42000 34.75000
H  33.71100 2.21500 37.16600
H  32.56900 3.51100 36.72700
H  40.04200 2.80900 31.88500
H  40.86900 3.13300 30.31900
H  40.62200 1.40400 30.89200
H  41.19500 0.14200 28.70700
H  41.75900 1.80000 28.73800
H  41.77300 0.91400 27.13800
H  35.83100 1.66500 24.87700
H  33.23900 3.08600 24.75600
H  35.35700 4.42900 23.91800
H  36.75700 3.42200 23.87200
H  36.34600 4.46700 25.27000
H  32.59700 0.68200 26.06200
H  33.94300 0.25100 24.97100
H  32.40100 0.16600 23.34800
H  31.78500 1.82800 23.53700
H  31.23900 0.53800 24.62300
H  29.60700 4.87200 27.64100
H  28.58700 4.68400 29.08500
H  29.02400 3.20500 28.21600
H  31.02000 3.59100 33.48400
H  31.07600 5.91800 36.95600
H  30.98000 7.23800 35.92100
H  32.58400 6.64500 36.09300
Mg 47.37500 25.77300 27.62500
C  48.17400 28.18200 30.15300
C  47.02400 23.49500 30.13900
C  46.91800 23.40600 25.21800
C  48.91000 27.83600 25.26300
N  47.51300 25.89100 29.81400
C  47.72700 26.97000 30.66600
C  47.59300 26.64800 32.11100
C  47.50300 25.08300 32.05200
C  47.33900 24.81400 30.60900
C  48.72000 24.28300 32.70900
C  46.44500 27.45600 32.78900
C  45.84300 26.96200 34.12900
H  45.80300 27.93200 35.28900
N  46.90600 23.72900 27.63300
C  46.79500 22.97000 28.82900
C  46.29200 21.63400 28.53000
C  46.19000 21.60200 27.04700
C  46.74400 22.89100 26.55400
C  46.10700 20.56800 29.55600
C  45.69700 20.48800 26.15700
O  45.75800 20.59300 24.93600
C  45.13500 19.25500 26.64400
N  47.79700 25.62500 25.51000
C  47.52300 24.58100 24.69100
C  47.89800 24.87400 23.21400
C  48.08200 26.42700 23.25400
C  48.32100 26.63900 24.75700
C  49.03600 23.94800 22.73800
C  46.92200 27.29000 22.65000
C  47.35500 28.49800 21.79800
N  48.29000 27.64800 27.63900
C  48.93300 28.26800 26.63100
C  49.34600 29.59200 27.13400
C  49.06600 29.59600 28.51800
C  48.47200 28.38000 28.79100
C  49.88000 30.70000 26.32400
C  49.15600 30.38900 29.76400
O  49.68200 31.51200 29.93100
C  48.58100 29.48400 30.93500
C  49.62700 29.28800 31.95500
O  50.54000 28.40900 32.00900
O  49.25900 30.05900 33.06000
C  49.82400 29.57200 34.31700
H  46.87300 22.71000 30.88400
H  46.85000 22.67700 24.40800
H  49.32600 28.48200 24.48800
H  48.58400 26.90400 32.48400
H  46.65000 24.77100 32.65500
H  49.51000 24.91900 33.10800
H  49.24900 23.71600 31.94300
H  48.33600 23.58200 33.45000
H  45.61000 27.55200 32.09600
H  46.90800 28.43000 32.94900
H  46.22100 25.96600 34.36100
H  44.77700 26.77000 34.01100
H  45.07400 20.22500 29.51300
H  46.19400 20.88000 30.59600
H  46.77700 19.76000 29.26400
H  44.21600 19.40400 27.20900
H  45.92700 18.72800 27.17500
H  44.78000 18.72600 25.76000
H  47.04900 24.60900 22.58500
H  49.03800 26.52000 22.73900
H  49.38100 23.38000 23.60100
H  49.80900 24.57500 22.29400
H  48.52800 23.26800 22.05400
H  46.31500 27.63900 23.48500
H  46.22900 26.66300 22.08900
H  47.45000 29.37600 22.43800
H  46.53400 28.65200 21.09800
H  48.26300 28.32500 21.22000
H  49.16100 31.06600 25.59100
H  50.81100 30.47900 25.80300
H  50.09400 31.47100 27.06500
H  47.71300 29.89600 31.45100
H  50.90800 29.48400 34.23700
H  49.29400 28.64100 34.51500
H  49.63400 30.33900 35.06900

