158

Mg 9.34200 48.79800 25.98900
C  7.27100 49.16300 28.85900
C  11.99000 49.85100 27.79800
C  11.06100 48.68100 23.11800
C  6.37000 48.32700 24.12100
N  9.54500 49.33900 28.11000
C  8.58600 49.33400 29.14700
C  9.31200 49.63700 30.42200
C  10.67000 50.31400 29.94000
C  10.78200 49.81600 28.48200
C  10.61300 51.84600 30.12700
C  9.60300 48.37600 31.28000
C  9.87400 48.55400 32.71800
H  9.94400 47.33600 33.61400
N  11.26500 49.14600 25.55700
C  12.26800 49.48200 26.50400
C  13.47800 49.38100 25.78400
C  13.25700 49.15900 24.40200
C  11.81100 48.96000 24.28400
C  14.83400 49.61500 26.50200
C  14.23700 49.11900 23.28100
O  13.92600 48.90900 22.09700
C  15.67200 49.44700 23.58800
N  8.80300 48.61000 23.95200
C  9.69900 48.54200 22.95900
C  9.02700 48.30000 21.53200
C  7.55500 48.44200 21.83900
C  7.57100 48.47500 23.42600
C  9.55100 49.20900 20.38800
C  6.64500 47.35400 21.27600
C  5.66700 47.77500 20.16300
N  7.28000 48.56700 26.34700
C  6.20100 48.35800 25.49000
C  4.97400 48.31500 26.20900
C  5.37500 48.66600 27.56600
C  6.77600 48.86500 27.56800
C  3.65800 48.16700 25.56600
C  4.85300 48.93500 28.87400
O  3.71800 49.09500 29.36100
C  6.11300 49.13600 29.79300
C  6.18000 47.94800 30.74800
O  6.08700 46.76400 30.41600
O  6.46000 48.46300 31.98500
C  6.53600 47.43500 33.02500
H  12.84700 50.27600 28.32500
H  11.68800 48.60300 22.22800
H  5.43600 48.24000 23.56200
H  8.60600 50.24700 30.98700
H  11.49100 49.92800 30.54500
H  9.57700 52.18100 30.08000
H  11.04500 52.34200 29.25700
H  11.06500 52.03500 31.10100
H  10.59700 48.06500 30.95700
H  8.96000 47.53300 31.02600
H  9.04900 49.10600 33.16800
H  10.76400 49.17900 32.80000
H  14.55500 49.82500 27.53500
H  15.38600 50.49500 26.17200
H  15.43800 48.70800 26.50700
H  16.11000 48.85700 24.39200
H  15.66700 50.47800 23.94300
H  16.28100 49.52800 22.68800
H  9.12300 47.26300 21.20900
H  7.07200 49.39100 21.60500
H  8.69300 49.71900 19.95200
H  10.08200 48.55200 19.69900
H  10.30100 49.89200 20.78800
H  5.97000 46.92100 22.01400
H  7.21300 46.52400 20.85400
H  4.67900 47.65200 20.60800
H  5.73000 47.02100 19.37900
H  5.78400 48.78900 19.78000
H  3.57600 47.24600 24.98900
H  3.47500 49.01600 24.90800
H  2.89000 48.22000 26.33700
H  5.92600 50.02200 30.40000
H  5.72400 46.71800 32.90300
H  6.46900 47.85000 34.03100
H  7.47900 46.89200 32.97200
Mg -2.46900 35.57700 26.90200
C  -3.93000 33.53400 29.36600
C  -1.19200 37.48800 29.43100
C  -1.23200 37.50000 24.51000
C  -4.11000 33.57300 24.54300
N  -2.50400 35.42100 29.16500
C  -3.12300 34.49600 29.95100
C  -2.80700 34.75200 31.47900
C  -1.81800 36.00400 31.38800
C  -1.82900 36.36100 29.90900
C  -2.20500 37.19600 32.30100
C  -2.19400 33.51200 32.26200
C  -1.25700 33.83100 33.47500
H  -1.68200 33.40900 34.88100
N  -1.30100 37.20400 26.99300
C  -0.82000 37.83600 28.05400
C  0.12600 38.82800 27.59300
C  0.13000 38.83900 26.17200
C  -0.86100 37.85400 25.80600
C  0.97200 39.61500 28.62400
C  0.88100 39.74600 25.25900
O  0.63200 39.90700 24.08500
C  1.86700 40.74000 25.95300
N  -2.70000 35.59200 24.86200
C  -2.05900 36.46900 24.01600
C  -2.38500 36.15600 22.54300
C  -3.28800 34.91100 22.58700
C  -3.38800 34.64000 24.09000
C  -3.00000 37.42500 21.78100
C  -2.62800 33.79100 21.74600
C  -1.59200 32.87900 22.53400
N  -3.88800 33.93300 26.84300
C  -4.39600 33.21400 25.84700
C  -5.15600 32.05500 26.34200
C  -4.98200 32.21500 27.73700
C  -4.16100 33.27600 27.96600
C  -5.84400 31.07900 25.56000
C  -5.25000 31.61600 29.02100
O  -5.86900 30.60300 29.31900
C  -4.58500 32.42400 30.08100
C  -5.71800 32.74800 30.99100
O  -6.83300 33.17800 30.59600
O  -5.41400 32.41000 32.23600
C  -6.47100 32.72400 33.22700
H  -0.75300 38.15300 30.17800
H  -0.78000 38.03600 23.67300
H  -4.43900 32.93000 23.72400
H  -3.78500 35.02900 31.87200
H  -0.79200 35.76000 31.66400
H  -1.48600 38.00900 32.40600
H  -2.10300 36.71800 33.27500
H  -3.24900 37.49800 32.22400
H  -1.72700 32.83900 31.54400
H  -3.05300 32.95600 32.63900
H  -1.13900 34.91300 33.53000
H  -0.31500 33.40800 33.12600
H  0.89900 39.32300 29.67100
H  0.86900 40.70000 28.62900
H  2.01200 39.31600 28.49300
H  1.39300 41.50400 26.56900
H  2.58900 40.99100 25.17700
H  2.45700 40.01000 26.50700
H  -1.43700 35.97300 22.03600
H  -4.27600 35.19100 22.22100
H  -2.17100 37.65900 21.11400
H  -3.06300 38.27500 22.46100
H  -3.98300 37.19400 21.37000
H  -2.21700 34.25100 20.84700
H  -3.47900 33.18700 21.43300
H  -1.05900 33.32600 23.37400
H  -0.88600 32.76100 21.71300
H  -1.97200 31.91300 22.86500
H  -6.85000 31.38400 25.27300
H  -5.76500 30.12500 26.08100
H  -5.28100 30.93400 24.63800
H  -3.78800 32.01400 30.70100
H  -7.14700 31.87000 33.18100
H  -7.11300 33.60000 33.13900
H  -6.05100 32.72200 34.23300

