158

Mg 10.23900 47.23400 26.30700
C  8.44300 47.36900 29.27900
C  12.92600 48.45200 27.96900
C  11.83900 47.02300 23.40100
C  7.14600 46.69100 24.59300
N  10.66400 47.81100 28.32500
C  9.82200 47.71200 29.43800
C  10.51900 48.21900 30.65500
C  11.74500 49.06300 30.07900
C  11.78200 48.45600 28.67100
C  11.62100 50.65800 30.08500
C  10.84300 47.12500 31.66400
C  10.19800 47.31700 33.07700
H  10.40900 46.17100 34.11400
N  12.17400 47.55500 25.82500
C  13.18000 47.99900 26.65600
C  14.48400 47.87500 25.99800
C  14.15700 47.36100 24.69100
C  12.67600 47.37900 24.51300
C  15.80000 47.99800 26.81300
C  15.17700 47.06500 23.56000
O  14.76700 46.84000 22.39800
C  16.61800 47.01800 23.85200
N  9.55700 46.93600 24.25300
C  10.45900 46.84800 23.24800
C  9.73100 46.38400 21.97000
C  8.31000 46.13600 22.52100
C  8.33500 46.69900 23.87400
C  9.95900 47.26200 20.69800
C  7.79100 44.73400 22.45100
C  8.62900 43.65600 23.10600
N  8.14900 47.10700 26.75500
C  7.07400 46.86200 25.98600
C  5.91300 46.72100 26.86000
C  6.35800 46.93900 28.16100
C  7.71300 47.14200 28.01500
C  4.51300 46.40000 26.47700
C  6.03100 46.99500 29.59700
O  4.98600 46.82800 30.18200
C  7.31400 47.35300 30.32400
C  7.57400 46.21900 31.37600
O  8.16800 45.17500 31.13700
O  6.94100 46.43300 32.55700
C  6.95900 45.36600 33.58500
H  13.79000 48.82800 28.52300
H  12.38100 46.91000 22.46000
H  6.11000 46.66300 24.24900
H  9.78100 48.89600 31.08700
H  12.67100 48.70000 30.52400
H  10.70400 50.83000 30.64900
H  11.55200 51.04900 29.07000
H  12.43500 51.14400 30.62200
H  11.90900 47.13200 31.89400
H  10.61600 46.12300 31.30200
H  9.16100 47.64100 32.98800
H  10.47800 48.19400 33.66000
H  15.50800 47.70000 27.82000
H  16.13900 49.02800 26.92300
H  16.56600 47.30700 26.46100
H  17.13900 46.71600 22.94400
H  16.73900 46.26400 24.63000
H  16.88100 47.99100 24.26700
H  10.16600 45.40500 21.77000
H  7.57700 46.75800 22.00600
H  10.68300 48.06400 20.84100
H  9.02600 47.78600 20.49300
H  10.22100 46.64800 19.83700
H  7.82100 44.56600 21.37500
H  6.78900 44.63000 22.86600
H  9.50500 44.21700 23.42900
H  9.00400 42.87100 22.45000
H  8.11300 43.18300 23.94200
H  4.59600 45.38600 26.08500
H  4.12700 46.95200 25.62000
H  3.92500 46.38200 27.39400
H  7.16800 48.22100 30.96700
H  7.96500 45.24500 33.98700
H  6.62000 44.38400 33.25300
H  6.35200 45.76500 34.39700
Mg 1.12900 42.24400 26.81800
C  2.66600 42.16600 29.98000
C  -1.75600 41.03600 28.31000
C  -0.15100 41.72800 23.73700
C  4.23900 42.82200 25.45000
N  0.55500 41.64600 28.89100
C  1.28000 41.84200 30.04800
C  0.36600 41.68200 31.32100
C  -0.99600 41.21500 30.75600
C  -0.73400 41.27900 29.18500
C  -1.23500 39.77700 31.12800
C  0.33900 42.95700 32.15100
C  0.51000 42.84600 33.61700
H  -0.09900 41.63400 34.26500
N  -0.76700 41.66700 26.07000
C  -1.82900 41.18200 26.90500
C  -2.91200 40.81000 26.02300
C  -2.49800 41.09700 24.66200
C  -1.11600 41.56400 24.73700
C  -4.30600 40.26000 26.57100
C  -3.33000 40.86200 23.36000
O  -2.89800 41.23200 22.26100
C  -4.72400 40.28300 23.35100
N  1.91400 42.40200 24.94200
C  1.20700 42.05000 23.79500
C  2.13300 42.02100 22.57400
C  3.38200 42.79100 23.07000
C  3.19500 42.72500 24.58400
C  2.36600 40.58300 21.92700
C  3.44000 44.23200 22.69000
C  3.82900 44.44200 21.16400
N  3.04000 42.58500 27.43600
C  4.19600 42.80100 26.78700
C  5.27300 43.08300 27.73100
C  4.69500 42.85600 28.93500
C  3.34600 42.49600 28.78300
C  6.72600 43.38800 27.46100
C  4.93300 42.72100 30.35000
O  6.05000 42.77800 30.88000
C  3.62800 42.40100 31.11100
C  3.84900 41.07300 31.80600
O  3.88100 39.98000 31.31700
O  4.07100 41.33600 33.16200
C  4.25100 40.15600 34.06000
H  -2.66300 40.66500 28.79100
H  -0.55500 41.51800 22.74400
H  5.24000 42.85200 25.01400
H  0.76000 40.90500 31.97600
H  -1.76500 41.88100 31.14800
H  -2.31000 39.65000 31.25100
H  -0.63100 39.59600 32.01700
H  -0.90500 39.10700 30.33400
H  -0.61200 43.45200 31.95600
H  1.11800 43.61000 31.75700
H  0.19500 43.78300 34.07600
H  1.57800 42.89600 33.82900
H  -4.20700 40.12200 27.64700
H  -4.47700 39.23600 26.23800
H  -5.18800 40.86200 26.35200
H  -4.80500 39.33000 23.87400
H  -4.96800 40.10000 22.30400
H  -5.44900 41.01400 23.70900
H  1.65600 42.56300 21.75800
H  4.28600 42.26700 22.76000
H  1.46300 39.98500 22.05100
H  3.22000 40.03500 22.32700
H  2.47600 40.56900 20.84300
H  4.34100 44.57900 23.19600
H  2.54900 44.73300 23.06700
H  3.00400 44.95200 20.66500
H  4.03200 43.46100 20.73500
H  4.74400 45.02600 21.06700
H  7.02300 43.82800 28.41300
H  6.86300 44.01700 26.58100
H  7.31900 42.47400 27.44000
H  3.38500 43.24800 31.75300
H  5.28500 40.17400 34.40400
H  4.02600 39.20900 33.56900
H  3.59600 40.21800 34.92900

