158

Mg 44.29600 3.91400 47.09400
C  42.55200 6.88500 46.60500
C  41.37100 2.15900 46.68700
C  46.17200 1.15200 46.64000
C  47.28000 5.83400 47.14200
N  42.26100 4.44500 46.45000
C  41.74800 5.72400 46.34200
C  40.26600 5.75300 46.12300
C  39.86100 4.24600 46.35600
C  41.19700 3.56400 46.65800
C  38.82200 4.03500 47.49100
C  39.96500 6.08100 44.55600
C  39.07900 7.27600 44.27700
H  39.48500 8.30500 43.17300
N  43.77400 1.87800 46.83000
C  42.50300 1.35000 46.74500
C  42.62000 -0.05100 46.57900
C  44.07200 -0.34500 46.54300
C  44.76300 0.91800 46.71100
C  41.42500 -0.99300 46.46400
C  44.58800 -1.78800 46.32100
O  43.80600 -2.63200 45.98500
C  46.04300 -2.22300 46.37600
N  46.38600 3.56300 46.92400
C  46.84800 2.32400 46.76500
C  48.36000 2.24900 46.60800
C  48.74700 3.81500 46.73900
C  47.37300 4.47600 46.88500
C  49.15900 1.30200 47.56000
C  49.59400 4.35600 45.60600
C  50.96300 4.95600 46.12500
N  44.84600 5.93900 46.87000
C  46.05900 6.58000 47.01800
C  45.87100 8.05000 47.06400
C  44.50800 8.21800 46.90900
C  43.92100 6.87600 46.81800
C  46.94700 9.11500 47.28100
C  43.48700 9.25500 46.92500
O  43.56900 10.48900 47.00300
C  42.18200 8.37000 46.62000
C  41.18000 8.52600 47.75600
O  41.27900 7.91700 48.84400
O  40.18100 9.47800 47.52400
C  39.27100 9.74500 48.68900
H  40.45400 1.56700 46.65100
H  46.68400 0.23800 46.33200
H  48.24800 6.33600 47.20500
H  39.71000 6.49100 46.70300
H  39.39700 3.82000 45.46700
H  38.57700 4.85500 48.16700
H  39.18800 3.27300 48.18000
H  37.88900 3.59500 47.13900
H  39.47100 5.24300 44.06500
H  40.86200 6.35900 44.00300
H  38.98100 7.84500 45.20200
H  38.04200 7.01600 44.06400
H  41.33600 -1.73700 47.25500
H  41.45900 -1.55900 45.53300
H  40.45200 -0.50100 46.46900
H  46.68100 -1.73300 45.64000
H  46.13100 -3.29900 46.22700
H  46.47200 -2.02300 47.35800
H  48.39800 1.86300 45.58900
H  49.20300 3.92500 47.72300
H  48.55500 0.72200 48.25700
H  49.83200 1.96000 48.11000
H  49.80000 0.66700 46.94900
H  49.01200 5.08900 45.04700
H  49.76400 3.53200 44.91200
H  51.69400 4.30100 45.65200
H  51.03300 5.07200 47.20700
H  51.23200 5.96600 45.81600
H  46.54400 9.96100 47.83900
H  47.25300 9.37900 46.26800
H  47.79000 8.72700 47.85300
H  41.74900 8.77400 45.70500
H  39.80800 10.28900 49.46700
H  38.75600 8.84300 49.02100
H  38.53500 10.43000 48.26800
Mg 26.98000 50.46700 26.11000
C  24.91200 51.53800 28.82700
C  29.30800 49.55300 28.51400
C  29.11500 49.93300 23.60200
C  24.76500 51.93300 23.94600
N  27.02400 50.52600 28.47000
C  26.08100 50.95900 29.32500
C  26.44900 50.61300 30.80100
C  27.97100 50.19800 30.65000
C  28.18700 50.16600 29.07500
C  29.04000 51.01100 31.42300
C  25.51800 49.54700 31.51600
C  24.97900 49.63000 32.97700
H  25.82300 50.23700 34.13000
N  28.89400 49.64200 26.05700
C  29.67500 49.30600 27.10400
C  30.89800 48.78000 26.56600
C  30.82400 48.92600 25.17900
C  29.61500 49.57400 24.89100
C  31.92000 48.15200 27.46800
C  31.74100 48.33000 24.08800
O  31.75300 48.74300 22.90700
C  32.92400 47.51600 24.55100
N  26.97900 50.89400 24.05100
C  27.93500 50.56700 23.19500
C  27.48000 50.75500 21.76200
C  26.00400 51.31700 21.89000
C  25.89100 51.40400 23.38200
C  28.37600 51.73400 20.95300
C  24.82000 50.52500 21.04000
C  23.86700 51.29800 20.09000
N  25.23800 51.57600 26.32600
C  24.47900 52.11600 25.32300
C  23.38100 52.85500 25.95400
C  23.52600 52.65500 27.33000
C  24.63500 51.79900 27.49400
C  22.30000 53.59900 25.22300
C  22.85200 52.87700 28.54000
O  21.81400 53.44900 28.71800
C  23.79300 52.24200 29.61400
C  24.45600 53.31900 30.39900
O  25.39200 53.98500 30.14000
O  23.79000 53.51600 31.51700
C  24.52000 54.14900 32.65400
H  30.07300 49.29500 29.24900
H  29.74000 49.63200 22.75800
H  23.97700 52.30200 23.28500
H  26.31700 51.51900 31.39200
H  28.10900 49.21000 31.09000
H  29.74000 51.44100 30.70700
H  29.64300 50.29300 31.97900
H  28.65800 51.84800 32.00700
H  25.87300 48.51600 31.52100
H  24.68100 49.39400 30.83400
H  24.92000 48.57900 33.26000
H  23.94800 49.98300 33.01300
H  31.90400 47.09600 27.19900
H  31.69200 48.21700 28.53200
H  32.92900 48.52600 27.29500
H  33.63400 47.42000 23.72900
H  32.64000 46.51800 24.88500
H  33.25800 48.14300 25.37800
H  27.36900 49.77400 21.30000
H  25.88700 52.36900 21.62900
H  29.23100 52.05500 21.54800
H  27.85800 52.63500 20.62600
H  28.68000 51.13800 20.09200
H  24.26400 49.93300 21.76800
H  25.35800 49.81000 20.41800
H  23.37900 52.21900 20.41200
H  23.08400 50.62300 19.74500
H  24.54200 51.44100 19.24700
H  21.80500 53.00800 24.45300
H  22.74100 54.54400 24.90400
H  21.50000 53.77900 25.94100
H  23.43900 51.42700 30.24500
H  24.12800 53.71000 33.57200
H  24.21900 55.19500 32.71800
H  25.60200 54.04600 32.73200

