158

Mg 47.16700 25.48000 27.95300
C  48.04100 27.71800 30.65900
C  45.85700 23.37600 30.48900
C  46.65700 23.25500 25.60500
C  48.78600 27.62500 25.75200
N  47.10000 25.50000 30.31400
C  47.42100 26.56100 31.12400
C  46.89900 26.31000 32.58700
C  46.21600 24.84900 32.58000
C  46.47200 24.53200 31.06300
C  46.82500 23.76800 33.55800
C  45.86700 27.40700 33.19500
C  46.25000 28.05600 34.62300
H  45.24600 28.08500 35.67900
N  46.43900 23.61500 28.08600
C  45.86400 22.93700 29.15600
C  45.27200 21.71600 28.69700
C  45.52200 21.65700 27.27000
C  46.28900 22.87500 26.93800
C  44.75000 20.58900 29.58100
C  45.20100 20.48700 26.31000
O  45.25400 20.69900 25.10100
C  44.64000 19.16200 26.85200
N  47.94300 25.30100 26.03100
C  47.43500 24.37600 25.20100
C  47.70600 24.65900 23.71200
C  48.29900 26.08000 23.76800
C  48.30500 26.38100 25.27500
C  48.56500 23.63800 22.94500
C  47.52200 27.11600 22.88600
C  48.32800 28.16300 22.17100
N  48.13100 27.36000 28.12300
C  48.80300 28.07500 27.11500
C  49.48500 29.17500 27.67800
C  49.16200 29.15800 29.01400
C  48.33000 27.95100 29.25800
C  50.22400 30.29700 26.93100
C  49.23900 29.86900 30.22100
O  49.79500 30.94800 30.47300
C  48.50700 28.96400 31.37700
C  49.52500 28.73600 32.39900
O  50.61000 28.23500 32.17100
O  49.10900 29.14000 33.62400
C  50.26000 29.41900 34.50700
H  45.28000 22.81600 31.22800
H  46.38500 22.74000 24.68100
H  49.15800 28.23800 24.92800
H  47.72500 26.26400 33.29700
H  45.12800 24.85400 32.64600
H  46.03000 23.19000 34.03000
H  47.26600 24.34400 34.37200
H  47.60300 23.15700 33.10100
H  44.91500 26.90100 33.35900
H  45.75500 28.25100 32.51400
H  46.52100 29.10200 34.48300
H  47.16200 27.59200 34.99900
H  45.47500 19.77500 29.58200
H  43.75400 20.23500 29.31600
H  44.68000 20.97500 30.59800
H  45.31800 18.83100 27.63900
H  44.79800 18.47600 26.01900
H  43.60100 19.25700 27.16700
H  46.74500 24.68100 23.19800
H  49.38100 25.99900 23.66100
H  48.02300 23.15900 22.13000
H  48.72800 22.83400 23.66200
H  49.38400 24.22300 22.52700
H  46.80700 27.63000 23.52900
H  47.00200 26.58100 22.09100
H  48.41100 27.99400 21.09700
H  49.33300 28.14400 22.59100
H  47.90600 29.16700 22.19800
H  50.74300 29.82800 26.09500
H  50.75900 30.83300 27.71500
H  49.43500 30.90900 26.49400
H  47.70200 29.52600 31.85200
H  51.19100 29.72200 34.02700
H  50.48300 28.58200 35.16900
H  49.96500 30.28000 35.10700
Mg 29.86900 57.76300 41.06300
C  27.25800 55.88200 39.80000
C  32.01300 55.37100 40.10700
C  32.42600 59.83600 41.57300
C  27.56700 60.50400 41.50200
N  29.55500 55.83400 40.17600
C  28.42900 55.23200 39.72800
C  28.62600 53.80800 39.25200
C  30.16300 53.60000 39.54500
C  30.63100 54.97600 40.04900
C  30.37400 52.47600 40.54500
C  28.25900 53.38300 37.82200
C  28.47500 54.51200 36.77100
H  28.86400 54.15900 35.24800
N  31.90800 57.57700 40.97300
C  32.59800 56.53700 40.52900
C  34.01400 56.77700 40.45400
C  34.22300 58.04400 40.93800
C  32.81800 58.56400 41.21500
C  34.89600 55.73300 39.96400
C  35.53500 58.74700 41.13800
O  36.54900 58.07400 41.00900
C  35.67100 60.20600 41.57100
N  29.93400 59.83300 41.43900
C  31.13400 60.42000 41.67300
C  31.01500 61.92700 42.05900
C  29.54200 62.07900 42.22900
C  28.96300 60.72200 41.74700
C  31.76300 62.28200 43.33300
C  28.92900 63.31100 41.37800
C  27.82000 64.02900 42.10300
N  27.81900 58.15600 40.74900
C  27.01900 59.28900 40.96700
C  25.65400 58.95400 40.74800
C  25.74900 57.66600 40.15500
C  27.08400 57.20400 40.23500
C  24.34600 59.76300 40.98600
C  24.94700 56.63800 39.48100
O  23.76600 56.66600 39.14800
C  25.90600 55.40200 39.23100
C  25.43500 54.24200 39.93500
O  25.61800 54.03100 41.12300
O  24.54000 53.39300 39.20300
C  23.79200 52.34700 39.87400
H  32.60600 54.47500 39.91400
H  33.20500 60.57500 41.77400
H  26.77900 61.19500 41.81000
H  28.03000 53.17900 39.91200
H  30.78400 53.47700 38.65700
H  31.33400 51.95900 40.51400
H  29.56100 51.75400 40.47300
H  30.29700 52.84000 41.56900
H  27.21300 53.11300 37.67900
H  28.84500 52.50100 37.56200
H  29.19300 55.20000 37.21900
H  27.52000 55.02800 36.67000
H  34.55300 55.40900 38.98100
H  34.93700 54.81700 40.55300
H  35.90300 56.10800 39.77900
H  35.16600 60.88600 40.88500
H  36.68700 60.50400 41.83000
H  35.16300 60.23600 42.53400
H  31.36700 62.63700 41.31100
H  29.21400 62.28800 43.24700
H  32.31900 61.39900 43.65000
H  31.05500 62.46000 44.14200
H  32.41300 63.15600 43.29500
H  28.48500 62.89600 40.47200
H  29.73000 64.03300 41.21900
H  28.25700 64.86900 42.64200
H  27.31200 63.53400 42.93200
H  27.03000 64.41300 41.45700
H  23.48100 59.16500 41.27200
H  23.95800 60.12400 40.03400
H  24.46800 60.59800 41.67600
H  25.88600 55.18800 38.16200
H  23.09500 52.83400 40.55500
H  24.39700 51.70000 40.51000
H  23.25100 51.75400 39.13700

