158

Mg 17.25100 -1.83200 27.15100
C  16.29100 0.43900 29.64500
C  19.19600 -3.40500 29.43700
C  18.79000 -3.40800 24.55400
C  15.74600 0.34400 24.80700
N  17.56100 -1.59000 29.33900
C  17.08700 -0.55800 30.08500
C  17.52800 -0.76400 31.58900
C  18.56400 -1.91900 31.45800
C  18.51100 -2.32800 29.98600
C  20.07100 -1.36500 31.79200
C  16.38800 -1.14100 32.63200
C  16.50200 -0.58400 34.06800
H  17.96800 -0.32400 34.61300
N  18.75100 -3.36500 27.00800
C  19.36000 -3.89200 28.09000
C  20.06500 -4.97600 27.64500
C  19.88900 -5.09100 26.24100
C  19.06600 -3.91000 25.81600
C  20.88400 -5.91900 28.58500
C  20.38500 -6.17900 25.29600
O  20.07200 -6.25700 24.12000
C  21.29000 -7.23100 25.72700
N  17.28200 -1.49400 25.04000
C  18.01300 -2.28400 24.15400
C  17.80500 -1.88200 22.70300
C  16.71600 -0.71900 22.73300
C  16.67800 -0.54400 24.30400
C  19.11900 -1.38300 22.03300
C  15.39500 -1.02300 22.14700
C  15.28500 -0.56600 20.64900
N  16.09700 -0.17500 27.18600
C  15.49000 0.59400 26.14900
C  14.78600 1.70100 26.75600
C  15.11200 1.75000 28.14400
C  15.92600 0.62900 28.30300
C  14.00400 2.73800 25.95600
C  15.06100 2.39100 29.38100
O  14.31600 3.31300 29.63900
C  15.69600 1.56300 30.46500
C  16.53700 2.42500 31.39800
O  17.39500 3.26400 31.02100
O  16.11200 2.26500 32.70800
C  16.51500 3.19800 33.65400
H  19.69900 -3.88200 30.28100
H  19.26000 -3.97100 23.74400
H  15.16700 1.03100 24.18600
H  17.96700 0.17300 31.93400
H  18.25200 -2.70400 32.14700
H  20.38000 -1.93300 32.66900
H  20.02400 -0.33000 32.13200
H  20.77400 -1.52000 30.97400
H  16.19700 -2.20700 32.75500
H  15.42200 -0.81300 32.25000
H  15.93000 -1.15700 34.79800
H  15.91300 0.32800 33.96300
H  21.89500 -6.21700 28.30700
H  20.37500 -6.87600 28.70100
H  21.03200 -5.41400 29.54000
H  22.32100 -6.88800 25.81300
H  21.49900 -7.90400 24.89500
H  20.91600 -7.75800 26.60500
H  17.44900 -2.74500 22.14100
H  17.19800 0.20900 22.42500
H  18.81000 -0.52900 21.43100
H  19.60000 -2.06500 21.33100
H  19.70400 -0.95800 22.84800
H  14.54400 -0.84400 22.80400
H  15.36200 -2.09800 21.97100
H  14.78100 -1.29200 20.01000
H  16.29100 -0.24500 20.37700
H  14.68200 0.34100 20.60900
H  14.76700 2.92900 25.20100
H  13.68500 3.56200 26.59600
H  13.18300 2.14200 25.55700
H  14.94800 1.13300 31.13300
H  16.99700 2.70200 34.49700
H  15.65100 3.79700 33.93900
H  17.24000 3.94300 33.32600
Mg 31.22800 58.09200 40.43400
C  28.51200 56.12100 39.40300
C  33.28200 55.57600 39.34000
C  33.87300 60.10400 40.85400
C  28.99100 60.80400 40.60000
N  30.86700 56.08300 39.49100
C  29.70200 55.48300 39.12300
C  29.89800 54.25800 38.30500
C  31.40300 53.90200 38.59000
C  31.88800 55.26600 39.19900
C  31.57000 52.72300 39.55500
C  29.57700 54.58400 36.75900
C  28.45600 53.78900 35.99700
H  27.47000 54.58000 35.14500
N  33.31700 57.83400 40.32200
C  33.89300 56.77500 39.79800
C  35.35600 56.94100 39.86000
C  35.60000 58.23200 40.32000
C  34.26600 58.78300 40.62000
C  36.34600 55.88500 39.52200
C  36.97400 58.84800 40.58600
O  37.95300 58.24500 40.26500
C  37.11800 60.22600 41.06100
N  31.32200 60.12600 40.69400
C  32.57000 60.74500 40.93000
C  32.46500 62.26900 40.95800
C  30.89400 62.41400 41.07000
C  30.34900 61.05200 40.75900
C  33.18700 63.12900 42.00400
C  30.23400 63.45800 40.08300
C  29.22300 64.44300 40.82500
N  29.13500 58.42500 40.14300
C  28.35900 59.55900 40.28000
C  26.96800 59.28100 40.06500
C  26.96900 57.89800 39.76400
C  28.32200 57.43300 39.83500
C  25.77300 60.22800 40.14000
C  26.07900 56.76500 39.40100
O  24.91400 56.73000 39.22500
C  27.10300 55.55900 39.08300
C  26.65600 54.33100 39.78900
O  26.66100 54.20500 41.03800
O  26.27900 53.40200 38.91600
C  25.64200 52.24100 39.42500
H  33.79700 54.62100 39.21800
H  34.74700 60.73400 41.03300
H  28.23300 61.58500 40.69300
H  29.16600 53.52300 38.63800
H  31.95900 53.56400 37.71600
H  31.95400 52.95200 40.54900
H  32.21800 51.98200 39.08800
H  30.63800 52.15900 39.60100
H  30.55100 54.49800 36.27900
H  29.26100 55.62400 36.67400
H  27.99600 53.24300 36.82100
H  28.89100 53.00900 35.37200
H  37.02300 55.71800 40.35900
H  36.98900 56.11400 38.67200
H  35.85000 54.93100 39.34600
H  36.56900 60.30100 41.99900
H  36.77200 60.83700 40.22700
H  38.16600 60.50100 41.17800
H  32.75600 62.52300 39.93800
H  30.54900 62.70000 42.06400
H  33.51600 63.95400 41.37300
H  34.05200 62.54400 42.31600
H  32.64900 63.40000 42.91300
H  29.70500 63.14200 39.18400
H  30.96900 64.13000 39.64000
H  28.89200 64.05900 41.79000
H  28.29600 64.47300 40.25200
H  29.71900 65.38300 41.06800
H  25.00500 59.85700 39.46100
H  26.01500 61.24300 39.82400
H  25.39600 60.09700 41.15500
H  27.10900 55.42800 38.00100
H  24.69700 52.39000 39.94800
H  26.25300 51.70600 40.15200
H  25.44700 51.56000 38.59700

