158

Mg 45.83600 3.94600 48.61400
C  43.99100 6.90000 47.86400
C  43.15600 2.13600 47.52700
C  47.78400 1.13700 48.71300
C  48.67500 5.88900 49.06600
N  43.73800 4.53500 47.81300
C  43.21800 5.74200 47.69900
C  41.74700 5.64800 47.29300
C  41.52400 4.11300 47.23800
C  42.84900 3.50400 47.68100
C  40.33200 3.52300 48.02400
C  41.33800 6.46100 46.00900
C  42.14600 6.49400 44.74600
H  41.29700 6.32400 43.46800
N  45.50600 1.92300 48.20500
C  44.39500 1.41300 47.66400
C  44.59200 -0.09300 47.40700
C  45.97100 -0.38400 47.67300
C  46.50600 0.91700 48.21000
C  43.52300 -0.93100 46.77300
C  46.64200 -1.72900 47.38300
O  46.05600 -2.71800 46.97700
C  48.09400 -1.96400 47.48100
N  47.99600 3.59700 48.73800
C  48.44600 2.37300 48.96100
C  49.96300 2.47600 49.26500
C  50.24100 4.02300 49.36500
C  48.88400 4.52900 48.98400
C  50.43500 1.69000 50.52500
C  51.34200 4.62800 48.47800
C  51.04500 4.85800 47.03200
N  46.31400 5.94600 48.57700
C  47.47600 6.58800 48.73500
C  47.25600 8.03100 48.57600
C  45.92000 8.15700 48.29800
C  45.37200 6.86400 48.26400
C  48.32600 9.10300 48.70600
C  44.84900 9.16700 48.00700
O  44.88100 10.38100 47.85600
C  43.56600 8.37100 47.60200
C  42.50200 8.87500 48.45100
O  42.10400 8.45900 49.49200
O  41.76200 9.84200 47.83600
C  40.35300 9.96000 48.37000
H  42.30900 1.56600 47.14000
H  48.33000 0.22500 48.96100
H  49.52200 6.53200 49.31600
H  41.21000 6.09800 48.12800
H  41.35000 3.87600 46.18800
H  39.54100 4.27300 48.03100
H  40.75400 3.33900 49.01200
H  39.91700 2.72200 47.41300
H  41.30000 7.46500 46.43200
H  40.31800 6.14700 45.79100
H  43.02400 5.84900 44.72600
H  42.67600 7.44100 44.84100
H  43.85900 -1.27000 45.79300
H  42.54500 -0.45000 46.80300
H  43.44200 -1.84100 47.36600
H  48.65600 -1.12000 47.08200
H  48.43000 -2.82700 46.90600
H  48.35300 -2.15400 48.52300
H  50.54200 1.96400 48.49600
H  50.34600 4.38000 50.38900
H  50.79000 0.68600 50.28900
H  49.61000 1.49900 51.21200
H  51.21600 2.25800 51.03100
H  52.19200 3.94700 48.43200
H  51.77100 5.53900 48.89500
H  50.72900 5.90000 46.98700
H  50.29700 4.15300 46.66900
H  51.93600 4.68100 46.42900
H  48.92200 9.17900 47.79600
H  48.86500 9.07100 49.65300
H  47.74800 10.02600 48.75700
H  43.35600 8.73000 46.59400
H  39.83300 10.23300 47.45200
H  40.23400 10.70900 49.15300
H  40.05800 8.98000 48.74500
Mg 35.52200 48.00000 26.22000
C  35.79900 46.34500 29.30900
C  34.11900 50.68600 27.83100
C  34.93000 49.25500 23.18300
C  36.41000 44.83600 24.73100
N  35.00800 48.48400 28.30900
C  35.33600 47.70100 29.40000
C  35.07900 48.46700 30.71000
C  34.11100 49.60500 30.23000
C  34.50600 49.69200 28.72700
C  32.53100 49.37900 30.31300
C  36.48300 48.94400 31.26800
C  36.61600 48.85400 32.81700
H  35.75200 49.87600 33.74700
N  34.72600 49.80300 25.59100
C  34.16400 50.78200 26.40100
C  33.69300 51.89100 25.63700
C  34.00100 51.51000 24.24000
C  34.59100 50.15400 24.29200
C  33.13000 53.19800 26.18400
C  33.70300 52.22000 22.99000
O  34.07000 51.72200 21.94600
C  32.82400 53.50100 22.98300
N  35.57300 47.12200 24.25500
C  35.42700 47.90000 23.14100
C  35.72200 47.17500 21.82800
C  36.22100 45.78600 22.34400
C  36.05700 45.85900 23.84600
C  34.41200 47.16200 20.86000
C  37.71400 45.49500 22.00900
C  38.07900 45.39300 20.47500
N  36.03100 45.98000 26.89000
C  36.44600 44.90900 26.12600
C  36.83000 43.83600 26.99600
C  36.58200 44.37600 28.31300
C  36.02700 45.64400 28.19300
C  37.41000 42.49200 26.54300
C  36.77400 44.13000 29.77400
O  37.28100 43.29000 30.51500
C  36.24600 45.45000 30.40000
C  35.19000 44.97900 31.32300
O  34.25800 44.29600 30.97700
O  35.60900 45.24800 32.65300
C  34.52200 44.84200 33.62600
H  33.62300 51.49300 28.37500
H  34.94800 49.59900 22.14600
H  36.71500 43.91800 24.22500
H  34.46600 48.05900 31.51300
H  34.31300 50.57100 30.69100
H  32.26700 48.59600 31.02400
H  31.99600 49.15500 29.39000
H  32.00300 50.25600 30.68600
H  36.64900 49.99500 31.03000
H  37.26600 48.33100 30.82200
H  37.66300 49.07100 33.02900
H  36.28200 47.88500 33.18800
H  34.00600 53.80300 25.95200
H  32.96400 53.22200 27.26200
H  32.30600 53.65600 25.63700
H  31.80600 53.17100 23.19100
H  32.65600 53.87400 21.97300
H  33.17400 54.33100 23.59600
H  36.54400 47.68700 21.32600
H  35.60400 44.99000 21.92800
H  34.24800 46.12300 20.57400
H  34.58800 47.79200 19.98800
H  33.51300 47.41100 21.42500
H  38.09800 44.63200 22.55400
H  38.23000 46.35600 22.43400
H  37.14600 45.56900 19.94000
H  38.69700 44.51300 20.29600
H  38.61500 46.34000 20.41700
H  37.85300 42.54100 25.54900
H  36.61700 41.75900 26.68600
H  38.18500 42.27200 27.27800
H  37.09500 45.81700 30.97600
H  34.57700 43.76700 33.79900
H  33.48900 44.96300 33.29800
H  34.57400 45.56000 34.44400

