158

Mg 29.89700 57.73600 40.09800
C  26.89200 56.09500 39.55900
C  31.53000 54.92400 38.94100
C  32.74400 59.57400 39.72900
C  28.09300 60.65800 40.92900
N  29.25800 55.74200 39.45300
C  28.01100 55.26500 39.21800
C  27.93900 53.82500 38.62100
C  29.39900 53.37900 38.82500
C  30.12700 54.75600 39.10700
C  29.81300 52.37400 39.97300
C  27.26900 53.74000 37.19200
C  28.25600 53.53900 35.97200
H  27.73400 53.85400 34.53100
N  31.83700 57.32900 39.48700
C  32.30000 56.06500 39.03700
C  33.71500 56.20500 38.61100
C  34.09900 57.51900 38.89600
C  32.88400 58.18100 39.42500
C  34.49000 55.09700 37.99900
C  35.48700 58.04800 38.85600
O  36.37100 57.40500 38.34500
C  35.98200 59.37400 39.39600
N  30.34100 59.81800 40.29000
C  31.59200 60.27900 40.01000
C  31.63600 61.78900 40.12300
C  30.22700 62.14300 40.64600
C  29.47200 60.81400 40.57400
C  32.75600 62.42100 40.96500
C  29.50400 63.27600 39.83700
C  28.18200 63.89100 40.31900
N  27.91900 58.29100 40.45700
C  27.34100 59.54700 40.73500
C  25.97600 59.34900 40.78500
C  25.73200 58.06800 40.39200
C  26.97700 57.43400 40.07600
C  25.01500 60.46700 41.11300
C  24.66600 57.02300 40.13700
O  23.44600 57.09000 40.31200
C  25.37400 55.72900 39.55200
C  25.03600 54.52500 40.24700
O  25.02200 54.46600 41.48300
O  24.58900 53.54700 39.41300
C  24.58400 52.11300 39.73800
H  32.01000 54.07300 38.45500
H  33.54900 60.29200 39.55900
H  27.60200 61.57000 41.27500
H  27.22200 53.22000 39.17600
H  29.91800 53.01300 37.93900
H  30.09100 51.43800 39.48700
H  28.98500 52.28300 40.67500
H  30.74200 52.63200 40.48100
H  26.78700 54.69400 36.98300
H  26.59900 52.88400 37.11100
H  28.30200 52.45000 35.95900
H  29.23100 53.94800 36.23500
H  33.96800 54.14100 38.01700
H  35.32200 54.89700 38.67400
H  34.86400 55.42000 37.02800
H  35.40600 59.61600 40.28900
H  35.75600 60.19400 38.71400
H  37.05700 59.35700 39.57100
H  31.84800 62.03300 39.08200
H  30.27300 62.50100 41.67400
H  33.03000 61.71100 41.74600
H  32.53200 63.39100 41.40800
H  33.61100 62.76000 40.38100
H  29.23800 62.94300 38.83400
H  30.11900 64.17600 39.83200
H  27.35300 63.34300 39.87200
H  28.21400 64.96500 40.13300
H  28.16700 63.80200 41.40500
H  24.93000 60.98100 40.15500
H  25.39600 61.19100 41.83300
H  24.05700 60.13500 41.51100
H  25.08200 55.54200 38.51900
H  25.38600 51.59100 39.21800
H  23.72300 51.67000 39.23700
H  24.65100 51.77600 40.77300
Mg -11.50300 16.56900 40.24900
C  -8.28900 15.00900 39.54300
C  -10.23000 19.43100 38.84600
C  -14.65300 17.60600 39.77000
C  -12.67100 13.42400 41.00200
N  -9.52300 17.05900 39.39300
C  -8.31500 16.33400 39.22100
C  -7.12600 17.20900 38.77400
C  -7.79600 18.59900 38.75800
C  -9.32400 18.38300 38.96500
C  -7.22500 19.60100 39.82000
C  -6.67900 16.85400 37.42000
C  -5.43600 17.62400 36.88300
H  -4.55600 16.89800 35.79400
N  -12.30000 18.43500 39.69100
C  -11.67400 19.48100 39.13800
C  -12.62700 20.61900 38.87800
C  -13.92400 20.07900 39.22400
C  -13.64000 18.64500 39.58100
C  -12.27700 22.00900 38.38800
C  -15.20600 20.85200 39.08700
O  -15.12400 21.95500 38.59500
C  -16.48300 20.13800 39.36200
N  -13.42900 15.62800 40.37900
C  -14.61000 16.26800 40.11500
C  -15.76000 15.34500 40.37800
C  -15.10300 13.99300 40.56300
C  -13.61900 14.36900 40.72600
C  -16.69600 15.83400 41.58600
C  -15.27000 13.06300 39.36900
C  -15.69000 11.65500 39.69300
N  -10.67800 14.64100 40.43300
C  -11.25900 13.49300 40.74700
C  -10.33200 12.43100 40.81400
C  -9.16600 12.97500 40.37400
C  -9.42800 14.27600 40.04600
C  -10.51500 10.95500 40.98200
C  -7.75800 12.66800 40.09200
O  -7.08000 11.65700 40.08700
C  -7.19000 13.96200 39.56600
C  -5.96800 14.18900 40.29700
O  -5.86800 14.76100 41.37300
O  -4.84800 13.77000 39.55000
C  -3.44000 14.31900 39.74600
H  -9.76700 20.31000 38.39200
H  -15.68200 17.81600 39.46800
H  -13.06200 12.44300 41.28100
H  -6.39400 17.05200 39.56600
H  -7.69400 19.13500 37.81500
H  -6.36100 20.11800 39.40200
H  -6.98500 18.91400 40.63100
H  -7.88700 20.31700 40.30800
H  -7.49000 16.90700 36.69400
H  -6.31700 15.82800 37.35000
H  -4.80600 17.92000 37.72200
H  -5.68300 18.54500 36.35500
H  -12.28300 22.31800 37.34300
H  -11.21000 22.02000 38.61200
H  -12.80400 22.69600 39.05000
H  -17.19100 20.96100 39.26300
H  -16.53600 19.73500 40.37300
H  -16.67100 19.36500 38.61700
H  -16.31400 15.33900 39.43900
H  -15.39800 13.60100 41.53600
H  -16.13400 16.71600 41.89200
H  -16.59000 15.16800 42.44200
H  -17.69600 16.10300 41.24600
H  -14.32300 13.05900 38.82900
H  -15.98600 13.47300 38.65700
H  -16.75200 11.41300 39.69800
H  -15.22600 11.24600 40.59000
H  -15.23600 11.00900 38.94100
H  -11.13100 10.74400 41.85600
H  -9.60000 10.36400 41.02900
H  -11.12900 10.56800 40.16900
H  -6.91100 13.67800 38.55100
H  -3.06900 14.88200 38.89000
H  -2.67200 13.54500 39.73600
H  -3.25000 14.86900 40.66800

