158

Mg 26.61800 49.69400 26.17000
C  24.56200 50.77700 28.83100
C  29.02400 48.78200 28.30400
C  28.42600 48.67500 23.37700
C  24.21200 50.90000 24.04200
N  26.66700 49.71000 28.31300
C  25.78200 50.18400 29.27200
C  26.26400 49.87100 30.66200
C  27.74900 49.29800 30.45700
C  27.86100 49.27600 28.94900
C  28.83300 50.10300 31.22300
C  25.29600 48.75800 31.32700
C  24.80800 49.23900 32.72000
H  25.66000 49.69300 33.89900
N  28.49800 48.86600 25.85200
C  29.30200 48.54900 26.87500
C  30.51700 47.91600 26.34200
C  30.39700 47.90300 24.90100
C  29.05300 48.48100 24.65200
C  31.70700 47.59600 27.26900
C  31.42500 47.46900 23.84000
O  31.26700 47.57100 22.61100
C  32.74300 46.82000 24.38500
N  26.45400 49.84300 23.97700
C  27.22600 49.18000 23.04500
C  26.69500 49.32100 21.66200
C  25.33400 49.99000 21.82800
C  25.32800 50.23800 23.40000
C  27.70500 49.95300 20.66800
C  24.24900 49.16600 21.27400
C  23.12700 49.88700 20.44700
N  24.80400 50.63300 26.38200
C  23.94400 51.12000 25.39100
C  22.86400 51.75600 26.00000
C  22.98000 51.62200 27.37100
C  24.21400 50.97700 27.55000
C  21.78800 52.43100 25.25800
C  22.45600 51.94600 28.62500
O  21.57700 52.69700 28.86600
C  23.39800 51.22000 29.62500
C  23.80700 52.24500 30.58500
O  24.57600 53.19400 30.35200
O  22.98400 52.14700 31.72000
C  23.44300 52.92600 32.92900
H  29.83700 48.57300 29.00300
H  29.05100 48.38200 22.53100
H  23.43500 51.23200 23.34900
H  26.29200 50.82000 31.19600
H  27.85300 48.23700 30.68500
H  28.42300 50.89000 31.85600
H  29.40800 50.77800 30.58900
H  29.40300 49.45000 31.88400
H  25.80100 47.79900 31.44900
H  24.36500 48.61000 30.78000
H  24.19800 48.38400 33.00900
H  24.18900 50.09400 32.44600
H  32.14200 46.66400 26.90900
H  31.43800 47.60400 28.32500
H  32.49700 48.32400 27.08500
H  33.36800 46.37600 23.61000
H  32.46300 46.01200 25.06200
H  33.37000 47.54900 24.89800
H  26.57600 48.33000 21.22300
H  25.40800 50.94200 21.30300
H  28.62600 50.28200 21.15000
H  27.23200 50.78800 20.15200
H  27.96400 49.26900 19.86000
H  23.76500 48.60500 22.07400
H  24.71100 48.44600 20.59800
H  23.18000 50.94600 20.70000
H  22.05700 49.71300 20.56200
H  23.30900 49.77300 19.37800
H  21.34400 51.68200 24.60300
H  22.20200 53.14600 24.54800
H  21.08500 52.90400 25.94500
H  22.80100 50.44400 30.10400
H  24.06400 52.31000 33.57800
H  22.49800 53.14000 33.42900
H  23.87700 53.91400 32.78000
Mg -5.95400 24.68400 26.18300
C  -4.39300 26.10500 28.96000
C  -7.58200 22.52200 28.12500
C  -7.40100 23.50700 23.42900
C  -4.06600 26.83700 24.10200
N  -5.80600 24.24800 28.21500
C  -5.31800 25.05900 29.23100
C  -5.80700 24.67300 30.62800
C  -6.55800 23.32700 30.31900
C  -6.61700 23.29200 28.76500
C  -5.89400 22.01000 30.93300
C  -6.68000 25.81600 31.42200
C  -6.51700 25.89900 32.95400
H  -5.90900 24.63100 33.56300
N  -7.45100 23.30800 25.82600
C  -7.91600 22.47600 26.80000
C  -8.84400 21.57600 26.24200
C  -8.89300 21.93500 24.82000
C  -7.87700 22.91100 24.62500
C  -9.52400 20.43100 27.00600
C  -9.77500 21.35700 23.72900
O  -9.66100 21.72300 22.57900
C  -10.79200 20.32300 24.02000
N  -5.71300 24.99400 24.06200
C  -6.41300 24.36800 23.12900
C  -5.99900 24.64700 21.64500
C  -4.91600 25.73600 21.83200
C  -4.86800 25.89700 23.44300
C  -5.37000 23.44600 20.86700
C  -5.17200 27.07600 21.07600
C  -4.33500 27.22400 19.71100
N  -4.45700 26.13500 26.38900
C  -3.82500 26.96700 25.51400
C  -3.00400 27.97800 26.27400
C  -3.19300 27.63900 27.64700
C  -4.06000 26.53900 27.64900
C  -2.33300 29.31200 25.78800
C  -2.88700 28.00900 29.05900
O  -2.30500 28.96800 29.52600
C  -3.63700 27.02000 29.93200
C  -2.65700 26.27100 30.75000
O  -1.87500 25.39200 30.32900
O  -2.70600 26.65300 32.15100
C  -1.76300 25.93700 33.01700
H  -8.08400 21.87300 28.84500
H  -7.90400 23.17700 22.51700
H  -3.41500 27.43900 23.46500
H  -4.88900 24.46000 31.17700
H  -7.56200 23.36400 30.74000
H  -5.24900 21.51400 30.20700
H  -6.67300 21.34200 31.30000
H  -5.14800 22.27700 31.68200
H  -7.71900 25.52000 31.27900
H  -6.48000 26.77700 30.94800
H  -7.46000 26.12500 33.45300
H  -5.77700 26.68200 33.11700
H  -10.59300 20.62400 26.91400
H  -9.26800 20.30100 28.05800
H  -9.35200 19.56800 26.36300
H  -10.31600 19.47500 24.51200
H  -11.18200 19.95500 23.07100
H  -11.70400 20.66700 24.50900
H  -6.83500 24.99500 21.03700
H  -3.98600 25.36200 21.40400
H  -5.56100 22.51000 21.39000
H  -4.28800 23.43900 20.73600
H  -5.80800 23.47100 19.86900
H  -4.80900 27.77000 21.83400
H  -6.21000 27.30600 20.83300
H  -5.05600 27.55700 18.96500
H  -3.87600 26.26100 19.48600
H  -3.43600 27.83500 19.79300
H  -1.42700 29.19600 25.19400
H  -1.90000 29.89100 26.60400
H  -3.05400 29.92100 25.24200
H  -4.21600 27.65900 30.59800
H  -0.81700 25.75800 32.50600
H  -2.26500 25.02300 33.33600
H  -1.55200 26.57000 33.88000

