158

Mg 47.25200 25.07200 27.99700
C  48.06700 27.25500 30.59800
C  46.45800 22.70500 30.34900
C  46.77900 22.84300 25.56400
C  48.71000 27.32100 25.78400
N  47.61500 24.96900 30.30000
C  47.47500 26.04100 31.06300
C  47.17800 25.68800 32.52900
C  46.69800 24.20500 32.39200
C  46.99200 23.91600 30.93100
C  47.35300 23.20200 33.40500
C  46.19600 26.70700 33.27400
C  45.65200 26.28200 34.67400
H  45.94700 27.25900 35.83700
N  46.59700 23.06800 27.96400
C  46.25400 22.26500 29.03500
C  45.90300 20.92100 28.51800
C  46.22800 20.92000 27.12700
C  46.54900 22.33400 26.85500
C  45.32900 19.89100 29.51000
C  46.49500 19.69300 26.22000
O  47.02300 19.76900 25.08200
C  46.07700 18.30100 26.65600
N  47.60100 25.12700 26.04400
C  47.23000 24.12500 25.23900
C  47.29400 24.61300 23.71300
C  47.90700 26.03000 23.78500
C  48.16500 26.15000 25.27400
C  47.97000 23.63200 22.63900
C  47.01600 27.15300 23.22000
C  47.86500 28.23400 22.42500
N  48.19000 26.89400 28.10300
C  48.76100 27.70300 27.15300
C  49.12900 28.94800 27.75500
C  48.83600 28.76700 29.06900
C  48.28100 27.54300 29.26300
C  49.78800 30.05100 27.02200
C  48.93100 29.51300 30.31800
O  49.34900 30.61300 30.53800
C  48.31300 28.56200 31.32900
C  49.28800 28.36400 32.49900
O  50.18900 27.53900 32.48900
O  48.87300 29.10100 33.60400
C  49.58000 28.71200 34.86200
H  46.14200 22.02200 31.14000
H  46.59100 22.16600 24.72800
H  49.08800 27.98800 25.00600
H  48.10500 25.63700 33.10000
H  45.60900 24.15200 32.39800
H  48.14700 22.64000 32.91300
H  46.66000 22.43600 33.75400
H  47.91300 23.65700 34.22200
H  45.33700 27.07300 32.71100
H  46.81100 27.58100 33.49200
H  45.95400 25.25300 34.86700
H  44.57800 26.21400 34.50400
H  45.87700 19.90600 30.45200
H  45.01300 18.92200 29.12400
H  44.35700 20.32600 29.74200
H  45.94800 17.67100 25.77500
H  45.08700 18.65400 26.94100
H  46.67400 17.95600 27.50000
H  46.24600 24.68700 23.42400
H  48.90200 26.06700 23.34200
H  47.38000 23.46400 21.73800
H  48.29400 22.63000 22.92300
H  48.82800 24.19900 22.27800
H  46.51800 27.78400 23.95600
H  46.34800 26.64100 22.52700
H  47.88000 29.21100 22.90700
H  47.45200 28.36200 21.42400
H  48.92300 27.98600 22.33900
H  49.70300 29.97400 25.93800
H  50.85400 30.08100 27.24500
H  49.30500 30.99800 27.26200
H  47.34200 28.90000 31.69000
H  50.66800 28.75300 34.80300
H  49.35800 27.73600 35.29300
H  49.19800 29.45100 35.56700
Mg -12.34500 16.99900 42.20300
C  -9.19700 15.33000 41.78100
C  -10.91400 19.74000 40.64400
C  -15.46400 18.27400 41.79000
C  -13.75800 13.76500 43.02900
N  -10.31400 17.42600 41.18700
C  -9.14300 16.65800 41.29100
C  -7.85400 17.45500 40.89200
C  -8.44700 18.86000 40.72200
C  -9.98400 18.65300 40.84200
C  -7.99300 20.04000 41.70600
C  -7.14300 16.76400 39.62500
C  -5.65400 16.26500 39.69200
H  -5.36400 15.08900 38.64500
N  -13.10200 18.83500 41.35300
C  -12.33800 19.83200 40.77000
C  -13.23200 20.91300 40.37200
C  -14.51900 20.47800 40.73100
C  -14.45400 19.14400 41.35100
C  -12.70800 22.11700 39.66300
C  -15.74700 21.33800 40.45900
O  -15.66700 22.43300 39.89000
C  -17.09400 20.88200 40.83500
N  -14.31800 16.06700 42.41500
C  -15.44300 16.90500 42.30400
C  -16.72300 16.02900 42.46600
C  -16.14400 14.62200 43.04100
C  -14.67000 14.76800 42.76700
C  -17.81200 16.59500 43.37200
C  -16.79200 13.40900 42.23300
C  -17.12700 12.09200 42.98100
N  -11.59400 14.96300 42.47200
C  -12.30400 13.83600 42.82200
C  -11.31400 12.75100 42.93600
C  -10.07500 13.31600 42.61300
C  -10.31000 14.68500 42.26800
C  -11.56900 11.42500 43.44500
C  -8.61300 13.01900 42.44600
O  -7.91300 12.04900 42.79000
C  -7.97600 14.32200 41.93600
C  -7.19100 14.79700 43.11000
O  -7.52400 15.59800 44.00400
O  -5.93300 14.27000 43.01600
C  -4.99300 14.70300 44.13700
H  -10.51200 20.66500 40.22600
H  -16.51600 18.50600 41.61100
H  -14.17200 12.78000 43.25500
H  -7.12200 17.40000 41.69800
H  -8.34700 19.21900 39.69800
H  -8.89300 20.39400 42.20900
H  -7.53200 20.86000 41.15500
H  -7.15700 19.84700 42.37800
H  -7.05000 17.57100 38.89800
H  -7.74700 15.96600 39.19500
H  -5.41700 16.10400 40.74300
H  -4.96900 17.08800 39.49000
H  -13.15300 23.05600 39.99200
H  -12.78600 22.04300 38.57800
H  -11.64300 22.29300 39.81600
H  -17.25600 19.95900 40.27800
H  -17.82000 21.67400 40.65100
H  -16.92600 20.65100 41.88700
H  -17.15400 15.92200 41.47100
H  -16.25200 14.48800 44.11700
H  -17.48600 17.56800 43.73900
H  -18.12600 15.94600 44.18900
H  -18.70600 16.84200 42.80000
H  -15.99500 13.19400 41.52100
H  -17.66400 13.75400 41.67800
H  -16.46800 11.30300 42.61900
H  -18.17700 12.04500 42.69500
H  -16.87000 12.26200 44.02700
H  -11.74200 10.73400 42.62000
H  -12.42000 11.46400 44.12500
H  -10.61600 11.18000 43.91300
H  -7.38500 14.11900 41.04300
H  -4.81900 15.77800 44.17700
H  -4.02700 14.20800 44.03600
H  -5.42500 14.46400 45.10900

