158

Mg 47.90900 44.75600 42.29800
C  44.44600 43.98100 42.61500
C  48.52600 41.44600 41.72900
C  50.98000 45.65000 41.86300
C  46.98600 48.21300 42.74100
N  46.59300 42.95400 42.26700
C  45.23000 42.86400 42.30200
C  44.78800 41.39500 41.99300
C  46.10800 40.66200 42.26700
C  47.17400 41.78600 42.06300
C  46.19100 40.16000 43.79300
C  44.09600 41.33200 40.54400
C  44.89400 40.82700 39.33200
H  44.29400 40.44800 37.93000
N  49.58500 43.69100 41.77100
C  49.61200 42.29500 41.60700
C  51.03600 41.96500 41.30500
C  51.81200 43.19100 41.36800
C  50.80000 44.25400 41.70100
C  51.55500 40.57600 40.94600
C  53.30300 43.32600 41.14300
O  53.94900 42.45100 40.61900
C  54.06400 44.51200 41.61400
N  48.87700 46.67800 42.28300
C  50.23100 46.75000 42.17300
C  50.80600 48.16400 42.33000
C  49.54600 48.98400 42.73200
C  48.38600 47.94100 42.56400
C  51.90000 48.24000 43.49000
C  49.22200 50.39100 42.05200
C  48.89900 51.50600 43.02900
N  46.13500 45.80600 42.55200
C  45.94600 47.20300 42.68500
C  44.53400 47.47800 42.86200
C  43.94500 46.21000 42.94000
C  44.97000 45.23700 42.82000
C  43.85900 48.81500 42.73800
C  42.68600 45.58800 42.87200
O  41.53500 46.00700 42.84500
C  42.90900 44.08500 42.76400
C  42.51200 43.33900 43.96800
O  41.64800 42.44700 44.09500
O  43.20000 43.77400 45.11400
C  42.85800 43.18000 46.43900
H  48.78600 40.38600 41.74500
H  52.05100 45.77900 41.69600
H  46.69500 49.22300 43.03500
H  43.89400 41.26900 42.60300
H  46.33400 39.81200 41.62400
H  45.24500 40.37800 44.28800
H  47.07000 40.62300 44.24100
H  46.25900 39.07500 43.71800
H  43.83000 42.35500 40.28000
H  43.21400 40.70000 40.64200
H  45.38400 39.90100 39.63400
H  45.67600 41.54800 39.09300
H  50.87900 39.79300 41.29100
H  52.46500 40.43200 41.52800
H  51.82700 40.38300 39.90800
H  53.80900 45.33800 40.95000
H  55.12300 44.26400 41.54300
H  53.79100 44.74100 42.64400
H  51.09600 48.61900 41.38300
H  49.48900 49.12000 43.81200
H  52.89800 48.09000 43.07800
H  51.76600 47.41100 44.18500
H  51.81600 49.26600 43.84700
H  48.44700 50.34600 41.28700
H  50.09400 50.72700 41.49200
H  48.94400 51.12500 44.04900
H  47.90100 51.93900 43.08600
H  49.59600 52.34400 43.04400
H  43.43600 48.77900 41.73400
H  44.63700 49.57400 42.82600
H  43.01700 48.93800 43.41900
H  42.51500 43.70600 41.82100
H  42.39000 42.19700 46.39200
H  42.26400 43.80300 47.10800
H  43.78700 42.85200 46.90300
Mg 46.65100 34.69300 27.45100
C  45.00700 32.85400 29.98000
C  47.03400 37.18500 29.65200
C  47.72900 36.47100 24.90400
C  45.89200 32.06200 25.21000
N  46.23500 34.85700 29.59800
C  45.60100 34.06500 30.44200
C  45.88400 34.48600 31.88100
C  46.08100 36.07700 31.72800
C  46.46200 36.06300 30.21900
C  44.83200 36.93400 32.07400
C  47.22100 33.73500 32.32100
C  47.51000 33.56100 33.80800
H  46.72000 34.39700 34.82700
N  47.46100 36.50200 27.33500
C  47.58500 37.37800 28.32900
C  48.43600 38.44900 27.90800
C  48.51100 38.33400 26.47300
C  47.88000 37.03800 26.17100
C  49.20400 39.40900 28.80000
C  49.23000 39.19000 25.48200
O  49.37700 38.80800 24.29200
C  49.70000 40.55000 25.84200
N  46.73500 34.30500 25.42900
C  47.32900 35.16500 24.57400
C  47.20800 34.76500 23.08900
C  46.83400 33.28400 23.19700
C  46.43700 33.20000 24.67800
C  46.30900 35.56100 22.14200
C  47.98700 32.24300 22.74100
C  49.33800 32.15900 23.49300
N  45.63400 32.79100 27.53900
C  45.40600 31.83500 26.54800
C  44.84700 30.68800 27.14000
C  44.54300 31.07000 28.47300
C  45.07200 32.35100 28.63500
C  44.44800 29.37100 26.51800
C  43.92200 30.70700 29.74200
O  43.38100 29.66400 30.00800
C  44.08800 31.88000 30.69800
C  44.75500 31.32500 31.94100
O  45.82100 30.75000 31.96000
O  43.88700 31.46800 32.99500
C  44.42700 31.29700 34.37100
H  47.07900 37.98600 30.39300
H  48.01000 36.98900 23.98400
H  45.82400 31.22700 24.51000
H  45.10200 34.20900 32.58800
H  46.83500 36.39200 32.45000
H  43.93700 36.31800 32.16700
H  44.65100 37.68200 31.30300
H  44.90300 37.50400 33.00100
H  47.99500 34.30500 31.80600
H  47.29900 32.76700 31.82600
H  48.57000 33.64900 34.04300
H  47.24400 32.52600 34.02600
H  49.19500 39.03300 29.82300
H  48.77400 40.41100 28.79800
H  50.27100 39.40900 28.57500
H  50.35100 40.47600 26.71300
H  48.82600 41.19400 25.93500
H  50.37800 40.99300 25.11200
H  48.19600 35.02800 22.71300
H  45.96800 33.07200 22.57000
H  46.09500 36.49100 22.66800
H  45.43400 34.97300 21.86500
H  46.85900 35.83600 21.24200
H  48.26400 32.57700 21.74100
H  47.52200 31.26900 22.58800
H  49.36400 31.17600 23.96300
H  49.42200 32.96200 24.22600
H  50.25200 32.39100 22.94700
H  44.88500 29.20400 25.53300
H  43.37300 29.38200 26.33600
H  44.80800 28.58400 27.18000
H  43.17200 32.34000 31.06700
H  45.50400 31.45300 34.31500
H  44.33800 30.31400 34.83500
H  43.86300 31.99900 34.98500

