158

Mg 6.21600 54.11800 40.93300
C  3.93500 51.38700 40.97600
C  8.61400 51.84900 40.03500
C  8.22600 56.67700 40.57700
C  3.37500 56.38900 41.32700
N  6.17700 51.96600 40.42300
C  5.13300 51.11100 40.36200
C  5.57000 49.75500 39.71800
C  7.14700 49.84400 39.69700
C  7.32400 51.31100 40.19900
C  7.84400 48.81000 40.51700
C  4.86300 49.52400 38.29500
C  4.30400 48.10600 38.03500
H  4.97500 47.37000 36.87200
N  8.17800 54.22700 40.31100
C  8.96700 53.19900 39.96100
C  10.29600 53.79600 39.70000
C  10.16300 55.21100 39.85600
C  8.77400 55.44100 40.20100
C  11.49300 52.95900 39.36500
C  11.40400 56.19700 39.60600
O  12.49800 55.72200 39.37400
C  11.20400 57.61400 39.66500
N  5.73900 56.28800 40.73500
C  6.83600 57.11000 40.75000
C  6.41000 58.54800 40.96700
C  4.87000 58.40300 41.26700
C  4.63000 56.93000 41.05300
C  7.15800 59.25500 42.07900
C  3.95900 59.35200 40.47100
C  2.99900 60.16100 41.25200
N  4.06500 54.03100 41.19000
C  3.13400 54.98500 41.42300
C  1.88500 54.36400 41.66700
C  2.07500 52.89100 41.57200
C  3.47900 52.75400 41.18100
C  0.53600 55.10800 41.91800
C  1.49100 51.60100 41.70000
O  0.39100 51.27300 42.13300
C  2.65300 50.55100 41.35300
C  2.25900 49.43800 40.35600
O  1.67900 49.66900 39.29400
O  2.57800 48.18800 40.78200
C  1.87600 46.98000 40.17400
H  9.34000 51.05300 39.85900
H  8.98300 57.46300 40.52700
H  2.53700 57.08900 41.36600
H  5.36300 48.92300 40.39100
H  7.58600 49.73100 38.70700
H  8.15900 49.07400 41.52600
H  8.69700 48.37400 39.99800
H  7.26200 47.90100 40.66500
H  5.63800 49.68200 37.54500
H  4.07000 50.25600 38.14200
H  3.22100 48.22500 37.98100
H  4.58200 47.55500 38.93400
H  12.06100 53.46500 38.58500
H  11.28800 51.95200 39.00000
H  12.14300 52.71500 40.20500
H  10.35800 57.87700 39.02900
H  12.12800 58.02500 39.26000
H  11.09200 57.91400 40.70700
H  6.67300 59.08300 40.05600
H  4.64100 58.55300 42.32200
H  7.86600 59.98700 41.69000
H  7.79900 58.54300 42.60000
H  6.57500 59.73400 42.86500
H  3.46900 58.78000 39.68300
H  4.59900 60.07900 39.97200
H  3.18700 61.20300 40.99200
H  3.06400 60.03500 42.33200
H  1.96900 60.02600 40.92200
H  -0.29200 54.55600 41.47400
H  0.49000 56.14700 41.59300
H  0.26500 55.09500 42.97400
H  2.87700 50.19500 42.35800
H  1.00300 47.15300 39.54500
H  1.45000 46.41100 41.00000
H  2.53300 46.33300 39.59300
Mg 9.60700 47.40400 26.66000
C  7.66000 46.99000 29.55000
C  12.04800 48.69200 28.54200
C  11.22800 48.10900 23.76200
C  6.83600 46.37000 24.73400
N  9.82700 47.84500 28.77700
C  8.96100 47.51700 29.78800
C  9.54400 47.91600 31.17000
C  10.90400 48.60500 30.77800
C  10.95800 48.38300 29.27000
C  10.97800 50.17000 31.09100
C  9.77500 46.82700 32.26100
C  9.52700 47.45900 33.66500
H  9.63900 46.49700 34.81500
N  11.46100 48.21700 26.20200
C  12.36500 48.61500 27.12200
C  13.61000 48.77300 26.43600
C  13.38200 48.51400 25.07400
C  11.96400 48.26700 24.96900
C  14.95400 49.04800 27.18900
C  14.38300 48.64100 23.92500
O  14.07900 48.36500 22.76300
C  15.87800 48.89900 24.16600
N  9.12600 47.42300 24.55000
C  9.95000 47.70600 23.50400
C  9.33200 47.48300 22.08900
C  8.18800 46.56400 22.53400
C  8.02500 46.80100 24.03700
C  8.97100 48.82800 21.38000
C  8.19900 45.10100 22.12600
C  8.74400 44.09300 23.17800
N  7.69000 46.77800 27.03300
C  6.68300 46.36000 26.12600
C  5.55700 45.91400 26.81500
C  5.86000 46.17000 28.19400
C  7.19300 46.68900 28.27500
C  4.23900 45.26200 26.27300
C  5.32200 46.12200 29.47300
O  4.22400 45.67700 29.85200
C  6.52000 46.50400 30.49400
C  6.74700 45.19000 31.20000
O  7.37400 44.28900 30.73000
O  6.26000 45.22200 32.44100
C  6.42600 44.06600 33.33800
H  12.91200 48.93700 29.16300
H  11.72300 48.47600 22.86000
H  5.96200 45.91600 24.26300
H  8.87000 48.61800 31.66100
H  11.85400 48.18600 31.11000
H  11.82800 50.32000 31.75600
H  10.11100 50.54200 31.63800
H  11.09300 50.74100 30.17000
H  10.74300 46.33200 32.19100
H  9.03500 46.04900 32.07100
H  8.48300 47.77200 33.65400
H  10.20000 48.30100 33.83000
H  15.49300 49.88700 26.74600
H  15.51300 48.11500 27.12000
H  14.91300 49.25600 28.25800
H  16.29500 48.23000 24.91900
H  15.91500 49.94500 24.46800
H  16.34300 48.81700 23.18400
H  10.03900 46.93900 21.46300
H  7.23100 46.98500 22.22600
H  9.38300 49.65500 21.95800
H  7.88100 48.83700 21.35200
H  9.39400 48.74800 20.37900
H  8.84400 44.99200 21.25400
H  7.19400 44.78600 21.84900
H  9.41000 44.53900 23.91600
H  9.37600 43.40300 22.61900
H  7.90700 43.55400 23.62400
H  4.46500 44.27500 25.87000
H  3.76700 45.79500 25.44800
H  3.43000 45.13300 26.99300
H  6.26700 47.25600 31.24100
H  6.70100 44.45300 34.31900
H  7.17300 43.34500 33.00600
H  5.50900 43.48500 33.42900

