158

Mg 9.73400 49.07600 26.56200
C  7.95200 48.80400 29.57400
C  12.42300 50.34600 28.31100
C  11.25800 49.83800 23.62600
C  6.72100 48.45900 24.86900
N  10.08700 49.53800 28.66700
C  9.30400 49.22100 29.72600
C  10.00700 49.57700 31.09000
C  11.31100 50.34800 30.59900
C  11.29500 50.10500 29.09400
C  11.27600 51.85300 30.98600
C  10.07200 48.38800 32.11900
C  9.50100 48.65700 33.53200
H  9.41800 47.44400 34.44400
N  11.61300 49.85900 26.04100
C  12.57500 50.19200 26.90000
C  13.82700 50.25300 26.19600
C  13.50800 50.29000 24.81400
C  12.03900 50.02000 24.75100
C  15.16400 50.49700 26.91300
C  14.47100 50.48600 23.66500
O  14.09000 50.58600 22.50800
C  15.94100 50.41300 23.91000
N  8.92700 49.43600 24.57800
C  9.84400 49.48300 23.52100
C  9.19500 48.96800 22.25800
C  7.85500 48.38700 22.70700
C  7.84600 48.79600 24.10600
C  9.08100 49.96500 21.02500
C  7.68700 46.81300 22.49400
C  8.30600 45.84500 23.47900
N  7.70600 48.74900 27.04600
C  6.62300 48.56800 26.26500
C  5.45000 48.35000 27.15800
C  5.91700 48.39600 28.47500
C  7.31100 48.64400 28.36400
C  4.00000 48.21300 26.59800
C  5.52800 48.36700 29.88200
O  4.39400 48.17900 30.39400
C  6.84500 48.34000 30.61600
C  7.13600 46.97600 31.12900
O  7.60600 46.08300 30.46500
O  6.77300 46.90500 32.47200
C  7.16000 45.62000 33.16000
H  13.34900 50.74800 28.72900
H  11.70200 50.19800 22.69600
H  5.82300 48.16800 24.32000
H  9.37000 50.29200 31.61100
H  12.18000 49.88400 31.06600
H  10.36600 52.16200 31.49900
H  11.39000 52.31500 30.00500
H  12.15900 52.07200 31.58700
H  11.14400 48.27400 32.27800
H  9.67400 47.47200 31.68300
H  8.55500 49.19700 33.54300
H  10.26500 49.31100 33.95300
H  15.85600 49.74200 26.53800
H  15.10700 50.50600 28.00100
H  15.62400 51.40300 26.52100
H  16.32900 51.18900 24.57000
H  16.25400 50.62700 22.88800
H  16.29900 49.42200 24.19200
H  9.78300 48.09600 21.97000
H  7.05700 48.93600 22.20800
H  9.88000 50.70200 20.94300
H  8.23900 50.65600 20.99600
H  8.91100 49.38000 20.12100
H  8.28400 46.65300 21.59600
H  6.61800 46.66000 22.34800
H  8.45500 46.38900 24.41200
H  9.23800 45.47100 23.05500
H  7.65500 45.01700 23.76200
H  3.24300 48.36000 27.36800
H  3.81000 47.22300 26.18200
H  3.61800 48.87800 25.82400
H  6.86500 49.00800 31.47700
H  6.67800 44.72300 32.77100
H  6.83300 45.58700 34.20000
H  8.23900 45.48500 33.09700
Mg -5.11800 25.59400 26.58800
C  -3.65500 26.82600 29.64000
C  -7.26100 23.64300 28.48800
C  -6.18300 24.21100 23.70300
C  -2.98300 27.50300 24.81900
N  -5.27200 25.18000 28.74400
C  -4.62900 25.84400 29.77400
C  -5.24100 25.38900 31.11900
C  -6.22000 24.22500 30.71900
C  -6.29200 24.32400 29.22000
C  -5.70400 22.86800 31.22900
C  -5.98100 26.58600 31.91800
C  -7.04100 26.31500 33.03000
H  -6.70400 25.24500 34.10000
N  -6.51500 24.26200 26.15200
C  -7.31600 23.58100 27.08800
C  -8.25300 22.76700 26.38300
C  -7.96000 22.87700 25.00800
C  -6.81600 23.79200 24.90500
C  -9.32100 22.06300 27.15200
C  -8.60500 22.22700 23.81700
O  -8.30400 22.50500 22.63700
C  -9.55200 21.06700 24.13500
N  -4.62400 25.77300 24.55100
C  -5.18000 25.11700 23.53100
C  -4.46700 25.39100 22.27000
C  -3.63300 26.68300 22.52400
C  -3.79300 26.76200 24.04900
C  -3.64400 24.16800 21.72400
C  -4.09100 27.96100 21.77300
C  -3.10200 28.41500 20.72800
N  -3.56600 26.87300 27.03500
C  -2.84900 27.65400 26.17500
C  -1.89300 28.50500 26.97200
C  -2.24400 28.26000 28.34000
C  -3.25500 27.28200 28.29400
C  -0.83400 29.38600 26.41000
C  -1.97300 28.64200 29.72900
O  -1.24900 29.53900 30.20500
C  -2.93600 27.70400 30.65900
C  -2.13200 27.01200 31.70500
O  -1.45300 26.00100 31.63100
O  -2.27600 27.71400 32.88100
C  -2.21000 26.93700 34.13200
H  -7.87400 22.91400 29.02100
H  -6.47800 23.90900 22.69600
H  -2.18500 27.98300 24.24800
H  -4.48400 25.09900 31.84700
H  -7.22200 24.32100 31.13900
H  -4.98100 22.99100 32.03600
H  -5.21100 22.42300 30.36400
H  -6.54900 22.27500 31.57800
H  -6.40500 27.09500 31.05200
H  -5.26000 27.28000 32.34900
H  -7.86400 25.97900 32.39900
H  -7.32300 27.27400 33.46600
H  -9.01000 21.07400 27.49000
H  -10.20000 21.76000 26.58300
H  -9.68900 22.65800 27.98800
H  -9.87100 20.63600 23.18600
H  -10.48200 21.36400 24.61900
H  -9.05200 20.30400 24.73200
H  -5.28900 25.68100 21.61500
H  -2.56700 26.51500 22.36700
H  -3.38300 23.45600 22.50700
H  -2.77900 24.56100 21.19000
H  -4.27700 23.68000 20.98300
H  -4.25400 28.81200 22.43500
H  -5.04200 27.81900 21.26000
H  -3.42400 28.09100 19.73800
H  -2.07700 28.09100 20.90200
H  -3.09100 29.50500 20.68800
H  -0.43700 28.98800 25.47600
H  -0.03600 29.58600 27.12500
H  -1.30600 30.35600 26.25700
H  -3.73700 28.28500 31.11600
H  -1.29600 27.22200 34.65400
H  -2.32800 25.86700 33.96200
H  -3.08500 27.20800 34.72300

