158

Mg 53.91600 23.98500 44.82900
C  50.93200 25.79100 44.00800
C  52.28100 21.16800 43.96700
C  56.81500 22.31000 45.24300
C  55.58100 27.00400 45.44000
N  51.92600 23.60800 43.97100
C  50.85200 24.42800 43.72700
C  49.69300 23.66300 43.24400
C  49.97300 22.15500 43.72200
C  51.49200 22.34700 43.91300
C  49.15600 21.69700 45.00100
C  49.55500 23.91800 41.69100
C  48.20900 23.94600 41.04200
H  48.03800 23.23600 39.68600
N  54.44800 22.08000 44.54300
C  53.64800 21.01300 44.27400
C  54.32100 19.79700 44.35900
C  55.58900 20.11600 44.82500
C  55.66300 21.56700 44.82300
C  53.68400 18.46800 43.94900
C  56.65600 19.05900 45.24500
O  56.37800 17.85500 45.19100
C  57.93900 19.42000 45.86400
N  55.99200 24.57700 45.08800
C  57.00600 23.69500 45.30700
C  58.24000 24.46400 45.69100
C  57.80900 25.96200 45.85600
C  56.34300 25.83800 45.38800
C  59.03300 23.76000 46.91700
C  58.78500 27.03700 45.14700
C  59.24900 28.22400 46.04300
N  53.41600 25.97900 44.69300
C  54.20700 27.08400 45.14600
C  53.24200 28.24100 45.17500
C  51.98900 27.75800 44.80100
C  52.13600 26.35600 44.46400
C  53.71700 29.62800 45.62500
C  50.56800 28.13100 44.66200
O  50.05200 29.22600 44.82900
C  49.87900 26.93300 43.96900
C  49.43900 27.36500 42.69800
O  50.11300 27.58600 41.70000
O  48.03500 27.34600 42.63400
C  47.51000 27.90500 41.39500
H  51.70000 20.27300 43.73800
H  57.72000 21.72400 45.41000
H  55.99000 27.92400 45.86400
H  48.79900 23.95800 43.79300
H  49.69400 21.47100 42.92000
H  49.74400 21.90400 45.89500
H  48.78800 20.67400 44.92200
H  48.31900 22.35500 45.23600
H  50.23300 23.21100 41.21400
H  49.89600 24.93100 41.47900
H  47.80800 24.95000 40.90100
H  47.55600 23.42200 41.74000
H  54.50000 17.79300 43.69300
H  52.98200 18.59000 43.12400
H  53.19200 18.12800 44.86100
H  58.66100 19.92900 45.22700
H  58.36900 18.49100 46.23900
H  57.59500 20.05900 46.67700
H  58.85100 24.39300 44.79100
H  57.73700 26.12000 46.93200
H  58.51800 22.93000 47.40200
H  59.32800 24.50000 47.66000
H  59.91200 23.39200 46.38700
H  58.43600 27.45700 44.20300
H  59.68300 26.50800 44.82800
H  58.89100 29.16200 45.61900
H  60.33400 28.28900 46.12300
H  58.83700 28.16900 47.05000
H  54.79500 29.68900 45.77200
H  53.18900 29.84400 46.55400
H  53.30500 30.38300 44.95600
H  48.96200 26.72000 44.51900
H  48.11200 27.68700 40.51300
H  47.42800 28.98400 41.52700
H  46.55100 27.40100 41.27900
Mg 46.92200 24.96700 29.35600
C  48.02000 27.09700 32.01200
C  46.56200 22.51400 31.69900
C  46.85600 22.63900 26.93900
C  48.02800 27.30500 27.19200
N  47.26500 24.81900 31.63400
C  47.64800 25.84800 32.48100
C  47.37500 25.44300 33.94700
C  47.02900 23.88500 33.81400
C  46.89900 23.73500 32.27300
C  48.00100 22.94000 34.47100
C  46.23100 26.23600 34.66200
C  46.64200 26.97300 35.97300
H  45.49000 27.09600 36.98600
N  46.48900 22.92900 29.26600
C  46.33400 22.10600 30.39100
C  46.06000 20.73700 29.93900
C  46.17800 20.72300 28.49800
C  46.41400 22.15400 28.15200
C  45.67700 19.59300 30.84000
C  46.10700 19.59800 27.53200
O  46.09100 19.80500 26.30100
C  46.03100 18.16200 27.95400
N  47.19000 25.02000 27.29700
C  47.10600 23.91000 26.46000
C  47.42000 24.30500 25.03200
C  47.56200 25.88700 25.11900
C  47.56400 26.14600 26.60000
C  48.71200 23.59200 24.45700
C  46.38900 26.62300 24.50900
C  46.83000 27.75600 23.54900
N  47.68100 26.87300 29.48500
C  48.02400 27.75400 28.52200
C  48.51400 28.95600 29.05200
C  48.43900 28.82900 30.46000
C  48.02100 27.47200 30.67500
C  48.97300 30.06300 28.13100
C  48.69200 29.44300 31.73900
O  49.15600 30.55000 31.95700
C  48.53000 28.28800 32.76400
C  49.86400 28.00100 33.45300
O  50.60000 27.10400 33.09600
O  49.98200 28.78300 34.54300
C  50.89700 28.26000 35.57200
H  46.25900 21.75200 32.42000
H  47.08200 21.84400 26.22500
H  48.38700 27.99300 26.42500
H  48.29500 25.57400 34.51600
H  46.05700 23.80800 34.30000
H  48.94400 23.41000 34.74800
H  48.39200 22.20700 33.76500
H  47.39200 22.42500 35.21300
H  45.32200 25.64500 34.77600
H  45.85700 27.00100 33.98100
H  46.94700 27.98000 35.69000
H  47.57400 26.51700 36.30800
H  46.49700 18.88100 30.74400
H  44.73500 19.06300 30.69400
H  45.74500 19.90900 31.88100
H  45.16500 18.13900 28.61600
H  46.87600 17.97500 28.61600
H  45.93300 17.48700 27.10400
H  46.57600 24.08300 24.37900
H  48.53400 26.09500 24.67300
H  49.38900 23.17000 25.19900
H  49.34500 24.22900 23.84000
H  48.34900 22.83400 23.76200
H  45.88600 27.23900 25.25400
H  45.68800 25.93400 24.03700
H  46.80400 28.69300 24.10600
H  46.15700 27.75400 22.69200
H  47.85400 27.59600 23.20900
H  48.10000 30.65500 27.85200
H  49.34300 29.56900 27.23300
H  49.64200 30.76200 28.63300
H  47.82600 28.58400 33.54100
H  50.94700 29.04600 36.32500
H  51.93200 28.22900 35.23100
H  50.69300 27.23700 35.89000

