158

Mg 8.63700 2.87400 27.70600
C  9.98900 1.26300 30.52000
C  6.56400 4.73300 29.64800
C  7.35200 4.31700 24.93700
C  10.50900 0.67800 25.76900
N  8.33000 2.97200 29.79300
C  8.99100 2.20400 30.73200
C  8.64600 2.75300 32.16000
C  7.53300 3.77300 31.85800
C  7.36700 3.75300 30.31500
C  6.30200 3.67900 32.70800
C  9.85700 3.40700 32.88600
C  9.48100 4.27500 34.08300
H  10.28800 4.03700 35.39700
N  7.12500 4.40200 27.31900
C  6.47000 5.11400 28.30300
C  5.80100 6.20100 27.62100
C  6.07600 6.13400 26.21500
C  6.96400 4.93100 26.13400
C  5.03500 7.28300 28.43500
C  5.48500 6.90900 25.03400
O  5.64100 6.55300 23.91000
C  4.50100 7.98700 25.33700
N  8.74500 2.49100 25.65400
C  8.18000 3.20600 24.69100
C  8.56900 2.79000 23.25700
C  9.59500 1.68200 23.54300
C  9.69800 1.62600 25.10700
C  7.34000 2.51000 22.38500
C  11.01800 1.80300 22.93600
C  11.61400 0.48700 22.28000
N  9.92700 1.20900 28.00300
C  10.65200 0.43600 27.15700
C  11.49700 -0.50200 27.81900
C  11.16600 -0.26900 29.21400
C  10.31300 0.79400 29.23200
C  12.43700 -1.53100 27.15700
C  11.46700 -0.61500 30.55400
O  12.13400 -1.53000 31.02200
C  10.73200 0.41000 31.46500
C  9.91800 -0.29600 32.56400
O  9.02400 -1.09800 32.27300
O  10.22500 0.17600 33.79900
C  9.44400 -0.45200 34.90400
H  5.88800 5.38200 30.20900
H  7.22500 4.71200 23.92700
H  11.13200 0.18200 25.02200
H  8.40700 1.92300 32.82600
H  7.81800 4.81000 32.03400
H  5.99000 4.67100 33.03700
H  6.52500 3.03300 33.55700
H  5.47500 3.30300 32.10500
H  10.42500 3.99800 32.16800
H  10.56800 2.62100 33.14300
H  8.41000 4.34500 34.27200
H  9.78900 5.27900 33.79100
H  5.41900 8.29600 28.31400
H  5.16200 7.12700 29.50600
H  3.97200 7.28800 28.19500
H  5.00500 8.70300 25.98700
H  3.70900 7.50000 25.90500
H  4.10800 8.56700 24.50200
H  9.00300 3.65400 22.75300
H  9.20800 0.76500 23.09700
H  6.40900 2.72000 22.91200
H  7.44700 1.49500 22.00200
H  7.50800 3.16300 21.52900
H  11.63800 2.10100 23.78200
H  11.01800 2.62000 22.21300
H  12.18900 0.67900 21.37400
H  10.78700 -0.17300 22.01900
H  12.25700 0.04900 23.04300
H  12.00600 -2.52900 27.24200
H  13.48000 -1.59800 27.46500
H  12.46700 -1.31600 26.08900
H  11.51300 0.90900 32.03900
H  10.24800 -0.58000 35.62900
H  9.03500 -1.45500 34.77400
H  8.65400 0.05600 35.45700
Mg 47.57000 34.20100 27.08800
C  45.68300 32.54700 29.63000
C  48.04700 36.77500 29.16600
C  48.97000 35.83900 24.50600
C  46.98000 31.44200 25.10100
N  46.97000 34.55900 29.17500
C  46.25200 33.76900 30.05400
C  46.27800 34.38500 31.49500
C  46.70300 35.87300 31.21800
C  47.32400 35.69500 29.75800
C  45.42500 36.76600 31.37600
C  47.26700 33.71000 32.52300
C  46.84900 33.48800 33.93300
H  46.39900 34.69900 34.81500
N  48.33100 36.03600 26.85700
C  48.55600 36.98500 27.87000
C  49.10400 38.18500 27.29900
C  49.40600 38.00500 25.88700
C  48.89200 36.58800 25.65100
C  49.34300 39.48300 28.12300
C  50.18500 38.81900 24.89300
O  50.35700 38.52200 23.74200
C  50.71700 40.18300 25.34000
N  47.94900 33.69900 25.11800
C  48.51600 34.54000 24.25200
C  48.75400 33.80800 22.82000
C  48.23800 32.37900 23.14400
C  47.71800 32.48700 24.58000
C  48.10400 34.43500 21.55600
C  49.40200 31.27800 22.99000
C  49.05000 30.07500 22.13200
N  46.41700 32.47300 27.16100
C  46.21200 31.45000 26.28500
C  45.28400 30.48200 26.72600
C  45.04600 30.84300 28.11100
C  45.86600 32.04000 28.35900
C  44.77200 29.28600 25.91100
C  44.36500 30.47500 29.30300
O  43.54300 29.54400 29.52800
C  44.66600 31.65100 30.34500
C  45.28500 30.98700 31.53200
O  46.32700 30.36900 31.52300
O  44.41000 31.02500 32.52900
C  44.80200 30.17700 33.63100
H  48.08900 37.65500 29.81100
H  49.44800 36.24500 23.61200
H  46.80700 30.69100 24.32800
H  45.26800 34.36800 31.90400
H  47.45700 36.30500 31.87700
H  45.64700 37.54100 32.10900
H  44.65000 36.16100 31.84700
H  45.05200 37.14300 30.42300
H  48.23300 34.18300 32.70100
H  47.63800 32.77800 32.09700
H  47.79500 33.12600 34.33500
H  46.03200 32.79500 34.13600
H  48.80000 40.26200 27.58800
H  50.41700 39.60800 28.26600
H  48.68300 39.42700 28.98700
H  51.37200 40.06500 26.20300
H  49.76800 40.67500 25.55200
H  51.28200 40.62400 24.51900
H  49.83100 33.80000 22.65000
H  47.42400 32.20900 22.43900
H  48.83900 35.11000 21.11800
H  47.29200 35.05300 21.93900
H  47.63100 33.74400 20.85800
H  49.49400 30.89700 24.00700
H  50.37400 31.66200 22.68000
H  48.13200 30.34000 21.60600
H  48.78300 29.17200 22.68100
H  49.73000 29.81900 21.31900
H  44.07100 29.70300 25.18800
H  44.26500 28.51600 26.49200
H  45.61000 28.78600 25.42400
H  43.75000 32.12300 30.70000
H  44.92900 29.12600 33.37300
H  43.91000 30.21600 34.25600
H  45.58300 30.43400 34.34700

