158

Mg 0.40900 7.58800 26.08900
C  0.95600 9.83600 28.83200
C  0.73000 5.00500 28.47200
C  0.13500 5.41000 23.57400
C  0.73000 10.23100 23.80800
N  0.80500 7.52900 28.39600
C  0.90700 8.52400 29.32900
C  0.85600 7.98300 30.72600
C  1.12000 6.45900 30.62500
C  0.87800 6.32300 29.04000
C  2.42100 5.91700 31.11800
C  -0.47100 8.21200 31.56800
C  -0.38000 8.25200 33.14700
H  0.97500 8.15800 33.76000
N  0.35900 5.53600 26.04600
C  0.52900 4.65000 27.12100
C  0.33600 3.30600 26.63800
C  0.31400 3.32400 25.20500
C  0.25400 4.78700 24.89400
C  0.30200 2.09300 27.49100
C  0.34300 2.23800 24.16300
O  0.28800 2.45500 22.99800
C  0.43400 0.77700 24.56100
N  0.41000 7.84100 24.03300
C  0.10000 6.76900 23.19100
C  0.13100 7.20800 21.66600
C  0.18100 8.74500 21.81500
C  0.45700 8.99800 23.29400
C  1.37600 6.53700 20.85000
C  -1.03100 9.54000 21.19100
C  -0.71600 10.78400 20.38300
N  0.70800 9.57100 26.21800
C  0.80200 10.58400 25.20400
C  0.96500 11.87700 25.85600
C  1.03300 11.61200 27.23100
C  0.89500 10.20700 27.43400
C  0.93400 13.25100 25.22200
C  1.17800 12.30400 28.52900
O  1.37700 13.49700 28.83300
C  1.05600 11.10100 29.60400
C  2.11500 11.22600 30.57900
O  3.14100 10.63300 30.57200
O  1.78500 12.14200 31.57500
C  2.70100 12.19100 32.71600
H  0.88600 4.13300 29.11200
H  0.01300 4.74300 22.71700
H  0.74800 10.91300 22.95500
H  1.62700 8.57600 31.21800
H  0.23500 5.96700 31.02700
H  2.80700 5.12800 30.47300
H  2.44000 5.41600 32.08600
H  3.12300 6.75200 31.11700
H  -1.20200 7.46600 31.25700
H  -0.79500 9.16300 31.14500
H  -0.95400 7.35000 33.35900
H  -0.87600 9.16100 33.48600
H  0.99900 1.29300 27.24000
H  -0.68300 1.71700 27.21300
H  0.43800 2.31200 28.55000
H  0.59700 0.10700 23.71600
H  -0.45200 0.43200 25.09300
H  1.25300 0.58500 25.25500
H  -0.73900 6.84300 21.12000
H  1.09400 9.10500 21.34200
H  1.07900 6.46400 19.80300
H  1.74100 5.59700 21.26300
H  2.20800 7.24000 20.83900
H  -1.71900 9.75800 22.00800
H  -1.61900 8.99200 20.45400
H  -0.91900 10.46200 19.36200
H  0.37000 10.86800 20.43000
H  -1.30800 11.61400 20.76900
H  0.92100 13.45900 24.15300
H  1.78800 13.78400 25.63900
H  0.05800 13.78100 25.59600
H  0.11800 11.15000 30.15700
H  3.33000 13.08100 32.69500
H  3.40100 11.37500 32.89700
H  2.02900 12.16200 33.57400
Mg 26.61300 50.45200 25.99600
C  24.83300 51.40300 28.85300
C  29.39700 49.53800 28.14900
C  28.57400 49.74900 23.34900
C  24.27300 51.76800 24.04900
N  27.02400 50.51800 28.22300
C  26.08700 50.82200 29.20300
C  26.55500 50.47400 30.57100
C  28.03600 49.96000 30.36500
C  28.21200 50.10400 28.83000
C  29.08800 50.79400 31.12200
C  25.71300 49.33400 31.37000
C  25.02900 49.86000 32.70100
H  25.92700 50.34300 33.91300
N  28.61700 49.73700 25.83700
C  29.57400 49.48800 26.76200
C  30.86700 49.35800 26.08900
C  30.73700 49.30300 24.70600
C  29.24000 49.55200 24.55100
C  32.16100 49.28300 26.80200
C  31.68100 49.02600 23.60700
O  31.45400 48.99800 22.40700
C  33.12600 48.92400 24.03300
N  26.58200 50.85400 23.92400
C  27.31400 50.29500 23.02500
C  26.70300 50.32300 21.60500
C  25.22800 50.85300 21.89900
C  25.38000 51.21600 23.38600
C  27.58300 51.11500 20.57100
C  24.02400 49.92900 21.55100
C  22.69000 50.51000 21.17300
N  24.90400 51.44200 26.27900
C  24.01500 51.89200 25.41000
C  22.88500 52.44100 26.15800
C  23.26900 52.42400 27.49400
C  24.45400 51.68500 27.53500
C  21.63900 52.99100 25.56100
C  22.77500 52.69700 28.80300
O  21.79600 53.15900 29.23200
C  23.84900 52.10200 29.73800
C  24.37400 53.25300 30.63900
O  25.36900 53.90800 30.41200
O  23.50200 53.40000 31.69000
C  23.86900 54.33400 32.81400
H  30.21100 49.24100 28.81400
H  29.11400 49.41500 22.46000
H  23.36300 51.99000 23.48600
H  26.50000 51.44600 31.06100
H  28.15500 48.92200 30.67600
H  29.49500 50.20500 31.94400
H  28.53900 51.64700 31.52100
H  29.85000 51.25500 30.49300
H  26.30300 48.44000 31.57200
H  24.93300 49.09400 30.64700
H  24.27000 49.14300 33.01400
H  24.51600 50.76400 32.37300
H  31.97800 49.63000 27.81900
H  32.85900 50.07600 26.53600
H  32.74200 48.36000 26.78800
H  33.29100 48.06500 24.68400
H  33.40500 49.93100 24.34300
H  33.62300 48.59200 23.12100
H  26.68400 49.32100 21.17700
H  25.27300 51.70300 21.21800
H  28.31900 51.59700 21.21500
H  27.05000 52.02700 20.30400
H  28.07200 50.62300 19.73000
H  23.98200 49.35000 22.47400
H  24.16800 49.38400 20.61800
H  22.62800 51.59000 21.31100
H  21.99400 49.81800 21.64800
H  22.51400 50.38300 20.10400
H  21.12500 52.33700 24.85700
H  22.02100 53.83100 24.98100
H  20.87600 53.31800 26.26700
H  23.56800 51.31200 30.43500
H  24.80400 54.13700 33.33800
H  23.03500 54.45700 33.50500
H  23.98000 55.31400 32.34900

