158

Mg 43.41500 4.29000 47.33600
C  41.26000 7.08200 47.40900
C  40.41600 2.37500 46.97500
C  45.30200 1.62800 46.65500
C  46.11000 6.35000 47.34300
N  41.08600 4.74000 46.88000
C  40.56000 5.92900 47.29800
C  39.05600 5.83900 47.49500
C  38.77000 4.26800 47.52000
C  40.17900 3.75800 47.09600
C  38.25300 3.69100 48.86000
C  38.13800 6.62600 46.37600
C  38.59000 6.40600 44.86000
H  38.81600 7.63600 43.99200
N  43.00500 2.32700 46.98200
C  41.69900 1.79500 46.93900
C  41.87100 0.40100 46.84700
C  43.22100 0.08400 46.57900
C  43.92600 1.36900 46.66300
C  40.67900 -0.57200 47.02700
C  43.78600 -1.27700 46.29800
O  43.03700 -2.24600 46.19900
C  45.16000 -1.53100 46.12700
N  45.43100 4.09000 47.06700
C  46.02900 2.81100 46.94000
C  47.52700 3.02800 46.90600
C  47.90500 4.57300 47.10900
C  46.40000 5.01400 47.19500
C  48.45800 2.05900 47.73800
C  48.75100 5.36300 46.06300
C  49.94000 4.67900 45.52200
N  43.69800 6.34500 47.31900
C  44.87900 7.06800 47.49600
C  44.60700 8.44200 47.67700
C  43.16800 8.47100 47.67000
C  42.68000 7.16900 47.36700
C  45.67700 9.53900 47.93900
C  42.04200 9.39400 47.88400
O  42.01800 10.59200 48.16600
C  40.76000 8.52800 47.70000
C  39.94100 8.54800 48.93900
O  40.21100 7.95800 50.01200
O  38.86300 9.39400 48.69300
C  37.82800 9.43800 49.84300
H  39.55300 1.71100 47.04900
H  46.05900 0.85500 46.50700
H  46.99400 6.98900 47.37200
H  38.87800 6.22800 48.49800
H  38.05800 4.08100 46.71600
H  37.59400 4.35200 49.42400
H  39.08400 3.33700 49.47100
H  37.70900 2.77500 48.62900
H  37.97200 7.65400 46.69600
H  37.16400 6.13800 46.35700
H  37.84600 5.76400 44.38600
H  39.50600 5.82200 44.77300
H  40.17100 -0.78200 46.08600
H  40.06000 -0.09800 47.78900
H  41.11900 -1.49700 47.40000
H  45.79300 -1.02100 46.85300
H  45.50200 -0.98900 45.24500
H  45.25700 -2.61100 46.02000
H  47.77500 2.71000 45.89300
H  48.41000 4.70000 48.06700
H  49.17500 1.57100 47.07800
H  47.82100 1.27600 48.15100
H  49.03500 2.55700 48.51700
H  48.96100 6.33300 46.51500
H  48.00400 5.52200 45.28500
H  49.70500 4.35900 44.50700
H  50.42600 3.86700 46.06300
H  50.68700 5.45800 45.37000
H  45.31700 10.56800 47.91300
H  46.46800 9.49200 47.19000
H  46.11700 9.21100 48.88000
H  40.20700 8.85200 46.81700
H  38.30300 9.98800 50.65500
H  37.67100 8.45300 50.28200
H  36.88100 9.80400 49.44400
Mg 17.01900 51.07100 26.90000
C  19.24200 49.93500 29.26900
C  15.00100 52.14600 29.35000
C  15.14100 52.09500 24.43900
C  19.45300 49.85500 24.45700
N  17.05300 50.98700 29.04800
C  18.16300 50.54000 29.84100
C  17.88900 50.76900 31.34200
C  16.33900 51.15700 31.28000
C  16.12000 51.50800 29.80900
C  15.40600 50.05700 31.84300
C  18.77400 51.94000 31.92500
C  18.92900 51.89300 33.53600
H  17.84300 51.20500 34.30800
N  15.30000 51.95000 26.88000
C  14.61100 52.34600 27.96000
C  13.40100 53.04100 27.53600
C  13.41300 53.05500 26.05500
C  14.67100 52.30700 25.70800
C  12.30000 53.49600 28.54700
C  12.41000 53.50600 24.96500
O  12.52400 53.45100 23.76600
C  11.17700 54.16400 25.47800
N  17.32300 50.97600 24.73900
C  16.33100 51.50600 24.00600
C  16.78800 51.54300 22.56000
C  18.23200 51.00300 22.53300
C  18.35900 50.57600 23.96700
C  15.87200 50.92600 21.56100
C  19.26400 52.10900 22.10300
C  20.22700 51.64300 20.99200
N  18.84500 49.87900 26.86500
C  19.75000 49.56100 25.85000
C  20.85700 48.76300 26.34200
C  20.72900 48.96200 27.72100
C  19.51700 49.62000 27.95600
C  22.01000 48.23300 25.58100
C  21.44200 48.77700 28.94600
O  22.46900 48.27100 29.27400
C  20.42100 49.43600 29.98700
C  19.97800 48.38500 30.97200
O  19.14800 47.54100 30.68600
O  20.69700 48.43600 32.17600
C  20.07600 47.59400 33.22300
H  14.33100 52.57200 30.09900
H  14.49300 52.46300 23.64000
H  20.22400 49.61900 23.72200
H  18.20500 49.86200 31.85900
H  16.17200 52.10200 31.79600
H  14.54300 49.96900 31.18200
H  15.03700 50.26600 32.84700
H  15.84400 49.05900 31.81800
H  18.35900 52.92500 31.71100
H  19.73800 51.93400 31.41700
H  19.06800 52.89400 33.94300
H  19.89000 51.38200 33.59600
H  11.32500 53.03100 28.40200
H  12.14100 54.55900 28.36600
H  12.42500 53.36100 29.62200
H  10.76300 53.47900 26.21700
H  10.46800 54.41000 24.68800
H  11.57400 55.12300 25.81200
H  16.69600 52.60100 22.31400
H  18.32300 50.16500 21.84200
H  15.67900 49.93000 21.95800
H  16.41900 50.80700 20.62500
H  14.99400 51.56800 21.49000
H  19.91900 52.32500 22.94800
H  18.78500 53.03800 21.79700
H  19.69200 51.76400 20.05000
H  20.50000 50.60300 21.17200
H  21.12600 52.25900 20.98500
H  22.88200 48.39400 26.21400
H  22.20500 48.65400 24.59500
H  21.83900 47.17800 25.36600
H  21.06500 50.21600 30.39300
H  19.02100 47.34000 33.12200
H  20.27500 47.90000 34.25000
H  20.45800 46.61100 32.94500

