158

Mg 1.82400 -1.84900 44.34400
C  5.08800 -1.10600 43.64200
C  0.83700 0.87900 42.25800
C  -1.30700 -3.05700 44.08900
C  2.82600 -4.98300 45.72700
N  2.86200 -0.34800 42.96600
C  4.22800 -0.18700 42.99800
C  4.62000 1.15000 42.25800
C  3.21800 1.87300 42.04500
C  2.25000 0.71400 42.39600
C  3.00600 3.15600 42.82000
C  5.22700 0.89200 40.83000
C  6.12700 2.05000 40.24800
H  5.70900 2.73800 38.97000
N  -0.07600 -1.01000 43.50100
C  -0.19600 0.03400 42.62900
C  -1.60900 0.19000 42.35400
C  -2.31000 -0.92000 42.93500
C  -1.22100 -1.80300 43.53900
C  -2.17300 1.28100 41.50900
C  -3.80000 -1.16200 42.87800
O  -4.49100 -0.31300 42.43800
C  -4.35800 -2.34800 43.49500
N  0.90600 -3.74600 44.83600
C  -0.40100 -3.95800 44.65700
C  -0.84000 -5.40700 45.03600
C  0.50700 -6.03000 45.52700
C  1.46300 -4.86900 45.39000
C  -2.03700 -5.55400 46.00200
C  0.94700 -7.25600 44.75900
C  1.12400 -8.54100 45.56400
N  3.56400 -2.78900 44.92300
C  3.84200 -3.95700 45.48900
C  5.24600 -4.04300 45.64300
C  5.81900 -2.92400 45.02800
C  4.77800 -2.25600 44.46100
C  5.89100 -5.17900 46.40900
C  7.06600 -2.24700 44.71700
O  8.22700 -2.43500 44.96200
C  6.64700 -0.99800 43.85800
C  7.12900 0.19800 44.45100
O  6.66200 0.59800 45.47900
O  8.09100 0.83600 43.58600
C  8.61900 2.07400 44.08900
H  0.52300 1.78200 41.73000
H  -2.21200 -3.66700 44.04700
H  3.20600 -5.94000 46.08900
H  5.37700 1.75000 42.76300
H  3.03800 2.21900 41.02700
H  1.95400 3.43200 42.75200
H  3.56400 3.89800 42.24800
H  3.38500 2.98500 43.82800
H  4.48300 0.69200 40.05900
H  5.90200 0.04300 40.93500
H  7.07200 1.51500 40.16100
H  6.29700 2.72300 41.08800
H  -2.31800 0.96900 40.47500
H  -1.44600 2.09200 41.47200
H  -3.11200 1.67800 41.89600
H  -5.37000 -2.15600 43.85100
H  -3.73800 -2.39700 44.39100
H  -4.17800 -3.21700 42.86300
H  -1.17300 -5.90200 44.12400
H  0.47500 -6.27800 46.58800
H  -1.81600 -6.22700 46.83000
H  -2.90800 -5.89300 45.44100
H  -2.30600 -4.59900 46.45400
H  1.96300 -7.09400 44.39800
H  0.32100 -7.51300 43.90500
H  0.58100 -9.41600 45.20600
H  1.01200 -8.41100 46.64000
H  2.18600 -8.77700 45.49800
H  6.96600 -5.01700 46.49200
H  5.60500 -6.13700 45.97400
H  5.37900 -5.12200 47.36900
H  7.16100 -1.16200 42.91100
H  9.40500 1.82500 44.80300
H  7.83800 2.69300 44.53200
H  9.01200 2.66000 43.25800
Mg 4.51700 53.21600 40.59600
C  4.76500 49.70400 40.72300
C  7.78900 53.28500 39.45100
C  3.96500 56.31100 39.73500
C  1.38000 53.03200 42.11400
N  6.01100 51.56400 39.94700
C  5.93700 50.21900 40.15500
C  7.31000 49.51900 39.87000
C  8.23900 50.74200 39.79600
C  7.33800 51.97400 39.72500
C  9.42100 50.81400 40.90300
C  7.47200 48.47400 38.66100
C  6.58900 48.59300 37.38300
H  7.00700 49.39300 36.12400
N  5.70400 54.61900 39.56000
C  7.02900 54.48600 39.18400
C  7.48900 55.70900 38.53100
C  6.35900 56.57200 38.66900
C  5.23600 55.84800 39.33800
C  8.83100 55.79200 37.89500
C  6.34500 58.01000 38.18900
O  7.31900 58.58200 37.71700
C  5.04400 58.80800 38.17900
N  2.84800 54.42900 40.75800
C  2.95900 55.67300 40.35300
C  1.77500 56.45200 40.82900
C  0.88900 55.36400 41.58600
C  1.70400 54.15900 41.47900
C  2.13700 57.76900 41.67900
C  -0.60600 55.35000 41.04800
C  -1.66100 55.38300 42.08200
N  3.34000 51.74800 41.40700
C  2.11700 51.79800 42.07500
C  1.74500 50.53600 42.59600
C  2.68100 49.64700 42.04300
C  3.62500 50.44400 41.37100
C  0.56400 50.19300 43.43800
C  3.15100 48.28500 41.99000
O  2.55200 47.35700 42.54900
C  4.55400 48.25000 41.12800
C  4.41100 47.44400 39.92700
O  3.61800 47.61900 39.02700
O  5.08700 46.29100 40.13800
C  4.64800 45.09100 39.29500
H  8.79100 53.43800 39.04600
H  3.68700 57.36500 39.66400
H  0.44100 53.06700 42.67100
H  7.50100 48.84200 40.70200
H  8.85500 50.68700 38.89900
H  9.27700 51.72600 41.48200
H  10.45800 50.81500 40.56800
H  9.27500 50.00800 41.62200
H  7.17600 47.49900 39.04900
H  8.51500 48.49000 38.34500
H  5.60800 48.98300 37.65400
H  6.32200 47.57900 37.08400
H  8.93800 55.09200 37.06600
H  9.60600 55.71200 38.65800
H  8.85300 56.75000 37.37600
H  5.14300 59.63500 37.47500
H  4.96300 59.23100 39.18100
H  4.20800 58.23200 37.78200
H  1.21900 56.72400 39.93200
H  0.93900 55.73100 42.61100
H  1.57100 57.90300 42.60100
H  1.84100 58.66800 41.13900
H  3.19100 57.77300 41.95600
H  -0.75900 54.42800 40.48700
H  -0.80100 56.19800 40.39100
H  -1.36200 55.24300 43.12100
H  -2.45800 54.64500 41.99000
H  -2.22800 56.30700 41.97000
H  0.73200 50.33500 44.50600
H  0.41500 49.11600 43.36200
H  -0.34500 50.66300 43.06300
H  5.31600 47.92600 41.83800
H  5.08300 45.19400 38.30100
H  3.56300 45.03800 39.20200
H  4.94500 44.20300 39.85400

