158

Mg 48.95400 46.02300 42.65500
C  45.69900 46.65200 41.53600
C  48.65300 42.98200 41.11200
C  52.16800 45.58200 42.99800
C  49.23800 49.35400 43.69800
N  47.44500 45.03400 41.34500
C  46.23100 45.48200 41.03300
C  45.44600 44.53700 40.08700
C  46.26100 43.18600 40.43400
C  47.54200 43.72100 41.01200
C  45.55400 42.05500 41.25900
C  45.64900 45.00300 38.58300
C  44.38500 44.91500 37.65300
H  44.43400 44.07900 36.37500
N  50.25300 44.45800 42.06900
C  49.97800 43.33100 41.49600
C  51.10800 42.40800 41.43100
C  52.14800 43.09900 42.19300
C  51.56800 44.45200 42.45700
C  51.18100 40.95800 40.80000
C  53.51200 42.57800 42.63900
O  53.68300 41.39600 42.45400
C  54.63500 43.35100 43.27500
N  50.45000 47.33900 43.17100
C  51.71300 46.90800 43.26700
C  52.70600 48.09800 43.61400
C  51.76700 49.30100 43.74400
C  50.40100 48.62800 43.56700
C  53.56600 47.82200 44.87900
C  51.96300 50.47300 42.69600
C  52.82600 51.62700 43.29300
N  47.67400 47.64200 42.75600
C  47.90900 48.89500 43.39900
C  46.59400 49.56700 43.46900
C  45.72800 48.70800 42.74600
C  46.48900 47.59700 42.29500
C  46.37300 50.92800 44.00300
C  44.32500 48.58600 42.30400
O  43.31600 49.20900 42.49000
C  44.38300 47.26600 41.38400
C  43.14500 46.39200 41.70900
O  42.37800 45.96800 40.87800
O  42.90500 46.32200 43.08700
C  41.76600 45.47800 43.50000
H  48.44200 41.94900 40.82800
H  53.25400 45.47200 43.02900
H  49.34200 50.38900 44.02900
H  44.37300 44.47600 40.26700
H  46.57300 42.75500 39.48200
H  46.10100 41.85600 42.18000
H  45.60000 41.17000 40.62400
H  44.52000 42.37000 41.40100
H  46.38900 44.40300 38.05200
H  46.05600 46.01400 38.58900
H  44.16000 45.94800 37.38800
H  43.48900 44.77300 38.25700
H  50.25900 40.86900 40.22500
H  51.04700 40.23300 41.60300
H  51.95800 40.91600 40.03800
H  54.35200 43.92200 44.15900
H  55.12800 43.88000 42.46000
H  55.36500 42.62200 43.62700
H  53.35900 48.25300 42.75500
H  51.84600 49.74800 44.73500
H  53.25600 46.83200 45.21400
H  53.48500 48.47900 45.74600
H  54.59400 47.87800 44.52000
H  51.04200 50.90700 42.30600
H  52.50800 49.93500 41.92000
H  52.35100 52.55200 42.96500
H  53.86700 51.51000 42.99300
H  52.65500 51.71300 44.36600
H  46.57400 51.64900 43.21100
H  46.97700 51.07400 44.89900
H  45.31400 51.07800 44.21300
H  44.23600 47.51500 40.33300
H  41.74100 44.52500 42.97100
H  40.79100 45.95900 43.43400
H  41.87400 45.29500 44.56900
Mg 1.08100 43.29400 26.47600
C  3.30500 43.17300 29.14200
C  -1.36500 42.40300 28.64000
C  -0.89500 42.88600 23.72300
C  3.77400 43.75600 24.26400
N  0.95000 42.91200 28.70200
C  2.00000 42.91700 29.54700
C  1.63000 42.64200 31.02900
C  0.20400 42.13500 30.79300
C  -0.16700 42.55400 29.31900
C  -0.10200 40.71000 31.16000
C  1.62800 43.96500 31.87900
C  1.38200 43.93000 33.38400
H  1.11100 42.60100 34.09600
N  -0.87800 42.86500 26.20500
C  -1.69600 42.50800 27.24200
C  -3.01800 42.27300 26.69300
C  -2.92200 42.55100 25.24500
C  -1.51000 42.78600 25.00300
C  -4.10800 41.64100 27.48900
C  -3.99400 42.42900 24.13300
O  -3.81800 42.52300 22.89900
C  -5.46300 42.08600 24.56000
N  1.41900 43.23200 24.29400
C  0.45200 43.08000 23.33700
C  0.95000 43.26400 21.86500
C  2.40500 43.76100 22.13200
C  2.59200 43.56000 23.65200
C  0.81400 41.93600 20.98300
C  2.71200 45.26300 21.73700
C  4.02800 45.44700 20.92300
N  3.09900 43.57600 26.62200
C  4.07900 43.76500 25.69000
C  5.32200 43.91300 26.34800
C  5.08400 43.63800 27.63200
C  3.70000 43.47400 27.80900
C  6.63200 44.14900 25.65400
C  5.77200 43.49000 28.92700
O  6.93100 43.48600 29.19400
C  4.58900 43.16200 29.89800
C  4.85200 41.91300 30.61200
O  5.20500 40.92800 30.04100
O  4.66300 42.10300 31.97100
C  5.21300 41.21000 33.02200
H  -2.14100 41.97600 29.27700
H  -1.61500 42.84500 22.90300
H  4.67400 44.04100 23.71500
H  2.23400 41.88200 31.52400
H  -0.46300 42.79800 31.34500
H  0.73000 40.20900 31.65500
H  -0.27000 40.18400 30.22000
H  -1.05000 40.59900 31.68600
H  0.91800 44.68700 31.47500
H  2.63300 44.36500 31.74600
H  0.44300 44.48000 33.45700
H  2.14600 44.54400 33.86000
H  -5.07400 41.56800 26.98900
H  -4.19000 42.22300 28.40700
H  -3.84700 40.61600 27.75300
H  -5.90400 42.60600 25.41100
H  -5.37300 41.06900 24.93900
H  -6.15000 42.05900 23.71400
H  0.33600 44.07600 21.47500
H  3.09800 43.03100 21.71500
H  0.80900 41.09800 21.68000
H  1.76300 41.86900 20.45200
H  -0.09000 41.98900 20.37600
H  2.75400 45.88200 22.63300
H  1.93800 45.50300 21.00800
H  4.48800 44.46600 20.79900
H  4.53200 46.28600 21.40200
H  3.83300 45.86400 19.93500
H  7.34300 44.42700 26.43200
H  6.60300 44.96600 24.93300
H  7.05300 43.24400 25.21500
H  4.35800 43.98300 30.57600
H  4.43200 40.67400 33.56100
H  5.70900 41.80700 33.78700
H  5.92000 40.54600 32.52500

