158

Mg 35.09100 2.34100 29.12900
C  32.84000 3.52500 31.48000
C  37.41400 2.13700 31.56600
C  37.29900 1.51700 26.75300
C  32.71800 2.98200 26.56600
N  35.16800 2.99200 31.32400
C  34.05500 3.26000 32.03400
C  34.36300 3.21400 33.52300
C  35.95500 2.99600 33.59000
C  36.23000 2.70600 32.05800
C  36.86000 4.26900 34.03000
C  33.45200 2.18400 34.32800
C  33.82700 1.84400 35.80800
H  34.44200 2.97800 36.69000
N  37.11500 1.81800 29.23000
C  37.89100 1.77200 30.30300
C  39.26300 1.47200 29.97400
C  39.21800 1.10900 28.56600
C  37.84700 1.49100 28.08100
C  40.39300 1.43800 31.00000
C  40.26800 0.45300 27.63600
O  39.98900 0.04800 26.53000
C  41.62000 0.26100 28.11700
N  34.94500 2.11400 27.06200
C  36.02500 1.72100 26.28600
C  35.69700 1.77900 24.78800
C  34.12500 1.94300 24.85700
C  33.87100 2.32700 26.24200
C  36.37400 3.00000 24.01800
C  33.26300 0.76400 24.30800
C  32.52500 1.04000 23.01700
N  33.10600 3.03700 29.00700
C  32.28500 3.27300 27.93000
C  30.97200 3.70800 28.35700
C  31.14500 3.73700 29.82100
C  32.48900 3.40400 30.13200
C  29.65200 3.91100 27.64100
C  30.51500 4.03700 31.06100
O  29.40300 4.42700 31.37500
C  31.51400 3.82600 32.17500
C  31.47600 5.03600 33.13600
O  31.57100 6.20100 32.77800
O  31.22000 4.57000 34.37500
C  31.55000 5.67800 35.36700
H  38.19800 2.08100 32.32400
H  37.97400 1.32800 25.91500
H  31.96200 3.01300 25.77800
H  34.14300 4.18800 33.96100
H  36.09800 2.18900 34.30800
H  37.57500 4.11700 34.83900
H  36.24500 5.11900 34.32600
H  37.47300 4.46300 33.15000
H  33.67800 1.31600 33.70800
H  32.38500 2.40600 34.32000
H  34.41500 0.92700 35.84800
H  32.94800 1.55000 36.38200
H  40.27400 2.34200 31.59700
H  41.36100 1.52800 30.50800
H  40.42300 0.52900 31.60000
H  41.89900 1.29200 28.33400
H  42.23300 -0.07600 27.28100
H  41.74900 -0.38900 28.98300
H  36.02100 0.86100 24.29800
H  33.85000 2.80800 24.25300
H  37.25200 3.18500 24.63800
H  35.80500 3.92900 24.02400
H  36.78700 2.74500 23.04200
H  32.55300 0.49600 25.09100
H  33.86400 -0.13200 24.15200
H  32.20400 2.07900 22.93700
H  31.58600 0.49800 22.90700
H  33.32900 0.79800 22.32200
H  29.70200 3.61600 26.59300
H  29.32800 4.94700 27.74900
H  28.97900 3.28800 28.23000
H  31.23300 2.92300 32.71700
H  30.74900 6.40300 35.51700
H  32.45400 6.22800 35.10300
H  31.78300 5.16100 36.29800
Mg 54.75200 23.75200 45.43100
C  52.29400 25.88700 44.26300
C  52.85400 21.04200 44.27700
C  57.46900 21.70900 45.73700
C  56.73600 26.59600 46.13300
N  52.81400 23.53700 44.36500
C  51.96800 24.53700 44.02200
C  50.67900 24.03200 43.41700
C  50.73800 22.49400 43.88200
C  52.22800 22.28900 44.22400
C  49.81300 22.16600 45.04300
C  50.53400 24.21700 41.93900
C  51.72100 24.19300 41.09100
H  52.49600 22.90300 40.71400
N  55.15200 21.61700 44.96900
C  54.21300 20.68400 44.57500
C  54.88500 19.44900 44.50600
C  56.21200 19.62300 44.89300
C  56.36900 21.08300 45.16500
C  54.16900 18.16300 44.02600
C  57.26700 18.54600 44.84800
O  57.02600 17.36600 44.61900
C  58.70600 18.90900 45.09600
N  56.83900 24.12300 45.68500
C  57.64800 23.09600 46.04600
C  58.99300 23.59700 46.58500
C  58.76500 25.19700 46.74900
C  57.37700 25.37300 46.10600
C  59.57100 22.87300 47.83800
C  59.81500 26.13900 46.21000
C  60.99500 26.62500 47.08700
N  54.64900 25.89900 45.24100
C  55.53200 26.91000 45.61600
C  54.81300 28.17800 45.50600
C  53.56300 27.81300 44.91400
C  53.50000 26.37700 44.80000
C  55.37900 29.46900 45.97100
C  52.34400 28.35400 44.40600
O  51.96600 29.55900 44.32400
C  51.46100 27.13300 43.97200
C  51.21800 27.38000 42.52700
O  51.94900 27.35500 41.55300
O  49.90500 27.60400 42.36400
C  49.39300 28.08500 41.05100
H  52.16800 20.32700 43.81800
H  58.25700 21.05300 46.11200
H  57.24200 27.43500 46.61600
H  49.84600 24.55800 43.88300
H  50.42100 21.85600 43.05700
H  48.87100 22.68300 44.85900
H  50.16200 22.38900 46.05100
H  49.57200 21.11100 44.91300
H  49.77100 24.95700 41.69800
H  49.93300 23.35900 41.63700
H  52.38400 24.87500 41.62400
H  51.56300 24.58900 40.08800
H  54.75100 17.68900 43.23600
H  53.14100 18.19200 43.66600
H  54.34800 17.54900 44.90800
H  59.01400 19.81700 44.57700
H  59.30500 18.09000 44.69600
H  58.75400 18.98800 46.18200
H  59.67400 23.30100 45.78700
H  58.61500 25.33100 47.82000
H  59.68600 23.41200 48.77900
H  60.55500 22.44100 47.65900
H  58.88700 22.04500 48.02900
H  59.21000 26.96200 45.82900
H  60.40200 25.63700 45.44000
H  60.66900 26.54200 48.12300
H  61.18200 27.64400 46.74500
H  61.84100 25.94400 46.98900
H  56.29200 29.71400 45.42800
H  55.64600 29.32800 47.01800
H  54.62600 30.24700 45.84300
H  50.53500 27.12100 44.54600
H  49.99100 28.92800 40.70600
H  48.40700 28.54800 41.09600
H  49.50400 27.26200 40.34500

