158

Mg 45.17600 4.78100 46.87300
C  43.04300 7.46800 46.04800
C  42.50700 2.75600 46.13300
C  47.28200 2.15700 46.89400
C  47.90500 6.97900 46.52400
N  43.08800 5.11900 46.18000
C  42.41300 6.22900 45.95100
C  41.01600 6.02000 45.33700
C  40.76400 4.62000 45.89500
C  42.25300 4.08700 46.14900
C  39.82600 4.41700 47.09700
C  40.87700 6.39300 43.78700
C  39.61200 7.06200 43.29900
H  39.43500 7.64500 41.88600
N  44.87500 2.72000 46.79100
C  43.72700 2.06700 46.40300
C  44.01200 0.63400 46.36700
C  45.33100 0.43200 46.81700
C  45.88600 1.77300 46.90400
C  42.87800 -0.39600 46.02600
C  45.98800 -0.82900 47.00700
O  45.41800 -1.91900 46.75500
C  47.27800 -0.98400 47.57800
N  47.26700 4.66700 46.60500
C  47.85600 3.40400 46.68700
C  49.37500 3.59900 46.43000
C  49.63100 5.11400 46.72300
C  48.25700 5.62900 46.56800
C  50.37300 2.64200 47.27800
C  50.52600 5.83000 45.71900
C  51.39300 6.89800 46.33800
N  45.48300 6.79700 46.61200
C  46.63300 7.54500 46.48200
C  46.24200 8.94500 46.28700
C  44.87900 8.92800 46.17100
C  44.41900 7.61100 46.31000
C  47.13300 10.13800 46.14000
C  43.76100 9.81700 45.88500
O  43.60200 11.05300 45.77600
C  42.47500 8.80600 45.86600
C  41.57800 9.06500 46.98700
O  41.79100 9.01300 48.19400
O  40.27600 9.10800 46.45700
C  39.24300 9.13900 47.46000
H  41.65500 2.10600 45.92100
H  48.06200 1.39900 46.80100
H  48.79800 7.60700 46.47800
H  40.43300 6.81900 45.79400
H  40.52800 3.90700 45.10600
H  40.26200 3.76200 47.85200
H  38.83500 4.12400 46.74900
H  39.61200 5.27400 47.73600
H  40.86300 5.46000 43.22300
H  41.78600 6.92300 43.50200
H  39.38800 7.84700 44.02100
H  38.74100 6.44400 43.52200
H  43.23200 -1.03000 45.21300
H  42.00500 0.10600 45.61000
H  42.68300 -0.96500 46.93600
H  48.07900 -1.02900 46.84000
H  47.37200 -1.91400 48.13700
H  47.36500 -0.16100 48.28800
H  49.36100 3.44600 45.35100
H  49.95700 5.21100 47.75900
H  49.86700 1.76100 47.67100
H  50.64500 3.21800 48.16300
H  51.28400 2.26600 46.81300
H  49.98200 6.26300 44.88000
H  51.21900 5.09100 45.31700
H  52.39900 6.68300 45.97800
H  51.28500 6.89200 47.42300
H  51.08800 7.90700 46.06000
H  48.04100 9.89600 46.69200
H  46.62800 11.01400 46.54600
H  47.36600 10.34800 45.09600
H  41.85900 8.94700 44.97800
H  39.43900 8.42800 48.26300
H  38.27700 8.80900 47.07700
H  39.16100 10.12800 47.90900
Mg 48.72900 35.06700 26.19200
C  47.14100 33.51200 28.98200
C  49.23500 37.80800 28.02800
C  50.25200 36.25000 23.55000
C  48.17700 32.01600 24.44100
N  48.13500 35.60600 28.31500
C  47.70700 34.76900 29.30900
C  48.05200 35.32200 30.64700
C  48.38600 36.79700 30.29100
C  48.60800 36.80100 28.76800
C  47.28600 37.83400 30.58000
C  49.15800 34.58600 31.41100
C  49.20200 34.66900 32.94300
H  48.04000 35.34700 33.75800
N  49.56200 36.83800 25.81800
C  49.62700 37.88800 26.67500
C  50.31000 39.01000 25.89900
C  50.70200 38.53800 24.62000
C  50.20800 37.12700 24.63200
C  50.61000 40.33000 26.68400
C  51.46000 39.23100 23.52000
O  51.92100 38.68400 22.53300
C  51.65800 40.75700 23.52100
N  49.21500 34.16300 24.24000
C  49.89500 34.91200 23.35300
C  50.18300 34.05500 22.07200
C  49.46500 32.66100 22.31400
C  48.97800 32.89500 23.79500
C  49.71100 34.79000 20.77300
C  50.45900 31.47300 22.22200
C  51.52800 31.49900 21.08200
N  47.78800 33.22300 26.52000
C  47.66400 32.10400 25.72200
C  46.94400 31.07400 26.42600
C  46.70500 31.57500 27.72500
C  47.24300 32.87500 27.70600
C  46.63100 29.66100 25.91600
C  46.16500 31.27100 29.05300
O  45.78900 30.20600 29.49600
C  46.26800 32.57200 29.81000
C  46.89800 32.18700 31.15000
O  48.05500 31.87400 31.37000
O  45.94600 32.17800 32.15800
C  46.38700 31.83500 33.52000
H  49.38000 38.71400 28.62000
H  50.69700 36.77600 22.70300
H  48.15800 31.06300 23.90900
H  47.19400 35.26800 31.31600
H  49.32700 37.06100 30.77400
H  47.42900 38.40600 31.49700
H  46.35300 37.28600 30.70800
H  47.07500 38.52600 29.76400
H  50.06000 35.16600 31.21100
H  49.48800 33.64400 30.97300
H  50.17400 35.07500 33.22500
H  49.25700 33.60600 33.18000
H  51.65100 40.33300 27.00700
H  49.87600 40.36900 27.48800
H  50.55000 41.18800 26.01400
H  52.03400 41.20300 22.60100
H  52.41900 41.05700 24.24200
H  50.71600 41.24900 23.76500
H  51.25200 33.86800 21.97000
H  48.64000 32.52300 21.61600
H  49.41800 34.23600 19.88100
H  50.50300 35.36200 20.29000
H  48.79300 35.35500 20.93000
H  49.83000 30.58900 22.12100
H  51.01700 31.24700 23.13000
H  52.46000 31.77300 21.57600
H  51.18800 32.04400 20.20100
H  51.60900 30.50400 20.64500
H  45.60000 29.48400 25.60900
H  46.95500 28.94900 26.67500
H  47.33300 29.43000 25.11500
H  45.33300 33.06900 30.07000
H  47.43500 31.54600 33.44500
H  45.79200 31.05400 33.99400
H  46.21400 32.81100 33.97400

