158

Mg 36.38300 49.05400 24.12700
C  36.71000 47.49100 27.20700
C  35.25400 51.87500 25.57200
C  35.69600 50.33900 21.01600
C  37.59400 46.21200 22.63300
N  35.83800 49.49400 26.12500
C  36.17900 48.80600 27.29600
C  35.70000 49.54800 28.53700
C  35.10100 50.92100 27.94600
C  35.32100 50.71200 26.41400
C  33.64000 51.23700 28.29900
C  36.89400 49.88500 29.52000
C  36.57300 49.65800 31.07300
H  35.16700 49.60000 31.57500
N  35.61300 50.84300 23.45900
C  35.26700 51.90600 24.21900
C  34.81600 53.02000 23.37300
C  34.88800 52.56100 22.04500
C  35.39400 51.20000 22.14200
C  34.63600 54.38100 23.90400
C  34.60900 53.33200 20.72100
O  34.74500 52.93000 19.55900
C  34.15000 54.74900 20.87500
N  36.49400 48.38400 22.10000
C  36.16800 49.06200 21.01200
C  36.56300 48.25800 19.65900
C  37.54700 47.16000 20.24700
C  37.27000 47.27800 21.75000
C  35.31800 47.75500 18.80400
C  39.02200 47.10300 19.68800
C  39.94200 48.11800 20.28800
N  37.03400 47.19700 24.74500
C  37.40400 46.08600 24.02300
C  37.57800 44.95800 24.92600
C  37.36200 45.50000 26.18900
C  37.10300 46.87900 26.02900
C  37.97000 43.54200 24.46400
C  37.42200 45.16600 27.61200
O  37.81300 44.17900 28.27900
C  36.91100 46.50400 28.30600
C  35.61300 46.10900 28.95000
O  34.50300 46.11700 28.44000
O  35.90700 45.75700 30.29200
C  34.79800 45.08400 30.93900
H  34.91100 52.81500 26.00900
H  35.56600 50.82000 20.04400
H  38.12100 45.38300 22.15500
H  34.93300 49.00400 29.08800
H  35.73400 51.72200 28.32700
H  33.50100 52.31800 28.30900
H  33.37500 50.89900 29.30100
H  33.01400 50.71500 27.57500
H  37.33200 50.86900 29.34800
H  37.66600 49.14900 29.29400
H  36.99200 50.53500 31.56500
H  37.15400 48.83000 31.48100
H  35.16300 55.14000 23.32600
H  35.16500 54.43400 24.85500
H  33.55900 54.54700 23.89700
H  33.31800 54.92800 21.55600
H  33.91700 55.03200 19.84900
H  35.03500 55.35700 21.06300
H  37.19600 48.90800 19.05500
H  37.19300 46.18300 19.91900
H  34.31000 48.11900 19.00500
H  35.38100 46.67500 18.67100
H  35.41400 48.15200 17.79400
H  39.07400 47.23900 18.60800
H  39.50100 46.18000 20.01300
H  39.33400 48.83900 20.83500
H  40.39800 48.66100 19.46000
H  40.66800 47.74300 21.00800
H  37.44500 43.48000 23.51100
H  37.55700 42.77200 25.11500
H  39.03900 43.34900 24.37200
H  37.56300 46.83500 29.11400
H  34.23800 44.54200 30.17700
H  34.13700 45.74200 31.50300
H  35.28300 44.39700 31.63200
Mg 6.62400 53.53300 41.71400
C  6.02200 50.11500 41.33800
C  9.87900 52.98700 40.94500
C  6.90200 56.81200 41.30300
C  3.17100 53.91100 42.51100
N  7.84100 51.70500 41.29700
C  7.39900 50.45600 41.07000
C  8.54600 49.43700 40.70800
C  9.85200 50.33000 41.07600
C  9.19100 51.79000 41.05900
C  10.61000 50.05100 42.43300
C  8.63300 48.85000 39.26200
C  8.32400 49.89700 38.19500
H  7.28000 49.52000 37.09800
N  8.19600 54.75200 41.28400
C  9.42700 54.29300 40.86900
C  10.19900 55.43300 40.45000
C  9.34500 56.59800 40.54700
C  8.08000 56.06800 41.03200
C  11.66600 55.42700 39.96900
C  9.76100 58.03400 40.17100
O  10.84100 58.30300 39.58100
C  8.98900 59.11700 40.67000
N  5.25400 55.14000 41.97200
C  5.63300 56.43000 41.73800
C  4.43000 57.28900 41.78400
C  3.28700 56.44200 42.46700
C  3.88400 55.05100 42.29900
C  4.50300 58.71100 42.41200
C  1.79000 56.61800 41.97900
C  0.75800 56.64600 43.11300
N  4.95100 52.34000 41.95700
C  3.66300 52.62600 42.38500
C  2.85900 51.42200 42.42800
C  3.74900 50.42800 42.08700
C  5.02600 51.02400 41.74700
C  1.37100 51.20600 42.79000
C  3.84000 49.02000 41.80900
O  3.02400 48.08600 41.86100
C  5.40200 48.78800 41.43200
C  5.39100 47.97300 40.22000
O  4.81500 48.26000 39.19100
O  5.92300 46.74800 40.46800
C  6.24600 45.85400 39.34800
H  10.91300 53.03200 40.59700
H  6.90800 57.82900 40.90500
H  2.11200 53.92600 42.77700
H  8.34500 48.70700 41.49200
H  10.66900 50.40400 40.35800
H  10.47800 48.99600 42.67200
H  10.37600 50.67900 43.29200
H  11.65700 50.30800 42.26800
H  7.96600 47.99300 39.16700
H  9.61100 48.37500 39.18100
H  9.23000 50.20700 37.67400
H  8.06200 50.81700 38.71700
H  12.19000 54.50000 40.20200
H  12.23200 56.23000 40.44100
H  11.72100 55.63000 38.90000
H  8.52600 59.74000 39.90600
H  9.62800 59.90600 41.06600
H  8.49500 58.91000 41.62000
H  4.24400 57.44100 40.72000
H  3.29400 56.59200 43.54700
H  5.37900 58.88800 43.03700
H  3.68200 58.99000 43.07200
H  4.47500 59.48300 41.64300
H  1.47600 55.89400 41.22700
H  1.67100 57.58500 41.49100
H  0.09500 57.50900 43.06000
H  1.28800 56.73300 44.06200
H  0.13000 55.75500 43.14300
H  0.93400 52.13400 43.15900
H  1.32100 50.54900 43.65900
H  0.82600 50.68000 42.00700
H  5.92800 48.25200 42.22200
H  7.28500 45.83700 39.02000
H  5.56600 45.88700 38.49700
H  6.01300 44.84500 39.68700

