158

Mg 26.33400 50.91400 26.05900
C  24.10400 51.97900 28.63800
C  28.39100 49.89600 28.54600
C  28.39400 50.21200 23.65300
C  24.14800 52.28200 23.79200
N  26.24300 50.90800 28.38200
C  25.20500 51.39700 29.13900
C  25.45600 51.09300 30.65000
C  26.91000 50.39100 30.59000
C  27.22500 50.44800 29.10800
C  28.00100 51.06500 31.48500
C  24.39900 50.16100 31.30900
C  24.82100 49.36600 32.62200
H  23.68800 49.32000 33.70400
N  28.16900 50.21100 26.12300
C  28.90200 49.77600 27.22200
C  30.21000 49.31700 26.77900
C  30.22700 49.48500 25.38800
C  28.93800 50.00000 25.05000
C  31.14700 48.64700 27.73400
C  31.35700 49.14500 24.45100
O  31.27700 49.39300 23.27200
C  32.66100 48.56700 25.01400
N  26.26200 51.11200 24.05600
C  27.19200 50.67200 23.25700
C  26.84500 50.85200 21.81000
C  25.32300 51.36800 21.87100
C  25.19900 51.57800 23.34400
C  27.77900 51.79200 21.10200
C  24.35800 50.38300 21.18000
C  24.02800 50.76800 19.75900
N  24.58100 52.02100 26.14300
C  23.83900 52.55500 25.11100
C  22.61700 53.17500 25.63000
C  22.71800 53.05700 27.03900
C  23.90200 52.30500 27.27900
C  21.50600 53.70200 24.76200
C  22.01500 53.21500 28.31800
O  20.91100 53.67600 28.64200
C  22.96900 52.50000 29.37400
C  23.31700 53.58500 30.39400
O  24.19300 54.44800 30.29300
O  22.61700 53.38200 31.54200
C  23.01300 54.10000 32.76800
H  29.09300 49.63900 29.34200
H  29.09100 50.02700 22.83300
H  23.42700 52.62500 23.04800
H  25.51100 52.00100 31.25100
H  26.75000 49.35600 30.89300
H  28.86200 51.31300 30.86500
H  28.26800 50.38700 32.29600
H  27.63200 51.97500 31.95900
H  24.13500 49.51600 30.47100
H  23.57500 50.81400 31.59800
H  25.68100 49.82500 33.10900
H  24.98800 48.36400 32.22700
H  31.06600 47.57500 27.55500
H  30.80800 48.78300 28.76100
H  32.17300 49.01200 27.69100
H  33.23900 48.26300 24.14100
H  32.50700 47.73200 25.69900
H  33.10300 49.42100 25.52800
H  26.88400 49.86400 21.34900
H  25.22500 52.38600 21.49200
H  28.47600 52.27000 21.79000
H  27.25900 52.60600 20.59700
H  28.39800 51.24800 20.38900
H  23.39800 50.26800 21.68400
H  24.85400 49.41300 21.14800
H  24.56400 50.09000 19.09600
H  24.35600 51.75700 19.43700
H  22.94600 50.71200 19.64000
H  21.96700 54.49400 24.17100
H  20.69700 54.02300 25.41800
H  21.07000 52.94900 24.10500
H  22.52700 51.62400 29.84700
H  23.37700 55.09200 32.50300
H  23.70000 53.52400 33.38800
H  22.11800 54.19500 33.38300
Mg -2.45700 34.30600 26.31800
C  -4.04000 32.45600 28.96200
C  -1.36100 36.58900 28.72000
C  -1.16500 36.25200 23.75100
C  -4.16700 32.35800 24.01000
N  -2.87500 34.56100 28.49900
C  -3.42200 33.67500 29.42100
C  -3.25100 34.14500 30.90500
C  -2.71700 35.62400 30.73900
C  -2.19400 35.58700 29.22400
C  -3.78100 36.73800 31.02300
C  -2.37900 33.16900 31.68900
C  -3.00600 32.54600 32.94200
H  -2.18900 32.46600 34.24300
N  -1.30000 36.03300 26.18400
C  -0.96000 36.77900 27.29300
C  0.01300 37.69000 26.88000
C  0.07400 37.71200 25.48800
C  -0.79500 36.64600 25.03900
C  0.75400 38.58600 27.92100
C  0.78300 38.60500 24.48400
O  0.76800 38.43100 23.27300
C  1.54800 39.82700 25.01200
N  -2.71000 34.35200 24.16400
C  -2.02000 35.15600 23.35600
C  -2.34100 34.86800 21.89700
C  -3.02300 33.48400 22.02200
C  -3.39400 33.41100 23.47600
C  -3.38600 35.95500 21.22700
C  -2.00100 32.41200 21.63300
C  -0.88500 31.88600 22.61100
N  -3.74900 32.71600 26.43000
C  -4.23500 31.97000 25.40100
C  -5.06400 30.87100 25.93900
C  -4.96600 31.03900 27.31100
C  -4.15200 32.11200 27.60500
C  -5.91800 29.84700 25.29600
C  -5.39600 30.44800 28.52800
O  -6.11100 29.47800 28.74800
C  -4.75600 31.32400 29.73700
C  -5.78900 31.73600 30.62400
O  -6.56600 32.65300 30.43400
O  -5.85000 30.88900 31.61800
C  -6.87800 31.26100 32.61400
H  -0.75500 37.02100 29.51900
H  -0.85400 36.85200 22.89300
H  -4.62600 31.56600 23.41400
H  -4.25000 34.11700 31.34000
H  -1.81300 35.82100 31.31400
H  -3.53700 36.99600 32.05400
H  -4.76000 36.26400 30.94400
H  -3.61600 37.62200 30.40900
H  -1.49200 33.68700 32.05600
H  -2.12600 32.34400 31.02300
H  -3.26800 31.50200 32.76800
H  -3.92600 33.09600 33.13900
H  1.82800 38.59800 27.73100
H  0.59500 38.25600 28.94700
H  0.43100 39.62300 27.82800
H  0.82300 40.46600 25.51600
H  2.01700 40.35400 24.18100
H  2.25300 39.53900 25.79100
H  -1.46000 34.92800 21.25800
H  -3.93500 33.35300 21.43900
H  -3.44900 36.87400 21.81000
H  -4.39500 35.58500 21.04600
H  -2.93900 36.09600 20.24200
H  -1.48000 32.90100 20.81000
H  -2.57200 31.55600 21.27300
H  0.06300 32.27000 22.23400
H  -0.80300 30.80400 22.50100
H  -1.09100 32.22000 23.62800
H  -5.89100 29.62700 24.22900
H  -6.96100 30.12800 25.44400
H  -5.65500 28.97900 25.90100
H  -4.03000 30.77800 30.33900
H  -6.35800 31.83200 33.38300
H  -7.12500 30.31500 33.09500
H  -7.81000 31.71800 32.28400

