158

Mg 34.90500 47.84100 25.95800
C  35.03200 45.78700 28.83100
C  33.63700 50.28000 27.90300
C  34.22900 49.38300 23.11900
C  35.62000 44.90000 24.10400
N  34.22000 47.95800 28.16300
C  34.54400 47.07100 29.11000
C  34.53100 47.70600 30.48600
C  33.74500 49.03800 30.19000
C  33.83900 49.13000 28.63600
C  32.22300 49.00500 30.68100
C  35.90000 47.79600 31.15700
C  36.02700 47.24600 32.61500
H  36.37000 48.23600 33.68400
N  33.94000 49.65900 25.52700
C  33.60500 50.53900 26.49900
C  33.17400 51.72300 25.81400
C  33.42700 51.57900 24.39900
C  33.92000 50.20500 24.22500
C  32.66000 52.94000 26.51200
C  33.17300 52.53200 23.23700
O  33.26100 52.15600 22.09400
C  32.99000 54.09000 23.44400
N  35.05400 47.27500 23.93800
C  34.64400 48.06300 22.95200
C  34.76400 47.44500 21.60500
C  35.41700 46.06400 21.87500
C  35.33200 46.02500 23.41300
C  33.42500 47.48200 20.73100
C  36.82700 45.86400 21.22200
C  36.96100 44.82200 20.05600
N  35.36600 45.72700 26.36000
C  35.65300 44.67300 25.52300
C  36.03300 43.48800 26.24400
C  35.78000 43.91800 27.59000
C  35.29900 45.24600 27.56700
C  36.43900 42.25800 25.67700
C  35.85900 43.47800 28.97800
O  36.28900 42.48300 29.51600
C  35.46600 44.70600 29.87200
C  34.34300 44.23900 30.76700
O  33.23200 43.85100 30.44400
O  34.73500 44.37500 32.03100
C  33.68300 44.40400 32.99800
H  33.47400 51.11600 28.58700
H  33.98800 49.80600 22.14200
H  35.70700 44.00800 23.47900
H  33.92800 47.11400 31.17500
H  34.26800 49.92800 30.53900
H  31.45600 48.90000 29.91400
H  32.02800 49.93900 31.20800
H  32.06800 48.14400 31.33200
H  36.29900 48.80200 31.28600
H  36.61300 47.31000 30.49100
H  36.80200 46.48500 32.52900
H  35.08000 46.75900 32.84400
H  32.28500 53.72200 25.85100
H  33.60300 53.29800 26.92500
H  31.92700 52.71100 27.28600
H  31.92000 54.24900 23.57500
H  33.28300 54.64600 22.55300
H  33.47700 54.37100 24.37700
H  35.44800 48.07300 21.03400
H  34.76600 45.26600 21.52000
H  32.66300 48.00500 21.30800
H  33.18800 46.51500 20.28900
H  33.52400 48.23800 19.95100
H  37.57200 45.62300 21.98000
H  37.14700 46.78100 20.72800
H  35.97800 44.49500 19.71800
H  37.62800 44.02900 20.39500
H  37.43200 45.37200 19.24100
H  35.66300 41.50100 25.78200
H  37.25800 41.99400 26.34700
H  36.75400 42.31100 24.63500
H  36.31800 44.98600 30.49100
H  33.05300 45.28900 32.91900
H  34.21200 44.47900 33.94900
H  33.05300 43.51500 32.98900
Mg -11.22000 38.30400 41.60600
C  -8.70700 36.06500 40.99400
C  -9.57500 40.65700 39.72700
C  -14.07900 40.22900 41.38400
C  -13.19400 35.73300 42.98300
N  -9.42100 38.27100 40.44700
C  -8.48100 37.27200 40.40400
C  -7.23300 37.71400 39.63100
C  -7.62500 39.06600 39.00000
C  -8.93800 39.37800 39.82400
C  -6.47100 40.14200 38.89400
C  -6.66200 36.73800 38.65000
C  -5.13800 36.31200 38.75500
H  -4.29100 36.89100 37.62100
N  -11.67700 40.27600 40.99000
C  -10.79100 41.01700 40.19100
C  -11.40900 42.28000 40.02500
C  -12.73400 42.17800 40.53700
C  -12.90300 40.83600 40.99900
C  -10.72700 43.44400 39.23600
C  -13.76500 43.26400 40.50800
O  -13.54000 44.34600 39.95100
C  -15.14600 43.16700 41.19100
N  -13.45100 37.88000 41.86200
C  -14.32600 38.93300 41.91500
C  -15.65700 38.57500 42.60800
C  -15.36000 37.11300 43.04100
C  -13.88600 36.92000 42.67600
C  -16.06900 39.58600 43.75000
C  -16.42300 36.04400 42.55700
C  -16.19500 35.51100 41.16200
N  -11.11400 36.21900 41.94800
C  -11.91700 35.40200 42.64100
C  -11.13700 34.26100 43.04000
C  -9.91200 34.39200 42.30500
C  -9.98200 35.62700 41.62000
C  -11.50300 33.21600 44.10200
C  -8.59200 33.79700 42.13600
O  -8.14900 32.78600 42.61200
C  -7.81000 34.79200 41.12800
C  -6.38600 34.88000 41.64700
O  -5.58400 33.95300 41.68900
O  -6.25500 36.14000 42.22100
C  -4.90700 36.40600 42.74300
H  -8.98200 41.42400 39.22400
H  -15.01200 40.78100 41.51300
H  -13.87100 35.01500 43.44900
H  -6.42900 37.95900 40.32500
H  -8.01400 38.92100 37.99200
H  -6.65300 41.01300 39.52200
H  -6.37900 40.38600 37.83600
H  -5.51500 39.73400 39.22300
H  -6.62000 37.27900 37.70500
H  -7.31800 35.88000 38.50200
H  -4.95800 35.23700 38.77000
H  -4.73500 36.61800 39.72000
H  -11.30500 43.83300 38.39800
H  -9.76300 43.18500 38.79900
H  -10.60500 44.25500 39.95300
H  -15.15400 42.80900 42.22100
H  -15.75900 42.61000 40.48200
H  -15.63300 44.14100 41.23400
H  -16.49800 38.65300 41.91900
H  -15.36600 36.99900 44.12500
H  -16.84400 40.32300 43.53900
H  -15.16000 40.12700 44.01500
H  -16.44800 39.04600 44.61700
H  -17.46000 36.37400 42.62900
H  -16.19800 35.17300 43.17300
H  -17.10500 35.30100 40.59800
H  -15.59300 34.60400 41.21100
H  -15.56500 36.20400 40.60500
H  -10.66700 32.51900 44.16600
H  -12.42600 32.78600 43.71500
H  -11.58300 33.75200 45.04800
H  -7.62500 34.40300 40.12700
H  -4.18100 36.18700 41.96100
H  -4.83300 35.75200 43.61200
H  -4.72300 37.42500 43.08600

