158

Mg 46.02400 16.59200 28.21600
C  44.00800 16.13200 30.99700
C  47.95500 18.71900 30.10500
C  47.91000 16.96200 25.56000
C  43.59400 14.91000 26.28300
N  46.04400 17.24400 30.35500
C  45.14100 16.90400 31.32200
C  45.55000 17.38900 32.66500
C  46.65400 18.40900 32.31100
C  46.80900 18.26000 30.78000
C  46.37600 19.85000 32.67300
C  45.98900 16.25900 33.60100
C  45.66100 16.35600 35.08100
H  45.79500 17.82000 35.67800
N  47.81400 17.59400 27.88400
C  48.44500 18.39200 28.77100
C  49.80900 18.59600 28.34200
C  49.84100 17.92100 27.01400
C  48.49200 17.42300 26.79700
C  50.93800 19.11000 29.30100
C  50.95600 17.71300 26.01500
O  50.87200 16.92600 25.07200
C  52.35000 18.26200 26.33400
N  45.64400 16.27600 26.14100
C  46.66800 16.38700 25.30900
C  46.25000 16.09400 23.85900
C  44.89500 15.31000 24.09800
C  44.72300 15.41500 25.61000
C  46.11600 17.34800 22.99400
C  44.85900 13.75600 23.71500
C  43.56800 13.32000 23.08100
N  44.12300 15.76400 28.55600
C  43.35700 15.04400 27.65400
C  42.18400 14.54900 28.37600
C  42.38800 14.94000 29.70700
C  43.61500 15.61200 29.79700
C  41.04000 13.82300 27.84600
C  41.83400 14.94400 31.04500
O  40.83500 14.46600 31.49300
C  42.93900 15.69300 31.90600
C  42.24900 16.75200 32.70000
O  41.63900 17.65100 32.20700
O  42.40100 16.58200 34.05200
C  41.77500 17.57100 34.89700
H  48.58500 19.27400 30.80500
H  48.54100 16.99400 24.66900
H  42.91800 14.32800 25.65400
H  44.70100 17.91200 33.10700
H  47.58700 18.05000 32.74600
H  47.37100 20.13100 33.01700
H  45.58900 19.93900 33.42200
H  46.15800 20.49700 31.82300
H  47.04400 16.15500 33.35000
H  45.49700 15.35100 33.25100
H  46.32400 15.71200 35.65900
H  44.67300 15.96000 35.31300
H  50.97600 20.19100 29.16900
H  51.97700 18.88200 29.06300
H  50.63600 18.85100 30.31600
H  52.93000 18.13300 25.42000
H  52.79100 17.70700 27.16200
H  52.29900 19.29900 26.66600
H  47.01000 15.40000 23.50000
H  43.91800 15.64800 23.75100
H  45.05300 17.56100 23.11400
H  46.40300 17.27800 21.94500
H  46.70500 18.20500 23.31900
H  45.00500 13.11100 24.58100
H  45.66000 13.42600 23.05400
H  43.78700 12.76700 22.16700
H  42.85200 14.13600 22.98600
H  43.06700 12.49700 23.59000
H  41.18300 13.64600 26.78000
H  40.06800 14.30300 27.96400
H  41.02400 12.88900 28.40800
H  43.40000 14.95200 32.56000
H  41.94600 17.26300 35.92900
H  40.70200 17.66600 34.72800
H  42.25200 18.54500 34.79400
Mg 27.25400 51.91200 25.56200
C  25.44600 52.86500 28.43600
C  29.81000 50.86500 27.80900
C  29.15400 51.00100 22.84400
C  24.82200 53.16400 23.51700
N  27.51600 51.86100 27.86500
C  26.60000 52.16800 28.80700
C  27.15500 51.93300 30.26400
C  28.54100 51.34900 29.99200
C  28.64700 51.40900 28.45800
C  29.66500 52.12400 30.72300
C  26.18100 51.00900 31.11800
C  26.73800 50.37400 32.45500
H  25.90300 50.52700 33.73800
N  29.22300 51.08900 25.40900
C  30.08700 50.70800 26.43000
C  31.31600 50.22500 25.80700
C  31.00900 49.98200 24.45800
C  29.78900 50.73900 24.15800
C  32.51800 49.94800 26.68700
C  31.80000 49.16200 23.40000
O  31.38500 48.90300 22.26600
C  33.11700 48.45000 23.81400
N  27.13100 52.13500 23.51300
C  27.98800 51.71900 22.56300
C  27.45900 51.80300 21.14400
C  26.13300 52.53700 21.44100
C  25.98100 52.56600 22.97300
C  28.22900 52.48000 20.02000
C  24.98300 51.81200 20.66700
C  23.83200 52.69800 20.04800
N  25.57600 52.94600 25.86000
C  24.67900 53.35400 24.88400
C  23.47000 53.81300 25.59800
C  23.76000 53.79600 26.97200
C  25.05200 53.19500 27.07000
C  22.21100 54.35700 25.00400
C  23.13000 53.91300 28.29800
O  22.03400 54.27500 28.60600
C  24.24500 53.27800 29.24700
C  24.54500 54.12700 30.42500
O  25.33600 55.09200 30.35800
O  23.86200 53.77300 31.54600
C  24.11100 54.67900 32.74200
H  30.50200 50.47100 28.55600
H  29.65500 50.63500 21.94500
H  23.98500 53.51700 22.91000
H  27.29800 52.95000 30.63000
H  28.57100 50.29800 30.27900
H  29.39300 52.34900 31.75400
H  29.85700 53.14900 30.40600
H  30.61300 51.60300 30.58700
H  25.75200 50.26400 30.44800
H  25.36300 51.66200 31.42400
H  27.75500 50.74000 32.59600
H  26.77300 49.36800 32.03600
H  32.55600 50.81500 27.34700
H  33.45500 49.87600 26.13600
H  32.47100 49.00700 27.23600
H  33.78600 49.30100 23.94500
H  33.34800 47.73800 23.02200
H  33.01500 47.95800 24.78200
H  27.39300 50.75300 20.85600
H  26.18200 53.56300 21.07700
H  28.56200 51.80300 19.23300
H  29.15100 52.84900 20.46800
H  27.60700 53.28900 19.63500
H  24.52900 51.14400 21.39900
H  25.37300 51.03500 20.01000
H  24.23000 53.70300 19.90300
H  22.87400 52.75200 20.56600
H  23.46100 52.37500 19.07500
H  22.13400 54.31200 23.91800
H  22.12200 55.41100 25.26400
H  21.32100 53.81100 25.31700
H  23.72200 52.41000 29.64800
H  24.53700 55.64000 32.45300
H  24.75100 54.19300 33.47900
H  23.16800 54.83100 33.26700

