158

Mg -2.07800 16.93300 27.41200
C  -2.31700 14.95000 30.37000
C  -2.34800 19.74400 29.31200
C  -1.78000 18.72100 24.60500
C  -1.41200 14.06200 25.65500
N  -2.41300 17.30700 29.61300
C  -2.30700 16.36100 30.56100
C  -2.47400 17.05000 31.94100
C  -2.45900 18.54700 31.62800
C  -2.31900 18.55100 30.11500
C  -3.62100 19.40000 32.25000
C  -1.45500 16.61600 33.00400
C  -1.08600 17.53800 34.16300
H  -0.67700 16.98800 35.49000
N  -2.23000 18.87900 26.95400
C  -2.30400 19.88600 27.88300
C  -2.24300 21.20400 27.23800
C  -2.10900 20.87100 25.83400
C  -2.05500 19.44800 25.72000
C  -2.22700 22.48500 27.97200
C  -2.05400 21.82300 24.58500
O  -2.14800 21.51200 23.34600
C  -1.76100 23.33400 24.89200
N  -1.66100 16.48800 25.41600
C  -1.62800 17.40900 24.40500
C  -1.35300 16.73300 23.06800
C  -0.95500 15.27300 23.49800
C  -1.38500 15.22900 24.93100
C  -2.65000 16.76900 22.13700
C  0.55200 14.85400 23.23100
C  1.62500 15.86600 23.62300
N  -1.99800 14.90800 27.88000
C  -1.75700 13.84500 27.01400
C  -1.82000 12.60400 27.74500
C  -2.02300 12.97300 29.08500
C  -2.09900 14.39500 29.08700
C  -1.96000 11.23700 27.17600
C  -2.35500 12.48400 30.40400
O  -2.46800 11.28400 30.72100
C  -2.28600 13.75400 31.30900
C  -0.92600 13.59700 31.98200
O  0.17300 13.74000 31.53500
O  -1.28800 13.20000 33.22600
C  -0.29200 13.50900 34.22800
H  -2.30700 20.62500 29.95700
H  -1.68600 19.30000 23.68400
H  -1.21900 13.10600 25.16500
H  -3.44600 16.74200 32.32500
H  -1.51600 18.96700 31.97700
H  -4.38000 18.67100 32.53300
H  -4.15400 19.95500 31.47800
H  -3.37500 20.08300 33.06300
H  -0.48900 16.30500 32.60800
H  -1.98200 15.81700 33.52600
H  -2.01800 18.08800 34.29700
H  -0.25100 18.18900 33.90400
H  -2.08400 22.46800 29.05200
H  -3.14300 23.04400 27.78200
H  -1.42500 23.12800 27.60800
H  -2.02500 23.97900 24.05400
H  -0.67300 23.30100 24.94800
H  -2.21400 23.76900 25.78200
H  -0.46400 17.14800 22.59200
H  -1.53400 14.50700 22.98200
H  -3.35400 17.36400 22.71900
H  -3.04500 15.77800 21.91100
H  -2.50100 17.32800 21.21400
H  0.69400 14.50900 22.20700
H  0.56900 13.92500 23.80100
H  2.13800 16.12000 22.69600
H  2.27500 15.41300 24.37200
H  1.21200 16.79000 24.02700
H  -3.03000 11.02900 27.16300
H  -1.48900 10.55600 27.88400
H  -1.47400 11.17000 26.20300
H  -3.05800 13.80400 32.07700
H  0.29500 14.36900 33.90700
H  0.41300 12.72300 34.49900
H  -0.85300 13.79700 35.11700
Mg 10.08400 47.36900 25.94800
C  8.21600 47.14200 28.76300
C  12.68900 48.86300 27.62100
C  11.85800 47.28600 23.10600
C  7.16600 46.56200 24.10300
N  10.35100 47.95100 27.99200
C  9.51700 47.66700 29.01800
C  10.12100 48.13000 30.34700
C  11.39500 48.96700 29.84900
C  11.48100 48.62200 28.36500
C  11.23300 50.49800 30.13300
C  10.50100 47.09100 31.42300
C  9.84100 47.14200 32.86600
H  9.93100 45.95100 33.75700
N  12.16100 47.97700 25.40500
C  13.03800 48.39700 26.32700
C  14.32800 48.56700 25.62900
C  14.12500 48.15000 24.26100
C  12.66200 47.78200 24.18700
C  15.55000 49.11100 26.37200
C  15.08900 47.95900 23.13800
O  14.70600 47.47100 22.07000
C  16.55400 48.24900 23.39800
N  9.58900 47.00900 23.82500
C  10.51900 46.93300 22.82400
C  9.90700 46.62700 21.43000
C  8.41300 46.50600 21.79200
C  8.34500 46.79900 23.32600
C  10.15800 47.62100 20.34200
C  7.75400 45.20200 21.34200
C  7.23200 45.19400 19.92200
N  8.09700 46.81800 26.30900
C  7.08200 46.53500 25.47400
C  5.89200 46.32900 26.20100
C  6.31000 46.47500 27.55200
C  7.65300 46.89900 27.52300
C  4.45000 46.26400 25.68300
C  5.85400 46.55000 28.92200
O  4.77200 46.34900 29.41800
C  7.11400 46.97700 29.83400
C  7.40700 45.77900 30.70400
O  8.08300 44.81200 30.39000
O  6.62700 45.79000 31.85100
C  6.69600 44.70500 32.77500
H  13.54100 49.17100 28.23100
H  12.37400 47.02800 22.17900
H  6.24200 46.42800 23.53800
H  9.52300 48.84500 30.91300
H  12.22500 48.46700 30.34900
H  10.67400 51.09300 29.41100
H  12.22700 50.91900 30.28100
H  10.78100 50.58400 31.12100
H  11.57300 47.12400 31.62100
H  10.33400 46.07100 31.07800
H  8.84900 47.59000 32.80300
H  10.51800 47.86300 33.32300
H  16.18900 48.23900 26.51300
H  15.29500 49.51300 27.35300
H  16.10400 49.88000 25.83500
H  16.75900 47.76900 24.35400
H  16.65900 49.28800 23.71100
H  17.23900 48.01100 22.58300
H  10.20100 45.69100 20.95600
H  8.00900 47.36700 21.25900
H  10.02900 48.64500 20.69400
H  9.42700 47.32000 19.59200
H  11.15900 47.34700 20.00900
H  6.95500 44.84600 21.99300
H  8.47300 44.38900 21.43300
H  7.96700 44.79900 19.22000
H  7.06300 46.20200 19.54200
H  6.30900 44.62000 19.99800
H  4.37200 45.55900 24.85500
H  4.17500 47.25900 25.33200
H  3.75800 45.99600 26.48200
H  6.99800 47.89700 30.40600
H  7.17400 45.19400 33.62400
H  7.26000 43.83500 32.44100
H  5.69200 44.47100 33.13100

