158

Mg 1.76400 -0.96300 45.67500
C  5.14600 0.01900 45.00500
C  0.74600 1.59600 43.61300
C  -1.23800 -2.46700 45.74500
C  3.15100 -4.20800 46.60000
N  2.89700 0.58100 44.34800
C  4.27100 0.80800 44.29800
C  4.58900 2.01600 43.37800
C  3.14200 2.47600 42.95000
C  2.12700 1.54800 43.72600
C  2.90300 3.97600 43.13100
C  5.56100 1.57400 42.23500
C  6.55200 2.67000 41.84500
H  7.32900 2.31400 40.54600
N  -0.01500 -0.42200 44.92400
C  -0.26200 0.74200 44.09700
C  -1.68000 0.77900 43.93800
C  -2.34600 -0.28200 44.67800
C  -1.16700 -1.07800 45.22600
C  -2.30000 1.90600 43.20700
C  -3.84100 -0.59400 44.86700
O  -4.64600 0.07400 44.18200
C  -4.39100 -1.52700 45.98200
N  1.05700 -3.07500 46.10500
C  -0.26500 -3.30000 46.21400
C  -0.50100 -4.71800 46.69500
C  0.88300 -5.32600 46.73200
C  1.80600 -4.14000 46.46500
C  -1.28500 -4.80400 48.05200
C  1.23300 -6.45400 45.77300
C  2.04800 -7.66700 46.16200
N  3.71900 -1.89400 45.89800
C  4.07600 -3.19000 46.32100
C  5.49300 -3.24200 46.53400
C  5.91900 -1.91800 46.17300
C  4.84300 -1.15500 45.65400
C  6.28300 -4.36100 47.22200
C  7.10700 -1.02900 46.11900
O  8.26700 -1.25300 46.46300
C  6.60700 0.30500 45.39900
C  6.68400 1.45300 46.31700
O  5.99500 1.57400 47.32100
O  7.58500 2.35800 45.72900
C  7.58700 3.67700 46.47100
H  0.46000 2.48700 43.05000
H  -2.20600 -2.89800 46.00800
H  3.58400 -5.14000 46.96700
H  5.12900 2.74200 43.98700
H  3.02400 2.29100 41.88200
H  3.74900 4.52200 43.55100
H  1.99100 4.19400 43.68700
H  2.70400 4.24300 42.09400
H  5.12800 1.28700 41.27700
H  6.10400 0.66100 42.48000
H  7.31100 2.82100 42.61300
H  6.07400 3.64600 41.76500
H  -3.27400 1.77100 42.73400
H  -1.57000 2.45000 42.60800
H  -2.36200 2.62600 44.02300
H  -3.84200 -1.29500 46.89500
H  -4.32600 -2.54100 45.58700
H  -5.45500 -1.29300 46.00000
H  -1.15500 -5.16900 45.94900
H  1.08700 -5.57800 47.77300
H  -1.04700 -5.69500 48.63200
H  -2.32800 -4.89800 47.75100
H  -1.19100 -3.89200 48.64300
H  1.82200 -5.93400 45.01800
H  0.26000 -6.65600 45.32500
H  2.90600 -7.65600 45.48900
H  1.40200 -8.52900 45.99400
H  2.41500 -7.71900 47.18600
H  5.83700 -4.63100 48.18000
H  7.33200 -4.14400 47.42200
H  6.21900 -5.19400 46.52200
H  7.23600 0.57600 44.55100
H  7.07100 3.69800 47.43100
H  7.33800 4.57700 45.90900
H  8.61500 3.88900 46.76500
Mg -12.63200 16.30500 42.79600
C  -9.38300 15.08100 42.18100
C  -11.88500 19.17200 41.23300
C  -16.06100 17.08000 42.44900
C  -13.65500 13.13100 43.95700
N  -10.82000 17.04300 41.88100
C  -9.54600 16.41900 41.85400
C  -8.45600 17.43700 41.34400
C  -9.29000 18.78100 41.31900
C  -10.74400 18.29900 41.51200
C  -9.01100 19.84300 42.32300
C  -7.88600 17.00600 39.97200
C  -6.33000 16.89800 39.77400
H  -5.79400 15.66400 39.11400
N  -13.86200 17.98500 41.99300
C  -13.23100 19.05700 41.48900
C  -14.24100 20.05000 41.19700
C  -15.48200 19.40800 41.40100
C  -15.16500 18.04800 41.89700
C  -14.02200 21.38400 40.59800
C  -16.83500 20.05200 41.15600
O  -16.91800 21.15100 40.61300
C  -18.12600 19.34600 41.49200
N  -14.64600 15.20100 43.13700
C  -15.82600 15.79000 42.96400
C  -16.95700 14.85500 43.36900
C  -16.21100 13.51000 43.90300
C  -14.79400 13.96100 43.70000
C  -18.04200 15.32900 44.30400
C  -16.65500 12.25800 43.12800
C  -15.74200 11.81400 41.98700
N  -11.77900 14.48300 43.08400
C  -12.26100 13.23800 43.53300
C  -11.18100 12.25600 43.65700
C  -10.10700 12.93400 43.03900
C  -10.46100 14.29800 42.76000
C  -11.28600 10.84900 44.29700
C  -8.68400 12.80800 42.67200
O  -7.95400 11.80100 42.84300
C  -8.17700 14.18800 42.08700
C  -7.14200 14.72900 43.09000
O  -7.30500 15.50900 43.99600
O  -5.95300 14.08600 42.81700
C  -4.78200 14.49300 43.58600
H  -11.53200 20.09700 40.77300
H  -17.12600 17.29700 42.34600
H  -13.73800 12.13300 44.39200
H  -7.56800 17.54400 41.96700
H  -8.96400 19.29900 40.41700
H  -8.06500 19.57000 42.79000
H  -9.76800 19.93400 43.10200
H  -9.06600 20.79300 41.79200
H  -8.20700 17.66900 39.16800
H  -8.36000 16.10700 39.57700
H  -5.84800 16.95100 40.75000
H  -5.88800 17.76100 39.27600
H  -14.34700 21.34900 39.55800
H  -12.95600 21.57000 40.72700
H  -14.59100 22.12100 41.16400
H  -19.04500 19.91500 41.35800
H  -17.99400 19.18700 42.56200
H  -18.07400 18.41900 40.92000
H  -17.50900 14.79300 42.43100
H  -16.41100 13.30800 44.95600
H  -17.66500 16.24400 44.76300
H  -18.38500 14.64300 45.07900
H  -18.94800 15.52800 43.73200
H  -17.63700 12.34500 42.66400
H  -16.67300 11.43200 43.83900
H  -15.15100 10.94500 42.27700
H  -15.01700 12.55900 41.66100
H  -16.38800 11.68900 41.11800
H  -11.63600 10.88900 45.32800
H  -10.29800 10.40300 44.18100
H  -12.07800 10.25600 43.84100
H  -7.75600 14.16100 41.08200
H  -4.34300 15.45000 43.30500
H  -3.98100 13.78800 43.35900
H  -5.05900 14.49800 44.64000

