158

Mg 47.58100 44.23600 41.61900
C  44.00400 43.86400 41.75700
C  47.78700 40.88800 41.61200
C  50.82200 44.64500 41.21700
C  47.13000 47.70700 41.36300
N  46.06800 42.61700 41.59300
C  44.68900 42.63900 41.62800
C  44.09400 41.21700 41.70600
C  45.36200 40.23100 41.85700
C  46.45900 41.30700 41.74600
C  45.36000 39.36000 43.08700
C  43.24900 40.83300 40.42100
C  43.56100 41.56400 39.06800
H  43.63800 40.69600 37.85400
N  49.11300 42.95400 41.44300
C  49.03900 41.56400 41.47200
C  50.35900 40.98100 41.29600
C  51.28300 42.06600 41.27700
C  50.44100 43.33500 41.36200
C  50.72800 39.46400 41.30700
C  52.81400 41.97500 41.22000
O  53.46000 40.93500 41.18400
C  53.65700 43.19000 41.23100
N  48.77200 45.93300 41.07400
C  50.08300 45.82700 41.17600
C  50.75800 47.19000 40.93600
C  49.60800 48.13600 40.91400
C  48.38100 47.24800 41.15800
C  51.88000 47.48500 42.00200
C  49.39600 48.96900 39.66900
C  49.22900 50.48800 39.88900
N  45.93200 45.57200 41.59000
C  45.92300 46.97200 41.42700
C  44.55800 47.39800 41.55600
C  43.78900 46.20200 41.71200
C  44.63000 45.12900 41.68300
C  44.00400 48.75700 41.44200
C  42.42000 45.61000 41.90700
O  41.37000 46.12300 42.15500
C  42.50400 44.08800 41.88300
C  41.83200 43.33100 43.01800
O  41.19800 42.31400 42.91300
O  42.17900 43.95100 44.14600
C  41.42500 43.46400 45.34700
H  48.03700 39.82700 41.55400
H  51.85500 44.98500 41.11900
H  47.06100 48.78700 41.51100
H  43.47200 41.18700 42.60000
H  45.44000 39.52900 41.02600
H  44.40600 38.83300 43.09000
H  45.33600 39.96600 43.99200
H  46.05300 38.51900 43.11600
H  42.19000 40.90700 40.66500
H  43.42800 39.76900 40.26800
H  44.53100 42.02900 39.24400
H  42.74700 42.25300 38.84200
H  50.99700 39.02700 40.34500
H  49.84400 38.86200 41.51700
H  51.53900 39.31600 42.02100
H  53.32700 43.72700 40.34200
H  54.71100 42.96700 41.06300
H  53.41000 43.76000 42.12700
H  51.32600 47.16300 40.00600
H  49.67000 48.71400 41.83600
H  51.76000 46.79100 42.83400
H  51.70700 48.49900 42.36000
H  52.84000 47.40000 41.49300
H  48.50500 48.74800 39.08200
H  50.24900 48.88900 38.99500
H  48.14800 50.59100 39.79100
H  49.96000 51.08400 39.34200
H  49.45900 50.80800 40.90500
H  43.51900 48.99800 40.49600
H  44.71800 49.57500 41.54100
H  43.25800 48.97800 42.20500
H  42.04200 43.84000 40.92700
H  40.41200 43.86100 45.41000
H  41.97800 43.64700 46.26800
H  41.45400 42.37500 45.32200
Mg 35.22700 48.61000 24.95500
C  35.52100 47.16500 28.21400
C  33.83800 51.34500 26.51800
C  34.74400 49.87500 22.01800
C  36.21900 45.55500 23.67100
N  34.75400 49.11500 27.11500
C  35.10400 48.50000 28.26400
C  34.79500 49.33100 29.47100
C  34.08700 50.57000 28.88600
C  34.11900 50.30700 27.39600
C  32.61700 50.89200 29.40900
C  36.01100 49.61100 30.41600
C  35.82500 49.20600 31.82200
H  34.58700 49.48400 32.62400
N  34.64700 50.43500 24.39100
C  34.06000 51.43400 25.14500
C  33.71900 52.55900 24.33500
C  33.96800 52.12600 23.00200
C  34.52900 50.78200 23.09300
C  33.49400 53.99800 24.89400
C  33.70200 52.96900 21.75300
O  34.11700 52.64400 20.63500
C  33.16300 54.34300 21.83500
N  35.34000 47.74400 23.02800
C  35.15100 48.53200 21.95300
C  35.92300 47.83600 20.71900
C  36.50500 46.47700 21.30000
C  36.05700 46.61400 22.78400
C  34.93600 47.83500 19.53000
C  38.04700 46.24800 21.14400
C  38.58200 45.94800 19.75300
N  35.60800 46.65400 25.73600
C  36.02000 45.55800 25.09200
C  36.26300 44.42600 25.94200
C  36.04100 45.01300 27.26200
C  35.70800 46.38200 27.04700
C  36.59700 43.07800 25.51400
C  36.01200 44.76800 28.71300
O  36.24500 43.70800 29.29000
C  35.64800 46.19700 29.35500
C  34.36600 45.92800 30.03500
O  33.25100 45.87500 29.51400
O  34.68200 45.61000 31.34600
C  33.56400 45.03900 32.10400
H  33.28900 52.12400 27.05300
H  34.73700 50.36200 21.04100
H  36.63900 44.63500 23.26000
H  34.03000 48.80500 30.04300
H  34.76700 51.41300 29.01000
H  32.12500 50.02000 29.83900
H  32.04400 51.39400 28.62900
H  32.80500 51.61000 30.20800
H  36.33000 50.65300 30.38500
H  36.85700 49.02900 30.05200
H  36.66800 49.40200 32.48400
H  35.89400 48.11800 31.80000
H  34.28500 54.66100 24.54500
H  33.61700 54.11300 25.97100
H  32.55100 54.45500 24.59200
H  33.90200 55.04100 22.23000
H  32.14200 54.42000 22.20900
H  33.13400 54.70600 20.80800
H  36.79100 48.48400 20.59800
H  35.90400 45.63500 20.95700
H  33.89300 47.80300 19.84600
H  35.23300 46.98600 18.91500
H  35.02200 48.73000 18.91300
H  38.24100 45.34500 21.72200
H  38.60500 47.04600 21.63500
H  39.44700 46.61100 19.77800
H  37.89600 46.20600 18.94700
H  39.02000 44.95300 19.67800
H  36.30900 42.85000 24.48800
H  36.14100 42.34800 26.18200
H  37.67900 42.94900 25.54700
H  36.52600 46.36800 29.97800
H  33.52100 45.38100 33.13800
H  33.73200 43.96300 32.09000
H  32.64300 45.30300 31.58400

