158

Mg 36.12500 49.27600 25.67000
C  36.56800 47.30100 28.62600
C  34.58300 51.64700 27.51600
C  35.13200 50.70300 22.84700
C  37.40400 46.56900 23.90700
N  35.44900 49.39700 27.91500
C  35.88800 48.56200 28.95200
C  35.50700 49.22300 30.29600
C  34.71300 50.54500 29.92300
C  35.01300 50.60500 28.36300
C  33.13900 50.54300 30.25800
C  36.82200 49.50800 31.03500
C  36.90600 49.24900 32.54500
H  35.69500 48.87300 33.41800
N  35.17800 51.00900 25.25400
C  34.63000 51.86600 26.12700
C  34.10600 53.01100 25.43500
C  34.12400 52.74800 24.04300
C  34.83700 51.41900 24.00600
C  33.72600 54.19700 26.31000
C  33.36700 53.54400 22.97400
O  33.32600 53.17400 21.80200
C  32.54800 54.72500 23.30600
N  36.33400 48.75700 23.60800
C  35.79200 49.47700 22.64400
C  36.36600 49.00300 21.19900
C  36.99800 47.59000 21.60400
C  36.98000 47.64700 23.16500
C  35.33100 49.01600 20.00700
C  38.43400 47.36000 20.96600
C  39.50800 48.40600 21.40300
N  36.80000 47.37800 26.10000
C  37.32000 46.40600 25.29100
C  37.73300 45.16200 26.00300
C  37.45100 45.56500 27.26500
C  36.91000 46.84900 27.33100
C  38.35300 43.93000 25.51000
C  37.57400 45.06200 28.69300
O  38.01300 44.05900 29.23700
C  37.04500 46.18000 29.56100
C  35.90300 45.68000 30.32800
O  34.75300 45.53200 29.87700
O  36.36800 45.26900 31.54700
C  35.41600 44.77400 32.51700
H  34.17400 52.49200 28.07400
H  34.99200 51.16600 21.86700
H  37.85700 45.80800 23.26800
H  34.97900 48.44300 30.84500
H  35.20000 51.31000 30.52700
H  32.86900 51.39600 30.88100
H  32.91800 49.63800 30.82400
H  32.55400 50.54300 29.33800
H  37.11000 50.55100 30.89900
H  37.59000 48.83200 30.66100
H  37.47900 50.03600 33.03800
H  37.64400 48.44700 32.55800
H  32.75400 54.12100 26.79700
H  33.81200 55.11400 25.72700
H  34.49100 54.26200 27.08400
H  33.25400 55.54700 23.42900
H  31.86900 54.56700 24.14400
H  31.94900 54.97200 22.43000
H  36.98800 49.87000 20.97500
H  36.28200 46.81100 21.34200
H  34.36000 49.21500 20.46100
H  35.26400 48.00900 19.59500
H  35.59600 49.77300 19.26900
H  38.20800 47.42500 19.90200
H  38.86500 46.40400 21.26400
H  40.08600 48.63000 20.50600
H  40.16100 47.90500 22.11800
H  39.09000 49.23200 21.97800
H  37.63600 43.11000 25.47200
H  39.26700 43.75400 26.07700
H  38.71900 44.13700 24.50400
H  37.86800 46.47600 30.21200
H  35.49200 43.69800 32.67700
H  34.39500 45.04800 32.25100
H  35.62600 45.22900 33.48500
Mg 10.44300 46.20700 25.56000
C  7.95700 46.49300 28.08900
C  12.65600 47.67900 27.65900
C  12.63600 46.04200 23.03100
C  7.88200 45.90300 23.18400
N  10.28000 47.05700 27.57400
C  9.23400 46.89800 28.47300
C  9.55100 47.57700 29.79900
C  11.02100 47.92700 29.63700
C  11.40100 47.56500 28.17500
C  11.39300 49.40400 29.97100
C  9.16700 46.75800 31.09800
C  9.80200 46.89600 32.46800
H  8.90700 46.74400 33.71500
N  12.38200 46.64400 25.42500
C  13.16800 47.26900 26.41400
C  14.55300 47.37100 25.90500
C  14.55700 46.91400 24.59300
C  13.15500 46.56600 24.28200
C  15.55100 48.17300 26.77100
C  15.70000 46.73000 23.68000
O  15.64000 46.26300 22.58000
C  17.11100 46.95700 24.13100
N  10.34000 45.83700 23.42300
C  11.38700 45.85300 22.58800
C  10.97100 45.55400 21.14100
C  9.44000 45.53300 21.23700
C  9.20300 45.74300 22.72600
C  11.50000 46.54000 20.04800
C  8.80100 44.29300 20.60200
C  9.28000 43.84400 19.22100
N  8.40000 46.05600 25.57800
C  7.49600 45.91200 24.49700
C  6.12300 45.82400 25.02700
C  6.27800 45.94800 26.43700
C  7.66700 46.18400 26.71300
C  4.91500 45.50500 24.21000
C  5.48800 45.81800 27.62700
O  4.31400 45.57000 27.80700
C  6.55500 46.26700 28.76600
C  6.46200 45.26200 29.81500
O  7.25800 44.38500 30.03700
O  5.45300 45.62400 30.66000
C  5.14700 44.69900 31.68700
H  13.42000 47.88100 28.41300
H  13.39300 45.97600 22.24700
H  7.11900 45.90200 22.40300
H  8.80600 48.36500 29.68300
H  11.55300 47.24800 30.30300
H  10.47700 49.97400 30.12800
H  11.91200 49.88300 29.14200
H  11.96100 49.31100 30.89700
H  9.31800 45.73400 30.75900
H  8.09500 46.80200 31.29400
H  10.20900 47.90700 32.49900
H  10.56900 46.12500 32.53300
H  16.25400 47.43600 27.15800
H  15.02200 48.76300 27.52000
H  16.05500 48.96400 26.21600
H  17.12600 46.61100 25.16400
H  17.44100 47.99100 24.03600
H  17.86700 46.41500 23.56300
H  11.22200 44.52300 20.89200
H  8.98700 46.35100 20.67700
H  10.65500 46.95900 19.50200
H  12.00800 45.80500 19.42400
H  12.05100 47.39800 20.43400
H  7.77500 44.59600 20.39700
H  8.81000 43.44500 21.28700
H  9.92900 44.65800 18.89700
H  8.60600 43.56400 18.41200
H  9.91100 42.96500 19.34800
H  4.90100 46.29400 23.45800
H  4.11000 45.63100 24.93300
H  4.95700 44.48200 23.83800
H  6.28700 47.22400 29.21400
H  4.49200 43.94500 31.25100
H  4.43300 45.09000 32.41200
H  6.04200 44.32600 32.18500

