158

Mg 9.16500 3.47100 27.53800
C  10.45600 2.21700 30.52200
C  7.46200 5.85500 29.42900
C  8.11100 4.96400 24.69900
C  10.84100 1.11400 25.77600
N  8.93600 3.93200 29.77600
C  9.61400 3.29700 30.79200
C  9.28400 3.84800 32.19800
C  8.28800 4.98900 31.81400
C  8.18700 4.96300 30.22400
C  6.87400 4.89400 32.36400
C  10.67400 4.18000 32.99700
C  10.89400 3.50900 34.39400
H  11.36300 4.35000 35.58600
N  7.95500 5.16200 27.08000
C  7.32100 5.94300 28.01700
C  6.47300 6.87300 27.34800
C  6.67500 6.68400 25.97900
C  7.58900 5.60400 25.90100
C  5.68400 7.81100 28.12700
C  6.05700 7.47100 24.82300
O  6.37600 7.19700 23.65900
C  5.15300 8.72200 25.08000
N  9.55200 3.14800 25.54300
C  8.91700 3.82800 24.59000
C  9.18400 3.16700 23.20800
C  10.28300 2.12000 23.56100
C  10.14400 2.08000 25.02200
C  7.91200 2.48200 22.53600
C  11.73600 2.61900 23.17700
C  12.64900 1.71400 22.35000
N  10.34100 1.87300 27.97900
C  10.98300 0.99500 27.11500
C  11.81100 0.11000 27.90800
C  11.58200 0.55400 29.22400
C  10.67300 1.63200 29.25000
C  12.57200 -1.11800 27.43600
C  11.97600 0.28000 30.53800
O  12.74900 -0.57600 31.00900
C  11.22200 1.29300 31.46800
C  10.40900 0.53500 32.48300
O  9.32700 0.11800 32.26400
O  11.01500 0.44800 33.69900
C  10.12600 -0.24600 34.69400
H  6.99600 6.57300 30.10700
H  7.68000 5.35700 23.77500
H  11.18400 0.20700 25.27400
H  8.71400 3.09900 32.74600
H  8.87500 5.89100 31.98400
H  6.52200 5.92300 32.42700
H  6.85300 4.34400 33.30500
H  6.10300 4.35300 31.81500
H  10.70100 5.26900 33.01200
H  11.50700 3.85700 32.37300
H  11.64900 2.73800 34.23700
H  9.97700 3.05600 34.77000
H  4.62300 7.69200 27.90800
H  5.88500 8.84500 27.84500
H  5.93500 7.87300 29.18600
H  5.71900 9.46900 25.63800
H  4.15500 8.48800 25.45000
H  4.99500 9.24100 24.13400
H  9.58900 3.95600 22.57400
H  10.10500 1.16400 23.06900
H  8.05600 1.44000 22.25000
H  7.69300 3.13900 21.69400
H  6.99800 2.42100 23.12600
H  12.35600 2.78200 24.05900
H  11.67900 3.55900 22.62800
H  12.87300 2.26900 21.44000
H  12.13500 0.80200 22.04500
H  13.54200 1.47300 22.92600
H  12.32000 -1.22100 26.38100
H  12.09100 -1.96100 27.93300
H  13.65200 -1.00800 27.53200
H  12.03700 1.81300 31.97100
H  9.60600 -1.08400 34.23000
H  9.34400 0.35500 35.15800
H  10.73500 -0.66200 35.49700
Mg 46.31900 24.56600 28.76800
C  47.49000 26.68300 31.29200
C  45.25000 22.42600 31.27900
C  45.98300 22.16500 26.47500
C  47.99000 26.56800 26.43800
N  46.26600 24.61500 30.93600
C  46.60300 25.71600 31.67800
C  46.02700 25.56400 33.11900
C  45.58300 24.03100 33.24500
C  45.70700 23.63800 31.78900
C  46.56600 23.18400 34.12800
C  44.92000 26.62700 33.42000
C  45.01500 27.38300 34.80800
H  45.82300 26.81200 36.02800
N  45.61400 22.57800 28.85300
C  45.16400 21.92000 30.00000
C  44.51800 20.69400 29.59500
C  44.71200 20.59700 28.12700
C  45.47800 21.84000 27.75000
C  43.72600 19.81000 30.65600
C  44.30700 19.52700 27.16000
O  44.52200 19.68000 25.90700
C  43.52900 18.25300 27.53900
N  46.95500 24.41100 26.78800
C  46.53700 23.32700 26.01900
C  46.89200 23.49800 24.58700
C  47.59700 24.93600 24.55300
C  47.46000 25.38600 25.96000
C  47.66300 22.37800 23.96400
C  46.70800 25.92400 23.69200
C  47.44900 26.85800 22.68000
N  47.44900 26.35900 28.81900
C  47.97500 27.04500 27.73400
C  48.55900 28.34300 28.25700
C  48.39800 28.27100 29.66400
C  47.74500 27.02200 29.92200
C  49.29400 29.35700 27.41600
C  48.59500 28.89800 30.97800
O  49.19100 29.96100 31.38400
C  47.99800 27.93400 32.05500
C  49.06600 27.72000 33.02800
O  50.01500 27.01300 32.82900
O  48.79500 28.42600 34.18200
C  49.89200 28.69100 35.07000
H  44.92700 21.68000 32.00900
H  45.88800 21.36800 25.73400
H  48.38700 27.18800 25.63100
H  46.78300 25.85400 33.84900
H  44.57000 23.97400 33.64300
H  47.07900 23.81800 34.85100
H  47.39000 22.66100 33.64300
H  45.96900 22.52100 34.75300
H  43.92400 26.18500 33.38900
H  44.95600 27.40400 32.65700
H  44.01800 27.40200 35.24900
H  45.37500 28.37900 34.55200
H  42.69100 19.69100 30.33600
H  43.65700 20.21600 31.66500
H  44.08400 18.80000 30.85800
H  43.16900 18.24400 28.56800
H  44.09800 17.33900 27.36800
H  42.62000 18.22200 26.93800
H  45.94800 23.52200 24.04200
H  48.62600 24.88500 24.19700
H  47.71400 21.51200 24.62400
H  48.67600 22.69100 23.71200
H  47.22800 22.19600 22.98100
H  46.23100 26.63700 24.36500
H  46.00300 25.28700 23.15700
H  48.21900 26.29100 22.15700
H  47.98900 27.67500 23.15800
H  46.64800 27.24600 22.05100
H  49.45000 30.20100 28.08800
H  48.57300 29.61900 26.64200
H  50.18000 28.80600 27.10300
H  47.25300 28.58200 32.51700
H  50.79200 28.11300 34.85600
H  49.59600 28.54500 36.10900
H  50.10200 29.75200 34.93700

