158

Mg 9.18200 3.97100 28.18600
C  10.38200 2.14700 31.00000
C  7.37400 5.94800 30.32900
C  8.02900 5.49800 25.48100
C  10.61500 1.44200 26.18200
N  8.77500 3.85600 30.35900
C  9.54400 3.20300 31.29400
C  9.39700 3.82700 32.72300
C  8.34700 4.97000 32.56100
C  8.13900 4.98400 30.95500
C  6.97500 4.73600 33.27500
C  10.76800 4.11800 33.38500
C  11.11200 3.37300 34.69900
H  11.58200 4.28200 35.90100
N  7.89400 5.54700 27.97500
C  7.27700 6.25400 28.95000
C  6.49900 7.32000 28.32800
C  6.84200 7.32200 26.89500
C  7.60800 6.10900 26.69100
C  5.57300 8.22300 29.08800
C  6.44900 8.28600 25.81500
O  6.64300 8.03100 24.63700
C  5.76800 9.54000 26.28200
N  9.23700 3.45000 26.20900
C  8.71800 4.29800 25.23300
C  9.02400 3.85700 23.81500
C  9.92500 2.58500 23.99500
C  9.91700 2.46100 25.56400
C  7.88400 3.69400 22.84900
C  11.31500 2.55400 23.31100
C  11.52500 1.42700 22.18100
N  10.23600 2.07500 28.48400
C  10.79700 1.22800 27.55100
C  11.50800 0.17100 28.18200
C  11.36100 0.53300 29.55500
C  10.61800 1.64500 29.65400
C  12.14400 -0.96200 27.59200
C  11.69300 0.09400 30.93600
O  12.28400 -0.95300 31.34200
C  11.11500 1.18900 31.89600
C  10.15900 0.55100 32.92100
O  8.96100 0.35200 32.74000
O  10.75600 0.29300 34.04900
C  9.98600 -0.37300 35.09900
H  6.89300 6.70400 30.95400
H  7.93200 6.07000 24.55500
H  11.08800 0.71200 25.52200
H  8.86600 3.00600 33.20400
H  8.76000 5.93700 32.85100
H  6.79700 5.58000 33.94200
H  7.10400 3.81300 33.84000
H  6.17300 4.77100 32.53800
H  10.94900 5.17300 33.59000
H  11.52200 3.94800 32.61600
H  11.90900 2.66300 34.47700
H  10.23200 2.84800 35.07200
H  5.45100 7.82500 30.09600
H  4.55000 8.18000 28.71400
H  5.96600 9.23200 29.21000
H  5.00500 9.41400 27.05000
H  5.50200 10.06500 25.36500
H  6.64800 10.01000 26.72200
H  9.62300 4.67200 23.40900
H  9.37900 1.71000 23.64300
H  8.05100 4.32000 21.97300
H  7.02200 4.16600 23.32100
H  7.70100 2.65400 22.58000
H  12.11700 2.52500 24.04900
H  11.52400 3.48600 22.78600
H  11.54300 1.77100 21.14700
H  10.76000 0.65000 22.17200
H  12.44900 0.86700 22.32400
H  11.93000 -1.05100 26.52700
H  11.76300 -1.86000 28.07700
H  13.22400 -0.91500 27.73800
H  11.99600 1.55400 32.42200
H  10.65000 -0.87300 35.80300
H  9.26600 -1.12000 34.76400
H  9.52600 0.41600 35.69400
Mg 55.00800 23.38200 44.09800
C  52.90100 26.28200 43.68700
C  52.38200 21.46300 43.06400
C  57.13500 21.04800 44.14400
C  57.61400 25.81300 44.75300
N  52.87700 23.93000 43.35600
C  52.24400 25.06400 43.30800
C  50.84900 24.86100 42.83600
C  50.58300 23.35100 43.12800
C  52.06300 22.83700 43.16600
C  49.73300 23.11300 44.44000
C  50.78800 25.18500 41.31100
C  49.39700 25.64200 40.76800
H  48.79600 24.65300 39.75700
N  54.75900 21.45500 43.73500
C  53.65700 20.79900 43.27900
C  53.92300 19.39100 43.27900
C  55.36700 19.23200 43.51100
C  55.83500 20.58900 43.83600
C  52.91600 18.23100 43.05300
C  56.08500 17.90400 43.42500
O  55.57300 16.87100 43.16600
C  57.49200 17.83100 43.64900
N  57.10000 23.49300 44.36400
C  57.67000 22.28500 44.48400
C  59.06500 22.50300 45.06100
C  59.17900 24.02600 45.28800
C  57.93100 24.47300 44.64800
C  59.50300 21.79900 46.30100
C  60.48200 24.64000 44.69600
C  61.25100 25.39200 45.67000
N  55.26800 25.55600 44.27100
C  56.36400 26.37300 44.59800
C  55.88900 27.81800 44.72500
C  54.57500 27.77900 44.34000
C  54.24900 26.38800 44.11600
C  56.70600 29.13000 44.86300
C  53.43700 28.62700 44.05600
O  53.37000 29.85600 44.04300
C  52.31200 27.69300 43.56900
C  52.06100 28.08300 42.07600
O  52.88600 28.34900 41.21200
O  50.71700 28.35800 42.03400
C  50.42000 29.31400 41.01100
H  51.57300 20.80700 42.73700
H  57.84900 20.22200 44.18700
H  58.41000 26.55700 44.83300
H  50.11600 25.44300 43.39500
H  50.08600 22.95900 42.24100
H  49.24200 24.02000 44.79400
H  50.28400 22.72700 45.29700
H  49.03500 22.29200 44.28000
H  50.95300 24.30700 40.68600
H  51.56700 25.88200 41.00400
H  49.71600 26.52800 40.21800
H  48.76400 25.95600 41.59800
H  53.31300 17.65900 42.21400
H  51.92100 18.61300 42.82200
H  52.88100 17.63200 43.96300
H  58.01100 18.41400 42.88800
H  57.94500 16.84000 43.69000
H  57.55800 18.32300 44.61900
H  59.65900 22.12300 44.23000
H  59.03600 24.25100 46.34500
H  60.46100 21.29800 46.16400
H  58.86800 20.92700 46.45500
H  59.59600 22.32000 47.25400
H  60.35500 25.21300 43.77700
H  61.12900 23.78100 44.51800
H  62.26100 25.50700 45.27600
H  61.32700 24.95400 46.66600
H  60.84700 26.38800 45.85100
H  56.07800 29.76600 45.48700
H  56.90000 29.56000 43.88000
H  57.66000 28.77800 45.25500
H  51.37100 27.71400 44.11900
H  51.00200 30.21200 41.21800
H  49.35900 29.54200 41.11700
H  50.67900 29.00600 39.99800

