158

Mg 17.08700 51.84200 26.34500
C  18.62900 50.14600 29.04300
C  14.73200 53.14900 28.52300
C  15.63200 53.28500 23.84100
C  19.22900 49.98400 24.14400
N  16.75100 51.55700 28.49200
C  17.50700 50.94000 29.42600
C  16.95600 51.26400 30.93700
C  15.60700 51.97700 30.62700
C  15.69000 52.28300 29.08500
C  14.28500 51.23600 31.13700
C  17.95600 52.27100 31.70500
C  18.08500 51.93500 33.26700
H  17.10000 51.09000 34.13700
N  15.33800 53.08700 26.19900
C  14.57700 53.57100 27.20700
C  13.70200 54.61300 26.66700
C  13.98300 54.71600 25.23300
C  14.96300 53.64300 25.00500
C  12.74600 55.34700 27.50400
C  13.45000 55.63200 24.16900
O  13.89600 55.55600 22.99000
C  12.45100 56.68900 24.56500
N  17.32900 51.54400 24.27800
C  16.61500 52.33800 23.44100
C  17.04500 52.15200 21.94000
C  18.18200 51.13200 22.09800
C  18.23300 50.81700 23.56000
C  15.89900 51.63100 21.00500
C  19.52200 51.54000 21.52200
C  20.32200 52.61100 22.19600
N  18.67800 50.43400 26.46500
C  19.43000 49.75500 25.52000
C  20.44700 49.06500 26.23900
C  20.13200 49.15900 27.63700
C  19.01200 49.93600 27.67700
C  21.62300 48.33400 25.66000
C  20.60100 48.77200 28.98000
O  21.63500 48.26100 29.40800
C  19.57700 49.42700 29.99000
C  18.96700 48.41700 30.83600
O  18.10900 47.59800 30.56600
O  19.59600 48.33400 32.12000
C  19.11800 47.33200 33.07700
H  14.12500 53.62000 29.30000
H  15.29200 53.75700 22.91700
H  19.85100 49.43900 23.43100
H  16.74200 50.32000 31.43700
H  15.61100 52.92500 31.16500
H  13.64600 51.29400 30.25600
H  13.72100 51.95000 31.73700
H  14.28400 50.26600 31.63600
H  17.65300 53.31000 31.57700
H  18.91200 51.90000 31.33400
H  18.14900 52.92000 33.72700
H  19.04400 51.44400 33.43400
H  13.05600 56.33700 27.83700
H  12.57200 54.94600 28.50200
H  11.76700 55.48300 27.04400
H  11.50700 56.20600 24.81600
H  12.36700 57.40500 23.74800
H  12.84800 57.18700 25.45000
H  17.45600 53.12500 21.66700
H  17.99300 50.18700 21.58700
H  16.03400 52.34600 20.19300
H  14.94300 51.62100 21.52900
H  16.17500 50.63800 20.65000
H  19.15700 51.99100 20.59900
H  20.02700 50.62200 21.22200
H  21.32700 52.21700 22.34600
H  19.99300 53.00200 23.15900
H  20.24500 53.39900 21.44700
H  21.25900 47.70400 24.84900
H  22.21400 47.73100 26.35000
H  22.28200 49.09100 25.23400
H  20.14700 50.13300 30.59500
H  19.37600 47.67500 34.07900
H  19.59600 46.35300 33.02700
H  18.03800 47.20700 33.00300
Mg -13.53600 38.03600 41.89100
C  -11.10700 35.63900 41.24700
C  -11.40600 40.46900 40.56300
C  -15.84900 40.28900 42.40600
C  -15.83600 35.41900 42.30200
N  -11.55200 37.92600 40.71200
C  -10.69300 36.89300 40.67900
C  -9.34900 37.27600 40.13600
C  -9.36200 38.82300 40.38400
C  -10.89800 39.11500 40.53600
C  -8.53100 39.28700 41.65200
C  -9.12100 36.84000 38.67400
C  -7.91900 35.92900 38.34800
H  -6.91100 36.55700 37.37800
N  -13.63200 40.19400 41.49100
C  -12.66400 41.01200 41.00400
C  -13.13400 42.37100 41.14600
C  -14.39400 42.31000 41.71800
C  -14.66600 40.89200 41.91700
C  -12.37100 43.58600 40.60800
C  -15.24300 43.49900 42.00900
O  -14.89600 44.60700 41.65200
C  -16.37900 43.29400 42.95600
N  -15.63300 37.89500 41.97200
C  -16.33700 38.94300 42.42100
C  -17.73800 38.54200 42.93100
C  -17.70600 36.99300 42.87700
C  -16.32400 36.71300 42.29300
C  -18.01500 39.06800 44.38700
C  -18.93000 36.34700 42.03600
C  -18.69100 36.14800 40.57700
N  -13.51300 35.94500 42.02200
C  -14.48900 35.03800 42.27900
C  -13.88000 33.77100 42.43400
C  -12.55000 33.88200 42.03300
C  -12.39800 35.29000 41.79500
C  -14.59100 32.41700 42.67600
C  -11.29300 33.24500 41.68900
O  -10.89200 32.09200 41.60000
C  -10.29700 34.34200 41.36500
C  -9.23600 34.37900 42.37700
O  -9.42600 34.18800 43.55600
O  -7.99000 34.46000 41.78600
C  -6.81600 34.16300 42.63800
H  -10.57200 41.14900 40.37900
H  -16.65800 40.86300 42.86400
H  -16.46300 34.59400 42.64600
H  -8.65600 36.77200 40.80900
H  -9.08400 39.38100 39.49100
H  -8.11600 38.39700 42.12600
H  -9.07200 39.82000 42.43300
H  -7.73400 39.89500 41.22400
H  -9.17500 37.73900 38.06100
H  -9.87400 36.15500 38.28400
H  -8.31200 34.97600 37.99300
H  -7.29300 35.79300 39.23000
H  -11.42200 43.22100 40.21300
H  -11.98500 44.20900 41.41500
H  -12.89100 44.14600 39.83000
H  -17.17000 42.78100 42.40900
H  -16.84100 44.25800 43.16900
H  -15.94300 42.81900 43.83500
H  -18.51000 38.85900 42.23000
H  -17.74600 36.57600 43.88300
H  -17.16600 39.65600 44.73400
H  -18.05600 38.31100 45.16900
H  -18.88600 39.71800 44.47400
H  -19.82300 36.94400 42.22000
H  -19.30100 35.40300 42.43500
H  -18.64300 35.06300 40.48300
H  -17.72400 36.50600 40.22500
H  -19.50200 36.56900 39.98200
H  -13.78300 31.89200 43.18600
H  -14.78000 31.94500 41.71200
H  -15.47900 32.42600 43.30900
H  -9.83900 34.19900 40.38600
H  -5.96800 34.00400 41.97200
H  -6.93900 33.26600 43.24500
H  -6.57600 35.05700 43.21400

