158

Mg 24.69000 -5.22700 46.18300
C  26.63400 -2.80200 44.58200
C  22.05000 -4.55500 44.23600
C  23.42000 -8.27300 46.97200
C  27.72700 -6.32400 47.79800
N  24.51400 -3.95600 44.50600
C  25.35400 -2.98200 44.06300
C  24.67000 -2.03400 42.96500
C  23.14400 -2.44200 43.16700
C  23.21400 -3.71100 43.99500
C  22.30000 -1.27300 43.68500
C  25.27500 -2.49400 41.63400
C  25.68500 -1.29700 40.72900
H  25.13300 -1.26200 39.27900
N  22.91300 -6.15800 45.81500
C  21.92000 -5.72400 45.02300
C  20.78500 -6.58900 45.05600
C  21.18300 -7.66300 45.81600
C  22.56700 -7.40700 46.29200
C  19.55000 -6.30900 44.26600
C  20.28000 -8.75300 46.29100
O  19.13900 -8.81000 45.84300
C  20.67200 -9.92300 47.24700
N  25.39900 -7.02600 47.45000
C  24.71700 -8.14400 47.44900
C  25.49900 -9.27500 48.12100
C  26.89700 -8.69100 48.48900
C  26.67200 -7.24500 47.87400
C  24.83100 -10.02000 49.32200
C  28.21600 -9.43900 47.87500
C  28.20700 -10.98800 47.86500
N  26.69200 -4.57500 46.37100
C  27.77400 -5.11600 47.04300
C  28.96800 -4.25600 46.81100
C  28.55800 -3.34800 45.83000
C  27.18400 -3.59100 45.53800
C  30.28100 -4.33300 47.44400
C  28.98600 -2.36500 45.00100
O  30.09600 -1.95100 44.83100
C  27.79200 -1.87900 44.12600
C  27.45100 -0.47500 44.34100
O  27.03600 -0.11900 45.43700
O  27.79100 0.30100 43.25200
C  27.88400 1.74400 43.40100
H  21.19400 -4.28100 43.61700
H  23.17000 -9.33400 47.02500
H  28.66200 -6.68600 48.23000
H  24.76700 -0.99600 43.28400
H  22.67300 -2.73600 42.23000
H  22.87300 -0.44700 44.10700
H  21.56100 -1.48700 44.45700
H  21.63100 -0.96700 42.88100
H  24.55400 -3.10300 41.08900
H  26.18900 -3.02900 41.89400
H  26.77100 -1.20700 40.74500
H  25.21000 -0.40000 41.12700
H  19.01400 -7.23100 44.04100
H  19.74800 -5.72500 43.36700
H  18.73700 -5.84800 44.82600
H  19.75600 -10.49100 47.41100
H  21.03300 -9.54700 48.20500
H  21.38800 -10.65100 46.86500
H  25.68700 -9.94700 47.28400
H  26.97000 -8.52200 49.56300
H  24.87900 -11.07200 49.04100
H  23.79900 -9.67900 49.41300
H  25.32300 -9.93500 50.29100
H  29.07300 -9.15600 48.48500
H  28.38800 -9.20300 46.82500
H  28.78400 -11.49700 48.63700
H  28.66300 -11.29600 46.92400
H  27.15600 -11.26400 47.95600
H  30.79400 -5.24400 47.13600
H  30.25400 -4.47100 48.52500
H  30.88400 -3.44900 47.23300
H  28.01700 -1.92100 43.06100
H  27.86900 2.05100 44.44700
H  27.06600 2.26900 42.90900
H  28.85200 2.08700 43.03500
Mg 24.96600 2.01800 30.43700
C  27.39900 1.56900 32.99300
C  22.55500 2.08900 32.86200
C  22.66000 1.88600 28.05000
C  27.41900 1.26100 28.05400
N  24.99700 1.74900 32.67100
C  26.11000 1.76000 33.51800
C  25.63400 2.13500 34.98100
C  24.10500 2.09400 34.84600
C  23.83600 1.97800 33.37800
C  23.41000 0.97200 35.69100
C  26.32400 3.47900 35.34100
C  27.25800 3.54900 36.57200
H  26.62900 4.40100 37.74700
N  22.90800 1.93700 30.49000
C  22.07400 1.94800 31.55700
C  20.70600 1.97100 31.14300
C  20.69400 1.82400 29.73000
C  22.13200 1.85800 29.34300
C  19.61400 2.08800 32.18300
C  19.56600 1.67300 28.76200
O  19.69700 1.56600 27.56100
C  18.07900 1.77800 29.15500
N  25.10600 1.61300 28.32000
C  23.97500 1.76200 27.57000
C  24.27200 1.86900 26.14100
C  25.85000 1.55600 26.07000
C  26.17600 1.47800 27.51600
C  23.53900 0.95200 25.12300
C  26.63800 2.59000 25.28300
C  27.45100 2.15300 24.00900
N  26.97200 1.63200 30.47800
C  27.86200 1.26000 29.37700
C  29.15800 0.91500 29.99700
C  28.98700 1.11600 31.39600
C  27.71600 1.46400 31.59400
C  30.39100 0.51600 29.28700
C  29.81700 1.14800 32.58600
O  31.00300 1.02600 32.75400
C  28.70400 1.40000 33.72300
C  28.62500 0.39800 34.73000
O  28.30100 -0.75700 34.54600
O  28.98600 0.89800 35.96300
C  28.76600 0.08900 37.07400
H  21.75800 2.17800 33.60300
H  22.07300 1.94100 27.13100
H  28.31700 1.13200 27.44500
H  25.94900 1.36800 35.68800
H  23.61800 2.99800 35.21100
H  23.17700 0.17100 34.98900
H  22.56200 1.40400 36.22100
H  24.07600 0.60900 36.47400
H  25.53200 4.20200 35.53700
H  26.95900 3.86900 34.54600
H  28.19700 4.00100 36.25300
H  27.46900 2.56800 36.99700
H  19.83500 2.25400 33.23700
H  19.01900 1.18500 32.04900
H  19.02400 2.92900 31.82100
H  17.72900 0.93100 29.74500
H  17.40600 1.91300 28.30900
H  18.00600 2.62500 29.83700
H  24.17400 2.94900 26.02400
H  26.19200 0.57500 25.74000
H  22.47000 1.10300 25.27800
H  23.94000 -0.03100 25.37000
H  23.77600 1.24600 24.10000
H  27.23500 3.06300 26.06300
H  25.97400 3.33500 24.84500
H  27.01500 2.65300 23.14400
H  27.38900 1.07800 23.84300
H  28.50900 2.38500 24.13200
H  30.34600 0.59700 28.20100
H  30.67000 -0.51800 29.49300
H  31.11400 1.24200 29.66000
H  28.85700 2.35200 34.23200
H  29.71000 0.20900 37.60400
H  28.76100 -0.96600 36.79800
H  27.88800 0.33700 37.67000

