158

Mg 0.48400 8.17700 26.67400
C  1.17900 10.16500 29.60000
C  0.17300 5.50900 28.86300
C  0.13600 6.33200 24.12900
C  0.76900 11.01600 24.82500
N  0.55200 7.89100 29.04600
C  0.74600 8.85200 29.98300
C  0.49600 8.37400 31.39400
C  0.44400 6.82900 31.07900
C  0.31800 6.66100 29.57400
C  1.58900 6.03200 31.77400
C  -0.76900 9.00000 32.05800
C  -0.73000 9.27000 33.56900
H  0.45400 8.75100 34.43200
N  0.10800 6.12900 26.57100
C  0.13900 5.15200 27.51600
C  -0.14800 3.81400 26.82400
C  -0.07000 4.07300 25.36900
C  0.08300 5.54000 25.31000
C  -0.44700 2.57700 27.68500
C  -0.21400 3.14200 24.22400
O  -0.12300 3.49400 23.05300
C  -0.63800 1.72600 24.37100
N  0.21400 8.62800 24.73300
C  0.36400 7.64200 23.81900
C  0.60200 8.20500 22.37000
C  0.30000 9.74100 22.61200
C  0.46700 9.83900 24.15300
C  2.02000 7.88000 21.80400
C  -1.11000 10.04200 22.11600
C  -1.52400 11.49600 22.14700
N  0.96300 10.15700 27.04600
C  1.02900 11.22000 26.18100
C  1.57000 12.40400 26.83700
C  1.63000 12.06100 28.17500
C  1.21600 10.66700 28.25300
C  1.93800 13.72800 26.20900
C  2.04100 12.50700 29.48900
O  2.59600 13.51800 29.78300
C  1.63900 11.29800 30.52800
C  2.93000 10.98200 31.30300
O  3.91600 10.39100 30.84000
O  2.75700 11.50400 32.51000
C  3.98100 11.70400 33.34000
H  0.03600 4.69400 29.57700
H  0.22200 5.73400 23.21900
H  0.94700 11.94600 24.28100
H  1.35600 8.59400 32.02700
H  -0.48200 6.46200 31.52400
H  1.12400 5.24700 32.37000
H  2.17600 6.67300 32.43200
H  2.23100 5.58000 31.01700
H  -1.63400 8.35300 31.91700
H  -1.07200 9.90500 31.53100
H  -1.63400 8.78700 33.94100
H  -0.82600 10.34000 33.75200
H  -0.09800 2.67300 28.71300
H  0.12500 1.81800 27.15100
H  -1.50500 2.33300 27.59000
H  -1.55700 1.64500 23.79000
H  -0.75300 1.45900 25.42100
H  0.13900 1.05300 24.00700
H  -0.14100 7.74200 21.72200
H  1.07400 10.33000 22.11900
H  1.76700 7.04300 21.15400
H  2.68800 7.57000 22.60700
H  2.48200 8.74200 21.32300
H  -1.78800 9.38400 22.66000
H  -1.29800 9.64900 21.11700
H  -1.96800 11.85500 21.21800
H  -0.65900 12.13600 22.31900
H  -2.09800 11.73300 23.04300
H  1.06100 14.06700 25.65900
H  2.67300 13.48800 25.44000
H  2.21400 14.44400 26.98300
H  0.84500 11.61100 31.20600
H  4.79500 11.83200 32.62800
H  4.22500 11.03200 34.16300
H  3.90300 12.72900 33.70300
Mg -11.37400 38.39000 41.96700
C  -9.17700 35.69400 41.25400
C  -9.07100 40.49000 40.28000
C  -13.60600 40.77500 42.24500
C  -13.58000 36.07500 43.37000
N  -9.46900 38.08100 40.69900
C  -8.79500 36.89100 40.56700
C  -7.56600 37.05300 39.63900
C  -7.49600 38.60100 39.36900
C  -8.66600 39.12900 40.23000
C  -6.14900 39.28900 39.52500
C  -7.73800 36.14800 38.33400
C  -6.53600 35.29600 38.02700
H  -5.41200 35.91400 37.11000
N  -11.33500 40.42400 41.41700
C  -10.32900 41.07300 40.72800
C  -10.70700 42.46000 40.63900
C  -11.95300 42.62800 41.27600
C  -12.35400 41.24900 41.68300
C  -9.77300 43.51900 40.18100
C  -12.67800 43.90200 41.47000
O  -12.09200 44.88600 41.06200
C  -14.12400 44.06200 42.14200
N  -13.38200 38.33000 42.57100
C  -14.04800 39.54100 42.67600
C  -15.47400 39.38200 43.24100
C  -15.40900 37.90000 43.67200
C  -14.06700 37.35900 43.11900
C  -15.93900 40.46300 44.37000
C  -16.69400 37.13700 43.33500
C  -17.21800 36.21400 44.43700
N  -11.44000 36.28200 42.25600
C  -12.33800 35.51900 42.98300
C  -11.82200 34.17300 43.24500
C  -10.55300 34.28800 42.58300
C  -10.38600 35.50900 41.91700
C  -12.49300 33.12200 44.12500
C  -9.34600 33.45900 42.36800
O  -9.06900 32.28400 42.53900
C  -8.40600 34.41500 41.39500
C  -7.01700 34.67300 41.88800
O  -6.02100 34.12800 41.44000
O  -6.98500 35.70400 42.79100
C  -5.71000 36.08300 43.30200
H  -8.39600 41.18100 39.77100
H  -14.38700 41.53900 42.26100
H  -14.35200 35.50000 43.88500
H  -6.64600 36.78700 40.16000
H  -7.66500 38.79300 38.31000
H  -6.31700 40.05800 40.27800
H  -5.83000 39.71900 38.57500
H  -5.39000 38.59200 39.88000
H  -7.86900 36.88800 37.54500
H  -8.58100 35.45900 38.38300
H  -6.88300 34.33500 37.64700
H  -5.95100 35.09600 38.92400
H  -9.76600 43.72300 39.11100
H  -8.79100 43.13500 40.45900
H  -9.77800 44.43200 40.77600
H  -14.20400 43.60000 43.12600
H  -14.85500 43.61700 41.46700
H  -14.31700 45.13300 42.20600
H  -16.14100 39.54500 42.39400
H  -15.40100 37.91000 44.76200
H  -15.32500 41.36200 44.33200
H  -15.77200 39.92100 45.30000
H  -16.98200 40.77700 44.43100
H  -16.58800 36.51300 42.44800
H  -17.45100 37.86800 43.05200
H  -18.18700 36.59700 44.75600
H  -16.43000 35.95600 45.14500
H  -17.52400 35.26300 44.00200
H  -12.97500 32.40800 43.45800
H  -13.24600 33.43700 44.84700
H  -11.73700 32.45200 44.53400
H  -8.32100 33.95400 40.41100
H  -5.44500 37.10100 43.01700
H  -4.85600 35.49200 42.97300
H  -5.81400 36.01800 44.38600

