158

Mg 41.48800 40.79800 27.07900
C  40.71900 43.18400 29.25500
C  42.53100 38.63600 29.61200
C  42.41500 38.36000 24.69000
C  40.99800 42.94000 24.41300
N  41.52900 40.94900 29.19900
C  41.09400 41.99800 29.91100
C  41.08400 41.72400 31.45200
C  41.81000 40.34400 31.50800
C  42.02100 39.98400 30.01600
C  43.12700 40.16300 32.34200
C  39.59700 41.87500 32.01200
C  39.42200 42.79900 33.22700
H  38.83300 42.32900 34.57600
N  42.28800 38.74900 27.19000
C  42.61400 38.02800 28.32100
C  43.17500 36.68000 28.00100
C  42.93800 36.55300 26.58000
C  42.55500 37.92300 26.07000
C  43.80300 35.78800 29.02300
C  43.09000 35.36800 25.63600
O  43.16400 35.48200 24.42700
C  43.27900 33.94600 26.24100
N  41.73600 40.67300 24.87200
C  42.07800 39.58800 24.13800
C  41.97500 39.86700 22.58600
C  41.20400 41.22200 22.54500
C  41.36800 41.66600 24.02700
C  43.35000 39.81500 21.82500
C  39.75200 41.13600 22.02900
C  38.87300 39.95300 22.53800
N  41.00300 42.70300 26.78700
C  40.83300 43.49100 25.72900
C  40.47600 44.84600 26.04600
C  40.42000 44.78500 27.50500
C  40.71300 43.44500 27.86200
C  40.27400 45.94500 25.14900
C  40.09900 45.56100 28.64100
O  39.80400 46.74400 28.63600
C  40.32300 44.58200 29.91200
C  41.39800 45.10800 30.78800
O  42.64000 44.95000 30.50800
O  40.86200 45.76900 31.89200
C  41.89200 46.25500 32.79800
H  42.90100 38.08600 30.48000
H  42.73200 37.68500 23.89300
H  40.62000 43.49500 23.55300
H  41.81000 42.43400 31.84700
H  41.11300 39.59400 31.88100
H  43.12900 39.20400 32.86100
H  43.18200 41.03000 32.99900
H  44.03500 40.07300 31.74600
H  39.35000 40.87100 32.35700
H  38.92900 42.13000 31.18800
H  38.69500 43.51000 32.83600
H  40.18200 43.55400 33.42800
H  42.98900 35.27200 29.53000
H  44.28300 36.47600 29.71900
H  44.51100 35.08200 28.58700
H  42.75300 33.88500 27.19300
H  44.32700 33.69100 26.39500
H  42.93100 33.15200 25.57900
H  41.40800 39.01200 22.21600
H  41.75700 41.90100 21.89600
H  43.43800 39.14500 20.97000
H  44.15100 39.48300 22.48600
H  43.65600 40.80500 21.48800
H  39.77500 41.12500 20.94000
H  39.31200 42.07700 22.35900
H  38.59200 39.18000 21.82200
H  37.92600 40.35100 22.90000
H  39.32400 39.38500 23.35200
H  41.19500 46.14900 24.60300
H  39.99400 46.75400 25.82400
H  39.37400 45.79400 24.55400
H  39.43400 44.56300 30.54200
H  41.42100 47.14200 33.22300
H  42.80100 46.53100 32.26500
H  42.04500 45.54600 33.61100
Mg -10.85500 17.27500 42.92900
C  -7.54100 18.22800 42.95900
C  -11.66200 20.65800 42.53100
C  -14.21300 16.42400 42.60200
C  -10.04500 13.93900 43.02500
N  -9.73100 19.13700 42.74800
C  -8.34000 19.31200 42.75100
C  -7.94100 20.80100 42.56700
C  -9.28800 21.55200 42.97000
C  -10.33300 20.42600 42.80400
C  -9.23200 22.16200 44.34300
C  -7.55700 21.17200 41.16600
C  -6.24800 21.87800 40.94100
H  -5.24100 21.25800 39.94000
N  -12.71900 18.38300 42.47600
C  -12.77500 19.75900 42.45600
C  -14.09800 20.15900 42.10700
C  -14.90600 18.93900 42.13300
C  -13.97800 17.83900 42.36000
C  -14.41200 21.58000 41.96100
C  -16.39500 18.91600 41.88900
O  -16.97600 19.89400 41.44200
C  -17.19000 17.64400 42.09800
N  -11.95600 15.49700 42.79200
C  -13.31600 15.38600 42.81700
C  -13.76500 14.02300 43.25100
C  -12.43100 13.16500 42.92200
C  -11.36500 14.26800 42.85500
C  -14.29200 13.87000 44.72900
C  -12.39100 12.42800 41.55200
C  -11.93400 10.93200 41.58800
N  -9.14800 16.23300 42.95500
C  -8.94300 14.86100 43.03400
C  -7.48300 14.67900 43.08500
C  -6.89800 15.94300 43.11400
C  -7.94000 16.84600 43.06300
C  -6.70500 13.39800 43.30700
C  -5.64500 16.65800 43.11400
O  -4.52900 16.32800 43.06800
C  -6.10300 18.16200 43.21200
C  -5.78300 18.56500 44.62300
O  -6.25900 18.22300 45.69700
O  -4.72800 19.39300 44.55500
C  -3.97700 19.78600 45.84100
H  -11.98300 21.69800 42.61700
H  -15.23300 16.04000 42.66900
H  -9.88100 12.86000 42.97100
H  -7.14300 21.00200 43.28200
H  -9.48400 22.31800 42.22000
H  -8.26900 21.95900 44.81100
H  -9.89200 21.61700 45.01800
H  -9.37100 23.24300 44.35800
H  -8.23900 21.91600 40.75400
H  -7.77800 20.33400 40.50500
H  -5.69400 22.01500 41.87000
H  -6.45900 22.90600 40.64500
H  -15.27000 21.82200 41.33300
H  -13.54800 22.15900 41.63500
H  -14.69200 21.94900 42.94700
H  -18.27900 17.63900 42.15400
H  -16.76600 17.19200 42.99400
H  -16.85500 16.98900 41.29400
H  -14.60100 13.73200 42.61600
H  -12.30000 12.47100 43.75200
H  -14.40300 14.88200 45.11900
H  -13.61200 13.34800 45.40300
H  -15.26500 13.38100 44.77000
H  -11.69600 12.98600 40.92500
H  -13.34800 12.52800 41.04100
H  -10.90900 10.95200 41.21600
H  -12.61000 10.45600 40.87700
H  -12.06500 10.53400 42.59500
H  -6.13800 13.38300 44.23800
H  -6.03100 13.26700 42.46100
H  -7.35400 12.52200 43.31500
H  -5.47500 18.73100 42.52600
H  -3.95300 20.86300 46.00700
H  -2.96400 19.38800 45.79600
H  -4.56100 19.36700 46.66000

