158

Mg 43.84600 3.46400 47.02800
C  41.94200 6.42400 46.76400
C  40.98500 1.53200 46.66600
C  45.77900 0.69400 47.05800
C  46.72800 5.39800 46.19300
N  41.72500 3.95100 46.64600
C  41.14700 5.26500 46.91700
C  39.61600 5.08900 47.03100
C  39.36100 3.53900 46.83200
C  40.78800 2.94200 46.68700
C  38.60400 2.88100 48.01100
C  38.78200 5.92400 46.01300
C  39.32500 6.29500 44.57800
H  38.76300 5.49200 43.38100
N  43.44500 1.40000 46.92000
C  42.18000 0.80000 46.78100
C  42.31700 -0.58100 46.65100
C  43.66800 -0.96200 46.80500
C  44.38100 0.41200 46.92300
C  41.12800 -1.58000 46.46800
C  44.21800 -2.41200 46.82400
O  43.56100 -3.47100 46.87400
C  45.64200 -2.60300 46.95900
N  45.97200 3.06700 46.62700
C  46.53900 1.87400 46.95000
C  48.10700 1.98500 46.84500
C  48.32600 3.43000 46.37500
C  46.88000 4.00000 46.38700
C  48.64000 1.75800 48.31500
C  49.08400 3.49600 45.03100
C  50.50600 3.92400 45.12400
N  44.33400 5.49000 46.66400
C  45.47800 6.08800 46.25600
C  45.33100 7.51700 46.15500
C  43.96900 7.73300 46.33000
C  43.37400 6.43500 46.65000
C  46.32900 8.60500 45.94200
C  42.93200 8.77000 46.44100
O  42.98900 9.95400 46.30200
C  41.52400 7.94400 46.65500
C  40.82600 8.56800 47.84200
O  41.16100 8.43100 49.02400
O  39.66600 9.18300 47.43500
C  38.72400 9.51800 48.53000
H  40.01200 1.03800 46.63300
H  46.33100 -0.19600 47.36900
H  47.49800 6.04800 45.77300
H  39.38800 5.48200 48.02100
H  38.74500 3.29700 45.96500
H  38.26500 3.47900 48.85700
H  39.31000 2.18700 48.46800
H  37.74300 2.31900 47.64700
H  38.50800 6.81400 46.57900
H  37.85500 5.40200 45.77600
H  40.37600 6.00700 44.55600
H  39.19400 7.36700 44.43300
H  41.20300 -1.87400 45.42100
H  40.20200 -1.06400 46.71900
H  41.16100 -2.51800 47.02200
H  46.13000 -2.21800 47.85500
H  46.17300 -1.95700 46.26100
H  45.89800 -3.62100 46.66700
H  48.22600 1.14700 46.15900
H  48.94200 3.90000 47.14200
H  47.89200 1.67400 49.10400
H  49.37300 2.51800 48.58400
H  49.11100 0.77500 48.33400
H  48.52800 4.16000 44.36800
H  48.98800 2.50300 44.59200
H  50.75700 4.43200 46.05500
H  50.77400 4.63500 44.34200
H  51.03400 2.97700 45.01900
H  46.72200 8.83200 44.95100
H  47.21200 8.29000 46.49900
H  46.08100 9.46000 46.57200
H  40.91000 8.09100 45.76700
H  38.83400 8.68000 49.21900
H  37.69900 9.50500 48.15800
H  39.03600 10.36600 49.13900
Mg 52.74900 23.19700 43.96100
C  49.83100 24.96800 43.17800
C  51.08000 20.38200 44.04500
C  55.68700 21.69000 43.72200
C  54.39900 26.32200 43.64000
N  50.66300 22.69900 43.35800
C  49.65500 23.56300 43.35100
C  48.26900 22.84100 43.42900
C  48.82600 21.47900 44.04300
C  50.28500 21.47400 43.83500
C  48.47600 21.03700 45.51600
C  47.54400 22.71000 42.04900
C  48.12100 22.01800 40.87100
H  47.94600 22.71900 39.49100
N  53.31900 21.32300 43.74900
C  52.47400 20.28500 43.95000
C  53.27000 19.09400 44.04900
C  54.65700 19.40100 44.08900
C  54.62400 20.84000 43.82500
C  52.70300 17.72300 44.06100
C  55.74800 18.34400 44.33000
O  55.49200 17.22700 44.63400
C  57.14900 18.70000 44.04700
N  54.74100 23.94100 43.59100
C  55.81000 23.02400 43.68600
C  57.15100 23.76900 43.97100
C  56.75400 25.28100 43.65000
C  55.18300 25.15500 43.64700
C  57.78900 23.53900 45.41500
C  57.16900 25.89800 42.30200
C  57.81900 27.28600 42.39400
N  52.29700 25.31100 43.72100
C  52.96000 26.45200 43.62700
C  52.14400 27.59900 43.56800
C  50.86400 27.08600 43.29800
C  51.04500 25.67600 43.37800
C  52.61600 29.07500 43.53600
C  49.53900 27.43900 42.98700
O  49.02400 28.51300 42.91800
C  48.86500 26.02100 42.73800
C  48.72100 26.04500 41.23600
O  49.50600 25.63300 40.37900
O  47.48700 26.59600 40.94000
C  47.25000 26.67000 39.50200
H  50.60800 19.40600 44.18200
H  56.60700 21.10400 43.77400
H  54.81700 27.31900 43.48700
H  47.64300 23.39200 44.13000
H  48.40600 20.70100 43.40600
H  49.38700 20.79300 46.06100
H  47.82100 20.16700 45.47400
H  48.01000 21.80300 46.13600
H  47.15800 23.66700 41.69700
H  46.67300 22.16900 42.41800
H  47.74900 20.99500 40.92500
H  49.20400 21.94700 40.98000
H  53.32900 17.02700 43.50400
H  51.67600 17.67900 43.69900
H  52.54200 17.27900 45.04300
H  57.69200 17.75500 44.01100
H  57.45100 19.23000 44.95100
H  57.19500 19.29200 43.13300
H  57.85900 23.36100 43.24900
H  56.98300 25.96800 44.46500
H  58.02000 24.49600 45.88400
H  58.67100 22.89900 45.36800
H  56.91600 23.09500 45.89400
H  56.22100 25.95300 41.76500
H  57.88200 25.18000 41.89700
H  57.24000 28.09700 41.95100
H  58.73700 27.06700 41.85000
H  58.11700 27.56700 43.40400
H  52.02500 29.71500 44.19100
H  52.55600 29.40700 42.50000
H  53.63200 29.17000 43.92000
H  47.90700 25.93600 43.25100
H  46.68400 25.80900 39.14700
H  48.13700 26.75700 38.87500
H  46.57900 27.52800 39.45600

