158

Mg 43.52900 4.42200 46.54100
C  41.42200 7.19500 46.32300
C  40.84100 2.39300 46.04200
C  45.50500 1.82600 45.65600
C  46.27300 6.58700 46.49200
N  41.38200 4.88100 46.14600
C  40.71600 6.00000 46.23100
C  39.22900 5.82600 46.47900
C  39.10600 4.22500 46.59200
C  40.57500 3.77900 46.28100
C  38.54500 3.70100 47.97100
C  38.28300 6.60400 45.43900
C  38.24800 6.23500 43.91900
H  38.99000 7.06100 42.98600
N  43.21700 2.29700 45.89100
C  41.97700 1.70600 45.82900
C  42.10900 0.34800 45.47600
C  43.50400 0.18500 45.16400
C  44.19900 1.46700 45.52900
C  41.02600 -0.59200 45.29900
C  44.11400 -1.10000 44.74200
O  43.44700 -2.10000 44.61600
C  45.58700 -1.20400 44.47900
N  45.59800 4.20800 46.01200
C  46.22100 3.05300 45.93000
C  47.79100 3.17400 45.98000
C  47.91200 4.59400 46.59300
C  46.52200 5.19500 46.31600
C  48.44400 2.03000 46.94100
C  49.14200 5.37200 46.07600
C  50.56100 4.98800 46.58200
N  43.85100 6.47900 46.47700
C  45.03900 7.19400 46.56900
C  44.68800 8.61300 46.58000
C  43.27300 8.63900 46.52100
C  42.85800 7.28500 46.49900
C  45.62800 9.79500 46.45100
C  42.13100 9.50900 46.62700
O  42.16000 10.72500 46.71500
C  40.94400 8.64300 46.61200
C  40.17100 8.82700 47.87700
O  40.45800 8.30500 48.94000
O  39.09800 9.64500 47.71300
C  38.24500 10.13400 48.82000
H  39.94400 1.77100 46.03200
H  46.29200 1.10500 45.42600
H  47.10500 7.26900 46.67900
H  38.88800 6.29100 47.40400
H  38.60200 3.82100 45.71400
H  39.27800 2.99300 48.35900
H  37.59100 3.21800 47.75600
H  38.45700 4.59600 48.58700
H  38.57700 7.64900 45.33800
H  37.25600 6.55400 45.80100
H  37.18700 6.10200 43.71100
H  38.74400 5.26500 43.95100
H  41.20000 -1.38500 44.57200
H  40.08000 -0.12400 45.02600
H  40.75800 -1.04700 46.25300
H  46.09600 -1.04500 45.43000
H  45.87500 -0.43400 43.76400
H  45.67600 -2.22700 44.11200
H  48.28000 3.01100 45.01900
H  48.04000 4.55100 47.67500
H  47.75600 1.20800 47.13700
H  48.75900 2.52400 47.86000
H  49.37300 1.59500 46.57200
H  48.99700 6.38600 46.45100
H  49.11000 5.32800 44.98700
H  50.89300 5.76600 47.26900
H  51.19600 5.15800 45.71300
H  50.62800 3.96100 46.94300
H  45.15200 10.77500 46.46800
H  46.23900 9.73800 45.54900
H  46.26000 9.82500 47.33800
H  40.21700 8.87100 45.83200
H  38.05700 11.20500 48.75200
H  38.64500 9.90800 49.80800
H  37.27100 9.65100 48.74900
Mg 35.28200 2.85200 29.45600
C  32.89500 3.77200 31.96300
C  37.72300 2.74700 32.02500
C  37.35400 1.93100 27.20100
C  32.69700 3.37000 27.16000
N  35.27300 3.27500 31.68700
C  34.16100 3.54300 32.50300
C  34.55400 3.61500 33.95300
C  36.12600 3.69700 33.85200
C  36.40900 3.18700 32.41700
C  36.57100 5.12600 34.14900
C  34.04700 2.29800 34.68900
C  33.96000 2.20200 36.20000
H  34.38100 3.39200 37.08800
N  37.30300 2.46100 29.55700
C  38.12100 2.35800 30.68800
C  39.46000 1.99000 30.26800
C  39.40600 1.71800 28.88100
C  37.97800 2.02800 28.48400
C  40.68500 1.97600 31.19500
C  40.47300 1.34400 27.83000
O  40.25200 1.23700 26.60900
C  41.88700 1.06100 28.13400
N  35.07600 2.84200 27.30400
C  36.06900 2.27500 26.65300
C  35.66700 2.15400 25.22200
C  34.08300 2.42400 25.24000
C  33.89900 2.90600 26.61800
C  36.29400 3.20800 24.29500
C  33.26000 1.17200 24.91700
C  33.55600 -0.13700 25.72500
N  33.29200 3.67800 29.46200
C  32.41700 3.75400 28.47500
C  31.11200 4.09100 28.98900
C  31.23100 4.14500 30.35700
C  32.53500 3.80400 30.61600
C  29.79900 4.29200 28.21500
C  30.50600 4.46300 31.56700
O  29.42300 4.95900 31.75400
C  31.59900 4.11800 32.74400
C  31.79100 5.30300 33.57900
O  32.26300 6.33900 33.25900
O  31.17900 5.01200 34.75300
C  31.30200 6.01300 35.88100
H  38.42800 2.67600 32.85600
H  37.81500 1.30700 26.43200
H  31.87100 3.46100 26.45200
H  34.13500 4.42700 34.54700
H  36.62400 3.13600 34.64300
H  37.17500 5.54200 33.34200
H  37.29800 5.05400 34.95900
H  35.78200 5.76200 34.55000
H  34.61600 1.41100 34.41100
H  33.01500 2.15600 34.36600
H  34.56900 1.33300 36.45000
H  32.93700 1.96600 36.49700
H  41.31700 1.11100 30.99400
H  40.41200 1.91000 32.24800
H  41.31100 2.85400 31.03300
H  42.47400 0.79200 27.25600
H  42.00100 0.36000 28.96000
H  42.38300 1.92300 28.58000
H  35.87300 1.16300 24.81900
H  33.85100 3.20100 24.51100
H  37.34300 3.39500 24.52600
H  35.78200 4.16700 24.37600
H  36.35000 2.86600 23.26200
H  33.46300 0.89100 23.88300
H  32.21900 1.47300 25.03100
H  33.71500 -0.84900 24.91500
H  32.63800 -0.38000 26.25900
H  34.46700 -0.10800 26.32200
H  29.90000 3.86600 27.21700
H  29.47000 5.32900 28.14000
H  28.98800 3.81300 28.76300
H  31.29500 3.26500 33.35200
H  30.29900 6.42700 35.98100
H  32.00900 6.81700 35.67500
H  31.62400 5.50900 36.79200

