158

Mg 1.66400 -1.22200 44.30500
C  5.12600 -0.61500 44.22200
C  1.23700 1.75300 42.58800
C  -1.51700 -2.10800 43.87900
C  2.37000 -4.51700 45.55400
N  3.05700 0.34300 43.53600
C  4.42100 0.39600 43.53800
C  5.04500 1.51400 42.64900
C  3.76200 2.44600 42.49300
C  2.62600 1.45700 42.81000
C  3.67500 3.76800 43.24500
C  5.56700 1.04500 41.28500
C  7.05700 1.37900 41.01400
H  7.39000 1.92400 39.65400
N  0.08100 -0.23700 43.48500
C  0.11700 0.96300 42.83800
C  -1.23400 1.32000 42.40300
C  -2.11100 0.27200 42.78400
C  -1.20900 -0.78300 43.47400
C  -1.56000 2.64700 41.72400
C  -3.59300 0.25800 42.56400
O  -4.10600 1.22100 41.95300
C  -4.41400 -0.81200 43.17300
N  0.61300 -3.02600 44.70800
C  -0.73500 -3.14200 44.45500
C  -1.29300 -4.53800 44.90600
C  0.00500 -5.32800 45.31500
C  1.06200 -4.26500 45.16800
C  -2.42000 -4.60200 46.01600
C  0.27900 -6.55900 44.45700
C  0.86400 -7.74700 45.23800
N  3.38500 -2.31200 44.86000
C  3.51100 -3.60800 45.33600
C  4.87100 -3.85600 45.67500
C  5.56500 -2.67300 45.35800
C  4.60400 -1.75500 44.83800
C  5.36100 -5.17000 46.26400
C  6.85500 -2.04300 45.31300
O  7.92400 -2.48900 45.68500
C  6.61900 -0.70100 44.56300
C  6.88900 0.39500 45.55000
O  6.34300 0.52200 46.68800
O  7.72800 1.41600 44.94400
C  7.78100 2.73100 45.56600
H  1.09100 2.67200 42.01600
H  -2.52800 -2.47800 43.69400
H  2.64800 -5.44300 46.06200
H  5.73400 2.06700 43.28800
H  3.60400 2.67700 41.44000
H  3.53000 4.53300 42.48200
H  4.63100 3.98300 43.72100
H  2.88500 3.86600 43.99000
H  5.05000 1.41500 40.39900
H  5.43200 -0.03400 41.35500
H  7.60900 0.45000 41.15800
H  7.52200 2.11900 41.66500
H  -2.24400 2.46500 40.89500
H  -0.76200 3.24900 41.29100
H  -2.18300 3.25600 42.37900
H  -4.26000 -1.71900 42.58900
H  -5.44000 -0.45200 43.24400
H  -3.98900 -0.92700 44.17000
H  -1.73700 -4.99600 44.02200
H  -0.02700 -5.60600 46.36900
H  -3.37200 -4.81600 45.53000
H  -2.56800 -3.71700 46.63400
H  -2.15700 -5.36700 46.74700
H  0.84600 -6.36500 43.54600
H  -0.64000 -7.00200 44.07400
H  1.42000 -8.34900 44.51900
H  -0.03100 -8.21000 45.65300
H  1.42800 -7.57100 46.15400
H  6.44300 -5.28400 46.20600
H  4.81100 -5.99700 45.81400
H  5.17600 -5.10300 47.33600
H  7.12500 -0.55200 43.60900
H  8.64800 3.34100 45.31100
H  7.64000 2.71800 46.64700
H  6.88800 3.25900 45.23300
Mg -2.02200 33.81600 27.24000
C  -3.56200 32.00500 29.75800
C  -0.51900 35.74200 29.66900
C  -0.76400 35.92300 24.86300
C  -3.56500 32.01700 24.76400
N  -2.11400 33.82300 29.46500
C  -2.74200 32.96200 30.32700
C  -2.61200 33.31400 31.74800
C  -1.77900 34.67600 31.63600
C  -1.34700 34.73600 30.15200
C  -2.53400 35.90600 32.16100
C  -1.98800 32.18400 32.61400
C  -2.71000 31.84900 33.93200
H  -1.92500 32.14200 35.18700
N  -0.68200 35.49700 27.30100
C  -0.11400 36.10400 28.39600
C  0.70200 37.24400 27.95300
C  0.68000 37.26500 26.54400
C  -0.32500 36.22100 26.18800
C  1.47400 38.18600 28.94400
C  1.42200 38.10200 25.52700
O  1.22200 38.13900 24.28200
C  2.47100 39.20300 26.08500
N  -2.21300 33.94500 25.17300
C  -1.57700 34.90700 24.42000
C  -1.79800 34.68300 22.90600
C  -2.52100 33.30600 22.89800
C  -2.78300 33.06500 24.37600
C  -2.73600 35.82100 22.25600
C  -1.71000 32.14900 22.18800
C  -2.51500 30.92400 21.69800
N  -3.43800 32.40100 27.22400
C  -3.91700 31.70800 26.09800
C  -4.85600 30.71600 26.65500
C  -4.72100 30.72600 28.10400
C  -3.76600 31.76700 28.36800
C  -5.72400 29.80800 25.86100
C  -5.04800 30.09400 29.32600
O  -5.80500 29.12500 29.50200
C  -4.28300 30.84300 30.45300
C  -5.31200 31.31500 31.38900
O  -6.04700 32.29300 31.28500
O  -5.44800 30.38300 32.37400
C  -6.25100 30.81100 33.44700
H  -0.19600 36.50000 30.38700
H  -0.34600 36.57400 24.09300
H  -3.96000 31.30600 24.03500
H  -3.54400 33.58300 32.24600
H  -0.94200 34.60700 32.33000
H  -2.52000 36.75600 31.47900
H  -1.95600 36.19300 33.03900
H  -3.56700 35.66800 32.41600
H  -1.04100 32.66100 32.86800
H  -1.75100 31.24400 32.11600
H  -2.93900 30.78500 33.86000
H  -3.60600 32.46900 33.93100
H  2.52200 37.96200 28.74700
H  1.24800 37.87700 29.96500
H  1.22200 39.24000 28.83000
H  3.19400 38.61600 26.65200
H  2.01600 40.03000 26.63000
H  2.95000 39.59200 25.18700
H  -0.80800 34.71500 22.45100
H  -3.44800 33.36500 22.32800
H  -2.89500 36.49100 23.10200
H  -3.69600 35.53900 21.82300
H  -2.23200 36.31500 21.42600
H  -0.97600 31.82300 22.92600
H  -1.13500 32.53100 21.34400
H  -3.56900 31.13600 21.51600
H  -2.50100 30.12700 22.44200
H  -2.16500 30.48300 20.76400
H  -5.10900 28.95900 25.56300
H  -5.88800 30.29600 24.90000
H  -6.61200 29.45900 26.38900
H  -3.62100 30.16200 30.98700
H  -6.19400 30.04700 34.22200
H  -7.31500 30.83100 33.21200
H  -5.89700 31.79300 33.76100

