158

Mg 47.62800 34.84100 28.33100
C  46.15000 33.02500 30.85900
C  47.70500 37.64900 30.60700
C  48.54600 36.87800 25.79000
C  46.80100 32.37400 26.01300
N  46.86100 35.30200 30.51000
C  46.51600 34.31600 31.36400
C  46.40500 34.87200 32.77100
C  46.61800 36.38700 32.62400
C  47.14200 36.49200 31.16800
C  45.28200 37.19800 32.79100
C  47.51000 34.25100 33.72800
C  47.11300 34.05900 35.25400
H  48.00400 34.83800 36.18100
N  48.17200 36.86100 28.28400
C  48.21600 37.82900 29.32600
C  48.76000 39.07700 28.79700
C  49.07800 38.77800 27.41400
C  48.56000 37.41200 27.10300
C  48.85500 40.33600 29.67700
C  49.67300 39.71300 26.36300
O  49.97700 39.39800 25.25300
C  50.06000 41.19800 26.73800
N  47.69100 34.64700 26.17800
C  48.10900 35.62300 25.37300
C  48.10200 35.18000 23.86900
C  47.54600 33.71500 23.94300
C  47.41200 33.49100 25.51400
C  47.12600 36.12800 23.00400
C  48.39800 32.59100 23.18700
C  49.64300 32.04500 23.91000
N  46.85600 32.98200 28.43200
C  46.49800 32.14800 27.39600
C  45.77100 30.97500 27.94500
C  45.70900 31.28400 29.35300
C  46.28500 32.55600 29.51600
C  45.24400 29.77300 27.19800
C  45.12800 30.79400 30.54700
O  44.60500 29.71000 30.81200
C  45.23300 32.04100 31.56300
C  45.77500 31.62800 32.87200
O  46.82700 31.03500 33.05300
O  44.68700 31.77100 33.76400
C  44.97800 31.25600 35.16300
H  47.82400 38.46100 31.32700
H  48.86000 37.44600 24.91200
H  46.42800 31.62100 25.31600
H  45.38500 34.66900 33.09600
H  47.23100 36.64700 33.48600
H  45.01300 37.34000 33.83800
H  44.43400 36.66100 32.36600
H  45.42300 38.20500 32.39800
H  48.40600 34.87100 33.70600
H  47.85700 33.34200 33.23700
H  47.12900 32.99200 35.47700
H  46.09100 34.27100 35.56900
H  49.59200 40.33100 30.47900
H  47.89500 40.44200 30.18100
H  49.09900 41.30000 29.23000
H  50.56000 41.69600 25.90700
H  50.90200 41.08300 27.42000
H  49.25300 41.77700 27.18700
H  49.10800 35.33300 23.47900
H  46.58700 33.61500 23.43500
H  47.10900 37.00200 23.65600
H  46.14900 35.67100 22.84600
H  47.70800 36.23400 22.08900
H  48.72900 33.00200 22.23300
H  47.76200 31.71000 23.09700
H  49.58000 31.08400 24.42000
H  49.81800 32.76600 24.70800
H  50.53800 31.98700 23.29000
H  44.80700 30.06200 26.24200
H  44.46500 29.42200 27.87600
H  45.97700 28.97100 27.10700
H  44.20000 32.37700 31.65500
H  44.70600 30.21100 35.31400
H  44.56400 31.98200 35.86300
H  46.03600 31.24000 35.42700
Mg 8.70300 47.51700 27.90900
C  7.10500 46.99500 30.83500
C  11.59600 47.87000 29.71700
C  10.28300 48.63900 25.13300
C  5.69800 47.74700 26.20800
N  9.26000 47.59100 30.09600
C  8.48200 47.21100 31.10000
C  9.21500 47.25700 32.43100
C  10.60400 47.95600 32.05600
C  10.53000 47.74400 30.53500
C  10.78300 49.41000 32.50400
C  9.23500 45.96500 33.24100
C  8.92400 46.02800 34.77400
H  9.46300 44.93600 35.68300
N  10.73800 47.89400 27.45000
C  11.78400 48.00600 28.27600
C  13.02300 48.28500 27.53300
C  12.59100 48.51100 26.20300
C  11.15000 48.37600 26.22900
C  14.43100 48.28300 28.11800
C  13.39900 48.83100 24.91800
O  12.89000 48.85600 23.78800
C  14.83600 48.84800 24.88300
N  8.06700 48.05700 25.94300
C  8.93300 48.54700 25.00300
C  8.20000 48.98700 23.73100
C  6.75000 48.38600 24.04100
C  6.83100 47.98200 25.49500
C  8.30200 50.50700 23.51000
C  6.29600 47.17000 23.07300
C  6.27900 47.54500 21.56900
N  6.71800 47.56900 28.36600
C  5.61200 47.54000 27.58000
C  4.45700 47.28800 28.42300
C  4.96400 47.00000 29.66200
C  6.36100 47.20700 29.58800
C  3.08700 47.18400 27.88400
C  4.66100 46.70500 31.04700
O  3.55100 46.54600 31.55100
C  6.08200 46.59400 31.81000
C  6.18200 45.31100 32.45700
O  6.59100 44.27600 31.96500
O  5.76400 45.34300 33.78500
C  5.74600 43.98200 34.46200
H  12.59600 48.05500 30.11400
H  10.70100 49.12200 24.24700
H  4.76100 47.75400 25.64800
H  8.59700 48.02100 32.90300
H  11.40700 47.30300 32.39800
H  10.04700 49.55300 33.29600
H  10.53400 50.12100 31.71700
H  11.76400 49.54000 32.96100
H  10.26200 45.61500 33.14200
H  8.51800 45.28700 32.77800
H  7.85300 45.93700 34.95500
H  9.25700 47.02200 35.07000
H  14.36700 48.05100 29.18200
H  14.91500 49.25800 28.07400
H  15.07100 47.62500 27.53100
H  15.11000 49.70300 25.50100
H  15.13700 49.04600 23.85400
H  15.20900 47.89200 25.24900
H  8.58900 48.42800 22.88000
H  6.01000 49.18300 23.97000
H  7.35300 50.83300 23.93600
H  8.27600 50.63800 22.42800
H  9.22900 50.91600 23.91200
H  5.33600 46.80900 23.44200
H  6.97800 46.33900 23.25500
H  6.54300 48.58100 21.36000
H  5.26300 47.46100 21.18200
H  6.91700 46.86500 21.00400
H  2.67300 48.18800 27.79400
H  2.52500 46.71700 28.69400
H  3.08800 46.68300 26.91600
H  6.01600 47.30000 32.63700
H  5.89500 44.12400 35.53200
H  6.60300 43.42100 34.08900
H  4.80300 43.50300 34.19700

