158

Mg 6.16100 53.94900 40.95800
C  5.72400 50.46400 40.85400
C  9.41100 53.50600 39.95900
C  6.26100 57.28200 40.27300
C  2.67900 54.09600 41.44900
N  7.38000 52.28900 40.37900
C  6.97800 50.95900 40.43900
C  8.12100 50.05700 40.03100
C  9.39700 50.92000 40.25800
C  8.68000 52.33200 40.12100
C  10.12400 50.66800 41.62200
C  7.96700 49.42500 38.66300
C  7.55900 50.41300 37.47500
H  6.36300 49.99900 36.49000
N  7.67100 55.19600 40.28100
C  8.95900 54.85800 40.03600
C  9.68800 56.07200 39.68700
C  8.83800 57.20300 39.84100
C  7.52300 56.61300 40.13100
C  11.14900 56.00400 39.38200
C  9.25200 58.75000 39.75400
O  10.39100 59.03600 39.59400
C  8.23700 59.80300 40.06000
N  4.68900 55.40700 40.79500
C  4.99200 56.72100 40.54300
C  3.73200 57.63500 40.40000
C  2.60300 56.62200 40.78300
C  3.32800 55.27100 40.96100
C  3.69400 58.80000 41.40300
C  1.36900 56.70400 39.90200
C  0.00500 56.70800 40.69600
N  4.53800 52.60700 41.40600
C  3.21500 52.84100 41.65600
C  2.51800 51.56700 41.96200
C  3.51200 50.62400 41.65300
C  4.68700 51.28600 41.35100
C  1.08100 51.40300 42.33600
C  3.72700 49.22300 41.59800
O  3.01100 48.30200 41.92300
C  5.16500 49.03900 40.94600
C  4.89600 48.33500 39.65600
O  4.22800 48.79600 38.74000
O  5.32100 47.02300 39.71400
C  4.92000 46.25200 38.56400
H  10.47100 53.31200 39.78800
H  6.28500 58.37000 40.17900
H  1.61400 54.22000 41.65400
H  8.13900 49.23400 40.74600
H  10.13200 50.79000 39.46400
H  11.19900 50.70900 41.44500
H  9.95100 49.62200 41.87500
H  9.74100 51.32700 42.40100
H  7.22900 48.63400 38.79600
H  8.94400 49.01800 38.40000
H  8.47100 50.67300 36.93700
H  7.08100 51.31300 37.86100
H  11.63200 55.41200 40.15900
H  11.81000 56.87100 39.37700
H  11.38700 55.56300 38.41400
H  7.46900 59.95000 39.30200
H  8.65300 60.79100 40.25800
H  7.79600 59.54600 41.02400
H  3.69600 58.08000 39.40600
H  2.26000 56.78200 41.80500
H  4.04800 59.66900 40.85000
H  4.44000 58.63100 42.18000
H  2.70600 58.94000 41.84000
H  1.38600 55.83000 39.25100
H  1.36500 57.55200 39.21600
H  -0.59000 57.55100 40.34400
H  0.00600 56.60000 41.78100
H  -0.36100 55.74100 40.35300
H  1.08600 50.54200 43.00500
H  0.54800 51.11600 41.43000
H  0.67400 52.26800 42.85900
H  5.77300 48.49700 41.67000
H  5.27100 46.75000 37.66000
H  3.84200 46.29300 38.40800
H  5.33300 45.25300 38.70400
Mg -10.88000 17.11900 43.31000
C  -7.40900 17.75300 43.23500
C  -11.45300 20.42800 42.52400
C  -14.03400 16.24700 42.60900
C  -9.98300 13.66700 43.50300
N  -9.55300 18.80700 43.00600
C  -8.19600 18.89000 43.07900
C  -7.67900 20.32200 42.70600
C  -8.93400 21.12700 42.99800
C  -10.10700 20.07900 42.83500
C  -9.01500 21.87100 44.37600
C  -7.17500 20.41400 41.18900
C  -5.99500 21.35900 40.82600
H  -4.89000 20.55500 40.28500
N  -12.57100 18.20900 42.61500
C  -12.57000 19.57700 42.31900
C  -13.90500 19.99400 41.97800
C  -14.69300 18.75700 41.93900
C  -13.74000 17.63800 42.38000
C  -14.31200 21.35300 41.59700
C  -16.17900 18.73600 41.47900
O  -16.73900 19.77800 41.21100
C  -17.00000 17.42500 41.27700
N  -11.84000 15.20600 42.97900
C  -13.16600 15.17500 42.87200
C  -13.66800 13.71600 43.06600
C  -12.34600 12.88700 42.94900
C  -11.35300 13.95400 43.21700
C  -14.46700 13.51000 44.38800
C  -12.17800 12.02100 41.67300
C  -12.15000 12.84600 40.30300
N  -9.08700 15.92400 43.54700
C  -8.89700 14.47700 43.57500
C  -7.49600 14.17200 43.71800
C  -6.87500 15.47900 43.67400
C  -7.88400 16.45400 43.44700
C  -6.89300 12.84200 44.07100
C  -5.61800 16.19400 43.79900
O  -4.54400 15.74200 44.06800
C  -5.84000 17.71900 43.44600
C  -5.56400 18.52700 44.69800
O  -5.95200 18.33200 45.83700
O  -4.69800 19.53800 44.33500
C  -4.35600 20.34900 45.46700
H  -11.62300 21.49700 42.67100
H  -15.08000 15.99700 42.42200
H  -9.63000 12.63400 43.56000
H  -6.93600 20.67300 43.42200
H  -9.21700 21.85300 42.23700
H  -9.71900 21.40600 45.06600
H  -9.20700 22.93400 44.23200
H  -8.05400 21.77700 44.88100
H  -7.90600 20.76700 40.46100
H  -6.95000 19.38400 40.91400
H  -5.67300 21.89100 41.72100
H  -6.34700 22.12200 40.13200
H  -14.52700 21.48100 40.53600
H  -13.53100 22.04200 41.91900
H  -15.18800 21.57900 42.20500
H  -17.97800 17.54400 40.80900
H  -17.22900 17.12200 42.29900
H  -16.45300 16.64900 40.74100
H  -14.18100 13.31400 42.19300
H  -12.28800 12.24700 43.83000
H  -14.95700 14.42100 44.73100
H  -13.86000 13.07300 45.18200
H  -15.12100 12.69200 44.08700
H  -12.98900 11.29300 41.71300
H  -11.28100 11.40100 41.66100
H  -12.76800 12.41600 39.51500
H  -11.09600 12.76100 40.03800
H  -12.52200 13.86500 40.41300
H  -5.86400 12.80500 44.42800
H  -6.95200 12.24900 43.15800
H  -7.46400 12.36600 44.86800
H  -5.32000 18.11100 42.57200
H  -5.20000 20.85000 45.94200
H  -3.60200 21.09800 45.22500
H  -4.02500 19.67400 46.25700

