158

Mg 35.24700 2.53500 29.63300
C  32.94300 3.59000 32.10500
C  37.55800 2.42900 32.14000
C  37.52000 2.38400 27.26700
C  32.62900 2.62600 27.27100
N  35.24000 3.03800 31.90000
C  34.18800 3.35600 32.70400
C  34.61100 3.31800 34.24100
C  36.17700 3.07200 34.13700
C  36.31200 2.77000 32.63500
C  37.19500 4.24500 34.65100
C  33.84700 2.16300 34.96900
C  33.71400 2.38800 36.39300
H  34.51000 3.60500 37.00700
N  37.20900 2.28100 29.66600
C  38.04500 2.27500 30.81900
C  39.45500 2.03900 30.37400
C  39.37100 2.06300 28.96200
C  37.99300 2.23300 28.56900
C  40.65200 1.71900 31.30200
C  40.52600 1.84300 28.02800
O  40.39400 1.78600 26.81300
C  42.00200 1.84700 28.52900
N  35.06000 2.32700 27.55200
C  36.15300 2.25700 26.80000
C  35.69800 2.29100 25.31800
C  34.16500 1.91200 25.40700
C  33.92900 2.29300 26.82100
C  35.91400 3.71700 24.61100
C  33.85600 0.44900 25.03800
C  32.66800 -0.22000 25.73900
N  33.24600 2.97300 29.59300
C  32.31500 3.01500 28.59600
C  31.01900 3.52000 29.15800
C  31.24500 3.72600 30.48900
C  32.59600 3.34800 30.77700
C  29.72000 3.67600 28.43000
C  30.62100 4.13300 31.81700
O  29.47500 4.51800 32.09200
C  31.66100 3.98100 32.88600
C  31.85600 5.21700 33.65600
O  32.33000 6.24400 33.28000
O  31.24700 5.07100 34.88200
C  31.34100 6.20300 35.81400
H  38.31000 2.42600 32.93200
H  38.25700 2.31600 26.46400
H  31.71800 2.64200 26.67000
H  34.38400 4.32900 34.58100
H  36.50200 2.24600 34.76900
H  37.40400 4.78800 33.73000
H  38.14100 3.79700 34.95500
H  36.78400 4.87900 35.43600
H  34.40700 1.23000 34.91000
H  32.89200 1.96800 34.48000
H  34.06700 1.49200 36.90300
H  32.65700 2.49000 36.63800
H  40.43100 1.71000 32.37000
H  41.41700 2.45800 31.06400
H  41.11500 0.78300 30.99000
H  42.33500 2.71400 29.09900
H  42.67400 1.99400 27.68300
H  42.28900 0.89700 28.97900
H  36.17800 1.47400 24.77800
H  33.61100 2.64900 24.82600
H  36.40100 3.56900 23.64700
H  36.63600 4.34500 25.13200
H  34.98800 4.29000 24.55900
H  34.73100 -0.10800 25.37400
H  33.65400 0.41800 23.96800
H  32.07400 0.60300 26.13600
H  33.04500 -0.99000 26.41100
H  32.05000 -0.81100 25.06300
H  29.78300 3.57200 27.34700
H  29.38700 4.70200 28.58600
H  28.93200 3.01900 28.79700
H  31.34200 3.20900 33.58600
H  32.38000 6.53300 35.83900
H  31.01500 6.02400 36.83800
H  30.86100 7.09500 35.41100
Mg 0.78500 42.57200 26.62900
C  2.72800 42.87200 29.60900
C  -1.76200 41.42400 28.68900
C  -0.81500 41.57500 23.89600
C  3.51000 43.58800 24.80800
N  0.55400 42.31700 28.88500
C  1.40500 42.54500 29.91800
C  0.83600 42.34300 31.34000
C  -0.51600 41.62700 30.94600
C  -0.59900 41.79800 29.43400
C  -0.68400 40.09500 31.48400
C  0.57300 43.66700 32.14400
C  1.01800 43.73700 33.62400
H  0.64400 42.52200 34.48600
N  -0.98800 41.71000 26.27500
C  -1.97700 41.37800 27.27300
C  -3.12100 40.87000 26.63400
C  -2.86700 40.87000 25.22300
C  -1.46200 41.33300 25.06200
C  -4.27100 40.39800 27.46500
C  -3.85800 40.47700 24.09100
O  -3.56800 40.39800 22.88300
C  -5.24600 40.19000 24.44300
N  1.32500 42.57700 24.65700
C  0.50100 42.11900 23.70100
C  1.20400 42.25500 22.27900
C  2.46500 43.08000 22.57900
C  2.43800 43.16600 24.03000
C  1.54600 40.92400 21.59000
C  2.49700 44.56300 21.98600
C  1.46200 45.57800 22.47300
N  2.74400 43.14400 27.10100
C  3.71400 43.49600 26.23100
C  4.93000 43.76400 26.98900
C  4.61100 43.51300 28.36900
C  3.30500 43.13700 28.32100
C  6.21400 44.14600 26.31800
C  5.10800 43.43400 29.67200
O  6.27300 43.53900 30.06700
C  3.83500 43.11900 30.57900
C  4.22200 41.84400 31.22900
O  4.59300 40.88100 30.60500
O  4.02200 41.89500 32.62300
C  4.24800 40.65900 33.42500
H  -2.68600 41.24900 29.24300
H  -1.25700 41.32200 22.93000
H  4.33700 44.05200 24.26700
H  1.48900 41.76600 31.99400
H  -1.34400 42.17400 31.39600
H  -1.02300 39.35900 30.75500
H  -1.24900 39.98600 32.40900
H  0.31800 39.71500 31.68600
H  -0.44700 44.01900 31.99000
H  1.20100 44.38700 31.61900
H  0.59700 44.55600 34.20700
H  2.10500 43.73300 33.55500
H  -3.98900 39.58100 28.12900
H  -5.19000 40.23700 26.90300
H  -4.56900 41.21400 28.12300
H  -5.85900 39.99200 23.56400
H  -5.73400 41.00700 24.97600
H  -5.35400 39.29300 25.05300
H  0.53500 42.84100 21.64900
H  3.39100 42.51900 22.45400
H  2.08400 40.36200 22.35400
H  2.11700 41.18700 20.70000
H  0.62400 40.43300 21.27800
H  2.46700 44.57000 20.89600
H  3.49200 44.90400 22.27400
H  0.77900 45.96600 21.71700
H  2.06200 46.36000 22.93800
H  0.84200 45.19500 23.28400
H  6.06100 44.50000 25.29900
H  6.78200 43.21800 26.38400
H  6.72200 44.86400 26.96300
H  3.65800 43.86900 31.35000
H  5.20500 40.58900 33.94100
H  4.18800 39.74600 32.83200
H  3.39900 40.55300 34.09900

