158

Mg 47.59600 16.50400 28.63100
C  45.60400 16.26200 31.57400
C  49.81100 18.33200 30.50800
C  49.23200 17.02700 25.81700
C  45.04500 14.66500 26.89800
N  47.69200 17.20400 30.80100
C  46.76600 17.00300 31.78800
C  47.18500 17.60700 33.12300
C  48.41500 18.53500 32.74500
C  48.74300 17.95900 31.27500
C  48.17400 20.09900 32.75400
C  47.36900 16.47800 34.20300
C  46.83100 16.82400 35.57200
H  46.65200 18.34100 35.92500
N  49.33300 17.46300 28.25200
C  50.15100 18.16400 29.07500
C  51.40300 18.53900 28.43100
C  51.21800 18.16200 27.06200
C  49.87200 17.58000 26.96800
C  52.53400 19.22000 29.20000
C  52.24100 18.17000 25.95800
O  52.01000 17.83700 24.83200
C  53.66600 18.59000 26.27900
N  47.21600 15.87900 26.64100
C  48.09900 16.21800 25.66500
C  47.64100 15.68300 24.33900
C  46.26900 14.89900 24.66500
C  46.13300 15.16000 26.14300
C  47.29500 16.74200 23.27700
C  46.23100 13.35900 24.16600
C  45.08100 12.94200 23.21500
N  45.68800 15.61600 29.13700
C  44.83100 14.90400 28.29200
C  43.61600 14.67900 29.00200
C  43.85900 15.13300 30.33000
C  45.17100 15.71600 30.33400
C  42.33900 14.07600 28.44300
C  43.32700 15.33200 31.65600
O  42.25100 14.87300 32.10800
C  44.39500 16.04000 32.49900
C  43.74600 17.22400 33.04100
O  43.73300 18.30800 32.44000
O  43.04800 16.93600 34.18700
C  42.11100 17.91100 34.74500
H  50.48200 18.94000 31.11800
H  49.68100 17.26300 24.85000
H  44.29200 14.14900 26.29900
H  46.36100 18.25600 33.41800
H  49.27900 18.30100 33.36800
H  47.25500 20.50900 33.17200
H  48.26300 20.47800 31.73600
H  48.98700 20.45900 33.38600
H  48.43800 16.32200 34.34300
H  46.88500 15.54500 33.91500
H  47.47700 16.43000 36.35600
H  45.79800 16.48900 35.65600
H  52.15200 19.87500 29.98300
H  53.03400 19.82500 28.44400
H  53.31600 18.56900 29.59200
H  54.17000 18.14600 27.13800
H  53.64200 19.67900 26.32100
H  54.27000 18.29300 25.42200
H  48.44900 15.08600 23.91600
H  45.39400 15.45900 24.33500
H  47.70400 17.67800 23.66000
H  46.25200 16.88700 22.99800
H  47.87700 16.42600 22.41100
H  46.08500 12.65700 24.98700
H  47.24000 13.32900 23.75600
H  45.72800 12.72300 22.36600
H  44.34400 13.71700 23.00000
H  44.59600 12.04900 23.60900
H  42.18600 13.05900 28.80600
H  42.37400 13.99100 27.35700
H  41.45900 14.68600 28.64400
H  44.67100 15.37400 33.31600
H  42.55500 18.90700 34.74000
H  41.69800 17.71500 35.73400
H  41.32700 17.97300 33.99000
Mg 47.56200 25.18600 28.37700
C  48.49700 27.53000 30.79200
C  46.68800 23.05500 31.01200
C  46.96400 22.86600 26.16300
C  48.68800 27.26400 25.87300
N  47.56500 25.36300 30.57700
C  47.96300 26.38900 31.34000
C  47.67400 26.22200 32.83500
C  47.10300 24.72800 32.85600
C  47.10800 24.36600 31.35200
C  47.87700 23.78000 33.70800
C  46.78500 27.29400 33.45900
C  46.02000 26.83200 34.68200
H  45.88100 27.80500 35.88000
N  46.88600 23.29700 28.53800
C  46.55700 22.61900 29.64800
C  45.98300 21.32600 29.29100
C  46.15900 21.16200 27.88100
C  46.66800 22.48100 27.47400
C  45.38100 20.35400 30.33300
C  45.85800 19.91800 27.06600
O  46.14700 19.84400 25.86100
C  45.30200 18.70900 27.62800
N  47.76900 25.12100 26.25700
C  47.38400 24.04900 25.56900
C  47.80900 24.24300 24.07500
C  48.02100 25.80200 23.93200
C  48.10500 26.13400 25.44800
C  49.07900 23.36200 23.87000
C  46.97400 26.54800 23.07800
C  47.10300 26.63400 21.51200
N  48.36500 27.04300 28.33900
C  48.84700 27.70600 27.23100
C  49.48300 28.84100 27.73600
C  49.39400 28.86500 29.13000
C  48.65600 27.74600 29.40800
C  50.21800 29.83800 26.87600
C  49.67100 29.56800 30.35900
O  50.23400 30.67500 30.53700
C  49.09800 28.68100 31.51600
C  50.35300 28.21200 32.23300
O  51.12100 27.34400 31.86600
O  50.49700 28.86600 33.41100
C  51.58800 28.50800 34.30400
H  46.35700 22.54000 31.91600
H  46.88600 22.07400 25.41500
H  48.90800 27.96500 25.06600
H  48.68100 26.33900 33.23500
H  46.05300 24.70100 33.14700
H  48.25800 22.94100 33.12500
H  47.25500 23.40400 34.52000
H  48.70900 24.27600 34.20700
H  46.04600 27.64900 32.74100
H  47.39000 28.15300 33.74900
H  46.45500 25.93600 35.12400
H  44.97100 26.67900 34.43000
H  45.91300 19.40300 30.31600
H  44.32300 20.22400 30.10500
H  45.44300 20.77900 31.33500
H  45.75000 18.26000 28.51400
H  45.35300 17.95500 26.84200
H  44.29200 19.09800 27.75400
H  47.05400 23.91300 23.36200
H  48.99900 26.09200 23.54900
H  49.99400 23.94000 23.74000
H  48.82400 22.76300 22.99600
H  49.37400 22.69400 24.67900
H  47.02200 27.55100 23.50100
H  46.00400 26.19100 23.42500
H  47.79500 25.89800 21.10300
H  47.41200 27.66800 21.35800
H  46.17000 26.29000 21.06500
H  49.60400 30.73600 26.80400
H  50.45700 29.53800 25.85600
H  51.17400 30.05600 27.35200
H  48.28300 29.17500 32.04500
H  51.24200 27.60700 34.81000
H  51.64100 29.32400 35.02500
H  52.56300 28.32200 33.85300

