158

Mg 8.27700 3.72800 27.95000
C  9.97900 2.33600 30.58000
C  6.71700 5.87300 30.07300
C  6.57000 4.87900 25.27000
C  9.97900 1.50700 25.88400
N  8.10800 3.94800 30.08100
C  9.00800 3.25900 30.96500
C  9.01300 3.86300 32.35900
C  7.86000 4.92200 32.22100
C  7.50100 4.92600 30.72000
C  6.57500 4.73300 33.16900
C  10.36200 4.50800 32.83200
C  11.14000 3.81300 33.97600
H  11.22100 4.57900 35.30100
N  6.83100 5.18300 27.69700
C  6.30000 5.99700 28.67300
C  5.27300 6.79700 28.03400
C  5.23100 6.58000 26.65200
C  6.25100 5.44600 26.47100
C  4.46500 7.81600 28.89700
C  4.36000 7.21400 25.51800
O  4.53400 6.89000 24.34200
C  3.41400 8.34400 25.81200
N  8.28500 3.23900 25.88900
C  7.50200 3.89200 24.97000
C  7.86200 3.57600 23.50900
C  9.04800 2.56700 23.76600
C  9.05200 2.37500 25.29400
C  6.66200 3.00400 22.70400
C  10.44400 2.98400 23.09500
C  11.14600 1.96200 22.08100
N  9.58900 2.13300 28.16500
C  10.15000 1.29900 27.21500
C  11.09300 0.41000 27.85400
C  11.06100 0.80900 29.20600
C  10.12500 1.85700 29.33600
C  11.91700 -0.67800 27.23400
C  11.55800 0.45800 30.48400
O  12.37800 -0.38900 30.73800
C  10.88400 1.40400 31.50100
C  10.08900 0.61800 32.54300
O  8.92500 0.21200 32.49800
O  10.97600 0.37000 33.54600
C  10.34100 -0.20500 34.69400
H  6.17200 6.51200 30.76900
H  6.07900 5.22900 24.36000
H  10.46600 0.89900 25.11800
H  8.69400 3.16600 33.13400
H  8.29000 5.90000 32.43900
H  5.69500 4.63400 32.53400
H  6.57700 5.53800 33.90300
H  6.54300 3.86900 33.83300
H  10.13400 5.52800 33.14200
H  11.02300 4.50000 31.96500
H  12.15100 3.48400 33.73600
H  10.63600 2.87800 34.21900
H  4.74300 7.68600 29.94300
H  3.44600 7.50600 28.66900
H  4.73400 8.81700 28.55900
H  2.66400 8.19300 26.58900
H  2.97300 8.80400 24.92900
H  4.07800 9.14600 26.13400
H  8.14700 4.58500 23.21200
H  8.90400 1.53600 23.44400
H  5.79700 2.96700 23.36700
H  6.80600 1.95800 22.43500
H  6.55200 3.61100 21.80500
H  11.05600 3.21500 23.96700
H  10.26900 3.94900 22.62000
H  11.08600 2.37000 21.07200
H  10.65100 0.99300 22.02400
H  12.21200 1.90800 22.30000
H  12.30400 -0.18800 26.34000
H  11.46900 -1.64000 26.98800
H  12.71000 -0.88100 27.95400
H  11.71600 1.98600 31.89700
H  9.65600 -0.99400 34.38400
H  9.79800 0.57000 35.23600
H  11.11000 -0.55500 35.38200
Mg 36.50400 49.29500 26.21500
C  37.23100 47.31600 29.15900
C  35.22800 51.70300 28.28700
C  35.70800 51.02500 23.52400
C  37.35500 46.47900 24.22600
N  36.30100 49.41500 28.52200
C  36.78200 48.59300 29.46600
C  36.65600 49.18700 30.83200
C  35.86900 50.56100 30.55800
C  35.71600 50.58600 29.02900
C  34.54000 50.86400 31.30000
C  38.09100 49.51600 31.56300
C  38.29500 49.33800 33.15700
H  36.95000 49.39400 33.94000
N  35.54400 51.10900 25.95000
C  35.14000 51.98200 26.93200
C  34.58200 53.22900 26.27300
C  34.65500 52.99800 24.85400
C  35.34500 51.68700 24.68600
C  33.91700 54.31700 27.00500
C  34.27100 53.83500 23.69400
O  34.46000 53.55900 22.54100
C  33.46300 55.02400 23.94500
N  36.59200 48.83000 24.15000
C  36.26200 49.74300 23.23200
C  36.56900 49.28000 21.79600
C  37.04800 47.79700 22.01900
C  37.06100 47.66000 23.54500
C  35.36400 49.40900 20.78200
C  38.39300 47.44200 21.37100
C  38.41200 47.22100 19.80600
N  37.10300 47.31200 26.53600
C  37.43900 46.32400 25.63400
C  37.91400 45.18600 26.30400
C  37.89800 45.52400 27.69900
C  37.35600 46.77500 27.82900
C  38.19500 43.84100 25.70200
C  38.22100 45.00600 29.01300
O  38.66400 43.88300 29.34700
C  37.78000 46.18700 29.98200
C  36.84500 45.65100 30.94900
O  35.85200 45.00800 30.63500
O  37.30300 45.89600 32.20000
C  36.89500 45.01700 33.31300
H  34.77800 52.43000 28.96600
H  35.61500 51.57900 22.58800
H  37.78300 45.61800 23.70800
H  36.00300 48.52600 31.40400
H  36.52700 51.41900 30.69300
H  33.73300 51.11000 30.61000
H  34.66400 51.71600 31.96800
H  34.19200 49.97000 31.81900
H  38.51800 50.49400 31.33900
H  38.81500 48.77000 31.23300
H  38.76100 50.28300 33.43800
H  38.85800 48.45000 33.44400
H  33.91100 55.24900 26.43900
H  34.39400 54.49700 27.96800
H  32.87000 54.08200 27.19500
H  32.65900 54.75100 24.62800
H  33.00800 55.38800 23.02400
H  34.09700 55.82000 24.33600
H  37.45900 49.85900 21.55300
H  36.28600 47.09100 21.68700
H  34.47400 49.81500 21.26200
H  35.11300 48.45700 20.31300
H  35.76900 50.00600 19.96500
H  38.84700 46.57100 21.84600
H  39.03400 48.31400 21.49500
H  37.46600 46.73700 19.56400
H  39.29800 46.63800 19.55400
H  38.45800 48.21500 19.36100
H  39.18500 43.54300 26.04800
H  38.15400 43.74300 24.61700
H  37.41900 43.24400 26.18000
H  38.65500 46.38300 30.60200
H  37.75800 44.49200 33.72200
H  36.25100 44.23200 32.91600
H  36.39600 45.44600 34.18200

