158

Mg 36.63600 50.50300 25.32100
C  36.41000 48.68600 28.30700
C  35.39900 53.27600 26.96600
C  36.46800 52.07300 22.32800
C  37.16400 47.40600 23.61600
N  35.96200 50.88500 27.43200
C  36.11000 50.02100 28.52200
C  35.80900 50.76000 29.81400
C  35.26300 52.19100 29.33500
C  35.59000 52.13400 27.83400
C  33.83900 52.60900 29.69100
C  37.12900 50.79700 30.64200
C  36.94100 50.55200 32.13800
H  35.51400 50.46200 32.77000
N  36.05300 52.41200 24.68300
C  35.64000 53.42900 25.61400
C  35.50800 54.62900 24.85800
C  35.65500 54.31100 23.40000
C  36.04900 52.86200 23.36700
C  35.22200 55.91200 25.57200
C  35.63900 55.16800 22.07800
O  35.88400 54.77500 20.97000
C  35.29000 56.61100 22.11100
N  36.67800 49.85600 23.31600
C  36.73000 50.72200 22.24700
C  37.19500 50.05900 20.92200
C  37.63700 48.60800 21.46500
C  37.23500 48.60800 22.94300
C  36.23000 49.99400 19.75700
C  39.17100 48.32400 21.29500
C  40.20100 48.82100 22.30600
N  36.81600 48.45900 25.79400
C  36.99600 47.31600 25.00700
C  37.15400 46.22700 25.81300
C  36.91100 46.73500 27.10400
C  36.66400 48.11900 27.06900
C  37.56400 44.79200 25.38400
C  36.87200 46.34200 28.49900
O  37.06500 45.24100 29.01500
C  36.52600 47.67000 29.37100
C  35.27300 47.28900 30.17100
O  34.12500 47.53300 29.83600
O  35.63900 46.38400 31.10600
C  34.57500 45.96200 32.01200
H  35.04600 54.17300 27.47700
H  36.74100 52.50500 21.36300
H  37.34800 46.46900 23.08600
H  34.99800 50.22100 30.30400
H  35.97100 52.91400 29.74000
H  33.37400 52.61500 28.70500
H  33.70700 53.60200 30.12200
H  33.47800 51.84400 30.37800
H  37.56200 51.76600 30.39200
H  37.89900 50.14900 30.22200
H  37.35100 51.44200 32.61600
H  37.54100 49.71400 32.49400
H  35.99300 56.17500 26.29600
H  34.26600 55.83400 26.09000
H  35.17800 56.70300 24.82300
H  35.38100 57.05200 21.11900
H  35.95100 57.12300 22.81100
H  34.31800 56.77800 22.57600
H  38.08800 50.67600 20.81600
H  37.00100 47.86400 20.98600
H  35.21200 50.05600 20.14200
H  36.32400 49.10300 19.13600
H  36.49200 50.86100 19.15000
H  39.42300 48.66600 20.29100
H  39.19100 47.24100 21.17900
H  40.89900 47.98500 22.34000
H  39.75300 48.97300 23.28800
H  40.64200 49.77400 22.01300
H  36.85600 43.97000 25.48100
H  38.44700 44.60700 25.99500
H  37.93300 44.85700 24.36000
H  37.35300 47.82100 30.06600
H  34.91300 45.39000 32.87600
H  33.87300 45.30300 31.50200
H  34.12600 46.86200 32.43400
Mg -8.78700 40.30200 43.07100
C  -8.03300 37.00700 41.79900
C  -5.83300 41.39300 41.62000
C  -9.86500 43.53600 43.51600
C  -11.75800 39.14400 44.30500
N  -7.21800 39.29600 41.69700
C  -7.11200 37.99100 41.37600
C  -5.75100 37.69200 40.71700
C  -5.02700 39.04700 40.89200
C  -6.09000 40.02100 41.40500
C  -3.78400 39.04800 41.81900
C  -5.81700 37.25700 39.16300
C  -5.18600 35.93600 38.80900
H  -3.98700 36.21100 37.85700
N  -7.97500 42.20200 42.69600
C  -6.69200 42.43500 42.06400
C  -6.48800 43.90800 42.03500
C  -7.60700 44.53800 42.60800
C  -8.59200 43.44300 42.94900
C  -5.20800 44.62700 41.46000
C  -7.83000 45.96200 42.76800
O  -7.00900 46.72600 42.21700
C  -8.90700 46.63400 43.62700
N  -10.57400 41.24800 43.70000
C  -10.73000 42.54100 43.92500
C  -12.02200 42.78100 44.60200
C  -12.74800 41.38200 44.77200
C  -11.61800 40.52400 44.27400
C  -11.88700 43.50900 45.99200
C  -14.14400 41.20200 44.07100
C  -15.22200 40.90700 45.08900
N  -9.68300 38.49200 43.15000
C  -10.88400 38.14800 43.80200
C  -11.12100 36.69800 43.72700
C  -10.00600 36.22500 42.98000
C  -9.22900 37.35700 42.57400
C  -12.27200 35.92600 44.19000
C  -9.49800 35.05100 42.34400
O  -9.82800 33.88000 42.54800
C  -8.19500 35.46200 41.61800
C  -7.03100 34.69700 42.06100
O  -6.46400 34.79800 43.12900
O  -6.84700 33.76400 41.08400
C  -5.61300 32.93800 41.31800
H  -4.83600 41.72600 41.32500
H  -10.20100 44.54300 43.77000
H  -12.66300 38.80100 44.81100
H  -5.26100 36.90300 41.28700
H  -4.69900 39.35700 39.89900
H  -4.08800 39.40400 42.80300
H  -3.01500 39.74800 41.49400
H  -3.48800 38.00000 41.85500
H  -5.33900 38.06000 38.60200
H  -6.88400 37.20400 38.94500
H  -5.86100 35.22500 38.33200
H  -4.71100 35.49900 39.68700
H  -5.42100 45.06400 40.48400
H  -4.40400 43.89100 41.44100
H  -4.80300 45.40100 42.11200
H  -8.65300 47.69100 43.69600
H  -9.08100 46.13900 44.58300
H  -9.85600 46.56300 43.09500
H  -12.64400 43.45900 44.01700
H  -12.77100 41.05900 45.81300
H  -10.84300 43.72300 46.21700
H  -12.20900 42.84500 46.79500
H  -12.39300 44.47400 46.01900
H  -14.21800 40.51400 43.22900
H  -14.40800 42.14200 43.58700
H  -15.47900 41.67600 45.81800
H  -14.86600 40.04300 45.65000
H  -16.15700 40.52600 44.67600
H  -13.16300 36.55500 44.20700
H  -12.11700 35.32800 45.08800
H  -12.33600 35.18400 43.39400
H  -8.37000 35.25200 40.56300
H  -4.80100 33.66500 41.33400
H  -5.40700 32.46000 40.36000
H  -5.64400 32.33200 42.22300

