158

Mg 1.53500 8.68200 27.25900
C  2.20000 10.51100 30.21000
C  1.19100 5.82400 29.07100
C  1.10700 7.10400 24.39900
C  1.75900 11.81900 25.56100
N  1.86100 8.19400 29.38800
C  1.97600 9.11300 30.50000
C  1.85400 8.38400 31.84900
C  1.69800 6.92400 31.38900
C  1.60400 6.90600 29.85500
C  2.87800 5.92200 31.78100
C  0.69600 8.99900 32.75300
C  1.20100 9.27800 34.23700
H  2.15800 8.22200 34.82600
N  1.20800 6.77300 26.80000
C  1.00100 5.68100 27.65400
C  0.60600 4.51800 26.90000
C  0.62000 4.86400 25.55300
C  1.00700 6.30900 25.51300
C  0.35700 3.18500 27.60000
C  0.32100 4.03700 24.27300
O  0.28000 4.52000 23.13200
C  0.13900 2.52600 24.42300
N  1.44900 9.40500 25.36200
C  1.29500 8.50000 24.33300
C  1.21700 9.16500 22.94400
C  1.07100 10.65600 23.35000
C  1.51500 10.64800 24.86500
C  2.52100 8.83600 22.20800
C  -0.30000 11.25700 23.11500
C  -0.46500 12.22300 21.90500
N  1.94000 10.80600 27.74300
C  2.05100 11.93500 26.95900
C  2.31700 13.08100 27.80800
C  2.54500 12.57200 29.04400
C  2.20600 11.19600 28.97700
C  2.38400 14.53700 27.36000
C  2.90400 12.87900 30.39900
O  3.26700 13.97200 30.86300
C  2.56700 11.59400 31.21500
C  3.65100 11.29100 32.17100
O  4.58900 10.51100 31.98300
O  3.34100 11.99900 33.36700
C  4.32000 11.93100 34.46700
H  1.12700 4.94000 29.70900
H  1.06400 6.60900 23.42700
H  1.62200 12.75700 25.01800
H  2.82300 8.41100 32.34700
H  0.74700 6.49300 31.70200
H  3.71500 5.91800 31.08300
H  2.45600 4.91700 31.75000
H  3.22500 6.07700 32.80200
H  -0.07600 8.23100 32.80500
H  0.38900 9.91200 32.24300
H  0.37900 9.35800 34.94800
H  1.78700 10.19100 34.33800
H  0.74600 2.28900 27.11500
H  -0.70600 3.12300 27.83200
H  0.88500 3.16500 28.55300
H  1.17100 2.21100 24.57400
H  -0.25200 2.12400 23.48800
H  -0.66700 2.40700 25.14700
H  0.34100 8.90400 22.35000
H  1.80800 11.19500 22.75400
H  2.30700 8.29400 21.28700
H  3.21800 8.23200 22.78900
H  3.11500 9.73600 22.04500
H  -0.48400 11.85900 24.00500
H  -1.17900 10.61600 23.05600
H  -1.21300 11.89600 21.18300
H  0.43800 12.25400 21.29600
H  -0.72100 13.22000 22.26400
H  1.77300 15.19400 27.97800
H  2.01200 14.52000 26.33500
H  3.36900 14.96800 27.17400
H  1.61900 11.84600 31.68800
H  3.72300 11.75700 35.36200
H  4.86100 12.87700 34.46400
H  4.94100 11.04200 34.35200
Mg 50.70200 44.54400 41.88800
C  47.79900 46.15200 40.86500
C  49.51800 41.57500 40.86800
C  53.88100 43.33700 41.91600
C  51.88500 47.66200 42.79400
N  48.87700 44.01400 40.83200
C  47.76200 44.74200 40.74800
C  46.54500 43.87800 40.18000
C  47.09900 42.48800 40.59000
C  48.60500 42.68400 40.76700
C  46.31000 41.67100 41.68900
C  46.30700 44.13000 38.63300
C  44.98600 43.91500 37.99700
H  44.85400 43.07100 36.74600
N  51.53500 42.68900 41.52800
C  50.86300 41.60400 41.15000
C  51.74300 40.42400 41.23200
C  53.02600 40.93900 41.43300
C  52.85100 42.39200 41.59000
C  51.37300 39.03200 40.96600
C  54.25300 40.09300 41.40600
O  54.19800 38.87100 41.28300
C  55.63500 40.65700 41.58200
N  52.57400 45.42100 42.35000
C  53.69700 44.69800 42.32300
C  54.86100 45.45500 42.87800
C  54.29500 46.93600 43.07600
C  52.83900 46.68800 42.70100
C  55.51900 44.81400 44.23000
C  54.81400 48.00200 41.98700
C  55.49500 49.29900 42.58700
N  49.98900 46.54300 41.87800
C  50.57400 47.68800 42.25000
C  49.64100 48.79000 42.12500
C  48.51200 48.23200 41.57000
C  48.77100 46.86100 41.41100
C  49.90600 50.16900 42.60100
C  47.24200 48.54600 41.01300
O  46.68800 49.63200 40.95600
C  46.66100 47.13500 40.63600
C  45.35800 46.93300 41.27900
O  45.19400 46.15000 42.22700
O  44.30700 47.65300 40.70400
C  43.10400 47.61400 41.55200
H  49.02700 40.60300 40.78000
H  54.92200 43.00800 41.89700
H  52.31400 48.60500 43.14000
H  45.54100 43.89800 40.60400
H  47.10800 41.82700 39.72300
H  45.66900 42.27600 42.33100
H  47.00800 41.20500 42.38400
H  45.68000 40.84800 41.35100
H  46.94800 43.45100 38.07100
H  46.61600 45.16200 38.46700
H  44.64000 44.90900 37.71300
H  44.40900 43.41100 38.77200
H  51.87800 38.72600 40.05000
H  50.30800 38.87200 40.80100
H  51.72200 38.32300 41.71700
H  55.80800 40.84100 42.64300
H  55.80000 41.55100 40.98200
H  56.38600 39.90300 41.34400
H  55.56500 45.42800 42.04600
H  54.33100 47.27100 44.11200
H  56.59800 44.77200 44.08300
H  55.34800 43.73800 44.24200
H  55.13900 45.33500 45.11000
H  53.92900 48.21600 41.38700
H  55.53400 47.51600 41.32900
H  54.84300 50.10500 42.25100
H  56.45600 49.33100 42.07300
H  55.54200 49.27600 43.67500
H  50.74900 50.68400 42.13900
H  50.04700 50.15600 43.68200
H  49.02000 50.78400 42.44300
H  46.34700 47.14800 39.59200
H  42.74600 46.58500 41.54800
H  42.34800 48.25500 41.09800
H  43.41300 47.98500 42.52900

