158

Mg 50.91500 45.47500 41.45200
C  47.77000 46.40900 40.15200
C  50.22700 42.16700 40.47400
C  54.28600 44.63900 41.72500
C  51.80300 48.78300 41.62700
N  49.18600 44.43600 40.35600
C  47.97100 44.93500 40.02900
C  47.00100 43.89700 39.34500
C  47.77400 42.58000 39.60300
C  49.19000 43.09000 40.20300
C  47.09900 41.66400 40.63200
C  46.71600 44.23300 37.81800
C  45.25700 43.99200 37.45400
H  44.66900 44.41300 36.14700
N  52.07100 43.58400 41.30400
C  51.56500 42.38300 40.83000
C  52.62500 41.46200 40.95500
C  53.81400 42.11100 41.37800
C  53.45700 43.50500 41.49200
C  52.34000 39.94400 40.74700
C  55.19400 41.49600 41.64800
O  55.41100 40.31500 41.45000
C  56.43500 42.11700 42.33000
N  52.80200 46.50800 41.71600
C  54.03700 45.94400 41.86600
C  55.09200 47.03200 42.17400
C  54.30100 48.35600 41.98400
C  52.87600 47.85500 41.64500
C  55.76200 46.97000 43.59900
C  54.70300 49.37400 40.84600
C  54.82500 50.80200 41.21500
N  49.98800 47.22000 41.24500
C  50.45200 48.50900 41.36300
C  49.32200 49.45600 41.05500
C  48.27000 48.67500 40.65100
C  48.70000 47.34700 40.80100
C  49.44700 50.99300 40.96200
C  47.01800 48.69300 40.03600
O  46.29100 49.61200 39.63800
C  46.53000 47.25100 39.84200
C  45.41600 46.98200 40.82700
O  45.56800 46.59700 41.97700
O  44.26400 47.21900 40.14200
C  43.07500 47.16300 41.02600
H  50.00400 41.13300 40.19900
H  55.30100 44.29800 41.93800
H  52.10100 49.81600 41.44000
H  46.14300 43.94900 40.01500
H  48.03500 42.08200 38.66900
H  46.01000 41.64700 40.67400
H  47.45200 42.01200 41.60300
H  47.41900 40.62400 40.70100
H  47.20200 43.46300 37.21900
H  47.17500 45.19000 37.57000
H  44.65100 44.53000 38.18400
H  45.17100 42.91400 37.58600
H  52.01800 39.86400 39.70900
H  51.70900 39.56400 41.55100
H  53.19200 39.26400 40.73400
H  56.24500 42.67100 43.24900
H  56.86300 42.77000 41.57000
H  57.21300 41.38600 42.55200
H  55.94000 46.87600 41.50800
H  54.09300 48.99600 42.84200
H  55.39700 47.77600 44.23700
H  56.82500 47.10400 43.39900
H  55.59500 45.97500 44.01100
H  54.05000 49.39900 39.97400
H  55.68500 49.08000 40.47500
H  54.34400 51.02000 42.16800
H  54.24400 51.34500 40.46900
H  55.84700 51.17900 41.17500
H  48.67400 51.41600 41.60300
H  49.29400 51.38100 39.95400
H  50.34400 51.36900 41.45300
H  46.35700 47.07600 38.78100
H  42.90300 46.17800 41.45800
H  42.23400 47.37500 40.36500
H  43.16700 47.86500 41.85400
Mg 6.34900 53.82700 41.06900
C  5.94900 50.25100 40.80800
C  9.47200 53.35900 39.70200
C  6.42800 57.10500 40.41900
C  3.05600 53.91300 41.82900
N  7.45400 51.96800 40.17100
C  7.16100 50.66900 40.19200
C  8.36600 49.70500 39.83800
C  9.53400 50.70600 39.84700
C  8.77800 52.10600 39.86900
C  10.50200 50.55900 41.08800
C  8.21300 48.94300 38.46800
C  7.90900 49.73200 37.27900
H  6.87600 49.29900 36.26500
N  7.84100 55.16800 40.35600
C  9.09400 54.75700 39.86900
C  9.90100 55.94900 39.82000
C  9.02200 57.06800 39.93300
C  7.69700 56.54300 40.27300
C  11.42800 55.95300 39.52300
C  9.38000 58.51100 39.90500
O  10.52900 58.82600 39.62600
C  8.35100 59.68200 40.06500
N  4.87100 55.26800 40.81100
C  5.11400 56.62200 40.59600
C  3.86100 57.50700 40.91600
C  2.87900 56.37300 41.17300
C  3.69200 55.11300 41.44000
C  4.02400 58.52900 42.05700
C  1.83400 56.09400 40.07600
C  0.45600 56.74000 40.19400
N  4.81800 52.39900 41.45300
C  3.54500 52.60900 41.76500
C  2.84100 51.40400 42.13000
C  3.83300 50.38000 41.80200
C  4.93500 51.08900 41.29600
C  1.47700 51.19900 42.75600
C  4.11000 49.00200 41.79700
O  3.45900 48.02200 42.19500
C  5.49100 48.83600 41.04800
C  5.16600 48.02000 39.91600
O  4.78900 48.38000 38.78200
O  5.39600 46.71900 40.27300
C  4.89800 45.77900 39.31200
H  10.46000 53.23300 39.25500
H  6.31200 58.19100 40.44000
H  2.05800 54.17700 42.18600
H  8.48200 49.02100 40.67900
H  10.19200 50.57900 38.98700
H  10.40100 51.44400 41.71500
H  11.52300 50.51800 40.70700
H  10.20700 49.74200 41.74600
H  7.52000 48.10300 38.51400
H  9.21600 48.52200 38.38300
H  8.82500 49.90100 36.71200
H  7.61100 50.71100 37.65600
H  11.76500 55.00500 39.10400
H  11.97300 56.23000 40.42500
H  11.68100 56.67800 38.74900
H  8.95800 60.56800 39.87700
H  7.87200 59.74600 41.04200
H  7.73100 59.59200 39.17200
H  3.54800 57.94900 39.97000
H  2.35900 56.63700 42.09400
H  3.34600 58.47100 42.90800
H  3.78800 59.46500 41.55100
H  5.05700 58.55600 42.40200
H  1.70700 55.04400 39.81500
H  2.19800 56.51400 39.13900
H  0.44200 57.82400 40.08400
H  0.09400 56.44600 41.18000
H  -0.16500 56.21500 39.46900
H  0.68400 51.80700 42.31900
H  1.47000 51.25100 43.84500
H  1.23300 50.19400 42.41300
H  6.03500 48.23100 41.77400
H  3.88700 46.07100 39.02500
H  4.84600 44.75000 39.66700
H  5.55000 45.75600 38.44000

