158

Mg 23.75400 -3.90800 45.30100
C  25.84900 -1.38100 44.02200
C  21.29800 -2.91000 43.16300
C  22.43800 -6.92800 45.57200
C  26.73200 -5.22300 46.91100
N  23.66600 -2.35900 43.68400
C  24.62200 -1.45800 43.34900
C  24.17400 -0.58100 42.19700
C  22.56000 -0.75000 42.25100
C  22.49400 -2.15000 43.05100
C  21.61400 0.17100 43.10200
C  24.85600 -1.13400 40.91500
C  25.11600 -0.07700 39.89200
H  25.27000 -0.39000 38.37600
N  22.02300 -4.81300 44.55100
C  21.10100 -4.17300 43.74900
C  20.00100 -5.05400 43.49500
C  20.33800 -6.25900 44.21100
C  21.62200 -6.05300 44.84200
C  18.86400 -4.73800 42.60000
C  19.40900 -7.42400 44.20100
O  18.36900 -7.50600 43.55300
C  19.86200 -8.63100 44.95900
N  24.53800 -5.80700 46.12100
C  23.70900 -6.82500 46.07500
C  24.29000 -7.99400 46.88000
C  25.68100 -7.52300 47.33100
C  25.67500 -6.04800 46.79400
C  23.43600 -8.77300 48.03300
C  26.88500 -8.27900 46.77200
C  27.65900 -9.01200 47.88600
N  25.76500 -3.32400 45.65400
C  26.78000 -3.89000 46.41100
C  27.97200 -3.01500 46.31500
C  27.62600 -2.03500 45.42800
C  26.30200 -2.23900 44.98600
C  29.30500 -3.38300 47.01900
C  28.25500 -0.94100 44.71300
O  29.38400 -0.38200 44.79700
C  27.14300 -0.46200 43.71700
C  26.76400 0.92300 44.08100
O  25.99200 1.20700 44.98300
O  27.50900 1.82000 43.33000
C  27.31700 3.27000 43.47900
H  20.42300 -2.46000 42.68900
H  22.13500 -7.95900 45.77000
H  27.59300 -5.75200 47.32500
H  24.44800 0.43700 42.47200
H  22.21300 -1.07200 41.27000
H  20.76900 0.50900 42.50100
H  22.14200 1.08500 43.37400
H  21.36400 -0.28400 44.06000
H  24.16500 -1.87900 40.52000
H  25.82100 -1.53900 41.22200
H  26.00500 0.48900 40.17000
H  24.27600 0.61400 39.82100
H  19.07100 -5.06000 41.57900
H  18.69400 -3.66200 42.56700
H  17.90900 -5.09600 42.98600
H  19.22600 -9.51600 44.96900
H  19.89400 -8.35100 46.01200
H  20.83800 -8.94000 44.58500
H  24.48800 -8.76400 46.13400
H  25.71200 -7.50300 48.42100
H  22.63100 -8.06500 48.22800
H  23.93100 -8.88700 48.99800
H  23.09300 -9.74900 47.69100
H  27.57500 -7.62500 46.23800
H  26.65300 -9.06400 46.05200
H  27.40700 -10.03900 47.61900
H  27.43000 -8.61700 48.87600
H  28.73200 -8.84600 47.79200
H  29.26700 -4.43200 47.31400
H  29.55800 -2.83100 47.92400
H  30.10700 -3.27800 46.28800
H  27.55100 -0.53200 42.70900
H  26.51600 3.47400 44.19000
H  27.20900 3.75700 42.51000
H  28.13100 3.75400 44.02000
Mg 44.88600 4.07000 46.33600
C  42.93100 7.09000 46.18900
C  41.73700 2.40600 45.72900
C  46.48200 1.43000 45.86600
C  47.68400 6.07800 45.99500
N  42.57500 4.73600 45.63000
C  42.10200 5.98700 45.81700
C  40.58400 6.04700 45.54700
C  40.17100 4.49100 45.61300
C  41.57300 3.80500 45.65500
C  39.27800 4.00300 46.76600
C  40.00800 6.93500 44.37500
C  40.65000 6.78100 42.93300
H  39.85700 6.86000 41.64400
N  44.20300 2.15500 45.82700
C  42.93100 1.62800 45.79600
C  43.07900 0.16500 45.73500
C  44.43100 -0.13700 45.49300
C  45.09300 1.16800 45.74200
C  41.79600 -0.72900 45.59700
C  45.04400 -1.46400 45.20800
O  44.37900 -2.44400 45.03000
C  46.49700 -1.67900 45.03600
N  46.78700 3.89900 45.69000
C  47.28000 2.63100 45.94500
C  48.81000 2.58300 45.99200
C  49.22600 4.10400 45.88900
C  47.77900 4.79200 45.76700
C  49.44600 1.76200 47.12900
C  50.10400 4.32300 44.67100
C  51.55500 4.53700 45.03400
N  45.26800 6.14500 46.38700
C  46.48600 6.78200 46.24700
C  46.33700 8.14300 46.52200
C  44.97100 8.33800 46.53200
C  44.34000 7.03400 46.41100
C  47.46700 9.11000 46.47000
C  43.96500 9.35000 46.72700
O  44.05500 10.57100 46.83100
C  42.57700 8.56700 46.47400
C  41.87500 8.85100 47.70300
O  41.88100 8.20000 48.71400
O  41.16500 9.99200 47.53300
C  40.57800 10.59900 48.69300
H  40.82300 1.82200 45.60000
H  47.18000 0.59100 45.83600
H  48.56500 6.69700 46.17700
H  40.02800 6.47500 46.38200
H  39.81400 4.16900 44.63400
H  38.55600 3.21200 46.56500
H  38.73800 4.72100 47.38300
H  39.96400 3.47300 47.42700
H  40.02700 8.00100 44.60300
H  38.97400 6.68500 44.13900
H  41.14400 5.81000 42.95600
H  41.35300 7.60900 42.84300
H  41.82100 -1.64700 46.18600
H  41.91300 -1.10600 44.58100
H  40.84100 -0.22700 45.74700
H  46.76600 -2.69600 44.75100
H  46.94000 -1.52900 46.02100
H  46.96900 -1.08200 44.25600
H  49.18700 2.02300 45.13600
H  49.69800 4.45700 46.80600
H  50.27100 1.13600 46.79000
H  48.70200 1.13000 47.61300
H  49.77600 2.40200 47.94700
H  49.58700 5.19200 44.26500
H  50.11900 3.44000 44.03200
H  51.78600 3.99700 45.95300
H  51.70100 5.61000 45.15800
H  52.16200 4.15100 44.21500
H  47.19700 10.06300 46.92400
H  47.78500 9.21000 45.43200
H  48.33700 8.76100 47.02800
H  41.94200 8.99200 45.69700
H  39.65700 10.07200 48.94300
H  40.39300 11.62600 48.37900
H  41.28700 10.62400 49.52100

