158

Mg -1.63000 16.55200 26.55900
C  -2.31400 14.21400 29.18600
C  -2.06100 19.06700 28.72500
C  -1.55500 18.63800 23.98200
C  -1.87800 13.80200 24.27100
N  -2.24800 16.59200 28.74900
C  -2.23300 15.55500 29.62400
C  -2.22800 16.14900 31.12800
C  -2.13600 17.66500 30.88300
C  -2.13600 17.83900 29.37300
C  -3.31100 18.54200 31.49700
C  -1.05100 15.55800 32.00600
C  -0.54700 16.42700 33.15100
H  -0.58700 15.76000 34.59500
N  -1.63500 18.61000 26.37600
C  -1.80600 19.51100 27.39500
C  -1.72400 20.85800 26.91100
C  -1.34700 20.75000 25.56000
C  -1.55800 19.29200 25.23800
C  -1.84300 21.97700 27.90000
C  -0.89100 21.85800 24.64700
O  -0.47000 21.63000 23.53000
C  -0.72900 23.22900 25.12300
N  -1.86500 16.25200 24.39100
C  -1.76600 17.29400 23.55500
C  -1.66000 16.84500 22.05700
C  -1.75900 15.26300 22.18200
C  -1.74800 15.05600 23.69300
C  -2.63700 17.46000 21.01000
C  -0.58500 14.44300 21.56300
C  0.80500 14.87500 22.18100
N  -2.01800 14.48200 26.68600
C  -2.05200 13.51600 25.67100
C  -2.30900 12.21800 26.26600
C  -2.45500 12.41500 27.63900
C  -2.17200 13.83200 27.85100
C  -2.48500 10.87600 25.59300
C  -2.61200 11.69800 28.89900
O  -2.76000 10.50600 29.24300
C  -2.49800 12.89300 29.93500
C  -1.41800 12.52500 30.83900
O  -0.19300 12.77300 30.75400
O  -1.93200 11.75100 31.80200
C  -1.03200 11.26000 32.88400
H  -2.15700 19.96300 29.34200
H  -1.52200 19.30200 23.11600
H  -2.03800 12.93800 23.62400
H  -3.10500 15.83700 31.69500
H  -1.17500 18.09200 31.17000
H  -3.95500 19.01600 30.75600
H  -2.93900 19.35200 32.12500
H  -4.00600 17.98100 32.12200
H  -0.17500 15.49900 31.36100
H  -1.28900 14.55900 32.37300
H  -1.17300 17.31400 33.25600
H  0.41100 16.87700 32.89000
H  -2.48700 21.84400 28.76800
H  -2.24100 22.77400 27.27200
H  -0.86400 22.30500 28.24900
H  -1.67200 23.73100 25.33600
H  -0.20100 23.87200 24.41900
H  -0.09700 23.24300 26.01100
H  -0.67400 16.97500 21.61000
H  -2.63200 14.82100 21.70300
H  -3.22600 18.10500 21.66200
H  -3.25400 16.68200 20.56200
H  -2.08200 18.05400 20.28400
H  -0.62300 14.57000 20.48100
H  -0.75900 13.37600 21.70600
H  1.33000 15.45200 21.42000
H  1.24300 13.88100 22.27400
H  0.70900 15.46800 23.09000
H  -3.36900 10.76000 24.96600
H  -2.60400 10.17600 26.42000
H  -1.64200 10.35600 25.13900
H  -3.40500 12.84800 30.53900
H  -0.40200 12.06100 33.27100
H  -0.29200 10.62800 32.39400
H  -1.69600 10.88100 33.66000
Mg 7.88900 2.41500 27.28400
C  9.22700 0.77700 30.03700
C  6.20800 4.58000 29.08900
C  6.35000 3.45400 24.43400
C  9.29400 -0.32700 25.30500
N  7.74200 2.60300 29.27100
C  8.42700 1.94500 30.28200
C  8.19100 2.62200 31.62500
C  6.98300 3.62800 31.34700
C  7.04800 3.65600 29.80600
C  5.55800 3.09600 31.83300
C  9.50900 3.30700 32.13700
C  9.29100 4.22300 33.42400
H  10.25600 3.99100 34.56500
N  6.54400 3.90800 26.82100
C  6.04500 4.79100 27.74100
C  5.18700 5.71800 27.09600
C  5.19800 5.46800 25.67200
C  6.02700 4.27700 25.53100
C  4.47000 6.84500 27.90800
C  4.41600 6.18500 24.54700
O  4.57100 5.89600 23.36300
C  3.56100 7.30200 24.92200
N  7.96300 1.66500 25.17200
C  7.18400 2.27100 24.29000
C  7.16000 1.49600 22.99100
C  8.28300 0.43100 23.12900
C  8.50400 0.57000 24.58800
C  5.82000 0.91400 22.62700
C  9.65200 0.84800 22.43500
C  10.52100 -0.31600 21.90200
N  9.09600 0.57600 27.58800
C  9.61200 -0.37000 26.71000
C  10.32200 -1.30500 27.47300
C  10.31500 -0.82600 28.76700
C  9.45000 0.24900 28.78400
C  11.13000 -2.43100 27.00200
C  10.83900 -1.07200 30.07300
O  11.70700 -1.81900 30.44200
C  10.14200 -0.03400 31.00600
C  9.37500 -0.68200 32.10800
O  8.49300 -1.58100 32.02800
O  9.93500 -0.24200 33.27500
C  9.47300 -0.77500 34.58700
H  5.60500 5.26700 29.68600
H  5.95000 3.81100 23.48300
H  9.69400 -1.15300 24.71300
H  7.94400 1.94300 32.44100
H  7.21400 4.63500 31.69600
H  5.07500 2.48000 31.07400
H  4.88100 3.88400 32.16400
H  5.71600 2.50700 32.73700
H  9.85000 3.84300 31.25200
H  10.17700 2.53000 32.50900
H  8.40600 3.79700 33.89800
H  9.18000 5.29400 33.25500
H  3.41800 6.57700 28.01200
H  4.63500 7.75600 27.33300
H  4.95000 7.00900 28.87300
H  4.27000 8.07800 25.20800
H  2.93600 7.09600 25.79100
H  2.86800 7.62500 24.14500
H  7.39200 2.21500 22.20500
H  7.91900 -0.58400 22.97400
H  5.17700 0.91200 23.50800
H  5.75000 -0.10400 22.24600
H  5.35700 1.56900 21.88900
H  10.27300 1.44400 23.10300
H  9.52100 1.56700 21.62600
H  10.97800 -0.13500 20.92900
H  9.89900 -1.21000 21.86800
H  11.21100 -0.52600 22.71900
H  10.55300 -3.18700 26.47000
H  11.66500 -2.80600 27.87300
H  11.78000 -2.04100 26.21900
H  10.98000 0.57700 31.34200
H  9.17700 0.09100 35.18000
H  10.29800 -1.26900 35.10000
H  8.66500 -1.50500 34.62800

