158

Mg 46.88400 25.79400 28.38500
C  47.68100 28.03700 30.90800
C  45.71500 23.57800 30.83900
C  46.45400 23.51600 26.02300
C  48.60600 27.90200 26.19200
N  46.69300 25.87800 30.58900
C  47.04000 26.90300 31.40200
C  46.74700 26.62900 32.89000
C  46.19600 25.17400 32.81600
C  46.19600 24.82200 31.29300
C  47.05000 24.16100 33.67100
C  45.82700 27.66800 33.61400
C  46.43100 28.48500 34.87900
H  45.42900 28.79700 36.02500
N  45.86300 23.99200 28.34800
C  45.46100 23.24100 29.45200
C  44.71200 22.13900 28.94300
C  44.99100 22.03700 27.53000
C  45.88100 23.18000 27.27200
C  43.99500 21.20200 29.86700
C  44.72300 20.95400 26.50800
O  45.21500 20.89600 25.37400
C  43.86200 19.79400 27.03700
N  47.50000 25.65600 26.42400
C  47.16400 24.63300 25.60900
C  47.40400 24.95900 24.13500
C  48.25200 26.29800 24.22700
C  48.15600 26.63100 25.70600
C  48.11900 23.75000 23.40300
C  47.64800 27.37600 23.33200
C  48.56300 28.25400 22.47700
N  47.97400 27.57700 28.47100
C  48.47400 28.38700 27.43600
C  48.86800 29.67600 28.00400
C  48.70300 29.50100 29.33900
C  48.05500 28.25700 29.58100
C  49.50300 30.80400 27.35200
C  48.86900 30.14400 30.59600
O  49.33200 31.19900 30.85900
C  48.20600 29.17000 31.63100
C  49.25100 28.76100 32.51400
O  49.99000 27.79700 32.37500
O  49.33600 29.68600 33.57100
C  50.30300 29.37800 34.58700
H  45.42300 22.95200 31.68500
H  46.11800 22.89700 25.18900
H  49.00900 28.62400 25.47900
H  47.73600 26.74300 33.33300
H  45.14600 25.19100 33.11000
H  46.40600 23.50000 34.25100
H  47.63600 24.78200 34.34900
H  47.70200 23.52000 33.07900
H  45.00500 27.14800 34.10700
H  45.36500 28.26400 32.82600
H  46.74100 29.43200 34.43800
H  47.30900 27.95000 35.24200
H  42.91600 21.29200 29.74400
H  44.29900 21.43900 30.88600
H  44.30200 20.16800 29.71000
H  44.46500 19.07700 27.59400
H  43.50100 19.20100 26.19600
H  42.95600 20.14400 27.53100
H  46.43200 25.18700 23.69700
H  49.29800 26.22000 23.93000
H  47.40400 23.11300 22.88200
H  48.69000 23.18600 24.14000
H  48.86100 24.16400 22.72000
H  47.14600 28.10400 23.97100
H  47.00800 26.89800 22.59100
H  49.57800 27.85600 22.48700
H  48.48400 29.28400 22.82400
H  48.20300 28.13700 21.45500
H  49.20300 31.01200 26.32500
H  50.49700 30.35700 27.34400
H  49.47300 31.65800 28.02900
H  47.43500 29.76500 32.12100
H  50.72700 30.23300 35.11300
H  51.16800 28.95900 34.07300
H  49.96000 28.58700 35.25500
Mg -1.64700 34.11600 26.83000
C  -3.39300 32.32900 29.29200
C  -0.48900 36.08400 29.38200
C  0.11200 35.90300 24.49500
C  -3.06700 32.24900 24.40400
N  -1.88400 34.12800 29.07000
C  -2.51600 33.17100 29.84000
C  -2.24000 33.39200 31.36900
C  -1.37700 34.70800 31.27500
C  -1.29400 35.04200 29.80300
C  -1.97700 35.94200 32.00800
C  -1.62900 32.20700 32.17500
C  -2.21600 31.95400 33.62000
H  -1.31400 32.03100 34.89600
N  -0.37600 35.80300 26.94500
C  -0.03900 36.42300 28.07400
C  0.91300 37.40800 27.78300
C  1.25800 37.33000 26.39400
C  0.26700 36.37500 25.85600
C  1.60100 38.19700 28.90000
C  2.36500 37.99200 25.58000
O  2.42700 37.89700 24.34900
C  3.41100 38.92600 26.21700
N  -1.62900 34.24300 24.80600
C  -0.72500 34.90900 23.97800
C  -0.55400 34.27700 22.59000
C  -1.71200 33.29200 22.57000
C  -2.14500 33.17500 24.05300
C  -0.57500 35.20100 21.31000
C  -1.29600 32.00900 21.77600
C  -2.21600 31.61400 20.59000
N  -3.08700 32.75800 26.74500
C  -3.56400 32.00900 25.66900
C  -4.40600 30.94900 26.10700
C  -4.36100 31.06500 27.47200
C  -3.56000 32.18100 27.87200
C  -4.97500 29.87000 25.22900
C  -4.78900 30.42300 28.71200
O  -5.56200 29.45600 28.96700
C  -4.11600 31.14400 29.86800
C  -5.20800 31.51300 30.88300
O  -6.25500 32.14700 30.75200
O  -4.87500 30.78500 32.03000
C  -5.77000 30.84300 33.19300
H  -0.06600 36.73800 30.14800
H  0.76800 36.36900 23.75700
H  -3.46400 31.57400 23.64200
H  -3.23400 33.65700 31.73000
H  -0.35100 34.50600 31.58500
H  -1.09500 36.29000 32.54500
H  -2.80500 35.66400 32.66000
H  -2.42300 36.72700 31.39700
H  -0.55100 32.36100 32.22200
H  -1.71600 31.33900 31.52200
H  -2.76400 31.02800 33.79700
H  -3.01000 32.69700 33.68700
H  2.30200 37.52800 29.40000
H  0.86900 38.65100 29.56700
H  2.14500 39.09000 28.59200
H  3.98100 38.28200 26.88700
H  2.87800 39.72900 26.72500
H  4.10400 39.20000 25.42200
H  0.39000 33.74000 22.67700
H  -2.55900 33.73400 22.04500
H  0.49000 35.39700 21.19300
H  -1.04000 36.16600 21.50800
H  -0.98400 34.69500 20.43400
H  -1.23100 31.16500 22.46200
H  -0.24700 32.00300 21.47900
H  -1.57100 31.41400 19.73500
H  -2.98200 32.36800 20.41000
H  -2.75500 30.69600 20.82600
H  -4.48300 29.77200 24.26000
H  -5.98600 30.16200 24.94500
H  -5.04500 28.95600 25.81700
H  -3.39700 30.49100 30.36200
H  -6.02000 31.87200 33.45300
H  -5.17300 30.52600 34.04800
H  -6.58600 30.12700 33.09600

