158

Mg 48.58800 15.58700 28.79800
C  46.66500 15.34800 31.63600
C  50.96300 17.47800 30.55500
C  50.40100 15.87700 26.00100
C  46.06300 14.03700 27.03700
N  48.75600 16.28600 30.92900
C  47.84400 16.08900 31.90300
C  48.47900 16.37400 33.22600
C  49.64500 17.36800 32.87100
C  49.86400 17.00800 31.40100
C  49.49100 18.94800 33.05200
C  48.91400 15.13000 34.05500
C  48.52800 15.14600 35.57500
H  48.33100 16.52700 36.23200
N  50.37300 16.63200 28.31400
C  51.23500 17.22400 29.20000
C  52.35100 17.77500 28.51100
C  52.29200 17.19000 27.19900
C  50.95800 16.53700 27.14900
C  53.43200 18.65700 29.10900
C  53.31300 17.24400 26.06300
O  53.23600 16.46000 25.10700
C  54.49100 18.12300 26.13600
N  48.26500 15.05000 26.74200
C  49.19500 15.22800 25.81000
C  48.71900 14.68600 24.43400
C  47.32200 14.08100 24.77800
C  47.18200 14.34500 26.30600
C  48.70700 15.87100 23.41700
C  47.24100 12.56200 24.26500
C  45.86200 11.92000 23.92100
N  46.78700 14.86500 29.20200
C  45.85700 14.25300 28.37800
C  44.70800 13.92000 29.14600
C  45.05900 14.20100 30.45200
C  46.22700 14.90200 30.43800
C  43.48300 13.19200 28.67000
C  44.54100 14.17900 31.74800
O  43.36800 13.93900 32.10000
C  45.58400 14.85400 32.64200
C  44.87200 15.94100 33.30100
O  44.46500 17.00400 32.82500
O  44.59500 15.58500 34.56000
C  43.88800 16.54000 35.41600
H  51.71700 18.08100 31.06500
H  50.92000 15.91700 25.04100
H  45.39300 13.46000 26.39700
H  47.69000 16.82600 33.82700
H  50.58400 17.13900 33.37600
H  48.45100 19.26700 33.11900
H  49.99900 19.58500 32.32900
H  50.04700 19.24700 33.94100
H  50.00400 15.11600 34.04700
H  48.64200 14.16300 33.63300
H  49.35300 14.67800 36.11100
H  47.64300 14.56400 35.83100
H  52.93100 19.21000 29.90300
H  53.66500 19.43400 28.38000
H  54.29500 18.09000 29.45800
H  54.05900 19.09900 26.35700
H  54.92700 18.31100 25.15400
H  55.23100 17.84100 26.88500
H  49.51700 13.95900 24.28500
H  46.57600 14.67000 24.24500
H  48.67800 16.86300 23.86900
H  47.87700 15.78800 22.71500
H  49.69300 15.77600 22.96400
H  47.55200 11.99200 25.14000
H  47.96800 12.41800 23.46600
H  45.61900 11.16700 24.67100
H  45.99600 11.43200 22.95600
H  45.03800 12.61600 23.76100
H  42.81300 12.98300 29.50400
H  43.86300 12.25900 28.25400
H  42.95400 13.68100 27.85200
H  46.02300 14.15200 33.35100
H  42.93400 16.66500 34.90400
H  44.38400 17.49300 35.60000
H  43.66300 15.99400 36.33200
Mg -11.44600 39.79300 39.32400
C  -10.38400 36.56800 38.15300
C  -8.44400 41.02700 38.29800
C  -12.74300 42.84300 39.54300
C  -14.62800 38.46000 39.61400
N  -9.65500 38.89600 38.26800
C  -9.40400 37.57300 38.02400
C  -7.99500 37.40500 37.43600
C  -7.36900 38.81400 37.80000
C  -8.56800 39.65200 38.11800
C  -6.26900 38.74500 38.93400
C  -8.03300 37.10600 35.92000
C  -7.17400 35.93100 35.40100
H  -7.97600 35.09000 34.33300
N  -10.69300 41.72300 39.01900
C  -9.45900 42.02700 38.61200
C  -9.26600 43.47800 38.51800
C  -10.55100 44.04000 38.85800
C  -11.39000 42.88900 39.23100
C  -8.02400 44.24700 38.24200
C  -11.00100 45.51300 38.69300
O  -10.16500 46.34500 38.44300
C  -12.42700 46.02400 38.91600
N  -13.43400 40.50600 39.73500
C  -13.69300 41.85400 39.72000
C  -15.18300 42.13700 39.89600
C  -15.79600 40.68600 39.91500
C  -14.57000 39.84500 39.76000
C  -15.47200 43.07200 41.02300
C  -16.88200 40.39200 38.75600
C  -18.24600 39.98100 39.30600
N  -12.33000 37.85200 39.12400
C  -13.61600 37.52400 39.32300
C  -13.75600 36.11900 39.04500
C  -12.50100 35.65200 38.63800
C  -11.65800 36.80300 38.71900
C  -14.94600 35.24200 39.04200
C  -11.74400 34.47600 38.17900
O  -12.07900 33.31300 38.09400
C  -10.28000 35.00600 37.91900
C  -9.34500 34.49900 38.87500
O  -9.56100 34.51200 40.06700
O  -8.21500 34.06800 38.20700
C  -7.13400 33.56900 38.94300
H  -7.45200 41.42600 38.07200
H  -13.12600 43.85300 39.70300
H  -15.60600 37.97400 39.61200
H  -7.45000 36.67400 38.03300
H  -6.81600 39.17900 36.93400
H  -5.36800 39.17600 38.49700
H  -6.09300 37.70000 39.19200
H  -6.59700 39.26200 39.83500
H  -7.56600 37.86900 35.29700
H  -9.05800 37.07400 35.55200
H  -6.92400 35.27000 36.23100
H  -6.28600 36.34800 34.92500
H  -7.90600 44.99900 39.02200
H  -8.18400 44.76000 37.29300
H  -7.03200 43.81200 38.11600
H  -12.99700 45.66800 38.05800
H  -12.39100 47.10500 38.77800
H  -12.82500 45.88100 39.92000
H  -15.52000 42.68000 39.01300
H  -16.06400 40.63700 40.97000
H  -15.66900 44.06100 40.60700
H  -14.67500 43.23000 41.74900
H  -16.37800 42.81000 41.56900
H  -16.42300 39.56600 38.21200
H  -17.06900 41.24200 38.10000
H  -18.22800 38.91200 39.52000
H  -19.02800 40.25800 38.59800
H  -18.31000 40.39500 40.31200
H  -15.68900 35.07800 39.82200
H  -14.57200 34.24800 38.79800
H  -15.54100 35.46500 38.15700
H  -10.01900 34.75200 36.89100
H  -6.48000 33.22900 38.14000
H  -7.42000 32.81500 39.67600
H  -6.62200 34.36300 39.48600

