158

Mg 2.40600 -1.98800 44.83800
C  5.62200 -1.30100 44.46100
C  1.55100 0.74600 42.89700
C  -0.90800 -3.08100 44.73600
C  3.23700 -4.92100 46.55400
N  3.46400 -0.61200 43.69100
C  4.82300 -0.53400 43.63200
C  5.29400 0.62500 42.76100
C  4.00500 1.51100 42.70300
C  2.89600 0.51200 43.15000
C  4.02200 2.86300 43.51700
C  5.99500 0.14300 41.47500
C  7.37300 0.88100 41.18700
H  7.49000 1.94300 40.08400
N  0.61000 -1.34200 43.75900
C  0.47400 -0.11400 43.10800
C  -0.88700 0.05400 42.72300
C  -1.63300 -1.02100 43.24800
C  -0.65800 -1.91100 43.96700
C  -1.28500 1.26200 41.86900
C  -3.14000 -1.15700 43.17400
O  -3.82500 -0.36100 42.55900
C  -3.95300 -2.23400 43.89700
N  1.32500 -3.77000 45.53800
C  0.00300 -3.97800 45.37900
C  -0.47700 -5.28400 46.09000
C  0.80800 -5.77300 46.79700
C  1.84800 -4.78700 46.22400
C  -1.65900 -5.15000 47.01500
C  1.15200 -7.30500 46.59300
C  1.74400 -8.16800 47.77200
N  4.14800 -2.96700 45.45800
C  4.35100 -4.11300 46.17000
C  5.77900 -4.20600 46.50000
C  6.35300 -3.06400 45.91100
C  5.27900 -2.40400 45.19600
C  6.51500 -5.35900 47.13700
C  7.54900 -2.26400 45.77000
O  8.64200 -2.43700 46.26000
C  7.13400 -1.07300 44.76800
C  7.38800 0.24600 45.42800
O  6.77700 0.74600 46.42700
O  8.40400 0.95700 44.76600
C  8.49100 2.44400 45.07200
H  1.39600 1.71600 42.42000
H  -1.92400 -3.47800 44.70000
H  3.56700 -5.81400 47.08900
H  5.99100 1.15800 43.40800
H  3.89000 1.77300 41.65100
H  4.33100 3.56200 42.74100
H  4.69800 2.66000 44.34800
H  3.04900 3.13900 43.92400
H  5.24500 0.35300 40.71300
H  6.26200 -0.91400 41.50300
H  7.98200 0.13600 40.67400
H  7.87600 1.24200 42.08500
H  -0.51500 2.03000 41.80900
H  -2.27000 1.59200 42.19800
H  -1.43700 0.77700 40.90500
H  -4.96300 -1.94000 43.61100
H  -3.86100 -2.20000 44.98200
H  -3.76100 -3.23500 43.50900
H  -0.69000 -6.09900 45.39900
H  0.62200 -5.54100 47.84600
H  -2.13700 -4.18900 46.82300
H  -1.51600 -5.30800 48.08400
H  -2.40900 -5.88500 46.72300
H  1.96500 -7.19300 45.87600
H  0.22800 -7.81300 46.31300
H  0.92500 -8.69700 48.25900
H  2.34800 -7.59700 48.47700
H  2.35900 -8.93800 47.30500
H  6.32300 -6.26500 46.56300
H  6.11300 -5.52900 48.13600
H  7.58900 -5.17500 47.11500
H  7.55100 -1.02200 43.76200
H  7.68900 2.85200 45.68700
H  8.52700 2.88600 44.07600
H  9.44300 2.71000 45.53100
Mg 17.34700 -1.09000 27.76300
C  16.04000 1.01100 30.33300
C  18.96600 -2.81900 30.14800
C  19.05300 -2.61800 25.33000
C  15.99800 1.05100 25.40800
N  17.50400 -0.83400 29.91500
C  16.97900 0.08900 30.78200
C  17.42800 -0.21300 32.27200
C  18.51300 -1.29600 32.07800
C  18.28200 -1.68600 30.62800
C  19.98500 -0.98900 32.40700
C  16.35900 -0.62400 33.20100
C  16.41200 -0.07400 34.66800
H  17.73600 0.50100 35.28800
N  18.61900 -2.72600 27.76200
C  19.05300 -3.31600 28.85100
C  19.72100 -4.51200 28.44000
C  19.85600 -4.53100 26.99600
C  19.21000 -3.24400 26.64700
C  20.26100 -5.41100 29.45300
C  20.53100 -5.45900 25.97700
O  20.56800 -5.24800 24.76400
C  21.25400 -6.76200 26.46000
N  17.45400 -0.86000 25.68500
C  18.25600 -1.58200 24.88400
C  18.07000 -1.24300 23.39000
C  16.83400 -0.19600 23.45300
C  16.72400 -0.05100 24.92800
C  19.32900 -0.69400 22.71200
C  15.52800 -0.50300 22.65700
C  14.48200 -1.57600 23.16500
N  16.21100 0.72700 27.81700
C  15.69500 1.38300 26.78100
C  14.83400 2.45000 27.26400
C  14.87000 2.24800 28.65400
C  15.76700 1.24100 28.93400
C  14.02400 3.41600 26.54700
C  14.41100 2.79400 29.87200
O  13.62900 3.71500 30.13900
C  15.21800 2.02900 31.03400
C  15.97400 3.05700 31.74600
O  16.76500 3.84300 31.18000
O  15.60000 3.11300 33.07900
C  16.36300 3.99300 33.96200
H  19.50500 -3.40500 30.89600
H  19.58800 -3.14400 24.53700
H  15.71000 1.69700 24.57700
H  17.85800 0.70600 32.67000
H  18.22300 -2.10000 32.75500
H  20.54200 -0.82900 31.48400
H  20.48700 -1.88100 32.78100
H  20.14300 -0.21000 33.15200
H  16.21000 -1.69500 33.34100
H  15.40000 -0.22500 32.87000
H  16.10100 -0.95000 35.23700
H  15.61900 0.65100 34.85500
H  21.20300 -5.06100 29.87500
H  20.41100 -6.36000 28.93800
H  19.59700 -5.50300 30.31300
H  20.55900 -7.58000 26.64800
H  21.74300 -6.59600 27.41900
H  21.97700 -7.14000 25.73600
H  17.72300 -2.17800 22.95200
H  17.22200 0.75300 23.08300
H  19.16700 0.30400 22.30500
H  19.68800 -1.30500 21.88400
H  20.11300 -0.70400 23.46900
H  15.69500 -0.89900 21.65500
H  15.13000 0.49200 22.45900
H  13.68300 -0.98200 23.60700
H  14.83800 -2.31100 23.88800
H  14.02900 -2.04500 22.29100
H  13.82000 3.02900 25.54900
H  14.52800 4.37900 26.46800
H  13.06800 3.54400 27.05500
H  14.37400 1.62000 31.59000
H  17.30000 4.38800 33.56800
H  16.57400 3.66300 34.97900
H  15.78400 4.89700 34.14700

