158

Mg 17.07200 -1.45300 28.19600
C  16.45500 0.83800 30.85900
C  19.37000 -3.08500 29.93000
C  18.52300 -2.51600 25.15800
C  15.27200 1.04000 26.12200
N  18.01900 -0.93900 30.06800
C  17.41700 -0.22700 31.12400
C  17.91500 -0.74800 32.44300
C  19.05800 -1.73900 32.05300
C  18.72400 -1.96600 30.59400
C  20.54400 -1.22400 32.36400
C  16.75700 -1.37700 33.32900
C  16.64800 -1.02700 34.84100
H  17.97400 -0.84500 35.62800
N  18.56600 -2.77600 27.64500
C  19.40400 -3.42300 28.54500
C  20.23400 -4.38900 27.88900
C  19.93300 -4.27100 26.49700
C  19.00800 -3.14700 26.33300
C  21.23100 -5.27700 28.62400
C  20.55800 -5.01400 25.37000
O  20.40800 -4.67300 24.21500
C  21.61200 -6.16800 25.51000
N  16.88500 -0.89600 26.00800
C  17.67100 -1.40200 24.99200
C  17.41100 -0.94500 23.63300
C  16.26900 0.10700 23.98600
C  16.15800 0.11400 25.49600
C  18.73500 -0.45900 22.92400
C  14.97200 -0.04900 23.14400
C  13.62400 -0.33700 23.80400
N  15.86000 0.42700 28.40500
C  15.20300 1.21600 27.47400
C  14.53600 2.26800 28.22000
C  14.94500 2.14300 29.54300
C  15.81800 1.05700 29.60500
C  13.83900 3.31900 27.56900
C  14.89100 2.68000 30.86800
O  14.21600 3.69400 31.17500
C  15.77100 1.76300 31.82000
C  16.68900 2.68400 32.57700
O  17.84200 2.90900 32.32100
O  15.97000 3.32200 33.57700
C  16.61200 4.12000 34.57400
H  20.07200 -3.60900 30.58200
H  18.91300 -2.76400 24.16900
H  14.63900 1.66000 25.48200
H  18.39300 0.07400 32.97500
H  18.97600 -2.67300 32.61000
H  20.64600 -0.22400 32.78500
H  21.14300 -1.32700 31.45900
H  21.13100 -1.84800 33.03800
H  16.78600 -2.46600 33.30500
H  15.82100 -1.13800 32.82300
H  16.13000 -1.79500 35.41600
H  15.97000 -0.18500 34.97500
H  21.03000 -6.34100 28.49200
H  21.26400 -5.05100 29.69000
H  22.23300 -5.00000 28.29700
H  21.33100 -6.81700 26.34000
H  22.52700 -5.59400 25.65400
H  21.85500 -6.74600 24.61800
H  16.81400 -1.69700 23.11800
H  16.73300 1.06700 23.76000
H  19.10400 0.51000 23.25900
H  18.39000 -0.31800 21.89900
H  19.55700 -1.17400 22.89500
H  15.15000 -0.70700 22.29400
H  14.86100 0.99700 22.85600
H  13.81500 -0.92300 24.70300
H  13.02400 -0.88200 23.07500
H  13.00000 0.50900 24.09200
H  14.39800 3.89100 26.82800
H  13.52200 4.12500 28.23200
H  12.92100 2.88300 27.17500
H  15.13600 1.26200 32.55100
H  16.58500 3.52400 35.48600
H  16.03900 4.98400 34.91300
H  17.57800 4.57900 34.36600
Mg 29.83500 57.45200 40.95100
C  26.91700 55.87800 39.67500
C  31.62400 55.03500 39.24700
C  32.57700 59.46400 40.79700
C  27.79100 60.18000 41.74900
N  29.26900 55.55600 39.69800
C  28.07000 55.15900 39.29600
C  28.18300 53.91600 38.38900
C  29.63400 53.57000 38.51500
C  30.22700 54.84600 39.14700
C  29.92600 52.35500 39.43000
C  27.62700 54.05500 36.93600
C  27.88800 55.37900 36.17800
H  27.03300 55.55500 34.93900
N  31.87000 57.15600 40.45100
C  32.38200 56.11400 39.73100
C  33.83500 56.21300 39.70100
C  34.16500 57.52800 40.19200
C  32.86100 58.17300 40.46900
C  34.70900 55.26200 38.95100
C  35.58500 58.03100 40.30600
O  36.54900 57.38200 39.95600
C  35.85300 59.36000 40.96600
N  30.08400 59.43500 41.29600
C  31.33300 60.03000 41.22300
C  31.29300 61.59700 41.33800
C  29.83400 61.77800 42.00000
C  29.15100 60.38800 41.71400
C  32.36600 62.18700 42.27800
C  29.08900 63.01300 41.41700
C  28.88600 64.20900 42.43200
N  27.73800 57.94300 40.97200
C  27.07700 59.01900 41.44900
C  25.67400 58.79900 41.29100
C  25.55900 57.51200 40.75600
C  26.86800 57.11600 40.41600
C  24.56500 59.79200 41.63900
C  24.62500 56.46200 40.22700
O  23.42100 56.37700 40.30000
C  25.46300 55.48200 39.41100
C  25.27500 54.08100 39.92700
O  25.66600 53.65300 41.04100
O  24.51600 53.34100 39.04300
C  24.27200 51.91500 39.48800
H  32.28800 54.23300 38.91900
H  33.43300 60.10300 40.57000
H  27.21000 60.97100 42.22600
H  27.51000 53.15600 38.78700
H  30.15700 53.49800 37.56200
H  29.47800 51.49600 38.93000
H  29.36300 52.51200 40.35000
H  31.00000 52.28700 39.60500
H  26.62200 53.63600 36.89300
H  28.33100 53.39900 36.42400
H  28.95700 55.39600 35.96900
H  27.67500 56.16500 36.90400
H  35.37400 55.80300 38.27700
H  34.20000 54.52000 38.33600
H  35.37600 54.89100 39.73000
H  35.62900 60.08800 40.18700
H  36.88300 59.56900 41.25300
H  35.12800 59.52500 41.76400
H  31.24500 62.03300 40.34000
H  29.84800 61.76700 43.09000
H  33.04100 62.93300 41.85800
H  33.11100 61.42900 42.52100
H  31.88500 62.60200 43.16400
H  28.13800 62.77000 40.94300
H  29.66000 63.41600 40.58000
H  29.05500 65.15800 41.92400
H  29.68000 64.15600 43.17700
H  27.91800 64.29800 42.92500
H  24.39800 60.48800 40.81700
H  24.98700 60.45100 42.39800
H  23.58900 59.45700 41.99000
H  25.27500 55.47600 38.33800
H  25.29400 51.53500 39.50200
H  23.87500 51.36900 38.63200
H  23.77500 51.64300 40.42000

