158

Mg 2.70200 -1.26200 44.86200
C  5.96400 -0.39000 44.43300
C  1.76100 1.15900 42.48500
C  -0.49800 -2.40500 44.97200
C  3.74500 -4.29000 46.54700
N  3.77500 0.05100 43.39500
C  5.16800 0.32000 43.58900
C  5.59700 1.42000 42.55900
C  4.27800 2.06900 42.20000
C  3.19200 1.04500 42.74200
C  4.15200 3.52900 42.67100
C  6.40000 0.74300 41.36400
C  7.85600 1.31700 41.24500
H  8.22600 1.72300 39.77900
N  0.85800 -0.65400 43.94000
C  0.74300 0.40400 43.05700
C  -0.69200 0.58500 42.81500
C  -1.41600 -0.50600 43.44000
C  -0.34900 -1.24800 44.15500
C  -1.23300 1.77600 42.06900
C  -2.92400 -0.53200 43.54500
O  -3.57000 0.25000 42.91600
C  -3.71000 -1.39100 44.45600
N  1.76300 -3.13700 45.63200
C  0.45800 -3.28200 45.58300
C  -0.06200 -4.54900 46.38300
C  1.35500 -5.21300 46.68300
C  2.38100 -4.18400 46.30800
C  -0.89800 -4.17800 47.65600
C  1.75300 -6.56500 46.05100
C  2.10500 -7.64900 47.08300
N  4.42400 -2.13900 45.56100
C  4.65900 -3.31600 46.28600
C  6.09100 -3.37800 46.53400
C  6.68300 -2.26300 45.89900
C  5.61800 -1.58800 45.19000
C  6.74800 -4.50500 47.36100
C  7.83200 -1.48000 45.62400
O  9.00800 -1.66200 46.03300
C  7.42000 -0.30200 44.65500
C  7.63300 0.99600 45.37600
O  7.47000 1.20500 46.59800
O  8.28300 1.85300 44.45200
C  8.42000 3.23800 44.94600
H  1.49000 1.82800 41.66600
H  -1.48900 -2.82400 44.78600
H  4.09500 -5.23100 46.97700
H  6.24000 2.06100 43.16200
H  4.23500 2.04800 41.11100
H  3.78400 4.16600 41.86700
H  5.14900 3.88000 42.93600
H  3.45400 3.80100 43.46400
H  5.82100 0.85600 40.44700
H  6.48400 -0.31200 41.62300
H  8.57200 0.60600 41.65600
H  8.01000 2.28600 41.71900
H  -2.17800 2.27600 42.28000
H  -1.10400 1.59300 41.00200
H  -0.50300 2.54800 42.31300
H  -4.68600 -0.97900 44.71200
H  -3.09800 -1.63200 45.32600
H  -3.87900 -2.32200 43.91700
H  -0.63000 -5.09000 45.62500
H  1.45400 -5.30400 47.76500
H  -1.87300 -3.91200 47.25000
H  -0.53100 -3.25700 48.11000
H  -0.92700 -5.07700 48.27200
H  2.62100 -6.42200 45.40700
H  0.90800 -6.90800 45.45300
H  3.17300 -7.87100 47.08600
H  1.62900 -8.60700 46.87300
H  1.81600 -7.41100 48.10700
H  6.64900 -5.39400 46.73800
H  6.26800 -4.54400 48.33900
H  7.83100 -4.42000 47.45700
H  7.99400 -0.30000 43.72900
H  7.44800 3.71800 45.06700
H  8.87200 3.85000 44.16600
H  9.15400 3.27900 45.75100
Mg -4.08500 25.83000 25.51800
C  -3.06200 27.19900 28.49500
C  -6.12300 23.59500 27.38000
C  -4.77100 24.04400 22.67800
C  -1.70600 27.67800 23.85100
N  -4.62600 25.46100 27.70600
C  -4.04800 26.19800 28.67600
C  -4.63700 25.82500 30.06600
C  -5.44300 24.54900 29.71400
C  -5.41000 24.52900 28.15900
C  -5.07200 23.21700 30.46200
C  -5.52500 26.91200 30.73900
C  -5.24100 27.34300 32.22000
H  -4.96800 26.27700 33.31100
N  -5.31500 24.11100 25.07600
C  -6.11700 23.37300 25.96100
C  -6.90900 22.37900 25.25600
C  -6.50900 22.47600 23.83200
C  -5.48300 23.58400 23.78700
C  -7.93100 21.49300 25.92400
C  -7.00100 21.74500 22.62000
O  -6.73000 22.09600 21.47900
C  -8.02000 20.58500 22.70400
N  -3.37500 25.89100 23.56600
C  -3.77700 25.03700 22.57300
C  -3.07000 25.32900 21.26400
C  -2.26500 26.61300 21.54500
C  -2.40100 26.75800 23.07900
C  -2.22200 24.12800 20.75700
C  -2.55800 27.93000 20.69600
C  -3.74900 28.81200 21.03000
N  -2.73300 27.26400 25.96400
C  -1.85500 27.99900 25.19800
C  -1.01400 28.76900 26.03300
C  -1.51900 28.56100 27.37000
C  -2.53400 27.61300 27.25600
C  0.09800 29.74300 25.63100
C  -1.36200 28.88400 28.73000
O  -0.51000 29.55900 29.36000
C  -2.36400 27.95600 29.54900
C  -1.54800 27.26000 30.52200
O  -1.14900 26.16300 30.40800
O  -1.38100 28.07500 31.59700
C  -0.90600 27.43300 32.82300
H  -6.61000 22.80900 27.96100
H  -4.78200 23.43000 21.77600
H  -0.88800 28.24600 23.40300
H  -3.75900 25.62300 30.67900
H  -6.49900 24.68900 29.94700
H  -4.70800 22.38500 29.86000
H  -6.01700 22.81200 30.82300
H  -4.42800 23.31000 31.33700
H  -6.57600 26.64700 30.85100
H  -5.46700 27.80000 30.11000
H  -5.98100 27.98500 32.69700
H  -4.38900 27.99100 32.01600
H  -7.46100 20.98300 26.76500
H  -8.23000 20.72100 25.21500
H  -8.82300 22.05700 26.19400
H  -9.02500 20.97400 22.86900
H  -7.83200 19.82500 23.46200
H  -8.04700 20.17900 21.69200
H  -3.77900 25.51800 20.45800
H  -1.19500 26.44200 21.43300
H  -1.22600 24.52700 20.56300
H  -2.69000 23.66700 19.88700
H  -2.07000 23.37700 21.53200
H  -2.60700 27.48700 19.70200
H  -1.64200 28.52000 20.71600
H  -4.22800 28.26200 21.84000
H  -4.41800 28.94800 20.18100
H  -3.35700 29.77200 21.36500
H  -0.38500 30.52400 25.04500
H  0.76400 29.18700 24.97100
H  0.69300 30.06100 26.48700
H  -3.08900 28.58600 30.06500
H  -1.18100 26.39200 32.99600
H  -1.29200 27.95100 33.70100
H  0.17700 27.36800 32.92700

