158

Mg 8.17100 2.29600 27.34300
C  9.66500 1.11100 30.24100
C  6.29400 4.35800 29.30500
C  6.83600 3.63400 24.61400
C  9.69800 -0.12000 25.42900
N  7.95100 2.61000 29.49100
C  8.64400 2.05200 30.51100
C  8.39600 2.64200 31.88800
C  7.22700 3.60500 31.52900
C  7.11700 3.52400 30.02700
C  5.76900 3.46700 32.21100
C  9.57000 3.37200 32.55500
C  9.28200 4.37300 33.69500
H  10.22400 4.26000 34.86400
N  6.70900 3.76700 27.01500
C  6.05600 4.52100 27.96400
C  5.03600 5.30300 27.34700
C  5.20100 5.16200 25.88600
C  6.27500 4.14000 25.80700
C  3.99500 6.12100 28.18800
C  4.48100 5.82700 24.83100
O  4.76100 5.58200 23.65600
C  3.31800 6.76800 25.11900
N  8.25800 1.75000 25.28900
C  7.67100 2.53600 24.32700
C  8.15600 2.16700 22.95400
C  8.88000 0.80500 23.17600
C  9.00100 0.81000 24.71100
C  7.14300 2.14100 21.74600
C  10.30900 0.68900 22.43600
C  10.27400 -0.45500 21.43100
N  9.45800 0.79600 27.73900
C  10.08600 -0.04500 26.83900
C  11.01000 -0.89300 27.59200
C  10.89400 -0.45800 28.90500
C  9.96800 0.56000 28.92800
C  11.87000 -1.99400 27.02300
C  11.31600 -0.65700 30.29200
O  12.07600 -1.54300 30.69800
C  10.52400 0.39500 31.25900
C  9.77300 -0.32100 32.37100
O  8.61400 -0.60800 32.28500
O  10.60700 -0.46700 33.46700
C  10.06800 -1.24500 34.65000
H  5.65500 4.92300 29.98700
H  6.36300 3.96400 23.68600
H  10.23400 -0.87200 24.84600
H  8.03700 1.88300 32.58300
H  7.58900 4.61500 31.72100
H  4.97700 3.20900 31.50900
H  5.55400 4.37300 32.77800
H  5.73200 2.68700 32.97200
H  10.12500 3.94600 31.81300
H  10.22600 2.60700 32.97000
H  8.24800 4.27200 34.02600
H  9.43900 5.38800 33.33000
H  4.22700 6.17600 29.25200
H  3.01700 5.65700 28.06400
H  3.90000 7.15300 27.85200
H  3.57800 7.67700 25.66200
H  2.58700 6.16200 25.65400
H  2.94700 7.12400 24.15900
H  8.87200 2.96200 22.74300
H  8.16200 0.10000 22.75400
H  7.49600 1.51900 20.92300
H  7.08700 3.15900 21.36000
H  6.24400 1.59600 22.03500
H  11.22800 0.67400 23.02100
H  10.37800 1.54000 21.75800
H  10.35900 0.01700 20.45200
H  9.36100 -1.04800 21.48100
H  11.13000 -1.09500 21.64300
H  11.70900 -2.88500 27.63100
H  12.95300 -1.87900 27.05300
H  11.48600 -2.31800 26.05600
H  11.22900 1.11800 31.66800
H  9.88100 -0.52500 35.44700
H  10.73600 -2.09600 34.78800
H  9.11700 -1.69000 34.36100
Mg 24.58100 -5.34600 45.51300
C  26.60100 -2.97500 43.80300
C  21.90200 -4.32300 43.28000
C  22.98500 -8.29500 46.04000
C  27.38700 -6.31900 47.31400
N  24.26600 -3.75100 43.82200
C  25.30800 -2.96700 43.23600
C  24.72900 -2.01800 42.15700
C  23.18300 -2.35900 42.24900
C  23.05300 -3.53000 43.26500
C  22.24900 -1.15600 42.64800
C  25.38000 -2.35300 40.74500
C  25.70700 -1.12400 39.95000
H  25.08400 -0.90400 38.60900
N  22.72900 -6.17600 44.78400
C  21.72400 -5.53600 43.93500
C  20.58200 -6.40400 43.85800
C  20.87300 -7.56400 44.65200
C  22.25000 -7.39700 45.16400
C  19.37900 -6.11900 43.17900
C  19.91900 -8.73400 44.91600
O  18.82300 -8.77500 44.33800
C  20.18800 -9.93400 45.78500
N  25.10900 -7.07900 46.47500
C  24.22800 -8.13700 46.61800
C  24.78100 -9.11500 47.61100
C  26.19800 -8.51000 47.96000
C  26.26500 -7.18100 47.25800
C  23.83800 -9.16600 48.91700
C  27.40900 -9.48900 47.56300
C  28.25200 -10.18400 48.66900
N  26.59100 -4.67200 45.72000
C  27.65400 -5.13200 46.54500
C  28.83800 -4.39000 46.30600
C  28.44900 -3.50500 45.26100
C  27.14800 -3.78000 44.86800
C  30.03900 -4.58800 47.04600
C  28.99000 -2.46000 44.33800
O  30.12500 -2.05000 44.21700
C  27.74900 -2.03000 43.39100
C  27.58800 -0.53600 43.58300
O  27.53800 0.11400 44.64300
O  27.69200 0.03500 42.29100
C  27.38900 1.43900 42.27200
H  21.08300 -4.03800 42.61600
H  22.48100 -9.22100 46.32500
H  28.24000 -6.71200 47.87000
H  24.75600 -0.93800 42.30600
H  22.76500 -2.79700 41.34200
H  21.36000 -1.27000 42.02700
H  22.77400 -0.21900 42.46500
H  21.92800 -1.20100 43.68800
H  24.73000 -2.87300 40.04100
H  26.27400 -2.96900 40.83200
H  26.78100 -0.96800 39.84700
H  25.51800 -0.18500 40.47000
H  19.30200 -6.84300 42.36800
H  19.52300 -5.09700 42.82900
H  18.48700 -6.16900 43.80400
H  21.08300 -10.48100 45.48700
H  19.25700 -10.49400 45.87100
H  20.42400 -9.58600 46.79100
H  24.87200 -10.14000 47.25000
H  26.30500 -8.20900 49.00300
H  23.61000 -10.19800 49.18100
H  22.88500 -8.66300 48.75400
H  24.39600 -8.82600 49.78900
H  28.09100 -9.01800 46.85600
H  26.87600 -10.31300 47.08900
H  29.25000 -9.75200 48.61200
H  28.39400 -11.26500 48.66400
H  27.75200 -9.89400 49.59300
H  30.82500 -3.91200 46.70800
H  30.42500 -5.60600 47.00700
H  29.81800 -4.41200 48.09900
H  28.02800 -2.19400 42.35000
H  28.26600 2.07300 42.40000
H  26.49000 1.72500 42.81900
H  26.98400 1.76300 41.31300

