158

Mg 25.45000 0.73500 30.56300
C  27.66800 1.08700 33.37500
C  22.78200 1.12800 32.92500
C  23.35700 0.01700 28.06800
C  28.19300 0.03900 28.62800
N  25.30200 1.17800 32.92800
C  26.35200 1.26800 33.84100
C  25.79400 1.56400 35.23800
C  24.25500 1.48000 35.10900
C  24.08100 1.17900 33.58000
C  23.42200 0.43500 36.00800
C  26.28800 2.99100 35.72700
C  26.51100 2.98500 37.27500
H  25.65000 3.86200 38.20200
N  23.45300 0.62000 30.47900
C  22.53800 0.88100 31.48900
C  21.21600 0.83700 30.86900
C  21.37200 0.36300 29.51900
C  22.76800 0.30200 29.33500
C  19.98700 0.95200 31.67600
C  20.26100 -0.06200 28.44500
O  20.48300 -0.35000 27.27700
C  18.80700 -0.03000 28.81700
N  25.74000 -0.06600 28.62900
C  24.72100 -0.11900 27.68700
C  25.20300 -0.11100 26.24700
C  26.69300 0.08400 26.53000
C  26.93400 0.04200 28.01100
C  24.76000 -1.19500 25.29500
C  27.32800 1.46800 25.89500
C  26.95700 2.80500 26.62800
N  27.46800 0.39600 30.86700
C  28.47900 0.19900 29.98400
C  29.72100 0.13700 30.61100
C  29.47300 0.50900 31.90800
C  28.08600 0.77300 31.99400
C  31.01200 -0.35300 30.07500
C  30.06900 0.60600 33.24400
O  31.25300 0.29200 33.57100
C  28.99400 1.16100 34.20400
C  29.00100 0.16000 35.37300
O  28.75900 -1.04800 35.21900
O  29.23600 0.81700 36.60200
C  29.17900 -0.00600 37.84200
H  21.99100 1.33900 33.64800
H  22.72400 -0.02300 27.17900
H  28.88200 -0.10300 27.79300
H  26.16900 0.76900 35.88200
H  23.92400 2.50100 35.29900
H  23.35000 -0.54800 35.54400
H  22.39000 0.71200 36.22500
H  24.04300 0.26200 36.88700
H  25.61100 3.77500 35.38900
H  27.26000 3.17200 35.26700
H  27.52700 3.30600 37.50600
H  26.30400 1.96500 37.60100
H  19.30400 0.15000 31.39700
H  19.46100 1.87300 31.42700
H  20.19200 1.05400 32.74100
H  18.14200 -0.28000 27.99100
H  18.51100 0.94500 29.20400
H  18.53400 -0.74000 29.59700
H  24.86200 0.79600 25.74800
H  27.23100 -0.73500 26.05400
H  25.62200 -1.85500 25.20700
H  24.48200 -0.62500 24.40900
H  23.96600 -1.86300 25.63100
H  26.94100 1.65100 24.89200
H  28.41300 1.36300 25.90700
H  27.09400 2.63000 27.69500
H  25.94000 3.08900 26.35900
H  27.64400 3.55700 26.24000
H  31.13900 -1.25200 30.67800
H  31.76900 0.41000 30.25400
H  30.99300 -0.52700 28.99900
H  29.37900 2.09600 34.61200
H  30.07800 -0.61800 37.91500
H  28.30700 -0.65200 37.74000
H  28.97400 0.60300 38.72200
Mg 26.84700 51.51900 26.98100
C  24.54600 52.43600 29.50400
C  28.96100 50.46000 29.39600
C  29.13300 50.79000 24.56200
C  24.71900 53.01500 24.54900
N  26.71800 51.49100 29.20200
C  25.70800 51.95200 30.04000
C  26.04900 51.53600 31.47400
C  27.62200 51.17000 31.41600
C  27.80100 51.05900 29.91700
C  28.68600 52.08100 32.02100
C  25.09000 50.40700 32.04100
C  24.64900 50.49100 33.53000
H  25.63000 51.23000 34.55800
N  28.72900 50.58900 26.95100
C  29.45400 50.24800 28.09800
C  30.67200 49.59000 27.64000
C  30.71500 49.57200 26.27700
C  29.49000 50.26700 25.85700
C  31.68500 48.92400 28.62300
C  31.73100 48.96300 25.29800
O  31.65200 49.06400 24.05900
C  32.83900 48.09300 25.82000
N  26.91200 51.92100 24.85400
C  28.01500 51.43300 24.06000
C  27.71100 51.62400 22.47500
C  26.22600 52.33100 22.56900
C  25.88600 52.44500 24.07200
C  28.68900 52.41100 21.60900
C  25.12000 51.54000 21.87900
C  24.72300 50.17600 22.41000
N  25.12000 52.60800 26.95500
C  24.35900 53.15800 25.94000
C  23.12000 53.71400 26.49800
C  23.18900 53.51600 27.85700
C  24.41300 52.79400 28.10700
C  22.03100 54.40000 25.70800
C  22.49100 53.75400 29.12100
O  21.46600 54.36700 29.36700
C  23.35400 53.12900 30.25700
C  23.77500 54.12800 31.30300
O  24.66600 54.98400 31.20800
O  23.06100 54.01200 32.45600
C  23.33000 54.79300 33.64500
H  29.67600 50.00000 30.08300
H  29.79800 50.57400 23.72400
H  24.02000 53.43900 23.82600
H  26.03300 52.44000 32.08400
H  27.77700 50.17900 31.84300
H  28.26200 52.86000 32.65400
H  29.38700 52.45500 31.27600
H  29.25800 51.49500 32.74200
H  25.46300 49.39100 31.91200
H  24.19400 50.48300 31.42600
H  24.57100 49.45300 33.85500
H  23.66200 50.95000 33.47600
H  31.62900 47.85700 28.40700
H  31.42300 49.04100 29.67400
H  32.68800 49.34900 28.57800
H  33.68300 47.87900 25.16500
H  32.52300 47.09300 26.11700
H  33.26300 48.62900 26.66900
H  27.58800 50.58100 22.18300
H  26.14000 53.33200 22.14600
H  29.47300 52.70800 22.30400
H  28.12600 53.25700 21.21500
H  29.06700 51.75900 20.82100
H  25.35400 51.41000 20.82200
H  24.20200 52.12500 21.82000
H  25.43800 49.84800 23.16500
H  24.84800 49.40600 21.64800
H  23.74300 50.02900 22.86400
H  22.46800 55.24300 25.17200
H  21.18600 54.70900 26.32400
H  21.64300 53.73300 24.93800
H  22.74000 52.38700 30.76700
H  23.36300 54.10100 34.48700
H  22.48400 55.47800 33.70500
H  24.22200 55.41700 33.58500

