158

Mg 23.90700 -5.62400 45.47300
C  26.32700 -3.45900 44.06100
C  21.63500 -4.31600 43.19900
C  21.86300 -8.22200 46.15300
C  26.40600 -7.10400 47.27100
N  24.02000 -4.09800 43.81100
C  25.11000 -3.41500 43.36100
C  24.69700 -2.59200 42.06000
C  23.15200 -2.81600 41.95200
C  22.89000 -3.76200 43.07300
C  22.27600 -1.53800 41.88100
C  25.60800 -2.93100 40.85000
C  26.62100 -1.81100 40.40900
H  26.44400 -1.27000 38.99900
N  21.98300 -6.07500 44.91600
C  21.18200 -5.37800 44.00600
C  19.93300 -6.10400 43.83700
C  20.03600 -7.27500 44.58500
C  21.32000 -7.24600 45.31300
C  18.82100 -5.56900 42.93700
C  18.92900 -8.30400 44.66700
O  17.89900 -8.07600 44.01000
C  18.96500 -9.46200 45.61700
N  24.04600 -7.35200 46.80400
C  23.14700 -8.25600 46.78000
C  23.70400 -9.54100 47.35900
C  25.06100 -9.08700 47.95700
C  25.18000 -7.79600 47.25200
C  22.86300 -10.40400 48.45300
C  26.26700 -10.08900 47.77500
C  27.20900 -10.12200 48.95200
N  25.90500 -5.23400 45.85400
C  26.80800 -5.95700 46.57400
C  28.14500 -5.27700 46.45900
C  27.97700 -4.27000 45.50200
C  26.58900 -4.30600 45.13700
C  29.26200 -5.74600 47.23800
C  28.62000 -3.13500 44.91200
O  29.69600 -2.57500 45.07800
C  27.61700 -2.67100 43.74900
C  27.44400 -1.16100 43.97700
O  26.62600 -0.63300 44.72800
O  28.23000 -0.45300 43.10200
C  28.25000 0.99900 43.09700
H  20.98700 -4.06500 42.35700
H  21.29900 -9.15600 46.20700
H  27.22500 -7.59600 47.79900
H  24.87500 -1.56500 42.37900
H  23.04500 -3.31000 40.98700
H  22.08000 -1.13000 42.87300
H  21.38200 -1.56900 41.25800
H  22.83200 -0.68700 41.48800
H  25.04500 -3.07200 39.92700
H  26.06500 -3.91900 40.90200
H  27.63900 -2.17600 40.54800
H  26.53200 -0.90900 41.01400
H  18.86100 -5.86200 41.88800
H  18.79300 -4.48600 43.05900
H  17.79100 -5.74700 43.24500
H  19.29200 -9.12400 46.60100
H  19.67200 -10.07700 45.06000
H  18.01000 -9.98300 45.68200
H  23.92200 -10.19400 46.51500
H  24.95200 -8.97500 49.03500
H  21.80200 -10.22200 48.27900
H  23.08100 -10.11100 49.48000
H  23.12300 -11.45400 48.32500
H  26.77500 -9.74900 46.87200
H  25.79900 -11.04300 47.53500
H  27.12500 -11.13200 49.35400
H  26.97600 -9.36100 49.69600
H  28.22100 -9.96600 48.57600
H  30.07700 -5.10300 46.90600
H  29.36900 -6.81500 47.05600
H  29.00000 -5.61700 48.28800
H  28.00500 -3.02000 42.79200
H  27.77300 1.43000 43.97700
H  27.61000 1.20700 42.23900
H  29.27900 1.33800 42.97600
Mg 41.60100 41.20800 26.44200
C  40.91000 43.59700 28.83200
C  42.48800 39.07200 29.09900
C  42.11500 38.86200 24.19200
C  40.85700 43.51300 23.90200
N  41.87600 41.44300 28.70100
C  41.36500 42.41900 29.44700
C  41.48500 42.15100 30.93100
C  42.39000 40.87200 30.94000
C  42.28900 40.42800 29.49200
C  43.88300 41.07900 31.47100
C  40.19700 41.99800 31.77600
C  40.19200 42.75600 33.07200
H  39.47100 42.11300 34.34000
N  42.36500 39.32400 26.60800
C  42.51700 38.58600 27.77200
C  42.97200 37.29400 27.33800
C  43.02300 37.25500 25.91800
C  42.42000 38.51100 25.50300
C  43.31600 36.21200 28.35000
C  43.55000 36.15900 24.96200
O  43.70000 36.27500 23.75000
C  43.86700 34.79200 25.50600
N  41.60200 41.18100 24.32800
C  41.76800 40.01800 23.63400
C  41.46300 40.22400 22.11500
C  41.09000 41.77300 22.08600
C  41.24800 42.23600 23.52400
C  42.68700 39.76900 21.19200
C  39.70600 41.93500 21.53400
C  38.52700 41.91000 22.48700
N  41.03000 43.13700 26.33200
C  40.73100 43.97000 25.24700
C  40.35000 45.28100 25.69400
C  40.34300 45.22100 27.14200
C  40.76000 43.88400 27.45300
C  40.02400 46.56400 24.85800
C  39.93700 45.86100 28.36500
O  39.30600 46.90300 28.57400
C  40.33000 44.82200 29.55400
C  41.31600 45.52500 30.43200
O  42.39400 46.01700 30.14800
O  40.77000 45.68800 31.63300
C  41.50500 46.52700 32.57000
H  42.64700 38.32700 29.88100
H  42.01500 38.13400 23.38400
H  40.52300 44.25500 23.17400
H  42.07700 42.98800 31.30300
H  41.84900 40.13000 31.52700
H  44.00000 42.16200 31.44900
H  44.50400 40.54000 30.75600
H  44.01700 40.79500 32.51500
H  39.82900 40.97300 31.82500
H  39.40200 42.46000 31.19100
H  39.77400 43.75300 32.93600
H  41.21200 42.95400 33.40000
H  42.77000 36.33600 29.28600
H  44.37700 36.14900 28.58900
H  42.94600 35.22900 28.06000
H  44.83900 34.92600 25.98000
H  43.93600 34.09600 24.67100
H  43.03500 34.39600 26.08900
H  40.58600 39.60700 21.92200
H  41.82100 42.27500 21.45200
H  42.55900 38.74100 20.85300
H  43.61000 39.74000 21.77100
H  42.79600 40.49900 20.39000
H  39.47700 41.10400 20.86600
H  39.68500 42.89900 21.02500
H  38.90200 41.64900 23.47700
H  37.84500 41.07800 22.31200
H  38.07100 42.89900 22.52600
H  40.24100 47.46700 25.42800
H  38.96200 46.78100 24.74100
H  40.77200 46.60300 24.06600
H  39.40300 44.57000 30.06800
H  41.90800 47.45000 32.15200
H  42.36700 45.89400 32.78000
H  40.99300 46.70800 33.51500

