158

Mg 7.96200 3.05100 27.75900
C  9.60000 2.09300 30.79800
C  5.97600 5.14800 29.65000
C  6.32500 3.77300 24.98800
C  9.69500 0.42600 26.20100
N  7.66000 3.34400 30.04800
C  8.44800 2.95900 31.03500
C  8.06500 3.73000 32.36000
C  6.83900 4.63600 32.00100
C  6.76300 4.32300 30.48600
C  5.47400 4.44600 32.80100
C  9.18800 4.45100 33.14900
C  8.67400 5.00900 34.48900
H  9.50800 4.66500 35.71000
N  6.46300 4.32200 27.34800
C  5.82100 5.15600 28.21900
C  5.01600 6.03500 27.43400
C  5.19600 5.78900 26.05500
C  5.90400 4.54300 26.08100
C  4.23200 7.13200 28.01700
C  4.82300 6.58500 24.85200
O  5.13900 6.21900 23.74300
C  4.07000 7.85700 24.99500
N  7.93100 2.12300 26.00200
C  7.20800 2.66500 24.92500
C  7.40900 1.87400 23.62000
C  8.54500 0.91800 24.06200
C  8.75900 1.14300 25.49900
C  6.20900 1.27200 22.90900
C  9.79200 1.03900 23.14400
C  10.71400 2.22800 23.35500
N  9.40100 1.49300 28.29300
C  10.01500 0.52900 27.56200
C  10.97000 -0.17900 28.39600
C  10.78000 0.41200 29.65100
C  9.81200 1.45900 29.52700
C  11.81700 -1.23900 27.94400
C  11.23000 0.40100 31.03800
O  12.06800 -0.32500 31.53900
C  10.37700 1.41700 31.88800
C  9.48600 0.64700 32.85000
O  8.55000 -0.11700 32.56500
O  9.97300 0.91700 34.06700
C  9.42700 0.21900 35.22600
H  5.44500 5.92100 30.20800
H  5.87700 4.01500 24.02200
H  10.20400 -0.39200 25.68600
H  7.69600 3.01300 33.09300
H  7.17200 5.66800 32.11700
H  5.57300 3.93800 33.76000
H  4.87800 3.84900 32.11100
H  4.96100 5.38800 32.99500
H  9.57800 5.29800 32.58300
H  9.98500 3.76800 33.44300
H  7.66200 4.63700 34.65000
H  8.67300 6.08200 34.30000
H  4.01800 7.04900 29.08300
H  3.22400 7.10500 27.60400
H  4.69900 8.09000 27.79100
H  3.04800 7.62000 25.29000
H  4.03200 8.20500 23.96300
H  4.54400 8.58300 25.65600
H  7.95900 2.59000 23.00900
H  8.18600 -0.09400 23.87600
H  6.36100 0.22900 22.63000
H  6.03700 1.81400 21.98000
H  5.29200 1.40900 23.48200
H  9.65600 1.26400 22.08600
H  10.39800 0.14700 23.30200
H  11.68200 1.82300 23.64900
H  10.30100 2.95200 24.05700
H  10.90800 2.72300 22.40400
H  11.45200 -2.13000 28.45400
H  12.87000 -1.06400 28.16400
H  11.59200 -1.37000 26.88500
H  10.97500 2.12700 32.46000
H  9.81100 0.50800 36.20500
H  9.76200 -0.79500 35.01100
H  8.33800 0.18700 35.25100
Mg -2.42700 33.81600 27.39400
C  -4.35100 31.87100 29.58200
C  -1.24500 35.60300 30.22400
C  -1.24500 36.15000 25.40600
C  -4.22600 32.47500 24.66400
N  -2.91400 33.84500 29.61600
C  -3.59600 32.85000 30.30500
C  -3.52200 33.02100 31.83700
C  -2.69800 34.34900 31.96100
C  -2.34000 34.69300 30.51200
C  -3.36100 35.64800 32.65600
C  -2.95000 31.84900 32.68500
C  -3.53100 31.64100 34.09500
H  -2.70500 31.40400 35.40000
N  -1.09400 35.42900 27.75100
C  -0.76300 36.00900 28.92500
C  0.25000 37.08000 28.59300
C  0.25400 37.24600 27.18800
C  -0.63600 36.25300 26.65700
C  0.99500 37.84400 29.56700
C  1.21400 38.13900 26.34100
O  1.10600 38.08400 25.09500
C  2.20400 39.14900 26.96200
N  -2.67200 34.21500 25.42100
C  -2.12500 35.30300 24.84400
C  -2.35000 35.37800 23.36200
C  -3.16000 34.09000 23.03800
C  -3.37400 33.54200 24.46400
C  -3.08600 36.67500 23.00800
C  -2.51400 33.06700 22.08500
C  -1.24600 32.26500 22.61000
N  -3.89400 32.42000 27.07500
C  -4.48900 31.89100 25.97300
C  -5.35200 30.77300 26.33500
C  -5.29400 30.72400 27.70100
C  -4.50000 31.81200 28.16600
C  -6.21000 29.98200 25.36900
C  -5.78000 30.03500 28.87700
O  -6.57200 29.09100 29.00900
C  -5.04500 30.72900 30.17600
C  -6.14600 31.19900 31.15200
O  -6.93500 32.04200 30.94200
O  -6.01000 30.49400 32.37200
C  -7.13400 30.70400 33.36500
H  -0.79700 36.12100 31.07500
H  -0.84500 36.95400 24.78400
H  -4.78300 31.98200 23.86400
H  -4.53600 33.25000 32.16600
H  -1.77300 34.22200 32.52300
H  -2.83300 35.90900 33.57300
H  -4.38200 35.42300 32.96300
H  -3.38100 36.50400 31.98200
H  -1.96800 32.14600 33.05500
H  -2.76300 30.94200 32.11000
H  -4.09600 30.71100 34.16100
H  -4.29300 32.40900 34.22800
H  2.05100 37.57200 29.56100
H  0.59900 37.60000 30.55300
H  0.76600 38.89900 29.41500
H  1.74800 39.84600 27.66500
H  2.52900 39.80200 26.15200
H  2.92800 38.51700 27.47400
H  -1.42100 35.30200 22.79700
H  -4.09000 34.43700 22.58700
H  -2.40800 37.43800 22.62500
H  -3.64400 37.04900 23.86500
H  -3.92700 36.56700 22.32300
H  -2.24700 33.53400 21.13700
H  -3.28400 32.35000 21.80200
H  -0.45600 32.29600 21.86000
H  -1.57500 31.23300 22.73600
H  -0.96300 32.50300 23.63500
H  -5.99500 28.91600 25.43100
H  -6.15200 30.33600 24.33900
H  -7.25300 30.10900 25.65800
H  -4.54100 29.92700 30.71500
H  -6.89500 31.58500 33.96100
H  -7.21000 29.78900 33.95300
H  -8.10100 30.87100 32.89100

