158

Mg 26.86200 50.38100 26.73900
C  25.08000 51.85100 29.29800
C  28.97900 49.03500 28.94700
C  28.50200 48.97900 24.11800
C  24.51900 51.83300 24.48400
N  26.94200 50.33400 28.79900
C  26.05500 50.93800 29.69300
C  26.39100 50.66000 31.22600
C  27.80500 49.97000 31.01800
C  27.90000 49.75100 29.50000
C  29.07500 50.65200 31.73600
C  25.30600 49.64500 31.83100
C  24.73100 49.86200 33.30600
H  25.40600 50.78300 34.24400
N  28.70200 49.31900 26.58000
C  29.36000 48.78500 27.60700
C  30.49200 48.05400 27.10900
C  30.34600 47.91400 25.73200
C  29.12900 48.70300 25.42200
C  31.47200 47.45000 28.11700
C  31.26500 47.25300 24.72400
O  31.29000 47.51200 23.58400
C  32.29300 46.30700 25.28800
N  26.74400 50.65000 24.53100
C  27.46500 49.76200 23.73000
C  26.90100 49.78300 22.26600
C  25.55400 50.60100 22.45500
C  25.57900 51.06400 23.94200
C  27.85000 50.47200 21.30400
C  24.13500 49.91700 22.10900
C  23.06100 50.84400 21.45900
N  25.20100 51.65100 26.79200
C  24.29600 52.14600 25.79600
C  23.27600 52.93700 26.40100
C  23.57500 52.78700 27.77500
C  24.74200 52.10900 27.93600
C  22.22100 53.71300 25.71100
C  23.04000 53.21900 29.06500
O  22.01100 53.78300 29.34800
C  23.99100 52.53600 30.14500
C  24.56700 53.57000 31.09000
O  25.53000 54.26200 30.92500
O  23.68600 53.67600 32.15000
C  23.91600 54.87800 32.96900
H  29.56800 48.58600 29.75000
H  29.03200 48.46400 23.31300
H  23.71200 52.16900 23.82900
H  26.51200 51.60400 31.75700
H  27.79700 48.92700 31.33400
H  28.81600 51.65200 32.08600
H  29.99800 50.67500 31.15600
H  29.28300 50.01200 32.59300
H  25.71700 48.63600 31.87300
H  24.40600 49.62900 31.21700
H  24.52600 48.89300 33.76200
H  23.75100 50.29000 33.09700
H  32.50800 47.44000 27.77800
H  31.05700 46.46600 28.33300
H  31.50800 47.99100 29.06200
H  31.75600 45.58200 25.90000
H  33.11800 46.72500 25.86400
H  32.75800 45.79000 24.44800
H  26.74600 48.76100 21.91900
H  25.62200 51.49000 21.82900
H  27.47500 51.43100 20.94700
H  28.13700 49.81100 20.48700
H  28.74100 50.69100 21.89400
H  23.78000 49.58900 23.08600
H  24.27900 49.03500 21.48500
H  22.89900 50.60300 20.40800
H  23.34000 51.88400 21.63000
H  22.15700 50.55100 21.99300
H  21.36800 53.82600 26.38000
H  21.84200 53.34600 24.75700
H  22.62000 54.70200 25.48500
H  23.36200 51.89000 30.75800
H  24.56600 54.70400 33.82600
H  22.94300 55.19100 33.34800
H  24.30700 55.69700 32.36500
Mg -2.59700 35.12500 27.02300
C  -4.44000 33.05800 29.24300
C  -1.62500 36.90400 29.75300
C  -0.75600 36.84000 24.92700
C  -3.97000 33.35400 24.26600
N  -3.13100 35.09800 29.23400
C  -3.71400 34.05000 29.90800
C  -3.61400 34.18000 31.43900
C  -3.08800 35.60500 31.50200
C  -2.51600 35.95500 30.13200
C  -3.99900 36.73300 32.00500
C  -2.72400 32.99700 32.06800
C  -3.25400 32.38400 33.40200
H  -3.95500 33.36500 34.34300
N  -1.35000 36.59700 27.32000
C  -0.92300 37.10100 28.55600
C  0.03700 38.08800 28.24500
C  0.30900 38.09300 26.87400
C  -0.65200 37.11300 26.26900
C  0.56900 39.01100 29.31400
C  1.39800 38.88900 26.06800
O  1.51000 38.74700 24.87300
C  2.37500 39.71100 26.76400
N  -2.48000 35.19100 24.81900
C  -1.57900 35.97000 24.21700
C  -1.56900 35.79000 22.68200
C  -2.54900 34.59600 22.49500
C  -3.09200 34.35400 23.94100
C  -1.83200 37.16400 21.98900
C  -2.00300 33.39500 21.69000
C  -1.28600 32.26000 22.46900
N  -3.92200 33.57800 26.74600
C  -4.31300 32.95400 25.59200
C  -5.21600 31.86600 25.93000
C  -5.33300 31.87900 27.33400
C  -4.55000 32.99100 27.78700
C  -5.86100 30.89900 24.94000
C  -5.81200 31.15300 28.52300
O  -6.53100 30.18600 28.55400
C  -5.28600 31.85000 29.76000
C  -6.41300 32.34300 30.64200
O  -7.27100 33.13800 30.33800
O  -6.41800 31.58200 31.82100
C  -7.46400 31.88000 32.82100
H  -1.34300 37.60000 30.54700
H  0.00500 37.24900 24.25900
H  -4.18100 32.61600 23.48900
H  -4.58100 34.32200 31.92200
H  -2.28100 35.67700 32.23100
H  -4.33200 36.32100 32.95700
H  -4.87100 36.93600 31.38200
H  -3.39200 37.60100 32.26400
H  -1.75600 33.43600 32.30800
H  -2.66300 32.15400 31.37900
H  -2.44800 32.07400 34.06700
H  -3.90700 31.54100 33.17800
H  0.14300 39.00400 30.31700
H  0.57700 40.02200 28.90700
H  1.60500 38.71300 29.48200
H  1.81600 40.46900 27.31300
H  2.99900 40.16500 25.99400
H  2.96600 39.06800 27.41700
H  -0.60500 35.42800 22.32500
H  -3.48700 34.92200 22.04600
H  -0.95600 37.80400 22.09700
H  -2.74800 37.72000 22.19000
H  -1.87700 36.96400 20.91800
H  -1.36500 33.80700 20.90800
H  -2.67700 32.85000 21.02900
H  -0.48300 31.81700 21.88100
H  -1.96600 31.43300 22.67200
H  -0.78700 32.81800 23.26100
H  -6.70900 30.43200 25.44200
H  -5.11100 30.17600 24.62100
H  -6.18700 31.47000 24.07000
H  -4.52500 31.18600 30.16900
H  -7.11200 32.77400 33.33600
H  -7.51000 31.10400 33.58500
H  -8.45900 31.97800 32.38700

