158

Mg 47.91400 25.83100 28.38600
C  48.89800 27.85000 31.11400
C  47.07500 23.37200 30.66600
C  46.90900 23.83000 25.82800
C  49.00100 28.16900 26.26500
N  47.95400 25.69000 30.59700
C  48.31300 26.63400 31.52600
C  47.88200 26.25500 32.89200
C  47.43600 24.78400 32.73900
C  47.50900 24.62000 31.23900
C  48.13400 23.59500 33.46800
C  46.78600 27.25000 33.57800
C  47.16700 27.66300 35.03900
H  46.05000 28.05300 35.95900
N  47.11700 23.90500 28.26300
C  46.93500 23.06800 29.30700
C  46.58500 21.73100 28.81000
C  46.33500 21.88100 27.40400
C  46.72200 23.29600 27.11600
C  46.72300 20.47000 29.69000
C  45.92300 20.93700 26.32900
O  45.56400 21.24200 25.21900
C  45.94900 19.45600 26.60900
N  47.89900 25.98200 26.37400
C  47.37500 25.07400 25.46900
C  47.64900 25.43400 24.00400
C  48.37000 26.77700 24.22600
C  48.43300 27.01200 25.74700
C  48.56300 24.43700 23.21900
C  47.58300 28.03400 23.55000
C  48.40100 28.85400 22.63400
N  48.81000 27.68600 28.50900
C  49.22400 28.51300 27.58900
C  50.02200 29.56000 28.23000
C  49.79800 29.36500 29.59400
C  49.11300 28.21600 29.73100
C  50.74800 30.67900 27.64900
C  50.07800 29.98100 30.88300
O  50.60900 31.06100 31.08400
C  49.35600 29.03300 31.98300
C  50.24200 28.61300 32.97600
O  50.78800 27.52300 32.93700
O  50.43200 29.57700 33.94100
C  51.34500 29.24400 35.00800
H  46.89800 22.53900 31.35000
H  46.56800 23.27900 24.94900
H  49.42700 28.84500 25.52100
H  48.81300 26.07200 33.42900
H  46.39200 24.66300 33.02800
H  48.88400 24.03100 34.12700
H  48.75500 23.04400 32.76100
H  47.45200 22.93000 33.99700
H  45.78600 26.81700 33.55300
H  46.70900 28.08200 32.87800
H  47.86700 28.49900 35.04400
H  47.67100 26.78700 35.44700
H  47.15400 20.73600 30.65500
H  47.30400 19.67600 29.22100
H  45.75200 20.17900 30.09000
H  45.56300 19.34800 27.62200
H  46.98500 19.12500 26.54400
H  45.39700 18.77200 25.96400
H  46.66700 25.56200 23.54900
H  49.37300 26.74200 23.80000
H  48.95800 23.58600 23.77400
H  49.46900 24.83100 22.75900
H  47.94700 23.99100 22.43800
H  47.11500 28.65700 24.31200
H  46.71400 27.61400 23.04300
H  49.35800 28.37000 22.43900
H  48.57500 29.82900 23.08900
H  47.84000 28.97900 21.70700
H  51.73600 30.22600 27.56000
H  50.75900 31.59700 28.23500
H  50.30400 30.97100 26.69700
H  48.57600 29.61700 32.47300
H  50.92200 28.46300 35.64100
H  51.62900 30.05200 35.68200
H  52.26100 28.88100 34.54100
Mg 43.00400 41.74400 26.09100
C  41.66200 43.97700 28.48500
C  44.35000 39.77300 28.64200
C  44.41000 39.77100 23.75000
C  42.01100 43.95300 23.54500
N  42.88000 41.93000 28.28800
C  42.20400 42.79900 29.09400
C  42.36500 42.49300 30.58800
C  43.53900 41.43600 30.51200
C  43.63800 40.98500 29.06000
C  44.89800 41.85300 31.04100
C  41.03200 42.07000 31.27100
C  41.13800 41.61000 32.76900
H  40.62600 42.59800 33.83700
N  44.22000 39.98700 26.18100
C  44.55300 39.29300 27.29300
C  45.30300 38.13400 26.91200
C  45.32900 38.06300 25.47500
C  44.58500 39.27100 25.07400
C  46.04900 37.24900 27.89800
C  45.87600 37.04900 24.60100
O  45.75900 37.10500 23.35000
C  46.29000 35.75600 25.20300
N  43.25100 41.93800 24.00400
C  43.80900 40.99600 23.27400
C  43.79500 41.32000 21.72200
C  43.01100 42.61900 21.67100
C  42.74100 42.88000 23.12400
C  45.22200 41.48100 21.30100
C  41.76000 42.52900 20.79100
C  40.37500 42.31000 21.41300
N  42.10000 43.58800 25.97500
C  41.68800 44.30000 24.89900
C  41.08700 45.54900 25.36400
C  41.01200 45.46000 26.71700
C  41.58400 44.21600 27.05600
C  40.70400 46.69600 24.52100
C  40.55100 46.07700 27.94300
O  40.00200 47.11800 28.15400
C  40.91300 45.13600 29.08900
C  41.69200 45.88200 30.08500
O  42.75000 46.43800 29.91700
O  41.01400 45.87900 31.24600
C  41.76400 46.35500 32.42000
H  44.63600 39.17200 29.50800
H  44.80400 39.09100 22.99300
H  41.56300 44.55700 22.75300
H  42.66200 43.38500 31.14000
H  43.33000 40.49600 31.02300
H  45.60400 41.79800 30.21300
H  45.16000 41.12200 31.80600
H  44.89900 42.88400 31.39600
H  40.62800 41.23500 30.69900
H  40.43000 42.95900 31.08500
H  42.09700 41.19100 33.07300
H  40.46300 40.75800 32.85200
H  46.96300 36.94800 27.38700
H  45.42600 36.41800 28.23000
H  46.29600 37.80700 28.80100
H  45.48600 35.28000 25.76200
H  47.22400 35.93200 25.73700
H  46.72000 35.15000 24.40600
H  43.38600 40.44000 21.22800
H  43.51400 43.53200 21.35100
H  45.81100 41.88600 22.12400
H  45.25200 42.26000 20.53800
H  45.68000 40.58300 20.88700
H  41.82600 41.61900 20.19400
H  41.68400 43.33700 20.06300
H  39.67800 43.11100 21.16600
H  40.29800 42.08500 22.47700
H  39.92400 41.44100 20.93500
H  41.33600 47.54500 24.78000
H  39.64900 46.94000 24.64200
H  40.95800 46.51900 23.47600
H  39.99400 44.76400 29.54100
H  42.74500 45.88200 32.39100
H  41.22400 46.11700 33.33600
H  41.80400 47.43600 32.55200

