158

Mg 35.24800 47.40900 25.19700
C  35.92300 45.80000 28.06600
C  34.01300 50.05500 27.08100
C  34.53500 49.17200 22.30200
C  36.28400 44.66500 23.36900
N  34.87900 47.78000 27.42900
C  35.33000 46.97900 28.38400
C  35.12400 47.68200 29.72100
C  34.17300 48.93000 29.32500
C  34.33100 48.93000 27.87200
C  32.67000 48.91500 29.79700
C  36.39300 48.12200 30.50900
C  36.34400 47.96900 31.97800
H  35.16400 47.94300 32.95600
N  34.42900 49.35700 24.78200
C  34.05600 50.30500 25.69700
C  33.72100 51.54600 25.03100
C  33.78000 51.27600 23.61500
C  34.27900 49.91300 23.49500
C  33.43400 52.92200 25.67400
C  33.53200 52.20200 22.44600
O  33.47200 51.74400 21.32500
C  33.32300 53.68300 22.68700
N  35.33900 46.89700 23.14200
C  34.98000 47.81800 22.11600
C  35.34700 47.17100 20.75200
C  36.12500 45.86700 21.10800
C  35.87800 45.74700 22.61700
C  34.14000 46.86400 19.78800
C  37.61500 45.86200 20.76100
C  38.63700 46.12300 21.88300
N  35.92100 45.55300 25.61400
C  36.32500 44.49900 24.73900
C  36.66200 43.41500 25.52600
C  36.62700 43.86900 26.87500
C  36.03800 45.11500 26.81200
C  37.23400 42.08900 24.95600
C  36.85300 43.54800 28.24300
O  37.31300 42.51500 28.70400
C  36.39100 44.75200 29.10400
C  35.32000 44.32200 30.07400
O  34.18100 43.98000 29.74700
O  35.68800 44.49700 31.40500
C  34.69000 44.12200 32.41000
H  33.67600 50.96200 27.58800
H  34.37500 49.56900 21.29700
H  36.62900 43.80300 22.79400
H  34.60300 47.04900 30.43900
H  34.59500 49.86700 29.68900
H  32.46200 49.70500 30.51800
H  32.18600 48.01400 30.17300
H  32.12200 49.26600 28.92200
H  36.66900 49.15500 30.29700
H  37.18000 47.49900 30.08400
H  36.99500 48.71800 32.42900
H  36.80600 46.98400 32.03600
H  34.02400 53.75100 25.28100
H  33.73100 52.93500 26.72300
H  32.36700 53.10700 25.55200
H  34.09500 54.07200 23.35100
H  32.39800 53.71000 23.26400
H  33.28600 54.23200 21.74700
H  36.17700 47.76600 20.37200
H  35.63700 45.07600 20.53800
H  33.41300 47.67300 19.72200
H  33.72100 45.94400 20.19700
H  34.43400 46.61000 18.76900
H  37.77300 46.44300 19.85300
H  37.69800 44.87600 20.30400
H  38.97600 45.19100 22.33500
H  38.19300 46.65300 22.72500
H  39.50000 46.71900 21.58600
H  36.42100 41.37100 24.84900
H  37.91100 41.76500 25.74600
H  37.70700 42.35500 24.01000
H  37.25400 45.04300 29.70400
H  34.71000 43.04000 32.53600
H  33.70300 44.50900 32.15800
H  34.96700 44.34400 33.44100
Mg 5.51200 52.91200 41.10100
C  4.87100 49.43700 40.80900
C  8.55300 52.35000 39.61700
C  5.69000 56.17700 40.63300
C  2.08800 53.31200 41.96900
N  6.57600 51.06400 40.33300
C  6.11000 49.77600 40.27100
C  7.17300 48.86100 39.56200
C  8.49000 49.77300 39.62900
C  7.82100 51.16700 39.94900
C  9.37900 49.36600 40.86400
C  6.82000 48.47000 38.12800
C  5.85200 49.40400 37.36900
H  6.57600 50.41200 36.39000
N  6.96100 54.07900 40.33600
C  8.08200 53.67600 39.63900
C  8.86500 54.82000 39.28400
C  8.10800 55.93100 39.67100
C  6.84200 55.39000 40.22800
C  10.21900 54.72200 38.76500
C  8.47600 57.40500 39.48500
O  9.52200 57.74800 38.97400
C  7.56900 58.53500 39.88200
N  4.02700 54.46900 41.19200
C  4.44300 55.79200 41.13200
C  3.23300 56.77500 41.27300
C  2.01300 55.86600 41.54700
C  2.72700 54.43200 41.57100
C  3.54700 57.64200 42.55200
C  0.97600 55.88200 40.37000
C  0.08700 57.14800 40.40100
N  3.88800 51.74300 41.51300
C  2.60600 52.00200 41.95600
C  1.95000 50.81000 42.38500
C  2.82100 49.74900 41.95400
C  3.95900 50.35600 41.34400
C  0.61300 50.75800 43.21900
C  2.93500 48.35000 41.81600
O  2.12500 47.57300 42.21400
C  4.28400 48.05100 41.12300
C  4.01400 47.15600 39.95100
O  3.35700 47.44000 38.93900
O  4.52400 45.88300 40.18500
C  3.79600 44.86500 39.42400
H  9.56000 52.16200 39.23600
H  5.68500 57.26200 40.51100
H  1.12000 53.51700 42.43000
H  7.34000 47.92000 40.08600
H  9.13400 49.74200 38.75000
H  9.07300 48.37400 41.19600
H  9.35300 50.12900 41.64100
H  10.41100 49.26500 40.52700
H  6.29400 47.51900 38.21700
H  7.68200 48.26200 37.49400
H  5.20400 50.04100 37.97200
H  5.16500 48.77700 36.80100
H  10.35500 54.42900 37.72400
H  10.71500 53.93100 39.32800
H  10.80600 55.62100 38.95300
H  8.18400 59.42500 39.74800
H  7.44900 58.49900 40.96500
H  6.71900 58.61900 39.20400
H  3.23200 57.32800 40.33400
H  1.54100 56.05300 42.51100
H  4.43400 57.26300 43.05900
H  2.72600 57.62500 43.26800
H  3.78700 58.68600 42.35000
H  0.38200 54.99000 40.57000
H  1.31500 55.85000 39.33500
H  0.03400 57.50400 39.37200
H  0.55900 57.83900 41.09800
H  -0.94500 56.88700 40.63700
H  -0.13400 50.07200 42.82000
H  0.15000 51.74500 43.21900
H  0.75500 50.51600 44.27200
H  4.89800 47.48800 41.82600
H  4.25500 44.74200 38.44300
H  2.76100 45.12100 39.19800
H  3.86900 43.90800 39.93900

