158

Mg 43.49000 42.13800 27.00900
C  42.33400 44.26000 29.50600
C  45.22100 40.36900 29.42500
C  44.88600 40.17000 24.47500
C  42.42600 44.31400 24.54600
N  43.64700 42.28200 29.07000
C  42.96200 43.09600 29.93100
C  43.22200 42.75700 31.42700
C  44.35700 41.75600 31.32400
C  44.43600 41.44900 29.81400
C  45.75500 42.23300 31.87200
C  41.91400 42.19700 32.05100
C  42.03400 41.94000 33.53000
H  41.32800 42.86100 34.51600
N  44.80000 40.50700 26.91600
C  45.37800 39.92200 28.05500
C  46.13000 38.72700 27.66600
C  46.10100 38.70100 26.25800
C  45.19800 39.76200 25.83800
C  46.79500 37.94300 28.78200
C  46.76600 37.83400 25.28300
O  46.69100 37.99000 24.06200
C  47.63500 36.73200 25.73700
N  43.60800 42.18000 24.84700
C  44.19200 41.31700 24.02400
C  44.04800 41.61100 22.51200
C  43.18700 42.90900 22.58300
C  43.03100 43.12100 24.13500
C  45.32600 41.61000 21.65200
C  41.88800 42.88600 21.75700
C  40.71400 41.96700 22.35800
N  42.50100 43.94000 26.97600
C  42.10800 44.66800 25.93800
C  41.57600 45.89600 26.40700
C  41.52400 45.70900 27.82200
C  42.14500 44.53200 28.09900
C  41.11900 47.09000 25.57100
C  41.17500 46.33400 29.10900
O  40.77100 47.48300 29.40400
C  41.50700 45.33000 30.28300
C  42.38500 45.91700 31.33900
O  43.42500 46.48600 31.10800
O  41.82300 45.86100 32.59200
C  42.58800 46.59000 33.57900
H  45.57400 39.76600 30.26400
H  45.24100 39.60200 23.61200
H  41.92300 44.94800 23.81300
H  43.49500 43.58800 32.07700
H  44.21300 40.83800 31.89400
H  45.65300 43.12000 32.49700
H  46.50300 42.42400 31.10200
H  46.09600 41.43300 32.52900
H  41.65400 41.31100 31.47300
H  41.19000 42.96400 31.77700
H  43.08800 41.89000 33.80400
H  41.73800 40.89400 33.61900
H  46.09500 37.54800 29.51900
H  47.45700 38.62400 29.31600
H  47.39700 37.12200 28.39300
H  48.48100 37.03300 26.35400
H  48.02600 36.32000 24.80600
H  47.09300 35.97800 26.30700
H  43.44500 40.87900 21.97400
H  43.76000 43.80300 22.33400
H  46.13300 41.49700 22.37600
H  45.58900 42.39100 20.93800
H  45.30900 40.67700 21.09000
H  42.23600 42.56300 20.77600
H  41.60100 43.91400 21.53700
H  40.33600 41.29300 21.58900
H  39.88900 42.49400 22.83600
H  41.06900 41.25900 23.10700
H  40.39400 46.61100 24.91300
H  41.98100 47.48300 25.03300
H  40.75500 47.83400 26.28000
H  40.61900 44.83900 30.67900
H  43.64500 46.33200 33.51300
H  42.21000 46.39300 34.58200
H  42.49700 47.65200 33.35100
Mg 17.25800 50.88000 25.99100
C  19.07900 49.48400 28.64600
C  14.91600 51.91000 28.24400
C  15.34400 51.93100 23.36700
C  19.49700 49.53800 23.81000
N  16.99300 50.60800 28.17000
C  17.93200 50.17200 29.04800
C  17.57700 50.54100 30.46600
C  16.06800 50.98300 30.29300
C  16.01700 51.23100 28.85000
C  14.98400 50.03100 30.83800
C  18.43400 51.76400 30.96400
C  18.26000 52.11400 32.49500
H  17.28800 51.19800 33.37100
N  15.40800 51.82100 25.87200
C  14.62600 52.17500 26.91500
C  13.48900 53.00500 26.48000
C  13.69000 53.06800 25.01400
C  14.87800 52.28100 24.68700
C  12.49400 53.65600 27.48800
C  12.90400 53.82100 24.01300
O  13.18700 53.91900 22.79600
C  11.65300 54.50400 24.41400
N  17.33600 50.68900 23.84000
C  16.45200 51.14100 22.96500
C  17.08300 51.19400 21.59000
C  18.51400 50.45700 21.73600
C  18.45500 50.33300 23.22500
C  16.23800 50.43800 20.53000
C  19.77000 51.30000 21.28700
C  20.87200 50.43300 20.68200
N  19.02800 49.88800 26.13900
C  19.81100 49.26700 25.18100
C  20.95000 48.59700 25.75700
C  20.75400 48.70000 27.11400
C  19.54400 49.40900 27.32500
C  21.94700 47.78100 24.97200
C  21.14700 48.24100 28.38800
O  22.05100 47.51700 28.69300
C  20.23700 48.89600 29.42500
C  19.68000 47.90200 30.32700
O  18.72800 47.15700 30.01400
O  20.36800 47.88200 31.54000
C  19.76300 47.06800 32.66200
H  14.34400 52.43900 29.00900
H  14.83900 52.45300 22.55100
H  20.27300 49.17400 23.13300
H  17.74200 49.61200 31.01100
H  15.90400 51.85300 30.92900
H  15.30500 49.21300 31.48300
H  14.62600 49.45500 29.98500
H  14.11900 50.59700 31.18600
H  18.10600 52.61600 30.36900
H  19.48400 51.61700 30.71100
H  17.72500 53.05100 32.34000
H  19.19400 52.25900 33.03700
H  11.60800 53.86200 26.88800
H  12.88000 54.59000 27.89600
H  12.33000 52.94700 28.30000
H  11.04800 54.79800 23.55700
H  11.94800 55.41800 24.92900
H  11.16100 53.74000 25.01600
H  17.16300 52.21900 21.23100
H  18.44200 49.44400 21.34000
H  15.22200 50.26400 20.88500
H  16.69100 49.50200 20.20400
H  16.26600 51.15500 19.70900
H  20.21700 51.74900 22.17300
H  19.46300 52.04000 20.54700
H  21.81900 50.51500 21.21600
H  21.04600 50.90900 19.71700
H  20.59700 49.40100 20.46800
H  22.20700 48.18500 23.99400
H  21.41100 46.84000 24.84100
H  22.80800 47.59800 25.61500
H  20.79000 49.62900 30.01200
H  18.68900 47.25100 32.69100
H  20.16200 47.39100 33.62300
H  20.07000 46.03800 32.48100

