158

Mg -1.34400 16.96800 25.91200
C  -1.93100 14.84000 28.76500
C  -1.79600 19.72400 28.02000
C  -1.25200 18.83700 23.26300
C  -1.57300 14.09300 23.97800
N  -1.93800 17.30900 28.12800
C  -2.10500 16.24100 29.11600
C  -2.44900 16.93500 30.47500
C  -2.33900 18.48600 30.23100
C  -1.92300 18.50200 28.72300
C  -3.56100 19.38200 30.59800
C  -1.72700 16.45100 31.76300
C  -1.97300 17.20400 33.08000
H  -1.90200 16.31400 34.27900
N  -1.42700 19.04300 25.63500
C  -1.66900 19.98800 26.60500
C  -1.61300 21.27500 25.96000
C  -1.42200 21.07200 24.60300
C  -1.28800 19.61000 24.45900
C  -1.80300 22.54100 26.79500
C  -1.52100 22.13000 23.52200
O  -1.30300 21.88400 22.31900
C  -1.91500 23.56700 23.90800
N  -1.27300 16.46900 23.86500
C  -1.20800 17.48300 22.92300
C  -1.44900 16.93800 21.46800
C  -1.70300 15.39900 21.74400
C  -1.55300 15.29600 23.28300
C  -2.67400 17.65400 20.69900
C  -0.68100 14.50500 21.00400
C  0.80500 14.64500 21.49000
N  -1.45500 14.89500 26.22100
C  -1.43900 13.84800 25.32400
C  -1.53000 12.66300 26.06900
C  -1.61700 12.97800 27.39500
C  -1.75300 14.34300 27.45800
C  -1.63500 11.25000 25.44000
C  -1.72600 12.45300 28.72400
O  -1.66900 11.26900 29.07900
C  -1.89200 13.61800 29.66400
C  -0.79900 13.59900 30.60400
O  0.31100 14.06400 30.50100
O  -1.22400 12.77500 31.62400
C  -0.38800 12.67900 32.85700
H  -1.76500 20.61300 28.65200
H  -1.31100 19.56400 22.45000
H  -1.87700 13.17000 23.48100
H  -3.50000 16.69500 30.63700
H  -1.43600 18.93600 30.64300
H  -4.10600 18.82500 31.36100
H  -4.18500 19.47400 29.70900
H  -3.32700 20.43200 30.77300
H  -0.69300 16.30700 31.44800
H  -2.20400 15.49700 31.98900
H  -2.96000 17.66300 33.11900
H  -1.18500 17.95500 33.14200
H  -2.77400 22.98100 26.56900
H  -0.97400 23.19500 26.52600
H  -1.85300 22.33700 27.86500
H  -1.80800 24.18400 23.01600
H  -1.24600 23.99000 24.65800
H  -2.91100 23.54700 24.35000
H  -0.55200 17.01400 20.85300
H  -2.72300 15.03400 21.62700
H  -3.26900 16.98600 20.07600
H  -2.36700 18.52200 20.11600
H  -3.34700 17.92500 21.51300
H  -0.70200 14.97900 20.02300
H  -0.99100 13.46400 21.10100
H  0.99000 15.26400 22.36800
H  1.36800 15.07200 20.66000
H  1.17800 13.63200 21.64200
H  -0.93300 11.28000 24.60700
H  -2.66600 10.98700 25.20200
H  -1.26500 10.49700 26.13500
H  -2.89200 13.51200 30.08500
H  -1.03200 12.67400 33.73600
H  0.28400 13.53300 32.93600
H  0.15400 11.73400 32.83100
Mg -10.60600 16.59200 42.62300
C  -7.36500 17.61200 42.51600
C  -11.49400 19.91400 41.79700
C  -13.81300 15.64900 42.49900
C  -9.58400 13.23100 43.11800
N  -9.53400 18.51500 42.04500
C  -8.15600 18.68400 42.14700
C  -7.75900 20.04700 41.67500
C  -9.06100 20.85600 41.89200
C  -10.08800 19.74900 41.89500
C  -8.98600 21.75500 43.13100
C  -7.14200 19.94200 40.22200
C  -5.61400 20.31500 39.97400
H  -4.76700 19.36500 39.33000
N  -12.41600 17.65500 42.27000
C  -12.54700 18.95600 41.95900
C  -13.92200 19.20600 41.65400
C  -14.58000 17.96100 41.78100
C  -13.59500 17.00700 42.23000
C  -14.51100 20.54000 41.22200
C  -16.03600 17.72300 41.53400
O  -16.67500 18.74400 41.28800
C  -16.80000 16.43700 41.72200
N  -11.51300 14.70100 42.67000
C  -12.87400 14.62600 42.73200
C  -13.35500 13.21700 43.02500
C  -12.07300 12.38900 43.29400
C  -10.94800 13.46100 42.89000
C  -14.44300 13.07400 44.03700
C  -11.81800 11.08500 42.46700
C  -11.28600 9.98600 43.32300
N  -8.84900 15.60200 42.78500
C  -8.54600 14.26800 43.12200
C  -7.09100 14.17700 43.17800
C  -6.63000 15.48000 43.06200
C  -7.72700 16.28300 42.74300
C  -6.35300 12.90600 43.27000
C  -5.38500 16.28700 43.04500
O  -4.20000 15.95500 43.21500
C  -5.87100 17.78800 42.75700
C  -5.58000 18.47000 44.08100
O  -6.22500 18.20400 45.07300
O  -4.46000 19.25700 44.08600
C  -4.08900 19.98400 45.24400
H  -11.76700 20.92600 41.48900
H  -14.84100 15.28300 42.45400
H  -9.27500 12.23600 43.44500
H  -6.91200 20.27600 42.32200
H  -9.14500 21.57900 41.08100
H  -7.94200 21.85900 43.42600
H  -9.63300 21.25000 43.84900
H  -9.42800 22.67800 42.75600
H  -7.65900 20.62800 39.55100
H  -7.24100 18.92600 39.83800
H  -5.19100 20.50500 40.96100
H  -5.58500 21.22900 39.38100
H  -15.04100 20.51100 40.27000
H  -13.74600 21.31400 41.15700
H  -15.22800 20.83800 41.98700
H  -17.77200 16.60300 41.25900
H  -16.94300 16.04000 42.72700
H  -16.41500 15.64200 41.08300
H  -13.79300 12.86600 42.09000
H  -12.01300 12.24600 44.37300
H  -15.35400 12.72600 43.55000
H  -14.74300 13.94500 44.62000
H  -14.20100 12.20400 44.64700
H  -11.05100 11.21600 41.70400
H  -12.73500 10.79300 41.95300
H  -12.10000 9.28800 43.51800
H  -10.97700 10.46500 44.25200
H  -10.44900 9.43400 42.89500
H  -5.30300 13.00400 42.99500
H  -6.86400 12.21800 42.59600
H  -6.32800 12.51500 44.28700
H  -5.24500 18.33300 42.05000
H  -4.80400 20.20300 46.03700
H  -3.64400 20.91800 44.89900
H  -3.27600 19.39600 45.67000

