158

Mg 0.40900 7.58800 26.08900
C  0.95600 9.83600 28.83200
C  0.73000 5.00500 28.47200
C  0.13500 5.41000 23.57400
C  0.73000 10.23100 23.80800
N  0.80500 7.52900 28.39600
C  0.90700 8.52400 29.32900
C  0.85600 7.98300 30.72600
C  1.12000 6.45900 30.62500
C  0.87800 6.32300 29.04000
C  2.42100 5.91700 31.11800
C  -0.47100 8.21200 31.56800
C  -0.38000 8.25200 33.14700
H  0.97500 8.15800 33.76000
N  0.35900 5.53600 26.04600
C  0.52900 4.65000 27.12100
C  0.33600 3.30600 26.63800
C  0.31400 3.32400 25.20500
C  0.25400 4.78700 24.89400
C  0.30200 2.09300 27.49100
C  0.34300 2.23800 24.16300
O  0.28800 2.45500 22.99800
C  0.43400 0.77700 24.56100
N  0.41000 7.84100 24.03300
C  0.10000 6.76900 23.19100
C  0.13100 7.20800 21.66600
C  0.18100 8.74500 21.81500
C  0.45700 8.99800 23.29400
C  1.37600 6.53700 20.85000
C  -1.03100 9.54000 21.19100
C  -0.71600 10.78400 20.38300
N  0.70800 9.57100 26.21800
C  0.80200 10.58400 25.20400
C  0.96500 11.87700 25.85600
C  1.03300 11.61200 27.23100
C  0.89500 10.20700 27.43400
C  0.93400 13.25100 25.22200
C  1.17800 12.30400 28.52900
O  1.37700 13.49700 28.83300
C  1.05600 11.10100 29.60400
C  2.11500 11.22600 30.57900
O  3.14100 10.63300 30.57200
O  1.78500 12.14200 31.57500
C  2.70100 12.19100 32.71600
H  0.88600 4.13300 29.11200
H  0.01300 4.74300 22.71700
H  0.74800 10.91300 22.95500
H  1.62700 8.57600 31.21800
H  0.23500 5.96700 31.02700
H  2.80700 5.12800 30.47300
H  2.44000 5.41600 32.08600
H  3.12300 6.75200 31.11700
H  -1.20200 7.46600 31.25700
H  -0.79500 9.16300 31.14500
H  -0.95400 7.35000 33.35900
H  -0.87600 9.16100 33.48600
H  0.99900 1.29300 27.24000
H  -0.68300 1.71700 27.21300
H  0.43800 2.31200 28.55000
H  0.59700 0.10700 23.71600
H  -0.45200 0.43200 25.09300
H  1.25300 0.58500 25.25500
H  -0.73900 6.84300 21.12000
H  1.09400 9.10500 21.34200
H  1.07900 6.46400 19.80300
H  1.74100 5.59700 21.26300
H  2.20800 7.24000 20.83900
H  -1.71900 9.75800 22.00800
H  -1.61900 8.99200 20.45400
H  -0.91900 10.46200 19.36200
H  0.37000 10.86800 20.43000
H  -1.30800 11.61400 20.76900
H  0.92100 13.45900 24.15300
H  1.78800 13.78400 25.63900
H  0.05800 13.78100 25.59600
H  0.11800 11.15000 30.15700
H  3.33000 13.08100 32.69500
H  3.40100 11.37500 32.89700
H  2.02900 12.16200 33.57400
Mg 42.34900 40.67300 26.44600
C  41.49900 43.13600 28.69700
C  43.22700 38.63200 29.01400
C  43.16600 38.35000 24.13000
C  41.98500 42.95800 23.70800
N  42.53600 40.99300 28.62400
C  41.81000 41.91100 29.30600
C  41.72300 41.58600 30.79000
C  42.52900 40.20400 30.91000
C  42.86800 39.96100 29.43600
C  43.84700 40.19900 31.77000
C  40.26500 41.55700 31.40300
C  40.08000 42.49200 32.60100
H  39.41300 42.03100 33.87400
N  43.09800 38.73700 26.56900
C  43.43600 38.08500 27.72600
C  43.94100 36.78800 27.42200
C  43.81500 36.62500 25.96000
C  43.32800 37.94700 25.48100
C  44.28400 35.81900 28.56600
C  44.10900 35.44300 25.13800
O  43.91500 35.44000 23.91300
C  44.60500 34.12400 25.76200
N  42.66600 40.66300 24.19400
C  42.86300 39.53200 23.50800
C  42.64900 39.72400 21.94400
C  42.42300 41.28100 21.84300
C  42.28300 41.63800 23.32300
C  43.86000 39.19500 21.20300
C  41.10300 41.59000 20.90800
C  41.30900 42.85800 20.08600
N  41.91700 42.59300 26.26700
C  41.82000 43.40900 25.08600
C  41.39300 44.74400 25.46200
C  41.15100 44.68900 26.86700
C  41.61800 43.38300 27.32000
C  41.16400 45.97700 24.68500
C  40.87400 45.47700 28.08700
O  40.49100 46.61800 28.21000
C  40.90800 44.48000 29.26500
C  41.74800 45.15600 30.38800
O  42.93900 44.98700 30.51200
O  40.92000 45.70200 31.32400
C  41.48100 45.93400 32.61000
H  43.39800 37.94000 29.84100
H  43.23900 37.61300 23.32700
H  41.89400 43.73100 22.94300
H  42.27900 42.30800 31.38900
H  41.81000 39.44300 31.21500
H  44.68200 40.04700 31.08700
H  43.81900 39.40800 32.51900
H  43.93600 41.13400 32.32400
H  39.84800 40.56000 31.54100
H  39.62500 41.93000 30.60400
H  39.48500 43.31700 32.21000
H  41.00100 42.99000 32.90400
H  44.47100 34.78400 28.28000
H  43.43200 35.68700 29.23300
H  45.06800 36.28300 29.16600
H  45.55200 34.28700 26.27600
H  44.70700 33.27900 25.08100
H  43.86000 33.79400 26.48600
H  41.75300 39.23300 21.56200
H  43.31800 41.68900 21.37300
H  44.59200 38.88600 21.94900
H  44.36700 39.87200 20.51500
H  43.60300 38.33600 20.58400
H  40.27000 41.77900 21.58600
H  41.02800 40.70600 20.27500
H  40.48100 43.08500 19.41500
H  42.21700 42.89900 19.48400
H  41.45300 43.70400 20.75800
H  41.32000 46.90700 25.23200
H  40.12000 45.84300 24.40300
H  41.76600 45.90300 23.77900
H  39.89800 44.24000 29.59800
H  42.55000 45.74400 32.69600
H  40.96300 45.33100 33.35600
H  41.41700 46.99200 32.86400

