158

Mg 17.74800 -1.36200 27.81400
C  16.20900 0.55600 30.35700
C  19.43200 -3.18900 29.97000
C  18.95700 -2.97000 25.14500
C  15.99800 0.79500 25.52700
N  17.89800 -1.08400 29.89700
C  17.09600 -0.47800 30.77400
C  17.34800 -0.87200 32.18900
C  18.43800 -1.98700 32.00300
C  18.66000 -2.12300 30.47500
C  19.76900 -1.70900 32.82200
C  16.12900 -1.39900 32.97200
C  15.96200 -0.75200 34.37900
H  17.25200 -0.46400 35.17600
N  19.10900 -2.88100 27.60000
C  19.65000 -3.56800 28.67500
C  20.51300 -4.57500 28.11300
C  20.40800 -4.54700 26.71000
C  19.40100 -3.47500 26.43800
C  21.27700 -5.51400 29.00100
C  21.12500 -5.34900 25.56300
O  20.88900 -5.24800 24.34300
C  22.23000 -6.23700 25.99800
N  17.66300 -0.99100 25.62400
C  18.19100 -1.88100 24.79600
C  18.16100 -1.39300 23.36400
C  16.97800 -0.30000 23.43600
C  16.80700 -0.21400 24.93600
C  19.37400 -0.77100 22.74100
C  15.67500 -0.65800 22.67700
C  15.19600 0.31000 21.62800
N  16.38000 0.33900 27.88500
C  15.80400 1.08200 26.86200
C  14.96400 2.14300 27.41900
C  15.09400 2.00900 28.84000
C  15.89200 0.85400 29.01600
C  14.07100 3.10200 26.64100
C  14.69500 2.62700 30.12600
O  14.04200 3.66800 30.37000
C  15.33600 1.60900 31.14200
C  16.19000 2.35400 32.09800
O  17.40100 2.25100 32.14900
O  15.39900 3.07400 32.97500
C  16.16300 3.66500 34.09800
H  19.99800 -3.68500 30.76100
H  19.19500 -3.73700 24.40500
H  15.57000 1.49300 24.80400
H  17.72700 0.01900 32.69000
H  17.98800 -2.91900 32.34700
H  19.50600 -0.97800 33.58700
H  20.57900 -1.43000 32.14900
H  20.13200 -2.61100 33.31400
H  16.19200 -2.45800 33.22200
H  15.22700 -1.30900 32.36600
H  15.39500 -1.47100 34.96900
H  15.28400 0.07700 34.17500
H  20.95900 -6.54600 28.85000
H  21.14300 -5.36700 30.07300
H  22.34800 -5.42900 28.81800
H  21.72400 -6.99300 26.59800
H  23.11100 -5.69600 26.34400
H  22.71600 -6.72200 25.15100
H  17.86500 -2.22800 22.72900
H  17.41600 0.65700 23.15300
H  19.85700 -1.42100 22.01200
H  20.04600 -0.66500 23.59300
H  19.35000 0.19300 22.23300
H  14.88400 -0.78800 23.41500
H  15.84200 -1.59400 22.14500
H  14.15600 0.63600 21.62800
H  15.39600 -0.16200 20.66500
H  15.76100 1.23500 21.74000
H  13.61000 2.56400 25.81300
H  14.77300 3.87100 26.31900
H  13.24700 3.46100 27.25900
H  14.58700 1.03100 31.68300
H  17.01100 3.04100 34.37900
H  15.56200 3.74600 35.00400
H  16.64000 4.59300 33.78300
Mg 49.15400 45.22000 42.74000
C  45.86900 45.76200 41.62000
C  48.86000 41.91300 41.72600
C  52.43000 44.89500 42.73400
C  49.42700 48.73800 43.09600
N  47.53000 43.98600 41.63400
C  46.26000 44.45600 41.28300
C  45.41300 43.30200 40.57900
C  46.26900 42.03400 41.06800
C  47.64000 42.64000 41.46600
C  45.67200 41.15100 42.16000
C  45.40900 43.47700 39.10800
C  44.33100 42.68800 38.40800
H  44.76800 41.61200 37.30500
N  50.46500 43.62500 42.48400
C  50.14000 42.37600 42.04200
C  51.31700 41.56800 42.05300
C  52.39000 42.34600 42.36500
C  51.80600 43.66900 42.57800
C  51.47700 40.10100 41.70000
C  53.86600 41.92900 42.46200
O  54.23300 40.77200 42.22100
C  54.98500 42.93900 42.85800
N  50.66700 46.60000 43.18400
C  51.93300 46.19900 42.97900
C  52.92300 47.43200 42.96200
C  51.95400 48.63500 43.28800
C  50.60500 47.96300 43.12800
C  54.19600 47.33000 43.94000
C  52.21000 49.79500 42.27600
C  52.46200 51.12700 42.98800
N  47.88700 46.88500 42.55000
C  48.12800 48.23200 42.80200
C  46.94300 48.97000 42.60000
C  45.96800 48.04300 42.20000
C  46.60800 46.82800 42.20500
C  46.84500 50.48900 42.75100
C  44.68500 47.93100 41.68000
O  43.78200 48.69500 41.44000
C  44.53000 46.42600 41.25900
C  43.25100 45.83800 41.72000
O  42.53100 45.05100 41.08400
O  42.87800 46.28100 42.94800
C  41.61900 45.74600 43.55900
H  48.63200 40.85500 41.58700
H  53.51700 44.97400 42.65800
H  49.45300 49.76800 43.46000
H  44.39600 43.42200 40.95300
H  46.36200 41.32300 40.24600
H  46.16900 41.01100 43.12000
H  45.56700 40.11700 41.83200
H  44.67400 41.57100 42.28900
H  46.43300 43.22500 38.83400
H  45.29400 44.55400 38.98700
H  43.78100 43.44000 37.84300
H  43.68200 42.21000 39.14200
H  51.93100 39.54600 42.52100
H  52.05900 40.01800 40.78300
H  50.49700 39.64300 41.57100
H  55.12100 43.49800 41.93200
H  55.86000 42.31600 43.04600
H  54.76800 43.46300 43.78800
H  53.30400 47.49200 41.94300
H  51.96500 48.84000 44.35800
H  55.09000 47.13300 43.34800
H  54.15900 46.59100 44.74000
H  54.30800 48.29700 44.43100
H  51.38200 49.91100 41.57700
H  53.14600 49.64000 41.73800
H  53.49700 51.38400 42.76200
H  52.51700 51.07800 44.07600
H  51.76300 51.93200 42.75800
H  46.72800 50.71100 43.81200
H  45.99200 50.89400 42.20600
H  47.75300 50.97500 42.39600
H  44.33800 46.42500 40.18600
H  40.77300 45.88000 42.88500
H  41.39000 46.21600 44.51600
H  41.71400 44.71500 43.89900

