158

Mg 30.71000 58.17200 38.69200
C  27.80200 56.18700 38.21200
C  32.57500 55.39500 38.12900
C  33.41000 60.09700 38.58200
C  28.55400 60.88700 38.48400
N  30.18700 56.01500 38.41800
C  29.00200 55.40200 38.21600
C  29.13600 53.96000 37.93800
C  30.64400 53.64500 38.22400
C  31.23600 55.08700 38.40200
C  30.98900 52.60800 39.33300
C  28.61100 53.52900 36.43500
C  29.13000 54.35400 35.26700
H  27.99800 54.95600 34.34200
N  32.75400 57.78900 38.48900
C  33.30600 56.59400 38.14800
C  34.69700 56.71100 37.95000
C  34.98300 58.03800 38.26400
C  33.70900 58.70400 38.48900
C  35.54800 55.57400 37.58600
C  36.34400 58.63100 38.25400
O  37.36600 57.97000 38.11400
C  36.70200 60.13000 38.61900
N  30.93100 60.07000 38.61900
C  32.17200 60.68900 38.65500
C  32.00400 62.23600 38.62200
C  30.49000 62.44200 38.42800
C  29.93500 61.04100 38.49200
C  32.61500 63.00600 39.79000
C  30.16200 63.11700 37.03900
C  29.87100 64.66500 37.04300
N  28.57000 58.51600 38.49100
C  27.88300 59.67200 38.48500
C  26.50200 59.41700 38.50000
C  26.45200 58.04400 38.25400
C  27.68200 57.57300 38.30700
C  25.39300 60.43600 38.62900
C  25.54400 56.87100 38.16800
O  24.29300 56.93200 38.23000
C  26.39600 55.64600 37.98400
C  26.03300 54.70800 39.05200
O  26.07300 54.92600 40.28200
O  25.59100 53.53400 38.53600
C  24.71000 52.67700 39.32900
H  33.16100 54.48000 38.02200
H  34.23400 60.81300 38.61000
H  27.80500 61.68200 38.49100
H  28.56700 53.46600 38.72600
H  31.05800 53.25300 37.29500
H  29.99600 52.33500 39.69200
H  31.46000 53.03000 40.22100
H  31.59400 51.82200 38.88200
H  27.52300 53.55300 36.38000
H  29.08000 52.55800 36.27700
H  29.85200 53.82700 34.64300
H  29.72200 55.16500 35.69200
H  35.00000 54.89600 36.93200
H  36.03500 55.07900 38.42600
H  36.36300 55.99600 36.99800
H  36.30600 60.38400 39.60300
H  36.37200 60.77100 37.80100
H  37.78800 60.20800 38.67400
H  32.61100 62.62000 37.80300
H  30.01700 63.03100 39.21300
H  32.30500 64.05100 39.83000
H  33.66000 62.94100 39.48900
H  32.33000 62.41500 40.66000
H  29.36500 62.68300 36.43500
H  31.07900 63.06900 36.45000
H  29.77800 65.13000 38.02500
H  28.98500 64.86000 36.43900
H  30.71600 65.07900 36.49300
H  24.39700 59.99700 38.57000
H  25.51300 61.28900 37.96100
H  25.50500 60.80500 39.64800
H  26.18300 55.21500 37.00600
H  24.19400 53.11200 40.18500
H  25.26300 51.83400 39.74500
H  24.00100 52.21400 38.64200
Mg 0.75100 43.92700 26.43400
C  2.89500 44.10800 29.35700
C  -1.82700 43.07200 28.68900
C  -1.24400 43.16800 23.80800
C  3.47400 44.34300 24.40900
N  0.66600 43.54200 28.80200
C  1.57100 43.90000 29.72900
C  0.95000 43.83800 31.15900
C  -0.45700 43.03100 30.94400
C  -0.56000 43.19900 29.36500
C  -0.44900 41.57100 31.38000
C  0.84200 45.21300 31.94700
C  1.01500 45.18100 33.45500
H  0.61700 43.84800 34.09600
N  -1.25800 43.46200 26.18000
C  -2.17900 43.22700 27.30500
C  -3.49300 43.20700 26.76600
C  -3.32400 43.14100 25.34600
C  -1.92300 43.27300 25.05400
C  -4.80200 43.10500 27.57500
C  -4.43700 43.00400 24.24500
O  -4.26300 43.14600 23.01400
C  -5.84300 42.83800 24.64300
N  1.07300 43.72400 24.45100
C  0.14300 43.35000 23.58500
C  0.69800 43.50400 22.14400
C  2.06700 44.22300 22.34400
C  2.21700 44.06400 23.82400
C  0.83500 42.15000 21.35600
C  2.05700 45.73600 21.95300
C  3.48200 46.17600 21.35600
N  2.77800 44.14600 26.77000
C  3.72800 44.32600 25.78800
C  5.04100 44.32400 26.41100
C  4.72500 44.26500 27.78300
C  3.34100 44.21100 27.99200
C  6.37900 44.29500 25.78400
C  5.30000 44.10200 29.11800
O  6.47300 44.11500 29.42300
C  4.11200 44.15500 30.25400
C  4.32300 43.01800 31.16800
O  4.62900 41.88300 30.88100
O  4.27600 43.46200 32.44300
C  4.63500 42.47000 33.48200
H  -2.62900 42.81500 29.38300
H  -1.86300 42.93000 22.94100
H  4.24400 44.59000 23.67500
H  1.67400 43.21400 31.68400
H  -1.17800 43.61200 31.51800
H  -0.93800 40.90100 30.67300
H  -1.09600 41.38200 32.23600
H  0.58700 41.37200 31.65400
H  -0.06900 45.68700 31.58200
H  1.61600 45.83100 31.49200
H  0.47900 45.96600 33.98700
H  2.08200 45.37900 33.55400
H  -4.51400 43.27900 28.61200
H  -5.53000 42.31700 27.38300
H  -5.48400 43.91500 27.31500
H  -6.11500 43.77900 25.12200
H  -6.03700 42.04500 25.36600
H  -6.51100 42.77700 23.78400
H  0.03900 44.15500 21.56900
H  2.91800 43.68500 21.92500
H  0.16500 41.41000 21.79300
H  1.88000 41.87100 21.22400
H  0.49100 42.25800 20.32800
H  1.86100 46.32500 22.84900
H  1.34400 45.94400 21.15500
H  3.91700 47.11800 21.69000
H  3.37800 46.28900 20.27700
H  4.21800 45.38100 21.47800
H  6.27600 43.60900 24.94300
H  7.14500 44.06200 26.52400
H  6.71700 45.22100 25.32000
H  4.16300 45.11600 30.76700
H  5.30000 41.69500 33.10000
H  3.72000 42.04700 33.89500
H  5.15600 42.99100 34.28500

