158

Mg 23.95800 -5.26100 44.98000
C  25.69300 -2.69700 43.17900
C  21.19400 -4.55400 43.15000
C  22.74000 -8.24700 45.88800
C  27.10900 -6.24000 46.35400
N  23.52700 -3.78900 43.45700
C  24.35300 -2.84400 42.85800
C  23.59400 -2.06200 41.77900
C  22.08000 -2.42700 42.07500
C  22.23200 -3.69300 42.98600
C  21.24400 -1.25800 42.71900
C  24.05800 -2.42500 40.30200
C  24.21900 -1.26300 39.37600
H  24.43800 -1.38100 37.82800
N  22.12100 -6.19900 44.73900
C  21.10600 -5.76500 43.96200
C  19.96200 -6.73300 44.07300
C  20.34300 -7.73600 44.98600
C  21.78700 -7.47000 45.24800
C  18.59300 -6.57200 43.38100
C  19.41400 -8.75000 45.55000
O  18.25600 -8.83400 45.14700
C  19.95600 -9.70600 46.52300
N  24.80200 -6.97100 46.08300
C  24.01700 -8.03500 46.30300
C  24.90100 -9.12500 46.93800
C  26.21400 -8.43100 47.31700
C  26.06100 -7.15500 46.50800
C  24.35500 -9.81900 48.22300
C  27.43900 -9.33200 47.17100
C  28.37900 -9.15900 48.32400
N  25.95700 -4.57000 44.97800
C  27.11500 -5.07200 45.58200
C  28.23900 -4.15900 45.26100
C  27.73100 -3.27100 44.33100
C  26.33700 -3.52900 44.18600
C  29.65600 -4.23000 45.80400
C  28.17100 -2.23400 43.37000
O  29.24500 -1.92700 42.94000
C  26.78800 -1.69200 42.66800
C  26.50800 -0.33000 43.17100
O  26.57600 0.01700 44.34600
O  26.21500 0.49300 42.11000
C  25.91000 1.86300 42.51600
H  20.30400 -4.36600 42.54500
H  22.26800 -9.21300 46.07900
H  28.07500 -6.38400 46.84200
H  23.78200 -0.99600 41.90600
H  21.56800 -2.82900 41.20200
H  20.29800 -1.19000 42.18000
H  21.74800 -0.29300 42.65700
H  20.90600 -1.39200 43.74600
H  23.37800 -3.18000 39.90900
H  25.02500 -2.92500 40.34800
H  25.01600 -0.65700 39.80600
H  23.29600 -0.69100 39.47400
H  18.54900 -5.63000 42.83300
H  17.76100 -6.48800 44.08000
H  18.36100 -7.38500 42.69300
H  19.05200 -10.05000 47.02600
H  20.55100 -9.11000 47.21600
H  20.48700 -10.48800 45.98000
H  24.94600 -9.83300 46.11000
H  26.12600 -8.16200 48.37000
H  25.06400 -9.87000 49.04900
H  24.05500 -10.83000 47.94500
H  23.55500 -9.22900 48.67000
H  27.93400 -9.04000 46.24500
H  27.09200 -10.36600 47.17700
H  29.15100 -9.92900 48.31200
H  27.93500 -9.26100 49.31400
H  28.94600 -8.23400 48.22400
H  30.06700 -5.22300 45.62400
H  29.61400 -3.95900 46.85900
H  30.17800 -3.44200 45.26200
H  26.75400 -1.70700 41.57900
H  24.94000 1.84200 43.01100
H  25.77000 2.46900 41.62100
H  26.60800 2.32800 43.21200
Mg 10.45100 46.87200 25.29500
C  8.24500 47.07600 27.95700
C  12.75900 48.54900 27.19000
C  12.56600 46.57900 22.73200
C  7.70100 46.19500 23.08700
N  10.49000 47.63800 27.33000
C  9.53300 47.56600 28.28300
C  10.10300 48.18200 29.61500
C  11.30100 49.12500 29.15700
C  11.48000 48.42700 27.80800
C  10.92600 50.64000 29.15400
C  10.47400 47.06700 30.67100
C  9.74400 47.18100 32.03900
H  9.74300 45.99700 32.94800
N  12.50500 47.40300 25.00700
C  13.26100 48.05400 25.98800
C  14.59500 47.96400 25.50000
C  14.60900 47.33600 24.19900
C  13.17500 46.97800 23.98800
C  15.76200 48.49700 26.26600
C  15.66500 47.10700 23.30100
O  15.46700 46.60300 22.22300
C  17.07900 47.43300 23.65400
N  10.09000 46.61700 23.10900
C  11.19800 46.47900 22.31400
C  10.79600 46.04000 20.93900
C  9.25600 45.72100 21.02700
C  8.97600 46.18200 22.48800
C  11.21000 46.97500 19.79800
C  8.90000 44.26100 20.62300
C  8.81800 43.31100 21.84100
N  8.38800 46.65700 25.42700
C  7.40900 46.44200 24.45000
C  6.10900 46.55900 25.06800
C  6.39800 46.68600 26.44800
C  7.76900 46.79000 26.65000
C  4.72600 46.46500 24.36600
C  5.80200 46.77100 27.83200
O  4.58900 46.71100 28.08800
C  6.96600 47.03500 28.84500
C  7.06300 45.89100 29.76000
O  7.78600 44.95700 29.67000
O  6.22800 46.12900 30.82900
C  6.22300 45.13400 31.94400
H  13.42200 49.10600 27.85500
H  13.18500 46.39900 21.85000
H  6.87900 45.92800 22.41900
H  9.31700 48.85300 29.96100
H  12.20700 48.97600 29.74500
H  9.89400 50.81000 29.46200
H  11.05200 51.08700 28.16800
H  11.67400 51.04000 29.83700
H  11.53200 47.13500 30.92400
H  10.27000 46.07400 30.27100
H  8.71400 47.53800 32.02600
H  10.27000 47.96700 32.58200
H  16.43200 47.65500 26.43900
H  15.42600 48.77500 27.26400
H  16.13300 49.38500 25.75400
H  17.73200 47.19300 22.81500
H  17.29700 46.71400 24.44400
H  17.19000 48.44700 24.03600
H  11.42700 45.17700 20.72400
H  8.62600 46.36600 20.41600
H  11.77400 47.78800 20.25500
H  10.25900 47.17800 19.30400
H  11.96100 46.41000 19.24600
H  9.57300 43.93200 19.83200
H  7.95200 44.37600 20.09600
H  9.22500 42.36500 21.48600
H  7.79800 43.17900 22.20200
H  9.38100 43.71100 22.68500
H  4.58000 46.99600 23.42600
H  3.96100 46.56500 25.13600
H  4.67100 45.39200 24.18200
H  6.80200 47.91100 29.47300
H  6.17000 45.61200 32.92300
H  6.97400 44.34700 32.00300
H  5.28700 44.61300 31.74200

