158

Mg 31.44000 58.44500 40.60700
C  28.51300 56.73800 39.39700
C  33.36100 55.85400 39.47400
C  34.23500 60.26300 41.33100
C  29.35700 61.22500 41.04900
N  31.00300 56.61000 39.56500
C  29.74000 56.08800 39.08700
C  29.88700 54.79300 38.41300
C  31.33800 54.33400 38.85800
C  31.94900 55.63500 39.42000
C  31.31800 53.18700 39.85800
C  29.67800 55.07500 36.86700
C  28.60300 54.18200 36.27800
H  27.63400 54.77200 35.22800
N  33.45500 58.08700 40.48000
C  34.05900 56.93800 40.07700
C  35.47000 57.05700 40.19800
C  35.76800 58.33700 40.73000
C  34.44800 58.96600 40.91500
C  36.40100 55.92900 39.69300
C  37.14400 58.87300 41.09500
O  38.11000 58.16900 40.98600
C  37.36600 60.15500 41.73100
N  31.75400 60.50600 41.10400
C  33.00100 60.94400 41.43500
C  32.86300 62.48000 41.47700
C  31.32000 62.79100 41.74600
C  30.76800 61.38600 41.34700
C  33.60500 63.11500 42.72300
C  30.74600 63.89500 40.87800
C  29.62400 64.87500 41.43000
N  29.37400 58.83800 40.38500
C  28.67000 60.03900 40.62700
C  27.28300 59.83300 40.26500
C  27.11300 58.49200 39.92600
C  28.45500 57.96700 39.95200
C  26.15200 60.92800 40.22500
C  26.25300 57.52400 39.48000
O  25.03000 57.55400 39.35200
C  27.13300 56.24500 39.02400
C  26.63600 55.13100 39.90400
O  27.05600 54.90500 41.03700
O  25.59000 54.41300 39.31900
C  24.71100 53.49200 40.08300
H  33.88200 54.89400 39.46200
H  35.06200 60.91900 41.61200
H  28.60800 62.00500 41.20100
H  29.28200 53.98000 38.81400
H  31.97600 54.03500 38.02600
H  30.44300 53.29100 40.49800
H  32.18200 53.04500 40.50700
H  31.28200 52.31400 39.20600
H  30.61800 54.94200 36.33200
H  29.38300 56.11900 36.76400
H  27.99100 53.63100 36.99200
H  29.12500 53.36000 35.78600
H  36.28500 56.05700 38.61700
H  36.09000 54.91800 39.95600
H  37.47200 55.94500 39.89500
H  38.36200 60.15200 42.17500
H  36.68600 60.28700 42.57200
H  37.35900 60.99000 41.03000
H  33.09400 62.86200 40.48300
H  31.01800 62.99400 42.77300
H  34.43600 63.73700 42.39000
H  34.09400 62.36300 43.34200
H  33.07800 63.74400 43.44100
H  30.56500 63.46400 39.89400
H  31.54100 64.60900 40.65700
H  28.70800 64.65400 40.88200
H  30.13800 65.82700 41.29300
H  29.47400 64.67800 42.49100
H  25.87100 61.18400 41.24600
H  25.31200 60.39300 39.78000
H  26.41300 61.79300 39.61500
H  26.96600 56.08100 37.96000
H  24.98500 52.44900 39.92800
H  23.68000 53.52700 39.73300
H  24.73400 53.71900 41.14900
Mg 6.40300 55.59200 39.95200
C  5.58600 52.11500 39.62300
C  9.65400 54.80900 39.15300
C  6.95100 58.85500 39.84300
C  2.92600 56.15900 40.73600
N  7.43000 53.63900 39.18900
C  6.97400 52.35900 39.32300
C  8.14400 51.37300 39.19400
C  9.48200 52.24200 39.26600
C  8.79800 53.64300 39.24000
C  10.50900 52.05400 40.41400
C  8.05000 50.46800 37.90000
C  7.41100 51.29800 36.70600
H  7.12000 50.56000 35.35700
N  8.11900 56.65600 39.45100
C  9.35300 56.19800 39.24900
C  10.26100 57.29000 39.07800
C  9.54900 58.52700 39.25100
C  8.12700 58.04200 39.45800
C  11.76600 57.13800 38.99100
C  10.13900 59.91600 39.23900
O  11.38400 59.93300 39.39800
C  9.34500 61.15700 39.04900
N  4.99500 57.33800 39.92200
C  5.65100 58.50400 40.17400
C  4.60800 59.56800 40.67300
C  3.31000 58.67100 40.95800
C  3.77100 57.28300 40.52500
C  4.98000 60.42000 41.82100
C  2.04000 59.03300 40.22100
C  0.76200 59.11400 41.02200
N  4.59700 54.44700 40.15100
C  3.28600 54.79200 40.55500
C  2.54100 53.60100 40.71200
C  3.40100 52.57300 40.39300
C  4.60500 53.10600 39.99500
C  1.06900 53.43700 41.06000
C  3.47500 51.08600 40.28300
O  2.65700 50.22700 40.55600
C  4.91100 50.81200 39.89500
C  4.93500 49.84000 38.72900
O  4.71400 50.04100 37.51100
O  5.34400 48.63200 39.22900
C  5.49600 47.41600 38.38800
H  10.71100 54.60200 38.97100
H  7.16100 59.92700 39.86400
H  1.96000 56.29800 41.22600
H  8.02100 50.75400 40.08200
H  10.12300 52.23700 38.38500
H  10.11500 51.26900 41.06000
H  10.62400 52.88000 41.11600
H  11.48200 51.75100 40.02900
H  7.60100 49.50800 38.15500
H  9.07700 50.20700 37.64500
H  8.15700 52.05500 36.46600
H  6.46200 51.75600 36.98700
H  12.07900 56.10800 38.81800
H  12.23500 57.37300 39.94600
H  12.25500 57.69700 38.19300
H  10.02000 62.00000 38.90400
H  8.78800 61.40300 39.95300
H  8.79300 61.15500 38.10900
H  4.47900 60.24800 39.83000
H  3.24600 58.55100 42.03900
H  4.03900 60.73500 42.27200
H  5.41400 61.35800 41.47600
H  5.61200 59.95400 42.57800
H  1.92000 58.45000 39.30800
H  2.23900 60.05200 39.89000
H  0.11900 59.92800 40.68500
H  1.00900 59.18400 42.08200
H  0.06900 58.29600 40.82700
H  0.78300 52.45500 41.43900
H  0.62300 53.65900 40.09100
H  0.76000 54.22100 41.75200
H  5.41400 50.31200 40.72300
H  4.99100 47.58100 37.43600
H  4.96600 46.59800 38.87700
H  6.54200 47.13500 38.26900

