158

Mg 53.75100 24.67600 45.34900
C  51.05900 26.55200 44.28600
C  51.99000 21.81600 44.13500
C  56.62200 22.87100 45.52700
C  55.40100 27.50700 46.27600
N  51.77600 24.30800 44.12500
C  50.95500 25.24600 43.88000
C  49.79200 24.68400 43.05000
C  49.82600 23.21300 43.42400
C  51.26100 23.05000 43.87400
C  48.67200 22.59700 44.32500
C  49.91600 24.72900 41.49700
C  48.60700 24.90700 40.64300
H  48.26900 23.82600 39.59300
N  54.18000 22.66300 44.98700
C  53.32800 21.66700 44.53700
C  54.01000 20.41400 44.60300
C  55.39300 20.65900 44.82300
C  55.46200 22.12400 45.14700
C  53.29700 19.07200 44.27800
C  56.45700 19.58100 44.93500
O  56.18300 18.41800 44.72400
C  57.95500 19.86700 45.24500
N  55.81300 25.18900 45.55900
C  56.73000 24.20100 45.72800
C  57.85900 24.76000 46.52200
C  57.52900 26.21400 46.66900
C  56.12300 26.32600 46.17500
C  58.11900 24.05900 47.90400
C  58.50200 27.14400 46.01900
C  59.85800 27.33900 46.84500
N  53.36300 26.68500 45.43100
C  54.09700 27.73600 45.85700
C  53.28600 28.89400 45.77300
C  52.08500 28.47800 45.20100
C  52.20200 27.12400 44.97200
C  53.75400 30.28600 46.18600
C  50.80500 28.97300 44.79300
O  50.34900 30.11100 44.69100
C  50.11000 27.69600 44.10700
C  49.68100 28.08500 42.68400
O  50.42900 28.48400 41.78600
O  48.34100 28.00400 42.61200
C  47.77200 28.61200 41.46200
H  51.37100 20.94600 43.90400
H  57.52500 22.31200 45.78200
H  55.90800 28.29900 46.83100
H  48.82600 25.13600 43.27300
H  49.60900 22.57600 42.56600
H  48.40300 21.61000 43.94900
H  47.80400 23.25200 44.38700
H  49.16000 22.51900 45.29700
H  50.33000 23.86000 40.98400
H  50.48300 25.62800 41.25700
H  48.77500 25.78600 40.02200
H  47.73700 24.99800 41.29400
H  53.87300 18.50200 43.54800
H  52.33300 19.15800 43.77700
H  53.13500 18.38400 45.10800
H  58.41500 20.61400 44.59800
H  58.54000 18.96600 45.06100
H  57.94300 19.98500 46.32800
H  58.75200 24.66700 45.90400
H  57.49900 26.45500 47.73200
H  57.53200 23.14100 47.92400
H  57.85200 24.64500 48.78400
H  59.17700 23.80700 47.96600
H  58.02700 28.11600 45.88700
H  58.80200 26.72700 45.05800
H  59.86000 27.03700 47.89200
H  60.12000 28.39500 46.79100
H  60.65500 26.82600 46.30800
H  53.17000 31.00300 45.60900
H  54.82800 30.47200 46.18300
H  53.31800 30.57400 47.14300
H  49.18600 27.38900 44.59600
H  46.76100 28.91400 41.73400
H  47.78300 27.86600 40.66800
H  48.31400 29.47700 41.08000
Mg 47.27300 24.16900 28.97700
C  47.97900 26.70100 31.40600
C  46.46200 22.20500 31.48800
C  47.15400 21.75200 26.65300
C  48.44100 26.47800 26.41800
N  47.31500 24.45400 31.22100
C  47.52100 25.54900 32.01600
C  47.09600 25.33000 33.46600
C  46.70500 23.84200 33.44300
C  46.76200 23.45700 31.92000
C  47.57800 22.92100 34.28900
C  45.92700 26.34900 33.90500
C  46.36900 27.25400 35.03800
H  45.33400 27.45200 36.11200
N  46.82100 22.22600 29.05300
C  46.52500 21.55500 30.19900
C  46.34500 20.15800 29.91600
C  46.43300 20.05700 28.51900
C  46.83300 21.36100 28.01500
C  46.01700 19.20700 31.13400
C  46.07600 18.83500 27.65000
O  46.01700 18.87500 26.43800
C  45.69700 17.50500 28.21700
N  47.80800 24.12100 26.91100
C  47.56700 22.98300 26.14400
C  47.94600 23.14300 24.69600
C  48.38100 24.62300 24.68400
C  48.15100 25.13900 26.08500
C  49.06300 22.07300 24.24700
C  47.60200 25.43400 23.52500
C  46.09700 25.70700 23.88300
N  48.05300 26.16000 28.91300
C  48.36200 26.94400 27.78000
C  48.86900 28.21600 28.27900
C  48.71800 28.16500 29.69900
C  48.12400 26.90900 30.02900
C  49.50300 29.31400 27.52000
C  48.91600 28.91900 30.89800
O  49.39500 30.03200 31.16200
C  48.42900 28.00600 32.10600
C  49.65300 27.69300 32.90700
O  50.41700 26.76100 32.68000
O  49.72600 28.58000 33.95800
C  50.46400 28.12700 35.13900
H  46.14800 21.62800 32.36100
H  47.28700 20.87500 26.01600
H  48.92200 27.06600 25.63300
H  47.96000 25.36000 34.13000
H  45.64500 23.72300 33.66500
H  47.03700 22.04100 34.63600
H  48.13800 23.34900 35.12100
H  48.32800 22.51900 33.60800
H  45.07300 25.77100 34.25900
H  45.66000 26.96700 33.04800
H  46.74400 28.23900 34.76200
H  47.28000 26.80900 35.43800
H  45.92600 18.16300 30.83500
H  45.10100 19.41500 31.68600
H  46.78400 19.12700 31.90400
H  46.63400 17.20200 28.68600
H  45.46600 16.74500 27.47100
H  44.94700 17.54200 29.00700
H  47.05200 22.84400 24.14800
H  49.42400 24.49400 24.39500
H  49.83500 22.46700 23.58500
H  48.70600 21.17200 23.74900
H  49.63500 21.73800 25.11200
H  47.59500 24.85100 22.60400
H  48.12400 26.36400 23.29700
H  45.55300 25.26200 23.05000
H  46.02100 26.79300 23.94700
H  45.81500 25.15300 24.77800
H  48.88600 29.39200 26.62500
H  50.57300 29.14900 27.39100
H  49.34900 30.18000 28.16300
H  47.68300 28.49800 32.73100
H  50.90700 29.01200 35.59600
H  51.28700 27.42900 34.98900
H  49.72900 27.65500 35.79000

