158

Mg 50.72300 45.58700 41.58900
C  47.67000 46.91800 40.31200
C  49.79200 42.70200 40.01200
C  53.88900 44.74100 41.49000
C  51.66400 48.91900 42.47200
N  48.96500 44.95200 40.22600
C  47.84400 45.64700 39.87300
C  46.73000 44.74500 39.20900
C  47.34700 43.34700 39.44600
C  48.78800 43.68500 39.93800
C  46.51600 42.35400 40.35300
C  46.65200 45.25600 37.69600
C  45.16900 45.19100 37.21200
H  44.91300 44.09700 36.15900
N  51.62800 43.86000 41.14600
C  51.08500 42.76100 40.49000
C  52.12900 41.72800 40.39100
C  53.37100 42.29300 40.86400
C  52.97100 43.71600 41.24700
C  51.87600 40.30800 40.08000
C  54.67900 41.53800 40.89900
O  54.68300 40.32900 40.65400
C  55.79900 42.20700 41.49600
N  52.54100 46.62400 42.00300
C  53.76700 46.10400 41.75100
C  54.85500 47.08600 41.91700
C  54.13900 48.36200 42.46400
C  52.68800 47.92000 42.38700
C  56.13400 46.60900 42.77300
C  54.46500 49.78300 41.76200
C  54.78100 50.89300 42.82900
N  49.81900 47.53900 41.63900
C  50.28800 48.77300 41.98500
C  49.32300 49.80000 41.82800
C  48.25200 49.03900 41.19900
C  48.60700 47.68400 41.05700
C  49.33300 51.29700 42.15500
C  46.99600 49.31500 40.59700
O  46.39700 50.41000 40.46200
C  46.47900 47.83800 40.08200
C  45.32200 47.50900 40.90800
O  45.26300 46.59800 41.66500
O  44.29400 48.45200 40.70800
C  43.11600 48.22700 41.58600
H  49.44700 41.72300 39.67300
H  54.97100 44.62300 41.40500
H  51.93800 49.97400 42.55000
H  45.73900 44.78700 39.66000
H  47.37400 42.75000 38.53500
H  45.52000 42.79400 40.40000
H  46.91500 42.34600 41.36700
H  46.50200 41.36200 39.90200
H  47.19900 44.55300 37.06800
H  46.94400 46.28800 37.50200
H  44.97500 46.21400 36.89300
H  44.46600 44.92200 38.00000
H  52.31500 40.08000 39.10900
H  50.81600 40.11100 39.92000
H  52.18100 39.69300 40.92700
H  55.55300 42.57500 42.49200
H  56.05400 42.99800 40.79100
H  56.65100 41.52700 41.49200
H  55.23400 47.21300 40.90300
H  54.46600 48.47100 43.49800
H  56.09100 45.54200 42.99100
H  56.14500 47.16800 43.70900
H  57.09600 46.63900 42.26200
H  53.67400 50.09300 41.07900
H  55.32400 49.68000 41.09800
H  55.80700 51.25300 42.76000
H  54.55500 50.54800 43.83800
H  54.17900 51.78200 42.64000
H  49.99000 51.33600 43.02300
H  48.30900 51.54700 42.43600
H  49.78000 51.85700 41.33300
H  46.35800 47.78600 39.00000
H  42.37800 49.02900 41.54400
H  43.59100 48.38700 42.55400
H  42.69800 47.26900 41.27500
Mg -6.25800 25.66800 26.08000
C  -5.08400 27.15000 29.04000
C  -8.22800 23.61900 28.08900
C  -6.89000 23.90400 23.43400
C  -3.91900 27.55000 24.37600
N  -6.54000 25.46100 28.36200
C  -5.96300 26.11500 29.36800
C  -6.53800 25.66400 30.62500
C  -7.33000 24.40600 30.28100
C  -7.42900 24.53500 28.79700
C  -6.63200 23.06900 30.72900
C  -7.45000 26.77400 31.31000
C  -7.40300 26.82500 32.90700
H  -6.64300 25.69700 33.73100
N  -7.45900 24.03600 25.72900
C  -8.27600 23.44600 26.64200
C  -9.05200 22.39900 26.01800
C  -8.62300 22.31400 24.66800
C  -7.59700 23.36500 24.54100
C  -10.10000 21.54600 26.70300
C  -9.18700 21.47400 23.62600
O  -8.75800 21.57200 22.46500
C  -10.25600 20.42100 23.88700
N  -5.39000 25.64900 24.18000
C  -6.00500 24.92100 23.24100
C  -5.42600 25.22300 21.84900
C  -4.56300 26.52900 22.05200
C  -4.68400 26.64700 23.60000
C  -4.70800 23.99000 21.15900
C  -5.08600 27.69800 21.24100
C  -6.41700 28.33800 21.63700
N  -4.79400 27.12000 26.48400
C  -3.83300 27.72900 25.74100
C  -3.15700 28.73900 26.48500
C  -3.59000 28.54200 27.78200
C  -4.51400 27.47900 27.74800
C  -2.21300 29.66300 25.94200
C  -3.45300 29.00500 29.14900
O  -2.90200 30.01600 29.65200
C  -4.31700 28.03600 30.01300
C  -3.44800 27.40200 30.99900
O  -2.89700 26.30900 30.92600
O  -3.31900 28.28700 32.06100
C  -2.65600 27.69400 33.27200
H  -8.83500 22.98400 28.73800
H  -6.91700 23.24000 22.56700
H  -3.19600 28.15700 23.82800
H  -5.67700 25.43000 31.25200
H  -8.34700 24.48400 30.66600
H  -6.41200 22.51400 29.81700
H  -7.24100 22.42700 31.36600
H  -5.70800 23.23700 31.28300
H  -8.50700 26.67200 31.06500
H  -7.09800 27.74600 30.96300
H  -8.44800 26.82100 33.22000
H  -6.98600 27.78500 33.21300
H  -9.65100 20.55300 26.74000
H  -11.01600 21.45400 26.12000
H  -10.22600 21.69500 27.77500
H  -9.88900 19.82600 24.72400
H  -10.39400 19.83700 22.97700
H  -11.21100 20.85000 24.19200
H  -6.34200 25.27100 21.26000
H  -3.53100 26.22100 21.87900
H  -5.27100 23.55200 20.33500
H  -4.50100 23.18800 21.86800
H  -3.73600 24.29500 20.77300
H  -5.19900 27.29000 20.23700
H  -4.30000 28.44700 21.33500
H  -7.04800 27.52100 21.98600
H  -6.97800 28.76300 20.80500
H  -6.34800 29.17400 22.33300
H  -2.36000 30.58800 26.49800
H  -2.37800 29.74500 24.86700
H  -1.17400 29.43000 26.17700
H  -4.97400 28.68400 30.59300
H  -3.44900 27.63200 34.01700
H  -1.84600 28.29800 33.68200
H  -2.35500 26.64800 33.22100

