158

Mg 1.58500 7.94900 27.58800
C  2.10800 10.02100 30.32900
C  2.01600 5.24200 29.91500
C  1.25300 5.84400 25.07200
C  1.62700 10.58700 25.41900
N  1.94700 7.68700 29.83000
C  1.88000 8.76100 30.70900
C  1.67500 8.25000 32.11900
C  2.19600 6.77900 32.01600
C  1.96400 6.50800 30.48900
C  3.47500 6.19900 32.63000
C  0.26800 8.36300 32.54100
C  -0.12100 8.43100 34.11400
H  1.14400 8.20500 35.09200
N  1.49000 5.83800 27.50000
C  1.77200 4.89500 28.53300
C  1.73800 3.57400 27.87900
C  1.37900 3.67800 26.50500
C  1.33200 5.14200 26.28500
C  2.00000 2.26000 28.61000
C  1.23700 2.57900 25.43900
O  0.95800 2.90100 24.26600
C  1.32500 1.05100 25.75400
N  1.37100 8.17400 25.62400
C  1.29600 7.20200 24.72900
C  1.01400 7.64100 23.29200
C  0.86800 9.21100 23.54400
C  1.24800 9.35200 24.93700
C  2.21400 7.46900 22.27300
C  -0.45600 9.86300 23.00600
C  -0.44400 11.13900 22.24000
N  1.96300 9.93300 27.77000
C  1.96200 10.90000 26.76500
C  2.14600 12.16000 27.39100
C  2.24200 11.90100 28.75900
C  2.05200 10.54000 28.92800
C  2.12800 13.54500 26.68000
C  2.48700 12.48000 30.10600
O  2.78100 13.60300 30.46600
C  2.33600 11.34300 31.16000
C  3.54300 11.26300 32.02200
O  4.65700 11.13700 31.54800
O  3.35500 11.48900 33.42300
C  4.57200 11.68500 34.21400
H  1.94600 4.44700 30.66000
H  1.12500 5.24000 24.17100
H  1.46400 11.45800 24.78000
H  2.31500 8.79800 32.81100
H  1.51400 6.08500 32.50800
H  4.03100 6.98800 33.13500
H  4.20700 5.90000 31.87900
H  3.33700 5.27200 33.18800
H  -0.34200 7.57300 32.10200
H  -0.16300 9.20800 32.00400
H  -0.88500 7.65900 34.20300
H  -0.66400 9.36100 34.27800
H  1.18700 1.61900 28.27000
H  1.90300 2.31200 29.69400
H  2.89600 1.74400 28.26600
H  1.38000 0.43300 24.85900
H  0.43800 0.70500 26.28600
H  2.16900 0.81900 26.40300
H  0.11400 7.13700 22.94000
H  1.59900 9.78900 22.97700
H  1.82100 7.04800 21.34700
H  2.86500 6.72100 22.72600
H  2.81600 8.37000 22.15300
H  -1.10700 10.17000 23.82500
H  -1.05600 9.12900 22.46800
H  -0.83400 10.80300 21.27900
H  0.57400 11.41900 21.97000
H  -1.01700 11.99700 22.59200
H  3.02300 13.82900 26.12800
H  1.88200 14.26500 27.46100
H  1.22100 13.41000 26.09000
H  1.52300 11.56500 31.85200
H  4.53300 12.51700 34.91800
H  5.40800 12.02700 33.60500
H  4.77400 10.73500 34.70800
Mg 5.28000 54.42400 40.61700
C  5.06500 50.74300 40.51500
C  8.58100 54.06800 39.95600
C  5.20000 57.57200 39.65900
C  1.76600 54.40000 41.09500
N  6.58600 52.61600 39.89800
C  6.37400 51.24400 40.14400
C  7.71300 50.41400 40.18300
C  8.81500 51.50700 40.08300
C  7.93300 52.85000 40.00600
C  9.90900 51.48900 41.16700
C  7.82900 49.22000 39.20900
C  7.17500 49.54500 37.83700
H  8.05800 49.86700 36.58900
N  6.77300 55.72400 40.15300
C  8.03800 55.35300 39.87700
C  8.76400 56.54200 39.51100
C  7.80600 57.59200 39.46000
C  6.50900 57.01800 39.77400
C  10.27900 56.54600 39.13800
C  8.18800 59.02800 39.19500
O  9.31400 59.29600 38.88300
C  7.17200 60.23800 39.23200
N  3.70700 55.72400 40.23700
C  3.96800 57.04500 40.01500
C  2.68500 57.91000 39.91100
C  1.64600 56.88600 40.51700
C  2.36100 55.55800 40.57600
C  2.79200 59.26500 40.60900
C  0.24400 56.82900 39.91000
C  -0.99100 57.17000 40.81200
N  3.72900 53.00200 40.77200
C  2.35600 53.18000 41.10800
C  1.76300 51.88500 41.45600
C  2.86200 51.01200 41.39300
C  3.93900 51.65200 40.76500
C  0.36900 51.64000 41.82200
C  3.22600 49.62500 41.66400
O  2.62900 48.72900 42.23000
C  4.61300 49.35100 40.93800
C  4.48000 48.40300 39.72900
O  4.13400 48.71500 38.59600
O  4.73200 47.14000 40.10800
C  4.57800 46.12000 39.02400
H  9.66800 53.97100 39.93500
H  5.22000 58.55100 39.17600
H  0.70600 54.41200 41.35700
H  7.63800 50.04600 41.20600
H  9.32500 51.32900 39.13600
H  10.86900 51.45200 40.65100
H  9.72000 50.66000 41.84800
H  9.81900 52.36800 41.80600
H  7.46800 48.28300 39.63300
H  8.83700 48.92900 38.91200
H  6.41900 50.33000 37.82000
H  6.67200 48.63400 37.51100
H  10.92900 55.80600 39.60600
H  10.81000 57.45100 39.43200
H  10.51700 56.37000 38.08900
H  7.70000 61.19200 39.24300
H  6.61100 60.18100 40.16400
H  6.58800 60.15600 38.31500
H  2.48800 58.14400 38.86500
H  1.66700 57.22500 41.55300
H  3.68700 59.19900 41.22700
H  2.01900 59.55400 41.32100
H  2.89100 60.07400 39.88500
H  0.14600 55.83100 39.48200
H  0.21600 57.47800 39.03500
H  -1.70900 57.95500 40.57400
H  -0.70400 57.28100 41.85800
H  -1.55100 56.24200 40.93300
H  0.53400 51.08000 42.74300
H  -0.19800 50.95800 41.18900
H  -0.20500 52.55000 41.99500
H  5.35100 48.94500 41.63000
H  4.83400 45.21400 39.57400
H  5.18000 46.33600 38.14100
H  3.55000 45.95000 38.70400

