158

Mg 47.72200 14.86400 28.29600
C  45.59600 14.51600 30.98000
C  49.54600 17.10300 30.12300
C  49.79400 15.18900 25.63800
C  45.68300 12.90000 26.43600
N  47.58100 15.70900 30.34900
C  46.65000 15.34900 31.33200
C  47.01700 15.95000 32.65700
C  47.98700 17.15200 32.20600
C  48.42500 16.63500 30.82900
C  47.53400 18.62100 32.17000
C  47.80800 14.98900 33.60100
C  47.56500 15.27700 35.06300
H  48.81800 15.25600 36.01600
N  49.54100 15.86600 28.06600
C  50.07400 16.79300 28.86400
C  51.31300 17.30400 28.26100
C  51.43500 16.63800 27.06000
C  50.23400 15.85300 26.86400
C  52.02700 18.43900 28.84600
C  52.59400 16.82200 26.02100
O  52.57200 16.24600 24.92100
C  53.77500 17.62800 26.32400
N  47.72000 14.33500 26.24900
C  48.61800 14.50200 25.33900
C  48.34600 13.78800 23.98400
C  46.98100 13.19800 24.23800
C  46.76100 13.43900 25.72000
C  48.47400 14.74000 22.81000
C  46.79200 11.71500 23.80200
C  47.67100 10.64300 24.50900
N  45.93900 13.98400 28.60000
C  45.21400 13.14900 27.75900
C  44.01300 12.64200 28.39100
C  44.10700 13.22900 29.76500
C  45.27300 14.05200 29.73400
C  42.93100 11.91100 27.59100
C  43.52400 13.31300 31.08100
O  42.48600 12.96800 31.57000
C  44.47000 14.18800 31.89600
C  43.69800 15.46900 32.23300
O  43.54300 16.36400 31.44600
O  43.27800 15.49400 33.46900
C  42.51700 16.62500 33.97400
H  50.09300 17.89500 30.63900
H  50.56100 15.23800 24.86200
H  45.01800 12.29700 25.81400
H  46.18400 16.27800 33.27900
H  48.85900 17.10700 32.85800
H  47.47400 19.08100 31.18300
H  48.13900 19.22000 32.85000
H  46.54400 18.51800 32.61600
H  48.87800 14.85900 33.43500
H  47.45000 13.99500 33.33500
H  46.99400 14.45900 35.50200
H  46.89600 16.11300 35.26700
H  51.75200 19.38200 28.37300
H  53.10000 18.38800 28.65800
H  52.04900 18.37500 29.93400
H  54.22400 17.90800 25.37200
H  54.34100 17.16700 27.13400
H  53.39300 18.62400 26.55100
H  49.07800 12.98700 23.88300
H  46.20900 13.71400 23.66600
H  47.87800 14.49700 21.93100
H  49.53600 14.76100 22.56300
H  48.19700 15.72500 23.18500
H  46.99000 11.74300 22.73100
H  45.71900 11.54900 23.89000
H  48.20500 10.99300 25.39300
H  48.41800 10.23300 23.82900
H  46.97500 9.89300 24.88600
H  42.75000 10.91500 27.99400
H  43.06300 11.77400 26.51800
H  42.00000 12.46400 27.71800
H  44.56400 13.54100 32.76800
H  41.77900 16.31700 34.71500
H  42.04300 17.09300 33.11200
H  43.21800 17.30800 34.45300
Mg 26.29400 51.15200 26.18600
C  24.18000 52.31600 28.73600
C  28.61000 50.50400 28.74900
C  28.78500 50.95300 23.88200
C  24.20200 52.66200 23.90200
N  26.33200 51.44700 28.45500
C  25.33100 51.80800 29.25900
C  25.57500 51.43200 30.75600
C  27.10500 51.20800 30.70100
C  27.39600 50.99000 29.17900
C  27.95800 52.31000 31.44800
C  24.76300 50.23700 31.23200
C  25.20600 49.54300 32.51000
H  24.41700 49.84800 33.82000
N  28.34100 50.56900 26.30200
C  29.12100 50.29300 27.41000
C  30.45500 49.98500 27.03000
C  30.46300 50.02400 25.59200
C  29.17500 50.54500 25.22600
C  31.52900 49.55800 27.95600
C  31.59000 49.62500 24.62600
O  31.51300 49.82600 23.37400
C  32.85300 48.98700 25.17900
N  26.46800 51.72100 24.19800
C  27.60000 51.42300 23.43500
C  27.19900 51.56100 21.94800
C  25.86100 52.40800 21.97100
C  25.47700 52.26100 23.44300
C  28.24800 52.28200 21.12500
C  24.83200 51.88400 20.97600
C  24.23900 52.99100 20.08200
N  24.45200 52.12100 26.19700
C  23.67400 52.56400 25.18900
C  22.39500 53.01700 25.72500
C  22.60500 52.98600 27.08800
C  23.87500 52.44700 27.35400
C  21.18100 53.51600 24.98900
C  21.97100 53.24400 28.36300
O  20.82900 53.65700 28.55500
C  22.92900 52.70800 29.44100
C  23.12300 53.68700 30.49200
O  23.85500 54.65800 30.49400
O  22.34300 53.27400 31.51900
C  22.43300 53.74900 32.90400
H  29.28100 50.36300 29.59900
H  29.38500 50.65000 23.02100
H  23.41000 52.98300 23.22200
H  25.26600 52.31300 31.31900
H  27.44400 50.26700 31.13300
H  28.34700 51.80400 32.33300
H  27.26600 53.12800 31.64800
H  28.71100 52.72500 30.77800
H  24.69200 49.57600 30.36800
H  23.71300 50.50600 31.35300
H  26.25500 49.75400 32.71500
H  25.14700 48.46900 32.33400
H  31.15100 49.52500 28.97700
H  32.51800 50.00200 27.84100
H  31.69300 48.49400 27.78600
H  33.54800 48.75800 24.37100
H  32.53300 47.99400 25.49400
H  33.27400 49.66200 25.92400
H  26.95700 50.58300 21.53100
H  26.01700 53.47700 21.82300
H  28.94200 52.87900 21.71700
H  27.66300 52.95300 20.49500
H  28.76600 51.45800 20.63500
H  23.95600 51.40700 21.41600
H  25.37200 51.19300 20.32800
H  23.17900 52.74000 20.03400
H  24.62700 52.93300 19.06500
H  24.45200 53.99700 20.44300
H  20.34100 53.09800 25.54400
H  21.18600 53.19300 23.94800
H  21.16500 54.60200 24.90100
H  22.49200 51.82800 29.91200
H  23.17100 53.22700 33.51200
H  21.48000 53.73900 33.43400
H  22.76700 54.78300 32.98000

