158

Mg 7.86900 2.62200 28.49000
C  9.50600 1.26500 31.43700
C  6.15800 4.78000 30.75900
C  5.94600 3.57100 25.93100
C  9.37000 0.15200 26.67100
N  7.79900 2.81200 30.88000
C  8.65300 2.28900 31.80400
C  8.64600 2.95900 33.24600
C  7.39300 3.95000 32.92800
C  7.09700 3.91200 31.42000
C  6.11500 3.70400 33.86600
C  9.96200 3.64200 33.65100
C  10.43900 3.26300 35.10200
H  9.56500 3.61100 36.36300
N  6.34000 3.98300 28.39800
C  5.74600 4.74200 29.42000
C  4.69600 5.57200 28.81300
C  4.79900 5.43600 27.43300
C  5.74100 4.37200 27.14600
C  3.73800 6.37200 29.60500
C  3.88200 6.07000 26.34200
O  3.92200 5.73700 25.17400
C  2.78300 7.13700 26.78400
N  7.77500 2.02400 26.56700
C  6.84300 2.48200 25.72200
C  7.01800 1.80900 24.32900
C  8.30700 0.81900 24.55000
C  8.49500 0.99500 26.00800
C  5.69600 1.06100 23.86600
C  9.67200 1.19400 23.77200
C  10.69900 2.05700 24.49200
N  9.22900 0.99400 28.88300
C  9.71100 0.08400 27.99800
C  10.50000 -0.86900 28.71600
C  10.49200 -0.45300 30.08300
C  9.71300 0.71100 30.14600
C  11.18500 -2.03800 28.13500
C  10.92100 -0.74500 31.44900
O  11.53000 -1.69400 31.89200
C  10.41200 0.41600 32.39800
C  9.59900 -0.35100 33.44000
O  8.45800 -0.75200 33.27100
O  10.39200 -0.56100 34.54100
C  9.76600 -1.14400 35.75800
H  5.66600 5.58200 31.31300
H  5.40000 3.94700 25.06300
H  9.77400 -0.69800 26.11700
H  8.33900 2.17000 33.93100
H  7.67200 4.97700 33.16500
H  6.23700 2.73600 34.35200
H  5.25200 3.68400 33.20200
H  6.05200 4.56900 34.52700
H  9.90800 4.73000 33.62500
H  10.66300 3.34600 32.87100
H  11.25400 3.95100 35.32700
H  10.82100 2.24500 35.17400
H  3.74400 5.90600 30.59000
H  2.72800 6.20800 29.23000
H  4.05100 7.41200 29.70000
H  1.80900 6.69100 26.98500
H  2.67200 7.72500 25.87300
H  3.11800 7.91700 27.46700
H  7.25700 2.57200 23.58700
H  8.05600 -0.22000 24.33300
H  4.90300 1.12800 24.61000
H  5.69500 -0.00500 23.63900
H  5.33800 1.70500 23.06300
H  9.33500 1.75800 22.90200
H  10.13400 0.25300 23.47200
H  11.44900 1.54700 25.09700
H  10.40300 2.93900 25.06000
H  11.24300 2.52000 23.66800
H  12.12900 -1.77400 27.66000
H  10.45400 -2.30600 27.37300
H  11.15400 -2.86500 28.84500
H  11.31600 0.85600 32.81700
H  10.51100 -1.80100 36.20700
H  8.83400 -1.64700 35.50200
H  9.54700 -0.41500 36.53800
Mg 36.18900 48.83200 25.06600
C  36.22800 47.56200 28.20500
C  34.68300 51.72700 26.29200
C  35.83300 49.91400 21.89900
C  37.43800 45.74700 23.92500
N  35.68800 49.61700 27.06200
C  35.79300 48.87600 28.26800
C  35.42000 49.73200 29.46600
C  34.99700 51.04200 28.82100
C  35.14300 50.85200 27.30900
C  33.58700 51.64800 29.18200
C  36.64300 49.77900 30.45900
C  36.33300 49.62700 31.93900
H  34.89400 49.84700 32.43500
N  35.41300 50.61000 24.20000
C  34.75200 51.67000 24.87400
C  34.22800 52.59400 23.87000
C  34.49000 52.01600 22.56600
C  35.29500 50.77600 22.87300
C  33.61000 53.81000 24.27100
C  34.03900 52.48000 21.24700
O  34.22700 51.82500 20.26700
C  33.29300 53.74800 21.15000
N  36.52800 47.99800 23.11400
C  36.42200 48.66200 21.95700
C  37.00100 47.83000 20.69500
C  37.65500 46.70100 21.52300
C  37.07300 46.75800 22.95500
C  35.98500 47.34800 19.60400
C  39.19600 46.69100 21.40900
C  39.70600 45.67900 20.42800
N  36.63100 46.97800 25.84800
C  37.18200 45.84000 25.31600
C  37.36700 44.81300 26.34500
C  36.95800 45.43900 27.44600
C  36.61300 46.76700 27.10800
C  37.85300 43.40500 26.13700
C  36.89400 45.21100 28.81200
O  37.27000 44.21900 29.44100
C  36.39800 46.58600 29.39600
C  35.12400 46.36100 30.14500
O  34.04000 46.44000 29.70700
O  35.44500 45.95900 31.36900
C  34.38200 45.82200 32.43100
H  34.09500 52.55300 26.69500
H  35.92700 50.22400 20.85600
H  37.87500 44.78800 23.64000
H  34.60000 49.25700 30.00400
H  35.61900 51.85200 29.20000
H  33.58600 52.71800 29.39300
H  33.18200 51.12400 30.04800
H  33.05100 51.28900 28.30300
H  37.20700 50.66600 30.17200
H  37.35200 48.98700 30.21500
H  37.03900 50.23600 32.50400
H  36.66100 48.63900 32.26200
H  33.86900 54.63200 23.60500
H  33.99800 54.15500 25.22900
H  32.53400 53.69000 24.39500
H  33.92300 54.63400 21.23500
H  32.46500 53.67500 21.85400
H  32.75400 53.85900 20.20900
H  37.70900 48.40500 20.09700
H  37.27600 45.73700 21.18500
H  36.25900 46.35100 19.25900
H  36.01300 48.05800 18.77700
H  35.01700 47.38800 20.10300
H  39.56500 46.47000 22.41000
H  39.55000 47.64100 21.00700
H  38.90600 45.17000 19.89100
H  40.26100 44.90500 20.96000
H  40.29400 46.17900 19.65900
H  38.94200 43.42000 26.10700
H  37.48500 42.91800 25.23400
H  37.57600 42.81600 27.01200
H  37.16800 46.84900 30.12000
H  33.39100 46.21400 32.20300
H  34.77200 46.35400 33.29800
H  34.32900 44.76500 32.69100

