158

Mg 42.50500 40.89400 26.04400
C  41.44600 43.28300 28.33500
C  43.49400 39.02000 28.73100
C  43.88600 38.83300 23.91700
C  41.59300 43.04900 23.51100
N  42.52400 41.13500 28.22400
C  41.95200 42.15800 28.93100
C  42.04600 41.96900 30.43500
C  42.81700 40.59300 30.52900
C  42.87300 40.22700 29.04100
C  44.13200 40.65900 31.32200
C  40.69300 41.86800 31.13200
C  40.63100 42.67100 32.47000
H  40.13700 41.85700 33.72500
N  43.60300 39.18600 26.29200
C  43.83000 38.52400 27.46000
C  44.51400 37.31200 27.18500
C  44.69600 37.22700 25.76600
C  44.07700 38.48700 25.24000
C  45.08100 36.44100 28.38200
C  45.29500 36.13100 24.99700
O  45.53300 36.18700 23.74200
C  45.80400 34.90500 25.77200
N  42.69100 40.91900 24.00300
C  43.19300 39.85900 23.35200
C  42.72700 39.94900 21.85400
C  42.18400 41.36100 21.77600
C  42.15200 41.83100 23.18500
C  43.77000 39.57400 20.80100
C  40.78000 41.54100 21.04700
C  40.95800 42.52300 19.82000
N  41.76300 42.82500 25.91400
C  41.49900 43.61500 24.80900
C  41.05000 44.92200 25.26400
C  40.97000 44.79900 26.63600
C  41.42900 43.53900 26.98800
C  40.65400 46.09200 24.41900
C  40.51500 45.42800 27.86500
O  39.93900 46.52600 27.93500
C  40.71800 44.43500 28.99800
C  41.43800 45.16800 30.00300
O  42.61300 45.52700 29.98200
O  40.67700 45.54200 31.06700
C  41.37400 46.25000 32.12500
H  43.61400 38.23800 29.48300
H  44.29800 38.14100 23.17900
H  41.33100 43.67100 22.65300
H  42.67700 42.72400 30.90400
H  42.17300 39.80100 30.91000
H  44.41900 41.67300 31.59800
H  44.84400 40.17600 30.65300
H  44.17500 40.12000 32.26800
H  40.55400 40.86700 31.54200
H  39.83300 42.15600 30.52800
H  40.00100 43.55400 32.36500
H  41.53200 43.23000 32.72200
H  45.11500 37.02300 29.30400
H  46.12400 36.15900 28.23400
H  44.50900 35.51600 28.45500
H  46.20900 34.24900 25.00200
H  45.16700 34.38400 26.48800
H  46.70000 35.33600 26.21800
H  42.00700 39.13400 21.92700
H  42.86200 41.99800 21.20700
H  43.85900 40.38200 20.07500
H  43.43700 38.66200 20.30500
H  44.78000 39.48800 21.20200
H  39.96400 42.02900 21.58000
H  40.40200 40.57900 20.70200
H  40.95900 41.88200 18.93900
H  41.85600 43.13200 19.92300
H  40.04900 43.11500 19.93200
H  40.55800 45.88200 23.35400
H  41.31600 46.93000 24.63600
H  39.63700 46.36900 24.69900
H  39.75700 44.27900 29.48700
H  42.03700 45.51900 32.58700
H  40.59300 46.53400 32.83100
H  41.84800 47.14300 31.71700
Mg 16.52200 51.97300 25.97800
C  18.59300 50.66600 28.69200
C  14.31900 52.97900 28.27100
C  14.70700 53.04000 23.39500
C  18.88900 50.43700 23.71500
N  16.59800 51.91400 28.26100
C  17.48000 51.43200 29.19400
C  17.00700 51.59700 30.59200
C  15.56800 52.10500 30.43300
C  15.43000 52.34000 28.87400
C  14.47800 51.05700 31.01500
C  17.83100 52.61900 31.42800
C  17.81800 52.54600 32.95700
H  16.70900 51.74200 33.56600
N  14.77300 52.89100 25.84300
C  14.06300 53.35400 26.90700
C  13.01300 54.19000 26.43100
C  13.08800 54.16800 24.99300
C  14.23100 53.31700 24.69100
C  11.96000 54.82600 27.31600
C  12.26200 54.93200 23.93800
O  12.51600 55.07300 22.74600
C  11.12300 55.78500 24.39600
N  16.71200 51.65800 23.79700
C  15.88200 52.31300 23.01600
C  16.47600 52.24100 21.55500
C  17.71000 51.29800 21.59700
C  17.81100 51.13200 23.10000
C  15.50400 52.01700 20.42100
C  19.05700 51.89800 21.00600
C  19.87500 50.86100 20.26500
N  18.35900 50.73100 26.05500
C  19.08900 50.20200 25.06600
C  20.29200 49.55100 25.63100
C  20.10700 49.70800 27.04500
C  18.99100 50.46500 27.26600
C  21.39300 48.89200 24.87000
C  20.66400 49.34000 28.34200
O  21.76700 48.89700 28.64800
C  19.72100 49.91500 29.47100
C  19.26500 48.76000 30.28300
O  18.86000 47.64400 29.96300
O  19.42100 49.16500 31.55200
C  19.47600 48.20200 32.59500
H  13.56900 53.12600 29.05100
H  14.19100 53.43500 22.51800
H  19.75200 50.06100 23.16200
H  17.09400 50.60500 31.03400
H  15.42200 53.06300 30.93300
H  15.04500 50.28400 31.53400
H  13.84000 50.57500 30.27400
H  13.85400 51.46000 31.81300
H  17.55200 53.65200 31.22000
H  18.80900 52.41200 30.99400
H  17.88900 53.57000 33.32200
H  18.74300 52.02100 33.19400
H  11.95000 54.48700 28.35200
H  10.93800 54.72300 26.95000
H  12.14500 55.89700 27.23900
H  10.25800 55.12700 24.48200
H  10.88300 56.46000 23.57400
H  11.23800 56.33000 25.33300
H  16.76400 53.27100 21.34500
H  17.46900 50.34000 21.13600
H  14.86200 52.89600 20.48200
H  14.95100 51.08400 20.53400
H  16.02600 51.90700 19.47100
H  19.58200 52.09900 21.94000
H  18.88200 52.86000 20.52400
H  19.28500 49.94500 20.21900
H  20.85200 50.73200 20.73100
H  20.18400 51.27800 19.30700
H  21.68200 49.61100 24.10300
H  21.10800 47.95100 24.39900
H  22.19000 48.73400 25.59600
H  20.32200 50.60500 30.06300
H  19.61100 47.19400 32.20300
H  18.56300 48.25500 33.18800
H  20.25900 48.43400 33.31600

