158

Mg 53.61200 23.70000 44.74200
C  51.10500 25.81700 43.75700
C  52.01700 21.10800 43.05800
C  56.48600 21.69000 45.14300
C  55.45700 26.38500 45.79100
N  51.98000 23.56200 43.34600
C  51.02600 24.56200 43.13800
C  50.14100 24.17000 41.98900
C  50.07600 22.61900 42.08500
C  51.39700 22.35900 42.91800
C  48.85500 21.98900 42.81500
C  50.71500 24.60800 40.57400
C  49.71100 24.51500 39.43800
H  50.15600 25.02900 38.04600
N  54.15000 21.65300 44.39400
C  53.31600 20.77100 43.60600
C  54.00800 19.52500 43.52900
C  55.26900 19.63300 44.26400
C  55.32900 21.03100 44.65600
C  53.36700 18.21100 42.84400
C  56.30000 18.46400 44.36000
O  56.07600 17.41300 43.88100
C  57.49400 18.54600 45.25600
N  55.71200 23.98600 45.47100
C  56.69000 23.05700 45.48000
C  58.04700 23.68800 45.88800
C  57.67400 25.23300 46.06400
C  56.19100 25.21500 45.71200
C  58.63800 22.98100 47.09200
C  58.47200 26.14600 45.02700
C  60.02800 25.97700 44.71100
N  53.29200 25.59000 45.02300
C  54.11100 26.57800 45.48600
C  53.30500 27.84400 45.60100
C  52.12500 27.57600 45.03300
C  52.20000 26.21400 44.59600
C  53.78300 29.02800 46.35200
C  50.88800 28.10700 44.58900
O  50.42300 29.21400 44.76300
C  50.15400 26.94500 43.75800
C  49.69300 27.38100 42.39500
O  50.38200 27.89100 41.53900
O  48.34500 27.19600 42.40000
C  47.73800 27.73700 41.18400
H  51.47800 20.28300 42.59000
H  57.40300 21.09800 45.17300
H  56.05500 27.25400 46.07400
H  49.12000 24.53600 42.09200
H  50.15900 22.19200 41.08500
H  48.04400 22.69000 43.01000
H  49.32500 21.61100 43.72300
H  48.42400 21.15900 42.25700
H  51.55800 23.95400 40.35000
H  51.06600 25.64000 40.57600
H  49.02100 25.32700 39.66400
H  49.07000 23.63700 39.51800
H  52.75200 17.65800 43.55400
H  54.07700 17.63800 42.24800
H  52.62900 18.52700 42.10600
H  57.55600 19.20000 46.12600
H  58.28200 18.60300 44.50600
H  57.73900 17.56300 45.65900
H  58.65500 23.66000 44.98400
H  57.85200 25.66200 47.05100
H  58.43100 21.91200 47.13700
H  58.33600 23.41800 48.04400
H  59.71600 23.14200 47.11100
H  58.31500 27.16400 45.38300
H  57.92900 26.11200 44.08300
H  60.72400 26.80800 44.83000
H  60.13300 25.71200 43.65900
H  60.41700 25.08500 45.20200
H  54.83900 29.25400 46.20700
H  53.60100 28.85100 47.41200
H  53.23000 29.90200 46.00700
H  49.32700 26.62600 44.39100
H  47.84800 28.82100 41.17300
H  46.76300 27.30800 41.41500
H  48.13400 27.27800 40.27700
Mg 35.57300 48.71100 25.38000
C  35.75900 46.92900 28.39100
C  34.47000 51.37800 27.10100
C  35.23700 50.10300 22.44800
C  36.91500 45.76500 23.93100
N  35.22400 49.15800 27.56400
C  35.51200 48.31900 28.57200
C  35.33800 49.05700 29.93000
C  34.67100 50.42000 29.49100
C  34.81400 50.33500 27.98800
C  33.17900 50.62100 29.77800
C  36.73300 49.23400 30.67600
C  36.61100 49.50800 32.18400
H  35.11000 49.51800 32.70200
N  34.94400 50.49700 24.87300
C  34.51800 51.50100 25.66500
C  34.03400 52.58600 24.87500
C  34.27400 52.24800 23.52800
C  34.82400 50.91900 23.57500
C  33.51500 53.74700 25.52400
C  34.05300 53.08300 22.27100
O  34.33900 52.69600 21.15900
C  33.40800 54.40700 22.49700
N  36.01800 47.98500 23.46800
C  35.80000 48.80700 22.40600
C  36.13200 48.07500 21.07200
C  36.94500 46.81800 21.61400
C  36.67400 46.87000 23.07800
C  34.83100 47.71800 20.25900
C  38.44100 46.83200 21.00100
C  38.60700 45.72100 19.94100
N  35.98000 46.68100 25.97300
C  36.50200 45.62900 25.23400
C  36.57800 44.46300 26.07300
C  36.22800 44.93300 27.32800
C  35.93400 46.28400 27.18800
C  36.94700 43.07300 25.65000
C  36.20100 44.56300 28.74900
O  36.60600 43.50400 29.26100
C  35.89900 45.91800 29.51700
C  34.75400 45.83400 30.40400
O  33.63300 46.16700 30.13800
O  35.06700 45.34500 31.63300
C  33.91300 45.11600 32.49100
H  34.17500 52.30400 27.60000
H  35.21500 50.47200 21.42000
H  37.32900 44.84000 23.52300
H  34.65600 48.46200 30.53700
H  35.23600 51.25400 29.90800
H  33.21600 51.48700 30.43900
H  32.77200 49.72500 30.24600
H  32.59000 50.86300 28.89300
H  37.34100 49.98800 30.17700
H  37.35500 48.35400 30.51100
H  37.13700 50.43400 32.41300
H  37.14200 48.79100 32.81100
H  34.20600 54.53400 25.22300
H  33.19600 53.68100 26.56400
H  32.56600 53.89300 25.00700
H  34.00300 55.10000 23.09100
H  32.45200 54.20200 22.97900
H  33.24600 54.77700 21.48400
H  36.74500 48.71900 20.44200
H  36.33300 46.01800 21.19700
H  34.05000 48.39000 20.61500
H  34.63700 46.65900 20.42500
H  35.02500 47.99200 19.22200
H  39.17200 46.76900 21.80800
H  38.68900 47.74000 20.45100
H  38.78400 46.23400 18.99500
H  37.69800 45.12200 19.87700
H  39.46300 45.06000 20.07200
H  37.97200 43.18100 25.29700
H  36.18400 42.76800 24.93400
H  36.92100 42.43400 26.53200
H  36.72600 46.12800 30.19500
H  33.59100 46.11600 32.78300
H  34.22400 44.55600 33.37300
H  33.05300 44.67000 31.99200

