158

Mg 52.48300 24.32200 45.35500
C  49.62300 26.06100 44.59900
C  50.92600 21.60200 43.82400
C  55.46200 22.78600 45.29600
C  54.02300 27.33300 46.35700
N  50.48000 23.93300 44.40100
C  49.51400 24.81800 44.08800
C  48.58100 24.29500 43.05100
C  48.71600 22.76900 43.29400
C  50.11100 22.69700 43.92900
C  47.62100 22.18100 44.25500
C  49.00300 24.70800 41.56200
C  47.83000 24.98400 40.59100
H  47.78700 24.04400 39.32800
N  53.12500 22.44300 44.70800
C  52.32000 21.43100 44.13500
C  53.10600 20.20600 43.94500
C  54.40300 20.52400 44.31800
C  54.41600 21.99300 44.77700
C  52.60400 18.98600 43.23600
C  55.59300 19.56200 44.18800
O  55.41800 18.39300 43.73500
C  56.93400 19.95400 44.53200
N  54.55900 25.07900 45.52400
C  55.53500 24.18300 45.68900
C  56.81100 24.90000 46.32700
C  56.37400 26.39500 46.29000
C  54.91200 26.29300 46.06500
C  57.28000 24.38800 47.71500
C  56.93600 27.29400 45.18800
C  57.90200 28.50100 45.55900
N  51.96800 26.21800 45.55300
C  52.65300 27.31900 46.04300
C  51.66500 28.36100 46.22600
C  50.47800 27.87700 45.66200
C  50.72300 26.58700 45.29700
C  51.76000 29.68200 46.85500
C  49.10900 28.24700 45.30900
O  48.53500 29.27600 45.55200
C  48.52500 27.11100 44.53400
C  48.21900 27.66100 43.20000
O  48.97500 28.12300 42.39000
O  46.81900 27.73700 43.01800
C  46.24900 28.36800 41.86000
H  50.45500 20.81100 43.23700
H  56.39600 22.22200 45.34700
H  54.37900 28.26600 46.79900
H  47.56800 24.57600 43.33900
H  48.58600 22.31000 42.31400
H  46.86000 21.67900 43.65700
H  47.10400 22.92100 44.86600
H  48.08800 21.47000 44.93700
H  49.48400 23.84600 41.10000
H  49.60600 25.61100 41.46300
H  47.67000 26.01200 40.26800
H  46.89200 24.77800 41.10600
H  51.66600 19.20000 42.72300
H  52.41600 18.19700 43.96400
H  53.31100 18.55500 42.52700
H  57.20500 20.80400 43.90600
H  57.74200 19.22700 44.45100
H  56.90700 20.30100 45.56500
H  57.66600 24.82900 45.65400
H  56.63000 26.83200 47.25600
H  56.87900 23.38700 47.87800
H  56.92500 25.10100 48.46000
H  58.35800 24.25200 47.79700
H  56.11500 27.68800 44.58900
H  57.39100 26.64500 44.44100
H  58.87200 28.23900 45.13800
H  58.04200 28.64800 46.63000
H  57.68000 29.50800 45.20400
H  52.39400 29.55300 47.73200
H  50.76300 29.96200 47.19600
H  52.13100 30.35100 46.07900
H  47.62600 26.70400 44.99700
H  45.25300 28.66200 42.19000
H  46.12400 27.61000 41.08600
H  46.89400 29.18600 41.54000
Mg 36.01100 49.29700 25.52300
C  36.01800 47.31200 28.43400
C  34.96800 51.92700 27.33900
C  35.59000 50.93300 22.62200
C  36.77800 46.45100 23.71900
N  35.31300 49.47700 27.68200
C  35.58600 48.64000 28.69900
C  35.50100 49.34500 30.02800
C  34.92500 50.79000 29.69800
C  35.04300 50.73400 28.13100
C  33.48400 51.18300 30.26600
C  36.80700 49.36500 30.84700
C  36.67000 48.92600 32.36300
H  36.76000 50.07500 33.35000
N  35.47600 51.20200 25.05100
C  34.98300 52.17700 25.93200
C  34.95100 53.46200 25.28500
C  35.08300 53.17500 23.89100
C  35.35000 51.70600 23.78500
C  34.74800 54.68000 26.08500
C  35.06700 54.09600 22.69100
O  35.00800 53.85100 21.47100
C  34.92300 55.59500 22.98900
N  36.03400 48.72500 23.44300
C  35.90900 49.60500 22.47900
C  35.98400 49.02400 21.10900
C  36.42500 47.57500 21.40400
C  36.40900 47.56500 22.95600
C  34.69900 49.00400 20.14400
C  37.76200 47.31600 20.69500
C  39.11100 47.40200 21.51700
N  36.26300 47.32400 25.90700
C  36.60300 46.28700 25.05300
C  36.85300 45.04900 25.87200
C  36.60000 45.42700 27.19100
C  36.25500 46.82200 27.13300
C  37.37700 43.84000 25.40100
C  36.67000 44.97600 28.50600
O  36.80100 43.83800 28.94600
C  36.42600 46.25700 29.37400
C  35.23400 46.05700 30.22400
O  34.04000 46.02700 29.86100
O  35.71900 45.70700 31.51400
C  34.69400 45.41400 32.50500
H  34.84700 52.75500 28.04100
H  35.47000 51.53500 21.71900
H  37.16100 45.60800 23.14000
H  34.76500 48.92700 30.71500
H  35.57200 51.61000 30.01300
H  33.07900 50.27000 30.70100
H  32.91700 51.51800 29.39700
H  33.51500 52.09500 30.86300
H  37.26300 50.35300 30.78100
H  37.57500 48.70400 30.44400
H  37.53400 48.29300 32.56200
H  35.76300 48.32900 32.45900
H  35.39100 55.55500 25.99300
H  34.62800 54.51500 27.15500
H  33.80500 55.04000 25.67400
H  35.80400 55.98900 23.49500
H  34.03400 55.84400 23.56800
H  34.65700 56.06000 22.04000
H  36.81100 49.57800 20.66500
H  35.72900 46.74800 21.26000
H  33.88900 49.63700 20.50800
H  34.31700 47.99600 19.98600
H  35.01200 49.30200 19.14300
H  37.87400 48.00500 19.85800
H  37.74800 46.30200 20.29700
H  39.82600 46.67800 21.12400
H  38.93900 47.27100 22.58500
H  39.56900 48.37500 21.33800
H  37.95900 43.40900 26.21600
H  37.92300 43.79700 24.45900
H  36.55500 43.15200 25.20500
H  37.29900 46.33400 30.02200
H  34.03100 44.57400 32.29500
H  33.99700 46.25200 32.52800
H  35.21500 45.29600 33.45500

