158

Mg 1.80800 -1.55000 44.24400
C  5.23900 -0.95200 43.57600
C  1.02900 0.96000 42.28400
C  -1.41100 -2.66300 44.38300
C  2.89900 -4.57200 45.87700
N  3.01800 -0.25100 43.10000
C  4.36400 -0.10200 42.93700
C  4.81400 0.93300 41.92700
C  3.43000 1.74100 41.73200
C  2.40600 0.78200 42.40400
C  3.42800 3.13500 42.28500
C  5.46800 0.39700 40.62800
C  6.73200 1.21800 40.29400
H  7.04700 1.41900 38.80500
N  -0.06100 -0.86300 43.59300
C  -0.11200 0.22100 42.79900
C  -1.49200 0.47300 42.48800
C  -2.23700 -0.50500 43.20200
C  -1.25900 -1.36900 43.85500
C  -2.07400 1.63900 41.59400
C  -3.77100 -0.60700 43.19600
O  -4.39800 0.23300 42.59700
C  -4.43200 -1.84500 43.92500
N  0.95600 -3.47400 44.89000
C  -0.42300 -3.59300 44.87700
C  -0.85200 -4.87600 45.54700
C  0.48400 -5.31400 46.26800
C  1.53300 -4.43700 45.65900
C  -2.00900 -4.79100 46.57500
C  0.76900 -6.88200 46.30500
C  1.04100 -7.63800 47.65700
N  3.70300 -2.62500 44.70400
C  4.01000 -3.77400 45.34800
C  5.40000 -3.98400 45.48800
C  5.94100 -2.88000 44.79100
C  4.90600 -2.09100 44.31900
C  6.11700 -5.19200 46.15600
C  7.16700 -2.23600 44.41400
O  8.36400 -2.53500 44.61900
C  6.77000 -0.93400 43.64100
C  7.21200 0.23800 44.51100
O  6.68600 0.65200 45.58200
O  8.32800 0.72000 43.82600
C  8.71500 2.01700 44.30100
H  0.77200 1.80600 41.64300
H  -2.38500 -3.12700 44.55400
H  3.15400 -5.34900 46.60100
H  5.56500 1.56200 42.40500
H  3.25300 1.82500 40.66000
H  2.44600 3.61000 42.28800
H  4.16800 3.77400 41.80200
H  3.71700 3.19500 43.33400
H  4.85200 0.64800 39.76500
H  5.75700 -0.65000 40.72100
H  7.62000 0.70100 40.65700
H  6.71400 2.23300 40.69200
H  -2.73900 1.27800 40.81000
H  -1.30700 2.30100 41.19200
H  -2.70300 2.23200 42.25900
H  -5.50000 -1.63100 43.90000
H  -3.99100 -1.92800 44.91900
H  -4.26600 -2.76100 43.35900
H  -1.16300 -5.63200 44.82700
H  0.44400 -4.92600 47.28600
H  -2.86800 -5.21400 46.05500
H  -2.28700 -3.79200 46.91200
H  -1.70800 -5.37200 47.44700
H  1.60700 -7.06300 45.63200
H  -0.06800 -7.40100 45.83800
H  0.62600 -8.64500 47.71000
H  0.71400 -6.97800 48.46100
H  2.10700 -7.79600 47.81900
H  6.08900 -5.04500 47.23500
H  7.18700 -5.27500 45.96400
H  5.56300 -6.10600 45.94400
H  7.14900 -0.83400 42.62400
H  8.02500 2.80800 44.00700
H  9.69200 2.22800 43.86500
H  8.80200 2.12900 45.38200
Mg 49.22000 46.10200 43.72800
C  45.78400 46.63900 42.87100
C  48.94400 43.03500 42.13200
C  52.48000 45.98400 43.82300
C  49.32500 49.55100 44.66900
N  47.64900 45.05400 42.55400
C  46.30100 45.44300 42.35100
C  45.59900 44.54500 41.33300
C  46.49100 43.31300 41.32800
C  47.77500 43.80800 42.12400
C  45.96400 41.90200 41.75200
C  45.22400 45.27100 39.97700
C  43.80300 44.97700 39.40600
H  43.78600 44.76700 37.87700
N  50.51000 44.62500 43.27500
C  50.22300 43.38900 42.66900
C  51.36800 42.58200 42.51200
C  52.43300 43.44300 42.99100
C  51.87000 44.70900 43.48500
C  51.40300 41.12600 41.97500
C  53.91200 42.98200 42.96300
O  54.29500 41.96900 42.38700
C  54.98000 43.84700 43.60600
N  50.71000 47.58300 44.18400
C  52.00500 47.27500 44.11100
C  52.87900 48.46100 44.36700
C  51.85300 49.47900 44.92600
C  50.55400 48.82100 44.58700
C  54.12700 48.27300 45.16600
C  51.97700 51.03400 44.45200
C  51.72700 52.14900 45.53200
N  47.89500 47.80600 43.77900
C  48.06600 49.04400 44.30800
C  46.78700 49.69900 44.28200
C  45.87000 48.79300 43.77400
C  46.52900 47.68000 43.42900
C  46.54100 51.04100 44.84800
C  44.48300 48.67200 43.38600
O  43.47100 49.39200 43.56500
C  44.41000 47.22100 42.83300
C  43.36300 46.45300 43.56700
O  43.14500 46.59300 44.77400
O  42.75100 45.53100 42.76100
C  41.73000 44.75000 43.37700
H  48.88400 42.11100 41.55300
H  53.55700 45.96200 43.64300
H  49.39900 50.61400 44.90900
H  44.68600 44.14500 41.77500
H  46.92500 43.09500 40.35200
H  46.67100 41.48500 42.46900
H  45.77600 41.16100 40.97500
H  44.96600 42.00100 42.17900
H  45.91800 44.95000 39.19900
H  45.35900 46.33400 40.17400
H  43.19700 45.86600 39.58300
H  43.28400 44.16200 39.90900
H  51.02300 40.52000 42.79700
H  52.36300 40.73900 41.63200
H  50.73400 41.06000 41.11700
H  55.90100 43.26700 43.67400
H  54.75800 44.26300 44.58900
H  55.07300 44.72500 42.96700
H  53.21500 48.98000 43.47000
H  51.93800 49.33900 46.00300
H  54.92600 48.43300 44.44400
H  54.23400 47.28700 45.61900
H  54.22900 49.09100 45.88000
H  51.31100 51.15900 43.59800
H  52.94100 51.12300 43.95200
H  51.06400 52.78600 44.94700
H  52.58400 52.68500 45.94000
H  51.00300 51.80200 46.26900
H  46.66200 51.85300 44.13100
H  47.32600 51.20500 45.58700
H  45.62800 51.09700 45.44100
H  44.03500 47.41400 41.82800
H  42.06700 44.18400 44.24600
H  41.65100 43.90800 42.69000
H  40.76500 45.24800 43.47000

