158

Mg -11.49200 38.00900 41.98000
C  -9.49900 35.29500 40.89600
C  -9.29300 40.10600 40.37900
C  -13.64700 40.43500 42.48600
C  -14.02800 35.60300 42.87000
N  -9.59400 37.71000 40.83900
C  -8.90300 36.52100 40.56700
C  -7.58800 36.75400 39.78600
C  -7.45300 38.31800 39.86200
C  -8.91300 38.73800 40.36200
C  -6.38800 38.85200 40.83000
C  -7.66100 36.22100 38.34100
C  -6.51500 35.32600 37.84500
H  -5.79100 35.79100 36.57900
N  -11.36600 40.04600 41.52400
C  -10.40400 40.72400 40.86500
C  -10.70900 42.16300 40.80400
C  -11.97700 42.31400 41.50900
C  -12.38400 40.92700 41.88800
C  -9.87300 43.23600 40.08300
C  -12.67200 43.59000 41.77500
O  -12.17200 44.60200 41.31800
C  -13.99100 43.69700 42.42800
N  -13.63700 37.93800 42.34000
C  -14.20900 39.14200 42.62500
C  -15.63700 38.98700 43.19600
C  -15.81000 37.43300 43.31500
C  -14.46600 36.90900 42.74100
C  -15.85100 39.75200 44.56600
C  -17.04700 36.83200 42.59400
C  -18.29100 36.82600 43.57200
N  -11.70000 35.90800 42.04400
C  -12.71200 35.06300 42.49700
C  -12.17400 33.72900 42.53900
C  -10.99600 33.80600 41.80600
C  -10.74700 35.14600 41.55100
C  -12.85800 32.55600 43.15000
C  -9.93500 32.94000 41.26400
O  -9.84800 31.70500 41.49800
C  -8.86400 33.86800 40.68100
C  -7.64700 33.58100 41.41200
O  -7.53200 33.41000 42.59800
O  -6.61900 33.56300 40.56900
C  -5.30100 33.73900 41.11900
H  -8.59200 40.68900 39.77800
H  -14.18800 41.26900 42.93800
H  -14.83200 34.95600 43.22800
H  -6.80300 36.26100 40.36000
H  -7.25000 38.81600 38.91300
H  -5.58600 38.11400 40.82300
H  -6.77700 39.10300 41.81700
H  -6.02400 39.73100 40.30000
H  -7.76500 37.12000 37.73200
H  -8.59700 35.70300 38.13400
H  -6.86500 34.31300 37.64500
H  -5.70600 35.15300 38.55400
H  -8.94300 42.81100 39.70700
H  -9.50800 44.01700 40.75000
H  -10.46100 43.67600 39.27700
H  -14.72600 43.07600 41.91600
H  -14.44600 44.68600 42.46700
H  -13.87900 43.38700 43.46700
H  -16.30600 39.43900 42.46300
H  -15.88800 37.14600 44.36400
H  -16.32200 39.24500 45.40800
H  -16.53500 40.55700 44.29600
H  -14.88600 40.14400 44.88800
H  -16.81500 35.80000 42.33000
H  -17.21200 37.50800 41.75500
H  -18.06900 35.93600 44.16000
H  -19.21900 36.56300 43.06400
H  -18.26200 37.73100 44.17800
H  -12.71900 31.68000 42.51700
H  -13.93000 32.74900 43.12600
H  -12.57100 32.36900 44.18500
H  -8.69800 33.70100 39.61600
H  -5.19300 32.89700 41.80400
H  -5.29200 34.58500 41.80600
H  -4.54900 33.78800 40.33200
Mg -11.84100 16.40300 41.69400
C  -8.46300 14.99700 41.38000
C  -10.50200 19.29600 40.32500
C  -14.91800 17.43400 41.13600
C  -12.93300 13.10300 42.03900
N  -9.73500 16.97800 40.94900
C  -8.56600 16.29200 40.93400
C  -7.45200 17.12700 40.30600
C  -8.11800 18.53600 39.90500
C  -9.55700 18.21400 40.40300
C  -7.52600 19.82300 40.51300
C  -6.86000 16.36400 39.02400
C  -5.35800 16.30000 38.79600
H  -4.87800 16.98200 37.54100
N  -12.59900 18.14900 40.96400
C  -11.88500 19.28400 40.57400
C  -12.70500 20.35400 40.45700
C  -14.06900 19.88800 40.67200
C  -13.93000 18.42700 40.94300
C  -12.18900 21.81200 40.25400
C  -15.32500 20.82400 40.59200
O  -15.25500 22.03200 40.35000
C  -16.63100 20.22100 41.01800
N  -13.63200 15.36600 41.46500
C  -14.82000 16.09500 41.45400
C  -15.99900 15.15100 41.80900
C  -15.34700 13.79800 42.11500
C  -13.90600 14.09600 41.87700
C  -16.79600 15.75200 43.05300
C  -15.94900 12.71800 41.08800
C  -16.99000 11.70500 41.63300
N  -10.94900 14.53300 41.89300
C  -11.57100 13.29600 42.11200
C  -10.55200 12.28600 42.36000
C  -9.34700 12.91900 42.18000
C  -9.58600 14.29100 41.84300
C  -10.82400 10.88400 42.75000
C  -7.85300 12.76200 42.20500
O  -7.20800 11.75400 42.40800
C  -7.22900 14.05300 41.56800
C  -6.24200 14.52800 42.48800
O  -6.47000 14.70400 43.72100
O  -4.98400 14.71700 41.89200
C  -3.89800 15.26300 42.78600
H  -10.03500 20.24600 40.05600
H  -15.96300 17.74600 41.19100
H  -13.36200 12.12200 42.25500
H  -6.70100 17.27600 41.08200
H  -8.21200 18.70300 38.83200
H  -7.75700 20.56500 39.74800
H  -6.44600 19.68500 40.57000
H  -7.89500 20.09200 41.50300
H  -7.38300 16.85400 38.20300
H  -7.29000 15.36600 38.93100
H  -5.10300 15.24200 38.73500
H  -4.87200 16.75600 39.65800
H  -11.74700 21.96100 39.26900
H  -11.37700 21.97200 40.96400
H  -12.97900 22.55000 40.39100
H  -17.33000 21.02100 40.77300
H  -16.77900 20.08700 42.09000
H  -16.97700 19.36300 40.44100
H  -16.82400 15.10300 41.09800
H  -15.58700 13.43200 43.11300
H  -16.29400 16.51800 43.64600
H  -17.02200 14.94500 43.75000
H  -17.70200 16.15400 42.60000
H  -15.13000 12.07000 40.77400
H  -16.34600 13.23000 40.21200
H  -17.00500 10.75700 41.09500
H  -17.92900 12.20300 41.38900
H  -16.92000 11.61500 42.71700
H  -10.05200 10.41300 43.35900
H  -10.91000 10.34500 41.80700
H  -11.73700 10.78300 43.33700
H  -6.66000 13.85000 40.66100
H  -3.82800 16.26500 42.36200
H  -3.01500 14.75200 42.40100
H  -3.96000 15.15000 43.86800

