158

Mg 41.04400 40.85400 26.99300
C  40.54600 43.20100 29.60700
C  42.16700 38.69400 29.27500
C  41.78700 38.71000 24.42900
C  40.40400 43.31200 24.68000
N  41.25700 40.94300 29.22100
C  40.95600 41.95900 30.04900
C  40.98600 41.51400 31.56900
C  41.56200 40.04200 31.39200
C  41.71500 39.85900 29.87700
C  42.89000 39.84800 32.17900
C  39.57600 41.56900 32.23800
C  39.41000 42.43800 33.51200
H  39.05800 41.88100 34.96900
N  41.82300 38.95500 26.88100
C  42.17600 38.25400 27.94900
C  42.62500 36.94400 27.49600
C  42.45500 36.84000 26.08800
C  41.98000 38.19000 25.79100
C  43.26300 35.97900 28.41900
C  42.60400 35.68500 25.20500
O  42.52100 35.87000 23.96900
C  42.88900 34.30000 25.66200
N  41.00600 40.88000 24.88700
C  41.35100 39.89100 23.98200
C  41.09200 40.20800 22.52100
C  40.81700 41.77700 22.62700
C  40.65400 41.99800 24.18500
C  42.17000 39.88500 21.39600
C  39.53900 42.29700 21.92500
C  39.88000 43.45600 21.00000
N  40.34000 42.79200 27.03000
C  40.12400 43.70900 26.02800
C  39.95200 44.97700 26.53800
C  39.95900 44.82300 27.87900
C  40.30600 43.48200 28.20000
C  39.74400 46.26700 25.78200
C  39.80900 45.51800 29.17600
O  39.40100 46.63500 29.42000
C  40.17300 44.49100 30.31200
C  41.31100 45.00400 31.17600
O  42.46600 45.08900 30.84800
O  40.84600 45.28300 32.45300
C  41.73900 45.98700 33.40500
H  42.49800 37.96000 30.01300
H  41.96300 38.02900 23.59400
H  40.20700 44.09900 23.94900
H  41.71300 42.10700 32.12500
H  40.76300 39.40200 31.76900
H  43.12800 40.78200 32.68800
H  43.69000 39.73200 31.44800
H  43.02000 39.02700 32.88500
H  39.12200 40.61600 32.50900
H  38.90500 42.03900 31.51900
H  38.56300 43.08800 33.29400
H  40.30200 43.03100 33.71500
H  42.58800 35.21800 28.81000
H  43.71000 36.44400 29.29800
H  44.03600 35.44000 27.87200
H  42.21400 34.10900 26.49600
H  43.92200 34.30100 26.00800
H  42.76100 33.58100 24.85200
H  40.16600 39.68400 22.28300
H  41.66900 42.41300 22.38500
H  42.62400 40.78000 20.97000
H  41.73400 39.25100 20.62400
H  42.97800 39.40500 21.94800
H  38.76300 42.64700 22.60600
H  39.16700 41.53800 21.23700
H  39.10100 44.20100 21.15900
H  39.93300 43.13700 19.95900
H  40.83500 43.95900 21.15000
H  39.15100 46.99800 26.33200
H  39.28000 46.11400 24.80800
H  40.72600 46.73300 25.70000
H  39.32700 44.23500 30.95000
H  42.72600 46.07900 32.95100
H  41.82500 45.31100 34.25600
H  41.19700 46.91600 33.58200
Mg 29.85200 58.40600 42.05300
C  27.05500 56.82100 40.47300
C  31.80500 56.01800 40.65400
C  32.49100 60.39300 42.40000
C  27.66500 61.11900 42.72500
N  29.46100 56.76500 40.39000
C  28.25500 56.21800 39.98100
C  28.44900 54.95400 39.16000
C  30.01800 54.58100 39.42000
C  30.48000 55.84700 40.20800
C  30.21900 53.26800 40.31200
C  28.23000 55.08000 37.60900
C  27.41000 53.97400 37.01800
H  26.51100 54.37400 35.83800
N  31.93200 58.09500 41.81900
C  32.50700 57.03900 41.22600
C  34.02700 57.27100 41.17700
C  34.27400 58.59600 41.67600
C  32.90600 59.06800 42.12100
C  35.06600 56.41500 40.58600
C  35.57600 59.27900 41.75700
O  36.56400 58.73000 41.34400
C  35.68500 60.73600 42.14100
N  30.04300 60.39900 42.51000
C  31.31100 61.03900 42.73400
C  31.12800 62.54600 43.00300
C  29.58800 62.63100 43.31200
C  29.05000 61.31600 42.74900
C  32.11400 63.09100 44.06400
C  28.82300 63.87900 42.72700
C  27.90200 64.70600 43.69000
N  27.74800 58.88200 41.86900
C  27.00100 59.96000 42.25300
C  25.51600 59.66300 42.09900
C  25.51700 58.47100 41.38200
C  26.87700 58.06600 41.20500
C  24.51500 60.59000 42.53400
C  24.63700 57.59200 40.68900
O  23.43800 57.60000 40.48600
C  25.63100 56.39700 40.10000
C  25.19600 55.04600 40.60500
O  25.54700 54.58900 41.69300
O  24.48100 54.34800 39.65000
C  24.09800 53.02500 40.12500
H  32.41500 55.17200 40.33000
H  33.30800 61.09700 42.57300
H  27.04700 61.92800 43.12100
H  27.88900 54.15100 39.63900
H  30.55900 54.47900 38.47900
H  29.29500 52.69300 40.26200
H  30.52200 53.42200 41.34700
H  31.07100 52.69900 39.93900
H  29.11600 55.18800 36.98400
H  27.62800 55.98900 37.60200
H  26.72700 53.64300 37.80200
H  28.10400 53.18300 36.73400
H  35.94400 56.36200 41.22900
H  35.42000 56.88600 39.66900
H  34.77500 55.39400 40.34000
H  34.90300 61.26500 41.59800
H  36.67700 61.12700 41.91500
H  35.59900 60.81100 43.22500
H  31.27900 63.14100 42.10200
H  29.60500 62.76900 44.39300
H  32.92200 62.36700 44.16800
H  31.60100 63.15100 45.02400
H  32.51900 64.06800 43.79800
H  28.31100 63.54500 41.82500
H  29.64200 64.45600 42.29800
H  28.12700 65.77000 43.75500
H  28.04100 64.25900 44.67500
H  26.88600 64.51700 43.34000
H  24.91700 61.13900 43.38600
H  23.56400 60.07500 42.66800
H  24.39300 61.30600 41.72200
H  25.48300 56.26800 39.02700
H  23.36100 53.09700 40.92500
H  24.95600 52.41000 40.39700
H  23.60700 52.47600 39.32100

