158

Mg 24.89000 -6.07900 46.62400
C  27.24100 -3.86900 45.45400
C  22.54200 -4.58200 44.65500
C  22.81200 -8.60400 47.41100
C  27.52500 -7.78600 48.26900
N  24.99900 -4.49800 45.16700
C  26.02600 -3.70400 44.86200
C  25.62200 -2.62800 43.89000
C  24.04000 -2.60000 44.05900
C  23.79000 -3.98800 44.66400
C  23.57900 -1.52500 45.10500
C  25.98700 -2.99100 42.41000
C  26.38500 -1.80000 41.50000
H  25.53000 -1.75800 40.24400
N  22.89900 -6.46300 46.19900
C  22.11200 -5.75700 45.29400
C  20.74000 -6.34200 45.20500
C  20.78000 -7.51800 46.04600
C  22.22100 -7.58700 46.60200
C  19.57300 -5.77600 44.44500
C  19.60600 -8.48700 46.22700
O  18.52700 -8.26500 45.70400
C  19.68500 -9.68200 47.02900
N  25.24000 -8.08400 47.52900
C  24.13700 -8.82200 47.84600
C  24.65800 -10.18000 48.40800
C  26.02700 -9.75500 48.96800
C  26.32300 -8.45300 48.24700
C  23.86500 -10.98800 49.48000
C  27.04700 -10.90700 48.78700
C  28.02900 -11.06100 49.92900
N  27.02300 -5.86400 46.85900
C  27.88800 -6.60900 47.57700
C  29.16800 -5.96700 47.54000
C  28.92100 -4.78000 46.78800
C  27.64600 -4.86900 46.35500
C  30.46300 -6.40600 48.11800
C  29.54100 -3.65500 46.17100
O  30.70200 -3.24900 46.12600
C  28.42900 -2.92600 45.35800
C  28.23200 -1.47400 45.85000
O  29.11100 -0.58800 45.84200
O  27.03000 -1.38300 46.55800
C  26.65300 -0.06700 47.12300
H  21.89600 -3.99700 43.99700
H  22.09000 -9.38600 47.65600
H  28.25500 -8.28500 48.91000
H  25.99500 -1.65200 44.20200
H  23.44900 -2.43400 43.15800
H  24.40200 -0.87900 45.41200
H  23.12000 -2.02300 45.95800
H  22.76700 -1.01100 44.58900
H  25.15200 -3.45200 41.88200
H  26.81600 -3.69500 42.32900
H  27.42600 -1.90800 41.19500
H  26.11500 -0.80700 41.86100
H  18.82000 -6.49900 44.13200
H  19.92600 -5.23500 43.56700
H  19.04100 -4.99800 44.99400
H  19.84100 -9.34800 48.05500
H  20.49700 -10.23700 46.55900
H  18.71700 -10.17700 46.96000
H  24.68600 -10.87500 47.56900
H  25.98600 -9.55400 50.03800
H  24.01800 -12.04000 49.24100
H  22.83200 -10.64400 49.42000
H  24.22100 -10.71800 50.47400
H  27.58900 -10.60900 47.88900
H  26.66000 -11.90400 48.58000
H  27.83400 -10.37700 50.75500
H  29.05600 -10.82500 49.65100
H  28.01800 -12.10100 50.25600
H  30.22800 -6.42100 49.18200
H  31.33300 -5.77800 47.92600
H  30.69400 -7.44000 47.86100
H  28.81300 -2.80300 44.34500
H  26.87000 -0.07800 48.19200
H  25.57800 0.08500 47.03400
H  27.06100 0.80700 46.61600
Mg 6.19900 56.65300 42.52800
C  4.90800 53.52300 41.73800
C  9.23400 55.69700 41.15300
C  7.09700 59.94300 42.19500
C  2.99600 57.57500 43.56400
N  6.92100 54.91300 41.36700
C  6.25100 53.70000 41.25100
C  7.15200 52.63200 40.68800
C  8.56200 53.28600 40.87900
C  8.24900 54.76500 41.15300
C  9.43200 52.67000 42.04900
C  6.88400 52.11200 39.15000
C  7.11400 50.61700 38.94700
H  6.46500 50.12600 37.77500
N  7.97600 57.67700 41.87600
C  9.08700 57.11900 41.47400
C  10.10700 58.12600 41.30200
C  9.55700 59.33000 41.69500
C  8.17400 59.00400 41.97900
C  11.52500 57.76200 40.96900
C  10.35500 60.62500 41.91300
O  11.48600 60.77000 41.56000
C  9.76300 61.72600 42.74000
N  5.22800 58.47500 42.80000
C  5.78500 59.74100 42.45400
C  4.71400 60.84800 42.57400
C  3.39400 60.05500 42.95000
C  3.85500 58.58400 43.12400
C  4.94200 62.11400 43.41900
C  2.10500 60.19000 41.98900
C  0.74800 60.62100 42.63000
N  4.34700 55.76900 42.81500
C  3.15200 56.23100 43.30500
C  2.20300 55.15600 43.46200
C  2.87500 54.02200 42.91500
C  4.12300 54.49800 42.40500
C  0.80800 55.23900 43.93900
C  2.74700 52.63100 42.61700
O  1.82600 51.81700 42.81300
C  4.11700 52.25100 41.89700
C  3.75100 51.64200 40.65100
O  3.65800 52.19600 39.60800
O  3.50100 50.28100 40.85600
C  3.11100 49.38800 39.73500
H  10.27600 55.42000 40.98200
H  7.37100 60.99500 42.08900
H  2.02700 57.91200 43.93600
H  7.06000 51.73600 41.30200
H  9.08500 53.24800 39.92300
H  8.89600 51.87600 42.57000
H  9.61200 53.50500 42.72600
H  10.34300 52.28800 41.58700
H  7.53200 52.64500 38.45400
H  5.90400 52.52600 38.91400
H  6.78000 50.08700 39.83900
H  8.20300 50.62800 38.90400
H  11.87400 58.57100 40.32800
H  11.64200 56.78600 40.49800
H  12.13600 57.72100 41.87100
H  9.08800 61.29400 43.47800
H  9.20900 62.43000 42.12000
H  10.53100 62.34200 43.20800
H  4.73300 61.24600 41.56000
H  3.14500 60.31500 43.97900
H  5.99800 62.28400 43.62800
H  4.44900 62.02900 44.38800
H  4.64900 63.02700 42.90100
H  2.05300 59.17100 41.60400
H  2.34400 60.96600 41.26200
H  -0.03000 59.85900 42.58600
H  0.33900 61.52300 42.17500
H  1.05600 60.86200 43.64800
H  0.16000 55.57000 43.12700
H  0.80100 56.02000 44.69900
H  0.46800 54.26700 44.29500
H  4.60800 51.49400 42.50900
H  3.02500 49.92000 38.78800
H  2.10800 49.02200 39.95200
H  3.89600 48.63400 39.66800

