158

Mg 7.02800 53.42300 40.41400
C  6.67300 49.90700 40.38200
C  10.33300 53.00500 39.95700
C  7.09900 56.61500 39.59800
C  3.65700 53.68000 41.03500
N  8.36100 51.61800 40.07600
C  7.99300 50.27500 40.13200
C  9.21600 49.36600 40.19900
C  10.35100 50.36600 40.46800
C  9.69200 51.77900 40.17800
C  11.02900 50.27000 41.90300
C  9.43000 48.57600 38.86400
C  9.54600 49.32900 37.49400
H  8.25000 49.28900 36.59900
N  8.51600 54.65700 39.86600
C  9.85900 54.30100 39.69700
C  10.58500 55.41600 39.32800
C  9.75100 56.52000 39.31400
C  8.38500 56.00100 39.55000
C  12.11200 55.51400 39.14300
C  10.23100 57.95900 39.02000
O  11.41500 58.25800 38.93200
C  9.23100 59.06500 38.79800
N  5.49800 54.93400 40.05200
C  5.85100 56.26400 39.98800
C  4.60800 57.20900 40.09500
C  3.43900 56.23000 40.60200
C  4.24400 54.84400 40.58800
C  4.83300 58.37500 41.09100
C  2.15500 56.33600 39.71400
C  1.02200 56.95900 40.41700
N  5.50100 52.20400 40.70700
C  4.23500 52.38500 41.01800
C  3.50100 51.14600 41.11700
C  4.49300 50.15100 40.92400
C  5.64500 50.83900 40.60200
C  2.13700 50.91900 41.66900
C  4.79200 48.71300 41.08700
O  4.09000 47.81600 41.49100
C  6.13100 48.53900 40.51100
C  6.04300 47.83600 39.18300
O  5.42300 48.27400 38.18800
O  6.55400 46.62500 39.28300
C  6.52700 45.76500 38.02000
H  11.41300 52.84800 39.92300
H  6.96000 57.67400 39.37300
H  2.61100 53.88800 41.26800
H  9.06000 48.60000 40.95800
H  11.16200 50.42400 39.74100
H  12.11500 50.36200 41.88600
H  10.78500 49.30900 42.35600
H  10.85300 51.21400 42.41900
H  8.62000 47.84700 38.83300
H  10.31500 47.95000 38.97300
H  10.35100 48.88900 36.90600
H  9.89400 50.36000 37.55400
H  12.48200 54.51400 39.36900
H  12.49100 56.11300 39.97100
H  12.43100 55.80000 38.14100
H  8.68400 58.80900 37.89000
H  9.79600 59.98400 38.64400
H  8.56200 59.01200 39.65600
H  4.44100 57.67200 39.12300
H  3.28500 56.48900 41.64900
H  5.08300 59.14400 40.36000
H  5.71000 58.20800 41.71600
H  3.98500 58.57900 41.74600
H  1.98100 55.32600 39.34300
H  2.38400 56.99000 38.87300
H  1.18200 56.82700 41.48700
H  0.17100 56.33500 40.14500
H  0.82000 57.95900 40.03200
H  1.71200 51.85500 42.03000
H  2.22400 50.35900 42.60000
H  1.52100 50.54800 40.84900
H  6.69300 47.98700 41.26400
H  6.10200 44.80700 38.31800
H  7.53400 45.76000 37.60300
H  5.85200 46.11900 37.24000
Mg -9.80900 38.16200 42.41100
C  -8.06800 35.29300 41.42800
C  -7.14200 40.01100 41.20300
C  -11.68700 40.89300 42.46200
C  -12.64400 36.08300 42.86900
N  -7.89600 37.74600 41.16100
C  -7.45800 36.46400 40.94000
C  -6.16700 36.51200 40.15900
C  -5.73700 37.98700 40.29700
C  -6.97500 38.66000 40.95200
C  -4.34900 38.29500 40.99300
C  -6.41500 35.99800 38.67500
C  -5.45600 35.01000 38.04200
H  -4.39800 35.55000 37.03800
N  -9.39800 40.16700 42.10500
C  -8.25200 40.72200 41.69900
C  -8.30500 42.12400 41.71100
C  -9.53800 42.45400 42.23400
C  -10.29800 41.14200 42.32300
C  -7.09100 42.98000 41.22800
C  -10.13200 43.82000 42.58400
O  -9.40700 44.78300 42.60700
C  -11.62100 44.14000 42.97400
N  -11.89200 38.41300 42.50200
C  -12.41600 39.69400 42.58400
C  -13.90200 39.59200 42.53400
C  -14.18000 38.09000 42.81600
C  -12.83000 37.43900 42.64700
C  -14.48400 40.60800 43.68500
C  -15.27200 37.43300 41.94900
C  -16.11900 36.30400 42.70600
N  -10.24300 36.04100 42.38900
C  -11.36800 35.37800 42.70300
C  -11.04600 33.96400 42.68500
C  -9.75200 33.89700 42.24900
C  -9.38100 35.18000 41.94100
C  -12.01400 32.89200 43.07000
C  -8.68400 33.03200 41.91400
O  -8.58500 31.81600 41.82300
C  -7.46000 33.90900 41.39000
C  -6.50000 33.71700 42.48900
O  -6.19200 34.49600 43.38900
O  -5.79400 32.60900 42.15400
C  -4.79800 32.28000 43.06900
H  -6.31100 40.57400 40.77300
H  -12.38300 41.69200 42.72700
H  -13.48700 35.39600 42.97900
H  -5.38500 35.87600 40.57300
H  -5.66300 38.37300 39.28000
H  -3.81600 37.36200 41.17500
H  -4.46800 38.73900 41.98100
H  -3.71700 38.98600 40.43500
H  -6.39100 36.85700 38.00500
H  -7.41700 35.57400 38.61200
H  -6.09900 34.21200 37.67200
H  -4.77500 34.57100 38.77100
H  -6.31800 42.99400 41.99500
H  -7.48000 43.99800 41.18100
H  -6.66100 42.71900 40.26100
H  -12.35000 43.77400 42.25200
H  -11.85200 45.20500 42.96600
H  -11.86600 43.82300 43.98700
H  -14.25400 39.80000 41.52300
H  -14.38100 37.95000 43.87800
H  -15.39000 40.20700 44.13900
H  -14.75100 41.56300 43.23300
H  -13.79200 40.93500 44.46200
H  -14.87700 36.93100 41.06600
H  -15.93500 38.24800 41.65900
H  -17.14100 36.67500 42.78400
H  -15.72400 36.01500 43.68000
H  -16.08700 35.44800 42.03200
H  -11.77400 31.97900 42.52500
H  -13.00100 33.30400 42.86300
H  -11.87200 32.80200 44.14700
H  -7.04000 33.62800 40.42400
H  -3.79200 32.20600 42.65500
H  -4.92700 31.25100 43.40500
H  -4.74800 32.82400 44.01200

