158

Mg 26.40400 49.56500 25.61600
C  24.57400 50.94100 28.33100
C  28.65900 48.40300 28.02100
C  28.15600 48.31200 23.17800
C  24.03100 50.90300 23.42600
N  26.56600 49.76600 27.99500
C  25.67100 50.27300 28.83500
C  25.97500 49.93000 30.27400
C  27.40100 49.28900 30.15900
C  27.52400 49.06300 28.63000
C  28.67100 50.07300 30.65000
C  24.85100 49.09600 30.98900
C  25.33200 48.32600 32.29700
H  24.70400 48.52300 33.64000
N  28.25600 48.43400 25.59200
C  29.02000 48.09200 26.65700
C  30.24600 47.36200 26.09100
C  30.10000 47.34200 24.63400
C  28.81900 48.06800 24.41400
C  31.36000 46.88200 26.98100
C  31.11700 46.86700 23.53900
O  30.88100 47.13000 22.35000
C  32.44600 46.24100 23.85400
N  26.14500 49.65700 23.51600
C  26.97000 48.86700 22.78800
C  26.47000 48.89900 21.26900
C  25.07400 49.58900 21.42900
C  25.10000 50.17800 22.83300
C  27.41100 49.50200 20.18000
C  23.82500 48.73300 21.07500
C  23.60700 47.50000 21.96300
N  24.72300 50.79800 25.78200
C  23.85400 51.32600 24.80300
C  22.88000 52.13000 25.49100
C  23.09400 51.94100 26.86700
C  24.24800 51.17600 26.97300
C  21.74600 52.85500 24.82600
C  22.55600 52.24800 28.15500
O  21.51000 52.74700 28.51500
C  23.53500 51.57700 29.16800
C  24.04200 52.58400 30.10900
O  24.84600 53.41400 29.78900
O  23.51500 52.37600 31.35600
C  23.96500 53.33200 32.36400
H  29.38000 47.98800 28.72900
H  28.63100 47.76700 22.35900
H  23.28700 51.28700 22.72600
H  25.98600 50.88500 30.79800
H  27.48200 48.34200 30.69300
H  29.17700 50.38300 29.73600
H  29.21800 49.27000 31.14400
H  28.37700 50.90000 31.29600
H  24.33000 48.47300 30.26100
H  24.08900 49.81700 31.28500
H  26.35400 48.66300 32.46500
H  25.39100 47.26700 32.04500
H  32.33900 46.70900 26.53300
H  30.89800 46.09000 27.57100
H  31.48700 47.73100 27.65300
H  32.83200 45.71300 22.98200
H  32.15600 45.46500 24.56200
H  33.19700 46.89700 24.29300
H  26.21800 47.88500 20.95900
H  25.04000 50.44300 20.75300
H  26.98000 50.36200 19.66700
H  27.45000 48.77300 19.37000
H  28.38900 49.59500 20.65100
H  23.74800 48.45500 20.02400
H  22.93700 49.33600 21.26400
H  24.07800 47.73600 22.91700
H  24.21600 46.66000 21.62900
H  22.52900 47.36600 22.05100
H  22.12800 53.47700 24.01700
H  21.17000 53.42300 25.55700
H  21.08400 52.08600 24.42800
H  22.94300 50.82500 29.69000
H  23.60500 52.89300 33.29400
H  23.59900 54.35800 32.32900
H  25.04700 53.30500 32.49400
Mg 4.94100 53.76500 40.75700
C  4.67500 50.30200 40.68400
C  7.87800 53.39700 39.06200
C  4.85200 57.09600 40.34800
C  1.75100 53.87600 42.19800
N  6.00700 52.02300 39.76400
C  5.76000 50.75100 39.95900
C  6.80800 49.87500 39.23200
C  8.00800 50.89000 39.19600
C  7.24400 52.19800 39.30000
C  8.93200 50.67100 40.41200
C  6.43200 49.22300 37.79400
C  5.20200 49.77300 37.05500
H  5.39800 50.36800 35.62800
N  6.20800 55.04000 39.80500
C  7.41000 54.74800 39.28200
C  8.13300 55.94000 38.87100
C  7.29000 57.03700 39.22800
C  6.05700 56.41100 39.82600
C  9.51500 55.84400 38.23900
C  7.67300 58.41900 39.05000
O  8.81000 58.67600 38.62000
C  6.78200 59.60600 39.31400
N  3.37100 55.31700 40.96000
C  3.68400 56.60700 40.89200
C  2.55000 57.50100 41.47200
C  1.52200 56.46500 42.01800
C  2.25100 55.15200 41.72400
C  3.02300 58.43700 42.59100
C  0.07600 56.58600 41.48100
C  -0.99000 56.90900 42.53600
N  3.56200 52.42700 41.48200
C  2.25500 52.59300 42.00100
C  1.66200 51.33500 42.31200
C  2.65700 50.40200 41.85300
C  3.69700 51.12500 41.26100
C  0.36400 51.05500 43.03000
C  2.86100 48.93900 41.73100
O  2.24600 47.92700 42.05300
C  4.19000 48.84600 40.97300
C  3.96400 48.00700 39.81000
O  3.16900 48.29500 38.94400
O  4.62900 46.73800 39.85700
C  4.24600 45.59900 38.99400
H  8.94300 53.35400 38.82400
H  4.82900 58.18800 40.35200
H  0.75100 53.93300 42.63300
H  7.13600 49.00400 39.79800
H  8.56200 50.65800 38.28700
H  8.65200 51.34000 41.22500
H  9.87200 50.82100 39.88000
H  8.94500 49.63300 40.74400
H  6.36400 48.14200 37.91800
H  7.32700 49.38000 37.19200
H  4.77300 50.58000 37.64900
H  4.50000 48.95400 36.90300
H  9.84900 56.73700 37.71000
H  9.42900 55.15500 37.39900
H  10.24000 55.65000 39.03000
H  7.12000 60.58700 38.97900
H  6.64100 59.63800 40.39500
H  5.84400 59.26500 38.87500
H  2.18800 58.14000 40.66700
H  1.41500 56.56200 43.09800
H  2.20600 58.59200 43.29600
H  3.34600 59.40700 42.21400
H  3.79700 57.95800 43.19200
H  -0.29100 55.75400 40.87900
H  0.04400 57.39900 40.75600
H  -0.76600 56.89100 43.60200
H  -1.79300 56.20900 42.30400
H  -1.39400 57.90600 42.35800
H  -0.18400 51.97800 43.22000
H  0.58800 50.45500 43.91200
H  -0.18300 50.38000 42.37200
H  4.92900 48.35000 41.60200
H  4.54500 44.70100 39.53600
H  4.93500 45.68900 38.15500
H  3.16500 45.49100 38.90600

