158

Mg 40.42300 9.39700 29.28200
C  42.44800 10.32300 32.10800
C  38.49700 7.54900 31.32600
C  38.77700 8.45000 26.49700
C  43.01400 10.70200 27.14600
N  40.48900 9.07800 31.43300
C  41.33200 9.61100 32.42200
C  40.74500 9.41300 33.77400
C  39.51800 8.44200 33.55200
C  39.49900 8.28500 32.04000
C  39.56000 7.05500 34.23000
C  40.43900 10.72600 34.55200
C  39.89000 10.44500 35.96900
H  39.79200 11.67900 36.91100
N  38.81100 8.11100 28.94900
C  38.13900 7.44000 29.95200
C  37.02900 6.79100 29.30300
C  37.12100 6.93100 27.93000
C  38.22900 7.89900 27.71900
C  36.08100 6.00700 30.25800
C  36.33100 6.22200 26.80000
O  36.43900 6.59000 25.60900
C  35.40700 5.19000 27.24500
N  40.93100 9.45300 27.13200
C  39.94900 9.20500 26.20400
C  40.44400 9.46700 24.73900
C  41.82900 10.21300 25.02300
C  41.94100 10.09800 26.50600
C  40.50000 8.25100 23.84300
C  41.66900 11.71400 24.51700
C  40.60100 12.59100 25.19500
N  42.31200 10.36400 29.48800
C  43.21000 10.83200 28.55200
C  44.33000 11.48300 29.27000
C  43.98500 11.26600 30.58500
C  42.82100 10.62100 30.74700
C  45.36100 12.32500 28.64100
C  44.53300 11.63300 31.89400
O  45.53900 12.27900 32.19600
C  43.54300 10.99500 32.97400
C  44.28000 10.01300 33.81700
O  44.27000 8.81500 33.53200
O  44.96300 10.57400 34.86000
C  45.69200 9.63600 35.69800
H  37.81000 7.10200 32.04700
H  38.18000 8.15900 25.63000
H  43.78400 11.20800 26.56000
H  41.46000 8.88300 34.40300
H  38.53600 8.87100 33.75100
H  39.52500 6.29900 33.44500
H  38.67900 6.92300 34.85800
H  40.41200 6.89100 34.89100
H  39.77400 11.43200 34.05400
H  41.41000 11.18200 34.74800
H  40.44700 9.61100 36.39700
H  38.83400 10.19500 35.86800
H  35.37100 5.34900 29.75600
H  35.63000 6.56000 31.08200
H  36.80400 5.33600 30.72200
H  35.99600 4.41500 27.73600
H  34.91200 4.83200 26.34200
H  34.57700 5.64100 27.78800
H  39.70800 10.18400 24.37400
H  42.57600 9.62100 24.49600
H  40.08600 7.38600 24.36200
H  41.51300 7.97900 23.54800
H  40.02400 8.52800 22.90300
H  41.43300 11.70700 23.45300
H  42.61400 12.24700 24.62400
H  40.11400 12.01300 25.98000
H  39.93100 12.82200 24.36700
H  41.03900 13.50900 25.58900
H  45.14300 12.52500 27.59200
H  46.36400 11.89900 28.61000
H  45.39500 13.28700 29.15300
H  43.09600 11.72700 33.64600
H  46.27100 9.00300 35.02600
H  45.02700 8.97200 36.25000
H  46.43600 10.24700 36.21000
Mg 47.25600 25.85900 28.37100
C  48.29500 27.99000 30.84700
C  46.42600 23.45900 30.78500
C  46.62600 23.64300 25.91400
C  48.48600 28.16400 25.99600
N  47.54300 25.75900 30.50900
C  47.73400 26.80300 31.40300
C  47.68900 26.42200 32.82600
C  47.31900 24.87400 32.69100
C  47.07700 24.64100 31.20600
C  48.27000 23.81000 33.35000
C  46.62700 27.25200 33.66300
C  47.29800 28.04100 34.76900
H  46.50100 28.17100 36.09700
N  46.62700 23.77900 28.33300
C  46.29700 23.02300 29.46400
C  45.78300 21.68600 28.94700
C  45.79500 21.71500 27.52500
C  46.32900 23.06300 27.21100
C  45.09300 20.66200 29.97600
C  45.35400 20.66500 26.50500
O  45.45400 20.81700 25.27700
C  44.85200 19.39000 27.08400
N  47.53100 25.91200 26.22700
C  47.12700 24.89200 25.43300
C  47.33800 25.23900 23.89600
C  47.92600 26.68600 23.94200
C  47.92300 26.95600 25.44900
C  48.31400 24.20700 23.25300
C  47.02500 27.76100 23.22100
C  47.60000 29.16900 22.88500
N  48.12000 27.69800 28.34500
C  48.61400 28.50000 27.33300
C  49.16300 29.71500 27.90200
C  49.12400 29.53800 29.23900
C  48.41600 28.30100 29.48000
C  49.58200 30.98000 27.21200
C  49.22700 30.25600 30.50700
O  49.54800 31.42500 30.66400
C  48.78600 29.26600 31.62400
C  49.94500 28.91100 32.41800
O  50.75500 27.98400 32.26500
O  49.98900 29.73700 33.52400
C  50.93800 29.38900 34.59500
H  46.00100 22.80600 31.55000
H  46.38900 22.92300 25.12800
H  48.64300 29.02500 25.34400
H  48.72400 26.63100 33.09600
H  46.38300 24.66100 33.20700
H  49.12200 24.35000 33.76300
H  48.66800 23.19800 32.54100
H  47.80600 23.17700 34.10700
H  45.87500 26.68800 34.21500
H  46.06400 28.01700 33.12800
H  47.47700 29.07000 34.45600
H  48.25700 27.57000 34.98500
H  44.00800 20.70100 29.88000
H  45.26000 20.94700 31.01500
H  45.52300 19.66400 29.88400
H  45.52500 18.80300 27.70900
H  44.47400 18.81100 26.24200
H  43.98700 19.78800 27.61600
H  46.34600 25.18900 23.44500
H  48.95800 26.70400 23.59300
H  48.47400 23.37500 23.93800
H  49.24100 24.71500 22.98800
H  47.82200 23.94600 22.31600
H  46.06200 27.84200 23.72600
H  46.85000 27.30900 22.24500
H  48.66300 28.92900 22.88000
H  47.25900 29.81700 23.69200
H  47.30900 29.51600 21.89400
H  50.62500 30.82500 26.93800
H  49.44300 31.84400 27.86100
H  49.05400 31.09900 26.26600
H  47.99000 29.52300 32.32300
H  51.91600 29.54400 34.13900
H  50.80600 28.39400 35.01900
H  50.86600 30.10600 35.41200

