158

Mg 26.15900 49.97500 26.34800
C  24.11600 51.17900 28.87500
C  28.48700 49.26900 28.71800
C  28.10700 48.73000 23.78700
C  23.78100 50.98200 23.94700
N  26.30500 50.32200 28.53400
C  25.29300 50.62700 29.38900
C  25.67500 50.41700 30.87700
C  27.16300 50.03500 30.72900
C  27.34400 49.89200 29.21600
C  28.08400 51.05600 31.44500
C  24.81800 49.19200 31.58200
C  24.17500 49.61800 32.93500
H  25.05900 50.52900 33.82300
N  28.06400 49.19200 26.24900
C  28.84500 49.00600 27.37700
C  30.10500 48.46700 26.89300
C  29.98800 48.24500 25.52000
C  28.71200 48.78600 25.08800
C  31.35800 48.33400 27.75000
C  31.06600 47.59800 24.55300
O  30.91000 47.60200 23.34200
C  32.36100 46.92400 25.09600
N  26.02800 50.01400 24.14600
C  26.94900 49.36500 23.36400
C  26.42200 49.23200 21.91500
C  25.01700 49.85100 21.97700
C  24.88900 50.28100 23.47400
C  27.42700 49.89500 20.93500
C  23.86300 48.78800 21.61000
C  23.84300 47.48700 22.44600
N  24.32400 50.96200 26.36200
C  23.47700 51.26400 25.31600
C  22.33200 51.91600 25.89200
C  22.46400 51.79700 27.31600
C  23.74600 51.29400 27.49300
C  21.10900 52.47900 25.21900
C  21.87400 52.13300 28.59900
O  20.81500 52.71500 28.91800
C  22.89000 51.68000 29.70700
C  23.31900 52.84700 30.53000
O  24.25500 53.62400 30.28800
O  22.42700 53.11600 31.55700
C  22.91600 54.11900 32.49200
H  29.33700 49.05400 29.36800
H  28.67300 48.27800 22.97000
H  23.00900 51.24400 23.22100
H  25.44500 51.40900 31.26500
H  27.38000 49.05700 31.15800
H  28.87900 51.46100 30.81800
H  28.50000 50.52600 32.30200
H  27.46100 51.91000 31.71100
H  25.50400 48.36300 31.75400
H  24.05400 48.86300 30.87800
H  23.96400 48.65000 33.38900
H  23.29700 50.18600 32.62400
H  31.41200 47.26200 27.94000
H  31.18200 48.90100 28.66400
H  32.27000 48.71300 27.28900
H  32.79300 46.25100 24.35400
H  32.20900 46.45100 26.06600
H  33.17200 47.61600 25.32300
H  26.40000 48.19600 21.57500
H  24.95700 50.76500 21.38600
H  28.28500 50.16600 21.55000
H  26.95400 50.84000 20.67000
H  27.71300 49.19600 20.14800
H  23.77700 48.48200 20.56700
H  22.96900 49.35500 21.87000
H  22.95700 47.37100 23.07000
H  24.75400 47.23800 22.98900
H  23.77200 46.68500 21.71000
H  20.18100 52.14500 25.68200
H  21.12500 52.10300 24.19600
H  21.23100 53.56200 25.20800
H  22.45800 50.89200 30.32400
H  23.36500 54.98000 31.99800
H  23.59800 53.66600 33.21200
H  22.10800 54.54500 33.08700
Mg 6.75100 54.54400 41.39900
C  6.12900 50.98900 41.12500
C  9.79900 53.93500 40.04500
C  6.73800 57.73400 40.67000
C  3.46900 54.76900 42.68300
N  7.71100 52.66600 40.55700
C  7.39600 51.33300 40.63700
C  8.46600 50.39800 40.11300
C  9.71500 51.31300 40.26200
C  9.06900 52.70900 40.32000
C  10.63600 50.93800 41.44200
C  8.22400 49.82200 38.63300
C  7.54900 50.62700 37.55000
H  6.56500 49.82000 36.62300
N  8.08800 55.72000 40.46000
C  9.39900 55.31000 40.10400
C  10.09400 56.46700 39.65800
C  9.19500 57.57800 39.57800
C  7.90900 57.11400 40.22300
C  11.49400 56.47100 39.23000
C  9.42600 58.94500 39.06100
O  10.51800 59.27700 38.56700
C  8.44600 60.01100 39.13700
N  5.21400 56.02100 41.40900
C  5.56300 57.36600 41.23600
C  4.40800 58.31400 41.63900
C  3.48900 57.35800 42.45200
C  4.11400 55.97900 42.23100
C  4.75900 59.55600 42.44800
C  1.97000 57.48600 42.06800
C  1.14100 58.55100 42.86000
N  5.04900 53.20000 41.90300
C  3.84500 53.43600 42.51100
C  3.11000 52.23100 42.60800
C  3.95400 51.25900 42.12300
C  5.14900 51.86400 41.72300
C  1.75000 52.04500 43.11600
C  4.16000 49.87300 41.88900
O  3.38000 48.96200 42.06500
C  5.59100 49.63100 41.29900
C  5.46400 48.93200 40.02300
O  4.90200 49.38300 39.04500
O  6.04400 47.66500 40.12900
C  5.55800 46.68800 39.17000
H  10.79900 53.89400 39.60600
H  6.60000 58.79700 40.46200
H  2.48700 54.89400 43.14400
H  8.57800 49.47600 40.68300
H  10.36400 51.35200 39.38800
H  11.59900 50.79100 40.95200
H  10.39700 49.96800 41.87900
H  10.57600 51.55600 42.33800
H  7.74000 48.84700 38.68700
H  9.21600 49.54700 38.27400
H  8.26000 51.04400 36.83700
H  7.03500 51.51400 37.91900
H  11.55200 56.35600 38.14700
H  11.95000 55.62200 39.74000
H  11.93700 57.35700 39.68400
H  8.79800 60.87200 38.56800
H  8.41800 60.35300 40.17200
H  7.46600 59.75700 38.73500
H  4.00900 58.57800 40.65900
H  3.73500 57.46000 43.51000
H  5.60300 59.42200 43.12500
H  3.94500 59.96500 43.04700
H  5.11600 60.31200 41.75000
H  1.43400 56.54300 42.17500
H  1.80500 57.69800 41.01100
H  1.77800 59.14400 43.51600
H  0.31100 58.07100 43.37700
H  0.65900 59.25700 42.18300
H  1.14300 52.93200 42.93400
H  1.75000 51.89300 44.19600
H  1.32100 51.15700 42.65300
H  6.16800 48.95000 41.92400
H  5.85200 47.02000 38.17400
H  4.48400 46.84300 39.06700
H  5.77400 45.63600 39.35300

