158

Mg 1.96200 -1.94600 44.53200
C  5.09800 -0.67600 44.03100
C  0.64300 0.49700 42.56100
C  -1.04700 -3.53600 44.73200
C  3.37400 -4.69000 46.19200
N  2.83700 -0.29600 43.40600
C  4.13100 0.07200 43.32600
C  4.33500 1.23400 42.43300
C  2.87200 1.67600 42.13700
C  2.02900 0.52800 42.67100
C  2.46500 3.05600 42.69500
C  5.10400 0.95200 41.08800
C  6.07300 2.12400 40.58800
H  5.77900 2.89000 39.34900
N  0.04100 -1.59700 43.61300
C  -0.32000 -0.47200 42.96300
C  -1.81400 -0.49300 42.76900
C  -2.27800 -1.77400 43.21200
C  -1.08100 -2.35200 43.88800
C  -2.62200 0.65600 41.97800
C  -3.63500 -2.41800 43.05100
O  -4.58500 -1.80100 42.55800
C  -3.88300 -3.86400 43.36500
N  1.25500 -3.97600 45.21000
C  -0.04200 -4.25400 45.35600
C  -0.26800 -5.65000 45.90600
C  1.15100 -5.98100 46.47400
C  1.99800 -4.83000 45.94000
C  -1.38400 -5.66300 46.91900
C  1.73100 -7.35500 46.08900
C  2.54400 -8.04500 47.23900
N  3.84000 -2.58300 45.07000
C  4.25000 -3.73100 45.76100
C  5.69800 -3.65200 45.90100
C  6.03700 -2.50400 45.21300
C  4.92700 -1.85300 44.79700
C  6.37800 -4.67800 46.59100
C  7.12900 -1.63300 44.81900
O  8.34800 -1.76800 45.01200
C  6.59100 -0.49500 43.98900
C  7.09200 0.80400 44.58900
O  6.97200 1.14300 45.74200
O  7.59700 1.55000 43.64200
C  8.18900 2.84700 43.98900
H  0.20700 1.35500 42.04400
H  -2.02200 -3.98400 44.93300
H  3.69600 -5.51300 46.83400
H  4.77600 2.05800 42.99400
H  2.66100 1.80200 41.07500
H  2.30200 3.75800 41.87700
H  3.23900 3.45400 43.35100
H  1.51700 2.86400 43.19800
H  4.35300 0.88200 40.30100
H  5.63100 0.00000 41.15200
H  7.05000 1.70000 40.35300
H  6.17200 2.91800 41.32800
H  -3.34000 1.06900 42.68600
H  -3.02500 0.28400 41.03600
H  -2.02700 1.53200 41.72100
H  -2.96500 -4.36700 43.06100
H  -4.70200 -4.27100 42.77200
H  -4.12600 -4.05400 44.41100
H  -0.57400 -6.33200 45.11300
H  1.10100 -5.87200 47.55800
H  -2.12200 -6.41700 46.64500
H  -1.94900 -4.73800 47.03700
H  -1.08400 -5.91000 47.93700
H  2.30100 -7.29900 45.16100
H  0.88000 -7.98400 45.82700
H  3.55100 -8.38700 47.00100
H  1.95700 -8.91700 47.52900
H  2.54200 -7.37000 48.09500
H  6.68500 -5.39400 45.82800
H  5.73400 -5.06300 47.38200
H  7.31100 -4.36600 47.05900
H  6.98800 -0.60700 42.98000
H  9.10100 2.96300 43.40300
H  8.47400 3.01100 45.02800
H  7.57100 3.69000 43.67800
Mg 30.73800 56.67800 39.79300
C  28.16400 54.41100 38.77200
C  33.02000 54.16700 38.79800
C  33.19200 58.95500 39.71800
C  28.36600 59.21900 40.00400
N  30.53500 54.50000 38.81100
C  29.38700 53.81300 38.61400
C  29.67900 52.39000 38.20200
C  31.25700 52.29400 38.20900
C  31.63200 53.71700 38.66800
C  31.94100 51.07800 38.91900
C  29.03400 51.94800 36.94000
C  29.36700 52.70600 35.62700
H  28.31500 53.45800 34.93200
N  32.79400 56.62100 39.34400
C  33.54000 55.47400 39.08500
C  34.93100 55.85600 38.99800
C  35.04600 57.23000 39.30800
C  33.67900 57.62800 39.48700
C  36.04900 55.00100 38.54700
C  36.38500 57.96800 39.34200
O  37.42900 57.53400 38.86400
C  36.42100 59.23900 40.15000
N  30.77400 58.80500 39.89600
C  31.90100 59.48800 39.89300
C  31.62200 60.97300 39.99100
C  30.09700 61.07700 40.28300
C  29.70800 59.61800 40.08500
C  32.50400 61.67200 41.07300
C  29.31800 62.07200 39.37300
C  29.81300 63.54700 39.18000
N  28.67200 56.86100 39.62000
C  27.83000 57.93700 39.76200
C  26.51800 57.53100 39.53300
C  26.55300 56.14100 39.21200
C  27.97600 55.83400 39.16800
C  25.27400 58.35100 39.75700
C  25.78100 55.02200 39.00200
O  24.52300 54.93500 39.04600
C  26.69400 53.88200 38.64100
C  26.28400 52.78000 39.61100
O  26.78900 52.61800 40.71200
O  25.28500 52.05800 39.04600
C  24.88500 50.80200 39.66600
H  33.77600 53.40700 38.58800
H  33.94000 59.74100 39.59500
H  27.65000 60.01600 40.21100
H  29.24400 51.76300 38.98000
H  31.67000 52.18500 37.20600
H  32.54300 50.49200 38.22500
H  31.16700 50.44800 39.35800
H  32.58800 51.51400 39.68100
H  27.98300 51.75600 37.15400
H  29.49500 50.98300 36.72500
H  29.63500 51.89500 34.95000
H  30.18300 53.39600 35.84500
H  35.68500 54.02500 38.22700
H  36.71700 54.92700 39.40500
H  36.66000 55.46700 37.77400
H  37.40600 59.35800 40.60100
H  35.68900 58.99000 40.91800
H  36.08500 60.21200 39.79200
H  31.84200 61.35400 38.99300
H  29.89000 61.34600 41.31800
H  33.35200 61.10900 41.46300
H  31.87900 61.98900 41.90800
H  32.92900 62.58600 40.65800
H  28.30100 62.08600 39.76700
H  29.30900 61.55300 38.41500
H  30.22300 63.79000 38.19900
H  30.58200 63.73600 39.92900
H  28.99800 64.25300 39.34200
H  25.29300 59.42100 39.54900
H  25.07500 58.45800 40.82400
H  24.40700 57.76100 39.45900
H  26.52700 53.42300 37.66700
H  23.81700 50.77700 39.88200
H  25.38600 50.65000 40.62200
H  25.17600 50.11000 38.87700

