158

Mg 40.62800 8.29000 29.76400
C  42.31700 9.61200 32.68900
C  38.23300 7.03500 31.83700
C  39.41700 7.06700 27.09200
C  43.69400 9.27700 27.96100
N  40.31700 8.40700 32.03200
C  41.11200 8.97400 33.02100
C  40.48700 8.93600 34.42200
C  39.18600 8.04700 34.11200
C  39.22600 7.78900 32.55600
C  39.10400 6.83100 35.06100
C  40.15500 10.32900 34.94600
C  40.05700 10.35700 36.45800
H  40.91900 11.26800 37.30100
N  39.00500 7.21000 29.50700
C  38.11000 6.78800 30.44800
C  37.05700 6.09900 29.77700
C  37.27100 6.24100 28.37700
C  38.63800 6.84300 28.26100
C  35.88700 5.54500 30.53300
C  36.41600 5.81300 27.20700
O  36.63600 6.13400 26.02300
C  35.26000 5.04200 27.50600
N  41.56800 8.03700 27.80100
C  40.74300 7.54700 26.88400
C  41.34700 7.70300 25.44300
C  42.75100 8.45000 25.66800
C  42.68000 8.63500 27.23700
C  41.44300 6.39000 24.74400
C  42.88900 9.74700 24.95200
C  41.77300 10.73700 25.11500
N  42.56400 9.21400 30.17400
C  43.65500 9.55300 29.31500
C  44.70400 10.09600 30.08200
C  44.27100 10.08800 31.41600
C  42.91600 9.65800 31.39600
C  45.98900 10.56200 29.45900
C  44.65000 10.33900 32.78600
O  45.72400 10.77600 33.27500
C  43.41400 10.01100 33.66800
C  43.77400 8.90400 34.67500
O  44.32200 7.84300 34.43900
O  43.32800 9.25300 35.96500
C  43.55300 8.32000 37.06700
H  37.49900 6.60400 32.52200
H  38.98300 6.72900 26.14800
H  44.57600 9.65300 27.43700
H  41.26300 8.40300 34.97100
H  38.27800 8.64700 34.15700
H  38.68100 5.99700 34.50000
H  38.47900 7.04300 35.92900
H  40.11100 6.50900 35.32700
H  39.23800 10.75500 34.53700
H  40.92700 10.97900 34.53400
H  40.15800 9.33700 36.82800
H  39.06200 10.66400 36.77800
H  35.61900 4.54400 30.19400
H  34.95800 6.09900 30.39800
H  36.15600 5.34700 31.57000
H  35.53300 4.18600 28.12400
H  34.89700 4.58300 26.58700
H  34.45200 5.59200 27.98900
H  40.60000 8.35800 24.99500
H  43.57300 7.81200 25.34300
H  42.33400 6.15600 24.16200
H  40.69500 6.52600 23.96300
H  41.34300 5.53600 25.41400
H  42.85700 9.41900 23.91300
H  43.85900 10.16600 25.21900
H  41.20000 10.69800 24.18900
H  42.18900 11.70800 25.38600
H  41.03000 10.54000 25.88800
H  45.98400 11.24500 28.61000
H  46.70300 9.74100 29.38400
H  46.35700 11.14300 30.30400
H  43.17700 10.95300 34.16100
H  43.08300 8.90400 37.85800
H  44.62900 8.22800 37.22100
H  43.08500 7.35400 36.87900
Mg -4.71200 24.96800 25.85000
C  -3.22100 26.51700 28.64100
C  -5.92300 22.58600 27.94100
C  -5.71600 23.24400 23.14000
C  -2.81400 27.18000 23.88900
N  -4.68800 24.71000 27.98900
C  -4.15600 25.49400 28.91900
C  -4.64100 25.18400 30.43100
C  -5.52600 23.86600 30.13100
C  -5.37100 23.67800 28.59000
C  -5.28100 22.61600 31.08300
C  -5.40800 26.38500 30.96300
C  -4.85900 27.16500 32.25800
H  -4.45500 26.20200 33.42600
N  -5.73100 23.14900 25.54600
C  -6.03700 22.28500 26.55300
C  -6.60800 21.03600 25.90600
C  -6.71300 21.28300 24.48400
C  -6.08100 22.62100 24.31400
C  -7.18200 19.88300 26.73100
C  -7.23200 20.32700 23.44600
O  -7.00800 20.49800 22.29900
C  -7.97100 19.10800 23.77800
N  -4.45600 25.32100 23.79000
C  -5.03600 24.43900 22.90900
C  -4.67100 24.95600 21.51200
C  -3.84400 26.28300 21.71500
C  -3.74900 26.38900 23.24500
C  -4.00600 23.88500 20.61000
C  -4.55700 27.55700 21.19700
C  -3.91600 28.15000 19.92000
N  -3.37800 26.67500 26.09200
C  -2.63200 27.36300 25.21900
C  -1.79100 28.32700 25.99500
C  -2.01700 28.02900 27.36500
C  -2.88500 26.95600 27.33700
C  -0.91300 29.44600 25.46100
C  -1.56600 28.31100 28.69500
O  -0.80800 29.08900 29.20900
C  -2.34800 27.29900 29.59500
C  -1.43900 26.37800 30.34400
O  -0.95700 25.31200 29.91800
O  -1.25000 26.91500 31.56900
C  -0.27100 26.24800 32.48900
H  -6.31800 21.80100 28.58900
H  -6.09200 22.84900 22.19500
H  -2.09300 27.72900 23.27900
H  -3.81000 24.82300 31.03700
H  -6.61200 23.94000 30.19400
H  -6.19800 22.21500 31.51400
H  -4.51000 22.76600 31.83900
H  -4.89600 21.82300 30.44200
H  -6.41000 26.07200 31.25800
H  -5.35800 27.14300 30.18100
H  -5.68200 27.76400 32.64700
H  -4.08800 27.90100 32.02600
H  -8.26000 19.95300 26.87200
H  -6.74700 19.88200 27.73100
H  -6.79500 19.01000 26.20500
H  -8.33300 18.75100 22.81400
H  -8.79500 19.37600 24.43900
H  -7.29200 18.31100 24.08000
H  -5.63600 25.20900 21.07400
H  -2.84600 26.27300 21.27600
H  -3.81200 23.00900 21.23000
H  -3.04100 24.25400 20.26400
H  -4.66400 23.63200 19.77900
H  -4.64400 28.35400 21.93500
H  -5.55900 27.33900 20.82800
H  -3.44600 29.12200 20.07400
H  -4.70400 28.18200 19.16800
H  -3.14900 27.44500 19.59800
H  -1.03700 29.57500 24.38600
H  0.11300 29.17100 25.70800
H  -1.10800 30.43500 25.87600
H  -3.02700 27.92100 30.17700
H  0.73000 26.67200 32.40600
H  -0.22100 25.17800 32.28500
H  -0.69400 26.38100 33.48400

