158

Mg 8.73000 3.57900 27.34700
C  9.85200 2.07600 30.31700
C  7.25500 5.89800 29.23800
C  7.35500 4.70700 24.56700
C  10.23500 0.86000 25.57500
N  8.51200 3.83700 29.52100
C  9.15100 3.22100 30.65300
C  8.83900 3.86900 32.02800
C  7.82800 4.98400 31.58500
C  7.78900 4.87700 30.02800
C  6.38100 4.70900 32.14200
C  10.12100 4.48600 32.66100
C  9.96300 5.10100 34.06600
H  10.34100 4.27100 35.24400
N  7.63200 5.19100 26.91400
C  7.10200 6.11200 27.84800
C  6.31900 7.11900 27.16200
C  6.28700 6.70300 25.77200
C  7.17300 5.48500 25.70400
C  5.75800 8.32300 27.84700
C  5.57800 7.37500 24.57800
O  5.64500 6.95000 23.44400
C  4.68300 8.52300 24.86200
N  8.82700 2.93600 25.38200
C  8.14700 3.59700 24.35400
C  8.36800 2.85500 22.97300
C  9.38600 1.64200 23.31700
C  9.60400 1.88300 24.80500
C  6.99500 2.31000 22.30500
C  10.63800 1.64400 22.48300
C  11.04300 0.41100 21.65100
N  9.87400 1.80700 27.83000
C  10.35400 0.79000 27.02400
C  10.98000 -0.23600 27.75900
C  10.87700 0.28200 29.06000
C  10.17100 1.50200 29.07500
C  11.43100 -1.54900 27.30700
C  11.24200 0.04800 30.42300
O  11.72100 -0.96700 30.92900
C  10.65800 1.18200 31.22400
C  9.81500 0.61400 32.30300
O  8.85300 -0.14300 32.09500
O  10.31500 0.94700 33.57300
C  9.29400 0.53700 34.60800
H  6.71200 6.53200 29.94200
H  6.85100 4.93500 23.62500
H  10.76900 0.10500 24.99400
H  8.54600 3.04300 32.67600
H  8.15200 5.98200 31.88300
H  6.07300 5.66300 32.57100
H  6.41700 3.98000 32.95100
H  5.66500 4.33400 31.41100
H  10.47500 5.20800 31.92400
H  10.88400 3.71000 32.71900
H  8.93600 5.35800 34.32500
H  10.53300 6.02700 34.15000
H  6.15900 8.36900 28.85900
H  4.68800 8.32400 28.05300
H  6.16600 9.22600 27.39300
H  5.32000 9.40700 24.85100
H  4.03900 8.37100 25.72800
H  3.90100 8.58900 24.10500
H  8.87200 3.58200 22.33700
H  8.87500 0.69700 23.12800
H  7.19300 1.35200 21.82500
H  6.44200 2.90500 21.57800
H  6.21500 2.14200 23.04800
H  11.51400 1.86400 23.09400
H  10.50700 2.49100 21.81100
H  12.10200 0.19500 21.79100
H  10.78500 0.65400 20.62000
H  10.44200 -0.42500 22.00800
H  12.47900 -1.46000 27.02100
H  10.78900 -1.78500 26.45900
H  11.25400 -2.40800 27.95400
H  11.50900 1.75700 31.58900
H  9.52200 1.02800 35.55400
H  9.56600 -0.50600 34.76900
H  8.24600 0.58300 34.31200
Mg -10.87200 17.63700 42.98200
C  -7.56400 18.60700 42.88900
C  -11.74900 20.85300 42.51000
C  -14.07400 16.49900 42.79900
C  -9.83200 14.24700 42.56100
N  -9.76400 19.49200 42.68600
C  -8.42900 19.66100 42.75200
C  -8.07000 21.10800 42.60300
C  -9.40800 21.87400 42.91200
C  -10.35900 20.66500 42.74600
C  -9.44800 22.54500 44.31900
C  -7.55900 21.30500 41.14700
C  -6.08500 21.84900 41.00200
H  -5.15500 20.99700 40.10400
N  -12.67500 18.54100 42.56200
C  -12.85000 19.92500 42.42800
C  -14.30600 20.17800 42.30400
C  -15.00200 18.95400 42.36000
C  -13.96600 17.93800 42.58900
C  -14.89900 21.55800 42.18600
C  -16.53400 18.74600 42.33800
O  -17.25300 19.72400 42.25100
C  -17.15900 17.37300 42.32500
N  -11.84400 15.63700 42.46800
C  -13.19300 15.47200 42.69100
C  -13.52500 13.98800 42.64100
C  -12.18800 13.30500 42.38500
C  -11.25700 14.44800 42.43900
C  -14.24700 13.43100 43.97700
C  -12.12400 12.49500 41.03300
C  -11.98400 10.95700 41.15800
N  -9.02300 16.47500 42.85400
C  -8.72800 15.17900 42.66800
C  -7.30700 15.02200 42.77000
C  -6.77100 16.32300 42.89300
C  -7.82800 17.17200 42.80200
C  -6.48700 13.77200 42.69100
C  -5.53600 17.13700 43.06700
O  -4.41700 16.81300 43.18500
C  -6.05700 18.64900 43.06800
C  -5.74300 19.28500 44.39400
O  -6.39500 19.11300 45.39200
O  -4.71600 20.14200 44.35500
C  -4.70600 21.25000 45.36000
H  -12.01100 21.91300 42.53800
H  -15.03600 15.99000 42.88900
H  -9.55500 13.20500 42.39200
H  -7.34200 21.37700 43.36900
H  -9.60900 22.61100 42.13500
H  -8.59900 22.43500 44.99300
H  -10.26000 22.08100 44.87900
H  -9.59700 23.61100 44.14200
H  -8.22500 21.93800 40.56100
H  -7.53800 20.31600 40.68900
H  -5.60700 21.81800 41.98100
H  -6.07600 22.92500 40.82900
H  -15.75000 21.73700 41.52900
H  -14.26500 22.44100 42.09800
H  -15.30500 21.61100 43.19700
H  -18.23800 17.47700 42.21200
H  -16.91600 17.06900 43.34400
H  -16.65800 16.73900 41.59400
H  -14.23200 13.93800 41.81300
H  -11.87200 12.69000 43.22700
H  -14.07100 14.22900 44.69900
H  -13.66900 12.57400 44.32300
H  -15.28700 13.11900 43.88900
H  -11.28600 12.79500 40.40300
H  -12.99700 12.73400 40.42600
H  -11.42200 10.40000 40.40800
H  -12.94100 10.43500 41.16300
H  -11.39600 10.69300 42.03700
H  -5.43900 13.92100 42.94900
H  -6.48800 13.52000 41.63000
H  -6.95100 12.99700 43.30100
H  -5.58000 19.07800 42.18700
H  -5.69900 21.45100 45.76200
H  -4.56200 22.17900 44.80800
H  -3.96300 21.07700 46.13900

