158

Mg 43.44700 4.19200 47.84700
C  41.41600 6.92100 47.74300
C  40.61900 2.19900 47.63500
C  45.44600 1.63000 47.10900
C  46.25800 6.40400 47.66400
N  41.26900 4.54700 47.51700
C  40.67700 5.77100 47.67800
C  39.19100 5.58600 47.76800
C  39.04700 4.08200 48.00300
C  40.38700 3.55800 47.68300
C  38.51500 3.41100 49.31800
C  38.42800 6.17600 46.54700
C  39.29200 6.15700 45.19700
H  38.45700 6.07700 43.86800
N  43.09800 2.16100 47.43500
C  41.86600 1.53100 47.45700
C  41.99300 0.14800 47.22900
C  43.36900 -0.05200 46.87200
C  44.05900 1.28300 47.12900
C  40.84300 -0.85600 47.14400
C  43.93100 -1.39500 46.42200
O  43.18600 -2.32000 46.22500
C  45.48000 -1.53800 46.06800
N  45.60500 4.05900 47.29600
C  46.17500 2.87100 47.14000
C  47.64500 2.98400 47.24400
C  47.91600 4.53500 47.54000
C  46.52800 5.04400 47.46300
C  48.31300 1.94200 48.11200
C  49.04000 5.12700 46.65500
C  50.44200 5.20200 47.31600
N  43.84000 6.28000 47.81400
C  44.97500 7.03200 47.81100
C  44.66500 8.39400 47.80000
C  43.22500 8.45200 47.78200
C  42.80000 7.13900 47.77100
C  45.58500 9.57500 47.76400
C  42.05400 9.32000 47.71300
O  41.83800 10.53900 47.61800
C  40.79600 8.34700 47.76600
C  40.04600 8.64400 48.98100
O  40.22700 8.13200 50.10800
O  39.11900 9.61200 48.71800
C  37.96700 9.91900 49.58700
H  39.65600 1.68400 47.61700
H  46.11200 0.80200 46.85800
H  47.15600 7.01700 47.76600
H  38.79900 6.03900 48.67900
H  38.38000 3.71000 47.22500
H  38.06500 4.17600 49.95000
H  39.38600 2.93300 49.76800
H  37.70800 2.69700 49.15200
H  38.19200 7.21600 46.77200
H  37.54300 5.57600 46.33700
H  40.06600 5.39000 45.18100
H  39.73000 7.15300 45.13900
H  40.69000 -1.18000 46.11500
H  39.95300 -0.29300 47.42300
H  41.02100 -1.71600 47.78900
H  46.10500 -1.21500 46.90100
H  45.58000 -0.94200 45.16100
H  45.68400 -2.59000 45.86600
H  47.97700 2.79700 46.22300
H  48.02400 4.77800 48.59700
H  48.71900 1.19300 47.43100
H  47.54700 1.49400 48.74400
H  49.14400 2.43200 48.61900
H  48.72800 6.07900 46.22500
H  49.14300 4.48700 45.77800
H  50.64700 6.26400 47.45200
H  51.14900 4.75200 46.61900
H  50.38400 4.80000 48.32800
H  45.09300 10.47900 47.40600
H  46.22300 9.28300 46.92900
H  46.28700 9.73900 48.58100
H  40.19000 8.55300 46.88400
H  38.33700 10.70600 50.24500
H  37.79000 8.99100 50.12900
H  37.09600 10.19100 48.99100
Mg 48.82100 45.52400 43.67800
C  45.54200 45.62800 42.38300
C  48.95800 42.29000 42.84200
C  52.02400 45.80000 43.91200
C  48.47700 49.05600 44.19200
N  47.34400 44.21800 42.74500
C  46.15800 44.45500 42.23800
C  45.61400 43.22700 41.45400
C  46.63100 42.09900 41.83500
C  47.72300 42.88300 42.59100
C  46.11500 40.91200 42.82300
C  45.62700 43.50000 39.87400
C  44.37100 43.11900 39.11300
H  44.36000 41.89400 38.14700
N  50.30700 44.18400 43.51200
C  50.22000 42.84400 43.19300
C  51.51000 42.22800 43.19800
C  52.43400 43.23700 43.55000
C  51.62500 44.51900 43.63500
C  51.64300 40.70300 42.86700
C  53.88300 42.98900 43.82900
O  54.26500 41.84000 43.78700
C  54.90400 44.08700 44.16800
N  50.04100 47.23300 44.11800
C  51.36300 47.06100 44.13500
C  52.11200 48.40000 44.35900
C  50.98200 49.47800 44.54700
C  49.75100 48.53200 44.26400
C  53.14400 48.35600 45.50500
C  51.09700 50.61300 43.49900
C  50.80600 52.10500 43.92000
N  47.33500 47.09600 43.38800
C  47.27900 48.38700 43.69600
C  45.99700 48.95300 43.53900
C  45.25300 47.90000 42.96100
C  46.16600 46.80400 42.93400
C  45.53300 50.43700 43.90400
C  43.99400 47.52000 42.36400
O  43.01600 48.21500 42.18100
C  44.10100 45.97700 42.01400
C  43.01500 45.28100 42.72200
O  42.49700 44.30100 42.22400
O  42.55900 45.86600 43.82900
C  41.53900 45.07600 44.56200
H  48.93200 41.25100 42.50600
H  53.11400 45.86400 43.88700
H  48.27100 50.05100 44.59100
H  44.67000 42.79300 41.78200
H  47.01000 41.52800 40.98700
H  46.30900 39.99900 42.26200
H  45.05400 41.10800 42.97500
H  46.48900 40.86400 43.84600
H  46.32900 42.82200 39.38800
H  45.81700 44.54400 39.62500
H  44.11700 43.97400 38.48500
H  43.56800 42.98200 39.83600
H  52.16100 40.65100 41.90900
H  50.75900 40.08700 42.70400
H  52.33000 40.19300 43.54200
H  55.85900 43.67900 44.49800
H  54.42100 44.59100 45.00600
H  55.00600 44.69200 43.26700
H  52.69200 48.75400 43.50700
H  50.99400 49.79100 45.59100
H  54.11600 48.54200 45.04700
H  53.15700 47.35100 45.92600
H  52.92700 49.04900 46.31800
H  50.64300 50.47800 42.51700
H  52.16200 50.65900 43.27400
H  50.27700 52.05000 44.87100
H  50.13000 52.67700 43.28500
H  51.72400 52.69200 43.90000
H  44.61100 50.70000 43.38600
H  46.27500 51.11100 43.47500
H  45.33500 50.61900 44.96100
H  43.95100 45.83000 40.94500
H  40.58600 44.86800 44.07500
H  41.19000 45.80300 45.29500
H  41.89500 44.25500 45.18500

