158

Mg 43.89300 3.01200 46.96300
C  42.04700 6.04200 46.82800
C  40.78400 1.31100 46.96400
C  45.62700 0.15900 46.64800
C  46.91700 4.85900 46.70900
N  41.72400 3.55900 46.81300
C  41.25800 4.84500 46.76700
C  39.77900 4.87500 47.19800
C  39.35800 3.36400 47.30300
C  40.69400 2.69500 47.04200
C  38.84300 2.96100 48.69700
C  38.77000 5.74800 46.23000
C  39.15000 6.25100 44.80900
H  38.24300 5.90600 43.60300
N  43.33200 1.04400 46.67500
C  42.03700 0.57600 46.69300
C  42.03200 -0.87900 46.57500
C  43.37900 -1.24300 46.34100
C  44.20500 -0.03500 46.57700
C  40.69100 -1.81900 46.61400
C  43.74200 -2.68600 45.97600
O  42.84600 -3.57600 45.83500
C  45.16100 -3.04300 45.70400
N  46.01600 2.63900 46.59300
C  46.46100 1.33500 46.63900
C  47.99300 1.27700 46.60400
C  48.43700 2.81400 46.65200
C  47.04900 3.48900 46.69900
C  48.53200 0.27300 47.59800
C  49.28700 3.34500 45.45700
C  50.40700 4.33700 45.74900
N  44.39200 5.04800 46.81800
C  45.66900 5.63500 46.72100
C  45.51900 7.12500 46.72800
C  44.09200 7.30200 46.88600
C  43.44100 6.00300 46.87600
C  46.60200 8.06400 46.67600
C  43.02000 8.30000 47.09700
O  42.93900 9.51900 47.17800
C  41.71500 7.44500 46.98700
C  40.98700 7.78900 48.26200
O  41.17000 7.31300 49.37300
O  39.93100 8.63000 47.92000
C  38.97800 8.93200 48.98400
H  39.86000 0.74700 47.10600
H  46.28000 -0.71200 46.73300
H  47.90700 5.30800 46.81600
H  39.66000 5.30800 48.19100
H  38.65300 3.06500 46.52800
H  38.39500 3.70000 49.36100
H  39.75400 2.58500 49.16300
H  38.17000 2.10500 48.73900
H  38.54100 6.59800 46.87200
H  37.82000 5.21600 46.27800
H  40.08300 5.72800 44.60200
H  39.27500 7.33100 44.88100
H  40.84800 -2.69800 47.23800
H  40.38700 -2.15000 45.62100
H  39.84700 -1.41700 47.17500
H  45.72400 -3.05300 46.63700
H  45.75900 -2.49700 44.97500
H  45.10200 -4.03500 45.25500
H  48.32500 0.99500 45.60500
H  48.95600 2.99100 47.59400
H  48.72000 -0.58000 46.94600
H  47.77900 0.03600 48.35000
H  49.43500 0.64300 48.08400
H  48.61400 3.70200 44.67700
H  49.83100 2.44900 45.15900
H  51.33300 3.89100 45.38700
H  50.42700 4.54000 46.82000
H  50.32300 5.28800 45.22300
H  46.73200 8.33000 47.72500
H  46.37600 8.89000 46.00000
H  47.58200 7.67500 46.40000
H  41.17600 7.90900 46.16200
H  38.43500 9.83100 48.69100
H  39.48500 9.14700 49.92400
H  38.30100 8.10300 49.19200
Mg 35.37900 1.85600 30.06400
C  33.36100 2.99700 32.51900
C  38.05000 1.80500 32.30400
C  37.38500 1.21800 27.48800
C  32.62200 2.24300 27.78500
N  35.64100 2.34500 32.07500
C  34.67300 2.65500 32.94200
C  35.10400 2.47700 34.42100
C  36.65300 2.39000 34.26800
C  36.80600 2.24300 32.77900
C  37.55200 3.57300 34.90200
C  34.44100 1.30800 35.06700
C  34.19000 1.48800 36.59900
H  34.75900 2.72500 37.34500
N  37.48100 1.60200 29.88300
C  38.36300 1.53900 30.94700
C  39.68300 1.34900 30.37000
C  39.47000 1.10500 28.94800
C  38.07800 1.28000 28.63100
C  40.94000 1.62300 31.05900
C  40.50600 0.88300 27.90800
O  40.23500 0.69400 26.74400
C  41.98200 0.71200 28.13300
N  35.01000 1.74300 27.95900
C  36.04100 1.46000 27.17600
C  35.62100 1.41800 25.64800
C  34.09400 1.40600 25.79100
C  33.87800 1.86100 27.24400
C  36.18200 2.58900 24.76200
C  33.36700 0.05400 25.29700
C  32.95100 -0.01500 23.79500
N  33.34800 2.47600 30.05100
C  32.38000 2.61500 29.12000
C  31.22100 3.25200 29.72400
C  31.56900 3.43300 31.07800
C  32.87900 2.92700 31.20800
C  30.07500 3.67200 28.91300
C  31.14500 3.96200 32.29400
O  30.07400 4.49400 32.60900
C  32.26100 3.59700 33.35000
C  32.68500 4.75700 34.18500
O  33.33300 5.70600 33.79400
O  32.03200 4.62900 35.37600
C  32.09600 5.84300 36.21000
H  38.81600 1.69100 33.07300
H  38.06400 1.08200 26.64400
H  31.86300 2.35700 27.00800
H  34.87800 3.38100 34.98700
H  37.01200 1.48200 34.75200
H  36.95700 4.42900 35.22000
H  38.26200 3.94000 34.16000
H  38.23100 3.26300 35.69600
H  35.05600 0.40900 35.03300
H  33.46700 1.18500 34.59500
H  34.58900 0.56200 37.01400
H  33.13600 1.48400 36.87800
H  41.39600 0.66400 31.30500
H  40.72400 2.04000 32.04300
H  41.73300 2.27600 30.69500
H  42.20200 -0.18900 28.70600
H  42.27900 1.59800 28.69500
H  42.52800 0.63000 27.19300
H  35.89500 0.47800 25.16900
H  33.70000 2.10500 25.05400
H  36.68100 3.31000 25.41000
H  35.34500 3.11600 24.30300
H  36.85700 2.23400 23.98300
H  32.49700 -0.06200 25.94500
H  34.03300 -0.80900 25.30500
H  33.21400 0.92600 23.31100
H  31.89200 -0.24500 23.67800
H  33.56900 -0.76100 23.29600
H  29.32400 2.95000 28.59200
H  30.36300 4.16100 27.98200
H  29.65400 4.43100 29.57100
H  31.66400 2.98700 34.02900
H  32.60400 6.67300 35.72000
H  32.59200 5.50700 37.12100
H  31.06100 6.15300 36.35400

