158

Mg 24.66400 -8.29300 47.45300
C  27.11100 -6.19700 46.16600
C  22.59400 -7.30900 44.77500
C  22.65400 -10.96800 47.96000
C  27.18200 -9.86400 49.30700
N  24.86200 -7.06300 45.64100
C  25.93400 -6.16700 45.42300
C  25.63600 -5.24800 44.22000
C  24.14300 -5.54100 43.84200
C  23.84200 -6.74200 44.78800
C  23.19000 -4.30800 44.07200
C  26.72200 -5.31800 43.09000
C  27.55000 -3.96600 42.74300
H  27.64900 -3.52900 41.24400
N  22.77400 -8.90400 46.66600
C  22.08600 -8.33900 45.59800
C  20.76700 -9.00000 45.51200
C  20.70900 -9.93200 46.51000
C  22.09000 -9.96600 47.15700
C  19.79900 -8.59700 44.40500
C  19.50900 -10.75400 46.86500
O  18.54900 -10.75700 46.13700
C  19.41200 -11.72600 48.00400
N  24.79000 -10.08500 48.65000
C  23.83100 -11.00500 48.75800
C  24.22500 -12.24600 49.49600
C  25.72600 -11.94600 49.86800
C  25.90600 -10.47400 49.29100
C  23.32300 -12.56600 50.77600
C  26.72100 -12.96800 49.29400
C  27.42300 -13.80300 50.40000
N  26.70500 -7.92900 47.91400
C  27.57600 -8.71300 48.60100
C  28.86200 -8.11300 48.48300
C  28.72300 -7.05700 47.60300
C  27.39100 -7.08100 47.23400
C  30.21400 -8.55000 48.97600
C  29.44700 -6.03500 46.93900
O  30.55600 -5.60800 47.07000
C  28.40600 -5.40600 45.99700
C  28.23800 -3.99000 46.36900
O  27.57300 -3.55000 47.30400
O  28.88700 -3.17800 45.46700
C  28.71100 -1.71400 45.67500
H  21.90900 -6.74200 44.14000
H  21.95700 -11.78100 48.17400
H  27.99900 -10.42600 49.76400
H  25.66800 -4.28700 44.73400
H  24.09000 -5.86500 42.80200
H  22.79600 -4.13000 45.07200
H  22.26600 -4.31200 43.49400
H  23.69900 -3.39100 43.77600
H  26.43100 -5.62400 42.08500
H  27.41500 -6.12500 43.32800
H  28.54200 -4.25300 43.09200
H  27.14000 -3.17100 43.36500
H  18.75400 -8.57900 44.71200
H  19.87500 -9.30000 43.57500
H  19.96700 -7.68900 43.82700
H  19.83800 -11.16000 48.83200
H  19.95600 -12.62400 47.71200
H  18.40200 -11.98400 48.32500
H  24.25100 -13.06800 48.78200
H  25.74800 -11.78000 50.94500
H  22.70400 -13.41300 50.48000
H  22.57600 -11.79800 50.97200
H  23.86500 -12.90100 51.66000
H  27.49300 -12.48700 48.69300
H  26.14900 -13.60400 48.61900
H  26.72200 -14.41500 50.96800
H  27.99600 -13.11000 51.01400
H  28.15900 -14.45600 49.93100
H  30.26700 -9.42600 49.62200
H  30.72800 -7.73000 49.47900
H  30.75700 -8.71400 48.04600
H  28.77400 -5.62400 44.99400
H  29.53700 -1.21000 45.17400
H  28.73600 -1.54700 46.75100
H  27.73700 -1.35100 45.34500
Mg 26.69000 -0.99300 29.33800
C  28.45400 -0.96500 32.59100
C  23.73100 -1.13900 31.38600
C  24.86000 -1.24700 26.49500
C  29.52800 -1.14700 27.82400
N  26.19700 -0.97400 31.73800
C  27.08900 -0.75900 32.74400
C  26.39700 -0.69300 34.13800
C  24.92300 -0.62700 33.72300
C  24.88700 -0.90200 32.15900
C  24.04800 -1.76100 34.47900
C  26.87100 0.49800 35.09500
C  27.15800 0.15500 36.61200
H  26.61400 1.16200 37.61800
N  24.56300 -1.20500 29.00600
C  23.56700 -1.23300 29.96300
C  22.32800 -1.39100 29.22100
C  22.53600 -1.34300 27.75800
C  24.03300 -1.23000 27.71300
C  20.95300 -1.58700 29.83500
C  21.57100 -1.39500 26.64000
O  22.01200 -1.44000 25.49600
C  20.07500 -1.41100 26.82100
N  27.06300 -1.26100 27.35800
C  26.21600 -1.17400 26.33100
C  26.95500 -0.99600 24.96900
C  28.43400 -0.79200 25.50300
C  28.37400 -1.01500 27.03400
C  26.78700 -2.23800 24.07900
C  29.08200 0.62300 25.21400
C  30.49700 0.44700 24.73500
N  28.59900 -1.19100 30.05900
C  29.70100 -1.30500 29.23200
C  30.86500 -1.42200 29.99600
C  30.40100 -1.23700 31.33800
C  29.05300 -1.07500 31.28200
C  32.30100 -1.57900 29.48200
C  30.82000 -1.08000 32.71400
O  31.91600 -1.21100 33.21800
C  29.58100 -0.91400 33.57400
C  29.56700 -2.03600 34.61000
O  29.08400 -3.17400 34.47900
O  30.05400 -1.52200 35.79000
C  29.83200 -2.41700 36.95000
H  22.81800 -1.19900 31.98300
H  24.30900 -1.41200 25.56700
H  30.42600 -0.95400 27.23300
H  26.59000 -1.61800 34.68200
H  24.54600 0.37500 33.93000
H  23.57900 -2.53000 33.86500
H  23.27600 -1.23200 35.03600
H  24.59600 -2.26200 35.27700
H  25.95700 1.07800 35.22100
H  27.71800 1.11200 34.79000
H  28.21300 0.00900 36.84300
H  26.74100 -0.84500 36.73600
H  20.47300 -2.39000 29.27500
H  20.36000 -0.69700 29.62400
H  21.05600 -1.77700 30.90300
H  19.72100 -2.41300 27.06200
H  19.74000 -1.20500 25.80500
H  19.85400 -0.62400 27.54200
H  26.60700 -0.11200 24.43500
H  29.07700 -1.58400 25.12000
H  26.54300 -1.96900 23.05100
H  25.93500 -2.78500 24.48100
H  27.69100 -2.84700 24.06100
H  29.01900 1.16000 26.16000
H  28.43700 1.22000 24.56900
H  30.78200 -0.59300 24.57600
H  31.19200 1.00700 25.36000
H  30.54800 0.97500 23.78300
H  32.85300 -1.89600 30.36700
H  32.64600 -0.63500 29.06000
H  32.47200 -2.39200 28.77700
H  29.56800 0.05300 34.07700
H  28.81600 -2.38700 37.34500
H  30.47400 -2.22600 37.81000
H  29.97300 -3.47300 36.71700

