158

Mg 24.50500 -5.74000 45.75700
C  27.00900 -3.49900 44.27600
C  22.28600 -4.41700 43.60100
C  22.69900 -8.48000 46.14000
C  27.30900 -7.34400 47.20900
N  24.70500 -4.26600 44.02600
C  25.76000 -3.43900 43.64200
C  25.32500 -2.42500 42.53100
C  23.75100 -2.61000 42.56400
C  23.57600 -3.91700 43.36400
C  22.98100 -1.39300 43.12000
C  26.00500 -2.76800 41.18800
C  26.32400 -1.46500 40.36900
H  25.78100 -1.37100 38.95000
N  22.63100 -6.28300 45.17000
C  21.81100 -5.52600 44.31600
C  20.55700 -6.23900 44.08100
C  20.72900 -7.52300 44.71900
C  22.09600 -7.48600 45.34300
C  19.41900 -5.71600 43.26300
C  19.70700 -8.65000 44.67700
O  18.59700 -8.52300 44.18500
C  20.05800 -10.08100 44.93500
N  24.99100 -7.66000 46.57200
C  24.01900 -8.55500 46.69300
C  24.48600 -9.79000 47.55900
C  25.92500 -9.36400 48.02000
C  26.13300 -8.04200 47.24100
C  23.56200 -10.22900 48.70000
C  27.07900 -10.39300 47.72900
C  27.75500 -10.90400 48.95800
N  26.68800 -5.40500 45.98700
C  27.64700 -6.15400 46.63200
C  28.92300 -5.40100 46.68700
C  28.63900 -4.34300 45.74500
C  27.30300 -4.47800 45.26900
C  30.30500 -5.74500 47.28500
C  29.31500 -3.32000 45.05100
O  30.50200 -3.04800 45.11600
C  28.22500 -2.61100 44.08700
C  27.98600 -1.17100 44.58900
O  27.88700 -0.79500 45.75300
O  28.06200 -0.31100 43.50600
C  27.99600 1.12000 43.82700
H  21.48600 -3.95500 43.01800
H  22.01300 -9.28700 46.40300
H  28.15800 -7.68700 47.80300
H  25.48600 -1.38400 42.81400
H  23.41700 -2.94200 41.58200
H  23.59500 -0.50200 42.99300
H  22.77300 -1.57400 44.17500
H  22.05000 -1.11800 42.62400
H  25.36600 -3.41500 40.58800
H  26.87300 -3.41200 41.32900
H  27.39500 -1.27100 40.43400
H  25.94000 -0.60800 40.92300
H  19.64900 -6.14600 42.28800
H  19.41100 -4.62700 43.21400
H  18.45300 -6.05100 43.64200
H  19.44300 -10.74900 44.33100
H  19.89400 -10.31900 45.98600
H  21.08600 -10.21700 44.59900
H  24.57700 -10.62900 46.87000
H  26.03300 -9.02900 49.05100
H  22.86600 -11.03100 48.45400
H  22.88200 -9.38700 48.82600
H  24.16000 -10.43500 49.58700
H  27.75100 -9.93900 47.00100
H  26.69700 -11.24500 47.16800
H  27.57200 -10.30000 49.84700
H  28.80900 -10.94900 48.68200
H  27.47500 -11.88600 49.33800
H  30.14100 -5.95100 48.34300
H  30.99300 -4.91800 47.11000
H  30.68900 -6.65700 46.82800
H  28.60800 -2.56200 43.06800
H  27.98300 1.78800 42.96600
H  28.91200 1.45200 44.31600
H  27.13800 1.46500 44.40400
Mg 47.42600 16.34100 28.70000
C  45.19800 16.18200 31.59600
C  49.55500 18.25300 30.63400
C  49.06900 17.02700 25.98100
C  44.74400 15.01400 26.82900
N  47.43500 16.98100 30.99400
C  46.39900 16.94500 31.88100
C  46.80600 17.55400 33.27000
C  48.14900 18.35800 32.88400
C  48.44600 17.84600 31.44900
C  47.98400 19.94000 32.99600
C  47.11400 16.45700 34.28500
C  46.65000 16.64800 35.70300
H  46.51300 18.12900 36.22800
N  49.26000 17.26500 28.42000
C  49.94300 18.02600 29.29200
C  51.16000 18.47100 28.67000
C  51.00800 18.09800 27.28500
C  49.75800 17.38500 27.18700
C  52.30400 19.16300 29.41200
C  51.95200 18.28400 26.04200
O  51.73700 17.81800 24.94800
C  53.24900 19.04400 26.30900
N  46.99900 15.95500 26.74200
C  47.82000 16.45300 25.77100
C  47.10700 16.41600 24.39500
C  45.94900 15.37800 24.67000
C  45.86800 15.44800 26.17800
C  46.49300 17.79500 23.92400
C  46.22600 13.86900 24.12100
C  45.00400 13.15400 23.55400
N  45.38600 15.57400 29.07900
C  44.44900 15.06600 28.23000
C  43.37900 14.48200 28.97800
C  43.61400 14.88100 30.29900
C  44.81800 15.65500 30.28300
C  42.37900 13.52500 28.40800
C  43.10100 14.76600 31.61800
O  42.10900 14.18100 32.09700
C  44.12100 15.65700 32.52800
C  43.32800 16.67600 33.38800
O  42.86100 17.71900 32.96500
O  43.34200 16.29000 34.67100
C  42.77700 17.37500 35.60400
H  50.24200 18.89400 31.19100
H  49.59100 17.32200 25.06900
H  44.04000 14.46300 26.20100
H  46.03000 18.21100 33.66400
H  48.99600 18.00700 33.47300
H  48.36700 20.28500 32.03600
H  48.53200 20.31500 33.86100
H  46.97100 20.27600 33.21900
H  48.15400 16.14200 34.18800
H  46.56500 15.64600 33.80600
H  47.12400 15.88400 36.31900
H  45.62000 16.29100 35.71000
H  52.22800 19.08200 30.49600
H  52.19100 20.22500 29.19200
H  53.23400 18.76600 29.00400
H  53.08200 19.89700 26.96700
H  53.51200 19.46800 25.34000
H  54.08400 18.39400 26.57000
H  47.82200 16.06100 23.65300
H  45.01000 15.72500 24.24100
H  46.85700 18.48800 24.68300
H  45.41100 17.77500 23.78800
H  47.03500 18.00700 23.00300
H  46.51700 13.23800 24.96100
H  47.00400 13.99400 23.36800
H  45.19100 12.10800 23.79800
H  45.04900 13.25800 22.47000
H  44.05800 13.47200 23.99100
H  42.72400 12.49300 28.33800
H  42.12100 13.94500 27.43600
H  41.46300 13.58800 28.99700
H  44.53100 14.91800 33.21600
H  41.70800 17.18200 35.69300
H  42.88400 18.36200 35.15300
H  43.31700 17.21900 36.53800

