158

Mg 9.23100 4.10800 27.07700
C  10.55900 2.75000 30.08400
C  7.47700 6.25000 29.01600
C  8.09400 5.33300 24.23900
C  10.54200 1.39000 25.35200
N  9.03400 4.47900 29.39300
C  9.70600 3.90400 30.36000
C  9.41600 4.54400 31.75600
C  8.30300 5.57700 31.38700
C  8.20500 5.40100 29.86800
C  6.96900 5.48300 32.16200
C  10.63800 5.13400 32.47700
C  10.25700 5.83700 33.78600
H  11.20900 5.55500 35.00700
N  8.01800 5.53700 26.73600
C  7.29500 6.31800 27.58800
C  6.57600 7.32700 26.91300
C  6.98200 7.28400 25.58500
C  7.71900 6.01100 25.45200
C  5.55900 8.22000 27.49200
C  6.55100 8.11900 24.50000
O  6.85400 8.00100 23.31900
C  5.69300 9.33800 24.78000
N  9.60500 3.54600 25.03900
C  8.90600 4.14600 24.02900
C  9.08900 3.44100 22.69500
C  9.72700 2.11400 23.15900
C  10.00600 2.37400 24.57600
C  7.81500 3.38600 21.76300
C  10.87700 1.65200 22.19900
C  10.58200 0.40800 21.37800
N  10.26500 2.40600 27.54300
C  10.79200 1.42100 26.70800
C  11.52600 0.46100 27.56900
C  11.53900 1.04100 28.88300
C  10.71400 2.16800 28.79300
C  12.21500 -0.73200 27.20300
C  12.06000 0.79900 30.21000
O  12.77100 -0.04700 30.78600
C  11.42000 1.97600 31.06200
C  10.66500 1.25500 32.09700
O  9.63400 0.64000 31.74700
O  11.22600 1.50300 33.37500
C  10.41400 1.10100 34.46300
H  7.06100 7.07100 29.60300
H  7.71800 5.71000 23.28600
H  10.89000 0.52800 24.77800
H  9.06400 3.82400 32.49500
H  8.69800 6.56700 31.61700
H  6.90500 6.31500 32.86300
H  6.86000 4.52500 32.67100
H  6.13300 5.59300 31.47000
H  11.31600 5.70200 31.84000
H  11.25200 4.26900 32.72600
H  9.29400 5.40800 34.06200
H  10.18300 6.91300 33.63400
H  4.61600 8.08300 26.96400
H  5.86100 9.25900 27.35900
H  5.47000 7.93800 28.54100
H  5.77200 10.01800 23.93200
H  6.23700 9.98200 25.47100
H  4.65700 9.20400 25.09300
H  9.90400 4.01000 22.24800
H  8.89000 1.41500 23.15200
H  6.94600 3.77900 22.29000
H  7.77700 2.30000 21.67700
H  8.03200 3.83600 20.79500
H  11.74300 1.55400 22.85400
H  11.27100 2.41200 21.52500
H  11.23000 -0.44300 21.59100
H  10.84100 0.59200 20.33500
H  9.51600 0.18300 21.36800
H  11.89400 -1.60400 27.77400
H  13.29000 -0.56400 27.26300
H  11.95200 -1.12400 26.22000
H  12.26400 2.45900 31.55300
H  9.50300 0.63400 34.08800
H  10.23500 1.88300 35.20000
H  10.99000 0.31700 34.95400
Mg 17.06300 -1.15500 27.68400
C  16.32500 1.12000 30.34200
C  18.74400 -3.19600 29.87600
C  17.91700 -2.93500 24.99800
C  15.34700 1.18600 25.57900
N  17.43800 -1.03800 29.88400
C  17.11700 0.01300 30.69500
C  17.66800 -0.34600 32.10500
C  18.58800 -1.62200 31.91200
C  18.22000 -2.01400 30.47700
C  20.07100 -1.33400 32.29600
C  16.58500 -0.35000 33.21400
C  16.91600 0.26100 34.57000
H  18.42900 0.44700 34.98700
N  18.28400 -2.80400 27.49800
C  18.79700 -3.53300 28.50200
C  19.41200 -4.73400 27.91900
C  19.19400 -4.74200 26.47400
C  18.44400 -3.45400 26.25800
C  20.12100 -5.70000 28.79300
C  19.56400 -5.67600 25.36100
O  19.23300 -5.45200 24.16500
C  20.27800 -7.05300 25.68000
N  16.83800 -0.82200 25.57500
C  17.27600 -1.70400 24.62600
C  17.05500 -1.20200 23.19700
C  16.11900 0.10100 23.38400
C  15.98000 0.11200 24.92200
C  18.35600 -0.97900 22.45400
C  14.64700 0.00900 22.73000
C  14.41700 1.06800 21.55100
N  15.98000 0.74300 27.86500
C  15.28200 1.49700 26.99800
C  14.64400 2.60500 27.57700
C  15.09000 2.54500 28.91100
C  15.85900 1.37200 29.05000
C  13.72000 3.70000 26.97400
C  15.03600 3.22500 30.19900
O  14.60800 4.33000 30.45400
C  15.72800 2.24500 31.23100
C  16.66700 3.03600 32.05400
O  17.78400 3.39300 31.74500
O  16.07500 3.43200 33.20400
C  16.90500 4.28200 34.08100
H  19.21800 -3.88500 30.57800
H  18.10700 -3.41200 24.03400
H  14.83200 1.88800 24.92000
H  18.25000 0.56400 32.24600
H  18.32200 -2.38400 32.64500
H  20.32900 -0.29700 32.51100
H  20.67300 -1.51000 31.40400
H  20.30500 -2.07900 33.05600
H  16.38400 -1.38300 33.49900
H  15.62400 0.07600 32.92400
H  16.44300 -0.37200 35.32100
H  16.35100 1.19200 34.51400
H  20.48400 -6.51500 28.16700
H  19.56300 -6.10400 29.63700
H  21.01200 -5.18700 29.15500
H  20.06000 -7.61500 26.58800
H  21.33800 -6.80000 25.65000
H  19.99400 -7.74000 24.88400
H  16.46800 -2.04100 22.82400
H  16.66900 0.98900 23.07300
H  18.18000 -0.04400 21.92100
H  18.42500 -1.82600 21.77200
H  19.11800 -0.93800 23.23200
H  13.92600 0.11700 23.54000
H  14.42300 -0.97300 22.31400
H  14.21100 0.54400 20.61800
H  15.16500 1.85900 21.49500
H  13.53600 1.61500 21.88900
H  12.72500 3.44500 26.60800
H  14.31800 4.02400 26.12200
H  13.63800 4.52200 27.68500
H  14.88100 1.91900 31.83600
H  16.24600 4.56800 34.90100
H  17.20600 5.28000 33.76000
H  17.80300 3.83900 34.51100

