158

Mg 1.77500 -1.05300 43.97900
C  5.13100 -0.40200 43.59100
C  0.95900 1.95500 42.26000
C  -1.41400 -1.81000 43.94100
C  2.61400 -4.29400 44.87000
N  2.94500 0.61000 43.05000
C  4.30200 0.60900 43.05100
C  4.74000 1.85800 42.30600
C  3.42100 2.81200 42.23100
C  2.32200 1.80300 42.60800
C  3.39500 3.93100 43.32000
C  5.33300 1.46600 40.89700
C  6.23800 2.58500 40.33000
H  5.67900 3.29100 39.09700
N  -0.03400 -0.05300 43.35200
C  -0.11900 1.11400 42.63100
C  -1.47300 1.43400 42.29000
C  -2.29500 0.40500 42.77800
C  -1.30900 -0.52600 43.42200
C  -1.79700 2.72000 41.55000
C  -3.78500 0.26300 42.65200
O  -4.46100 1.07600 42.06300
C  -4.49800 -0.68800 43.57500
N  0.73500 -2.78000 44.23200
C  -0.59900 -2.83600 44.25400
C  -1.21300 -4.20100 44.78500
C  0.08600 -5.03700 45.11000
C  1.26100 -4.01300 44.68800
C  -2.24500 -4.09700 45.96100
C  0.31100 -6.39200 44.53900
C  1.00800 -7.46500 45.45400
N  3.47200 -2.10300 44.31400
C  3.67100 -3.38900 44.67800
C  5.10900 -3.69900 44.92600
C  5.72400 -2.52900 44.47400
C  4.68200 -1.62000 44.13300
C  5.69800 -4.96000 45.34000
C  6.98800 -1.83300 44.28300
O  8.11400 -2.21300 44.58900
C  6.64000 -0.44000 43.65400
C  7.16800 0.74000 44.47200
O  7.08000 0.91500 45.67700
O  7.71100 1.72600 43.66600
C  8.53300 2.80600 44.35600
H  0.70100 2.87100 41.72400
H  -2.45400 -2.14200 43.90100
H  2.90900 -5.27900 45.23800
H  5.58800 2.27600 42.84800
H  3.26800 3.18600 41.21900
H  4.29700 3.98100 43.92900
H  2.53300 3.79200 43.97300
H  3.34300 4.88400 42.79300
H  4.48900 1.20800 40.25800
H  5.89900 0.53800 40.97100
H  7.26300 2.25900 40.15300
H  6.31000 3.35700 41.09600
H  -1.16400 2.81900 40.66800
H  -1.54600 3.59000 42.15700
H  -2.87000 2.84700 41.40600
H  -5.54400 -0.39900 43.67100
H  -4.05100 -0.71400 44.56900
H  -4.36000 -1.61600 43.02000
H  -1.80500 -4.64100 43.98300
H  0.17400 -5.12400 46.19300
H  -1.99100 -4.81800 46.73800
H  -3.25000 -4.16900 45.54500
H  -2.25300 -3.11300 46.43100
H  0.90300 -6.31700 43.62600
H  -0.68200 -6.71600 44.22900
H  0.37100 -8.35000 45.43700
H  1.17000 -7.26400 46.51300
H  2.00300 -7.72800 45.09600
H  6.67000 -4.86000 45.82300
H  5.89000 -5.52500 44.42700
H  5.07200 -5.63500 45.92200
H  7.18100 -0.32600 42.71400
H  8.31900 3.78600 43.93000
H  9.60700 2.67500 44.22000
H  8.30800 2.97900 45.40800
Mg -5.08800 25.10700 26.18300
C  -3.37900 26.57300 28.83900
C  -6.53700 22.98800 28.54000
C  -6.60700 23.47100 23.60200
C  -3.03900 26.80100 23.86000
N  -4.93800 24.86600 28.37900
C  -4.30900 25.64700 29.26000
C  -4.74100 25.42100 30.70600
C  -5.39200 24.07000 30.65100
C  -5.66000 24.02200 29.10300
C  -4.51600 22.85700 31.24100
C  -5.64800 26.58300 31.33400
C  -5.55500 26.81800 32.83600
H  -4.72300 25.85900 33.73000
N  -6.38500 23.43100 26.07400
C  -6.89700 22.74000 27.16000
C  -7.70500 21.60900 26.62500
C  -7.77300 21.78200 25.18900
C  -6.83600 22.89300 24.87100
C  -8.54700 20.57900 27.50400
C  -8.49400 21.00800 24.07700
O  -8.22800 21.05100 22.89400
C  -9.55900 19.95600 24.35700
N  -5.06500 25.30900 24.00000
C  -5.71200 24.49200 23.15400
C  -5.69500 24.95200 21.74300
C  -4.38700 25.84100 21.78700
C  -4.06800 25.97600 23.28800
C  -5.64700 23.76900 20.76300
C  -4.41300 27.23800 21.11600
C  -3.34900 27.66100 20.06100
N  -3.65500 26.47900 26.35900
C  -2.92500 27.12400 25.29100
C  -2.06000 28.08700 25.91700
C  -2.17000 27.86000 27.30600
C  -3.19000 26.86700 27.54200
C  -1.12000 29.03800 25.29900
C  -1.52500 28.22000 28.54600
O  -0.65400 28.96900 28.86400
C  -2.45400 27.50100 29.63300
C  -1.59100 26.73600 30.57400
O  -0.82200 25.87100 30.25500
O  -1.66300 27.30300 31.80900
C  -0.80400 26.70200 32.84100
H  -7.04900 22.25200 29.16300
H  -7.27400 23.07800 22.83100
H  -2.32600 27.33100 23.22600
H  -3.80200 25.39800 31.25900
H  -6.42700 24.00800 30.98800
H  -5.19100 22.41000 31.97000
H  -3.61000 23.06300 31.81000
H  -4.28200 22.22100 30.38700
H  -6.70700 26.33400 31.26300
H  -5.38000 27.52700 30.85900
H  -6.53400 26.90100 33.30900
H  -5.06000 27.77700 32.98500
H  -8.36700 20.58000 28.57900
H  -8.37600 19.53800 27.23100
H  -9.61500 20.72100 27.34200
H  -10.02500 19.78100 23.38700
H  -10.25800 20.51400 24.98000
H  -9.26700 18.97100 24.72200
H  -6.66200 25.44100 21.62200
H  -3.57600 25.25700 21.35300
H  -5.87700 22.78300 21.16600
H  -4.64900 23.66100 20.33800
H  -6.16400 23.98300 19.82800
H  -4.64600 27.98400 21.87600
H  -5.41300 27.32700 20.69300
H  -2.58400 26.91700 19.83500
H  -2.87900 28.57600 20.42000
H  -3.96400 27.85100 19.18100
H  -0.22500 28.45800 25.07500
H  -1.12800 29.90100 25.96500
H  -1.51600 29.45000 24.37000
H  -3.10600 28.13700 30.23200
H  -1.12200 26.82100 33.87700
H  0.11400 27.24200 32.60800
H  -0.57900 25.65100 32.65900

