158

Mg 23.08600 -6.06000 44.89800
C  25.48800 -4.08500 43.41800
C  20.73900 -4.42500 42.93600
C  20.73900 -8.67400 45.36200
C  25.41300 -8.00200 46.35700
N  23.08000 -4.52800 43.42900
C  24.25000 -3.78300 43.09400
C  23.93900 -2.59800 42.20200
C  22.40000 -2.60800 42.25300
C  22.03000 -3.91900 42.89700
C  21.63800 -1.39900 42.85800
C  24.48100 -2.88400 40.74900
C  25.07500 -1.69300 39.98800
H  26.19900 -2.06000 39.01500
N  21.03100 -6.46400 44.32100
C  20.25200 -5.58300 43.62300
C  18.89300 -6.13400 43.42400
C  18.86000 -7.38700 44.14500
C  20.26100 -7.54400 44.64400
C  17.81400 -5.50700 42.49900
C  17.68600 -8.36800 44.17900
O  16.53600 -7.96400 43.92000
C  17.71500 -9.84600 44.55500
N  23.04200 -8.11200 45.70800
C  21.99500 -8.88300 45.89400
C  22.38700 -10.18900 46.61400
C  23.77800 -9.83700 47.12300
C  24.10100 -8.60300 46.39100
C  21.35100 -10.67500 47.66300
C  24.84600 -10.93400 46.96000
C  25.88600 -11.05300 48.07500
N  25.04000 -6.15900 44.86800
C  25.94500 -6.91700 45.68600
C  27.29300 -6.34800 45.59800
C  27.15100 -5.26700 44.72200
C  25.76300 -5.20000 44.25300
C  28.53800 -6.90600 46.15600
C  27.93100 -4.19800 44.03400
O  29.15200 -3.92000 44.14100
C  26.86000 -3.44400 43.12400
C  26.97200 -2.00300 43.52400
O  26.44300 -1.42500 44.47700
O  27.77700 -1.41500 42.55300
C  27.99200 0.01500 42.69000
H  20.10500 -3.80700 42.29700
H  19.99900 -9.47700 45.39000
H  26.19400 -8.53900 46.90100
H  24.44700 -1.72000 42.60100
H  22.14800 -2.75400 41.20200
H  21.06500 -1.63700 43.75500
H  20.91300 -0.98400 42.15800
H  22.40800 -0.65400 43.05800
H  23.69500 -3.40200 40.20000
H  25.25000 -3.65600 40.72200
H  25.35000 -0.94100 40.72700
H  24.23600 -1.23700 39.46200
H  17.44200 -6.35000 41.91700
H  18.07300 -4.74200 41.76700
H  16.99800 -5.06500 43.07100
H  16.70900 -10.19800 44.32700
H  17.98200 -10.03600 45.59500
H  18.30000 -10.41300 43.83100
H  22.51100 -10.99200 45.88800
H  23.61500 -9.47400 48.13700
H  20.52000 -9.97000 47.69700
H  21.78700 -10.97800 48.61500
H  20.99200 -11.61000 47.23400
H  25.37300 -10.78800 46.01700
H  24.29700 -11.87500 46.93800
H  26.82100 -11.50800 47.74700
H  25.55800 -11.82700 48.76900
H  26.06700 -10.11600 48.60200
H  28.91000 -6.09500 46.78300
H  29.33000 -7.07900 45.42700
H  28.43600 -7.81400 46.75000
H  27.27300 -3.53100 42.12000
H  29.01000 0.26300 42.38900
H  27.77000 0.50000 43.64000
H  27.46200 0.54900 41.90100
Mg 40.35500 9.45800 29.62700
C  41.96600 10.91800 32.44700
C  38.14600 7.97800 31.84000
C  38.93200 7.98900 26.92500
C  43.15200 10.30900 27.73500
N  40.12500 9.49900 31.89700
C  40.88700 10.14100 32.77200
C  40.41200 9.97400 34.19700
C  39.34300 8.81800 34.01900
C  39.18800 8.66900 32.48100
C  39.67800 7.50300 34.74800
C  39.91400 11.33300 34.79800
C  40.70400 11.75100 36.04800
H  39.93800 12.46400 37.10300
N  38.75800 8.17900 29.41300
C  37.95000 7.70900 30.42600
C  36.85600 7.02900 29.78100
C  36.99000 7.19700 28.33700
C  38.28100 7.80200 28.19500
C  35.72300 6.44900 30.57800
C  36.08000 6.76300 27.16200
O  36.22600 7.14700 25.96700
C  34.89600 5.94300 27.43400
N  41.01600 9.12900 27.65100
C  40.16400 8.61100 26.69800
C  40.56200 9.06500 25.28500
C  42.09200 9.48800 25.56400
C  42.14400 9.56700 27.08700
C  40.50600 7.98900 24.21400
C  42.36600 10.82400 24.83600
C  41.47400 12.08100 25.11000
N  42.18400 10.36700 29.94700
C  43.16300 10.72700 29.06500
C  44.24500 11.46900 29.74500
C  43.81600 11.56300 31.06400
C  42.52600 10.91300 31.11100
C  45.58400 11.89900 29.08700
C  44.08500 12.11700 32.36900
O  45.00000 12.80400 32.74800
C  42.93500 11.58600 33.34200
C  43.56600 10.76300 34.40000
O  43.77200 9.53500 34.25300
O  44.25600 11.53000 35.26000
C  44.86700 10.76900 36.38100
H  37.35700 7.66500 32.52600
H  38.42900 7.55500 26.05900
H  43.90300 10.76200 27.08400
H  41.24500 9.53900 34.74900
H  38.35000 9.05400 34.40300
H  39.78200 6.69200 34.02800
H  38.84000 7.31400 35.41900
H  40.65200 7.35100 35.21200
H  38.87400 11.18700 35.08900
H  40.06400 12.12000 34.05900
H  41.40500 12.47200 35.62800
H  41.37300 11.00000 36.46900
H  35.88200 5.37900 30.45000
H  34.77600 6.78000 30.15300
H  35.86800 6.65600 31.63800
H  34.28800 5.96700 26.53000
H  34.24800 6.37800 28.19500
H  35.18500 4.89900 27.55500
H  39.95400 9.88400 24.90200
H  42.68200 8.71400 25.07300
H  39.48200 7.70700 23.97100
H  41.08300 7.11600 24.52200
H  40.90600 8.32600 23.25800
H  42.16500 10.68300 23.77400
H  43.42200 11.09400 24.87000
H  41.28800 12.58600 24.16200
H  42.09400 12.74300 25.71500
H  40.51400 11.86200 25.57800
H  45.49300 12.44500 28.14800
H  46.17600 11.00100 28.90700
H  46.08700 12.46200 29.87300
H  42.57400 12.48600 33.84000
H  44.11500 10.61000 37.15400
H  45.70600 11.29500 36.83700
H  45.29500 9.83000 36.02900

