158

Mg 35.08900 2.60800 29.45200
C  32.97300 3.53800 31.93700
C  37.67200 2.30700 31.72400
C  37.15700 1.61300 26.91600
C  32.50100 3.24800 27.15300
N  35.31300 2.95900 31.56500
C  34.25300 3.26500 32.43300
C  34.74200 3.41700 33.91600
C  36.35300 3.24400 33.74100
C  36.50700 2.84300 32.24900
C  37.31300 4.43800 34.19300
C  33.96900 2.34500 34.82600
C  33.49700 2.79000 36.26000
H  34.35900 3.78000 36.96800
N  37.11000 1.94300 29.35000
C  37.93800 1.80500 30.45200
C  39.12700 1.08900 30.00300
C  39.07000 0.98300 28.56700
C  37.73600 1.51400 28.19700
C  40.16100 0.79100 31.04400
C  40.15400 0.45500 27.67300
O  40.21100 0.66900 26.50200
C  41.34000 -0.23300 28.26200
N  34.76600 2.34200 27.39200
C  35.81500 2.00000 26.55700
C  35.38800 2.14400 25.09800
C  33.78600 2.39300 25.21000
C  33.68800 2.72400 26.68000
C  36.08200 3.42000 24.38600
C  32.90300 1.27400 24.68800
C  32.26400 0.23800 25.69000
N  33.14000 3.32200 29.45600
C  32.21600 3.58000 28.48700
C  30.96700 3.95000 29.10200
C  31.21000 4.05000 30.44400
C  32.55500 3.61700 30.61700
C  29.73200 4.05600 28.30100
C  30.58300 4.25000 31.67200
O  29.43000 4.56000 31.98600
C  31.71100 3.99200 32.74200
C  31.79800 5.22100 33.56900
O  32.50800 6.17000 33.33200
O  30.94500 5.12800 34.64700
C  30.93400 6.25500 35.52600
H  38.41500 2.14000 32.50600
H  37.81800 1.32600 26.09500
H  31.70900 3.43600 26.42500
H  34.45300 4.44100 34.15300
H  36.67800 2.41900 34.37500
H  38.03600 4.67600 33.41300
H  37.89500 4.12400 35.05900
H  36.70400 5.29900 34.47100
H  34.47900 1.39300 34.97300
H  33.09800 1.97600 34.28300
H  33.50400 1.88000 36.85900
H  32.45400 3.10600 36.23900
H  39.75200 0.71100 32.05200
H  41.01200 1.47000 30.98900
H  40.58400 -0.20500 30.91600
H  42.04800 -0.54200 27.49300
H  41.04800 -1.12500 28.81600
H  41.97000 0.34500 28.93800
H  35.58500 1.21300 24.56600
H  33.51500 3.29600 24.66400
H  35.37000 4.11000 23.93400
H  36.73500 2.96700 23.63900
H  36.66300 3.96300 25.13200
H  33.50000 0.67300 24.00200
H  32.03900 1.69300 24.17300
H  31.19200 0.04300 25.65000
H  32.47800 0.55300 26.71200
H  32.67600 -0.74600 25.46700
H  29.78800 3.31300 27.50500
H  29.66800 5.01300 27.78400
H  28.80800 3.91500 28.86100
H  31.33900 3.18400 33.37100
H  30.60800 7.19800 35.08700
H  31.92800 6.51000 35.89300
H  30.30300 6.08500 36.39800
Mg 1.18200 42.62500 25.49800
C  2.09700 42.56500 29.06200
C  -1.61300 40.85200 26.46900
C  0.77100 41.77500 22.26900
C  4.27700 43.85200 24.82900
N  0.31300 41.96100 27.57900
C  0.80000 42.02600 28.82800
C  -0.19200 41.51700 29.90600
C  -1.22600 40.83200 28.94700
C  -0.77200 41.14000 27.55800
C  -1.34900 39.23600 29.13000
C  -0.76900 42.71900 30.74300
C  -0.85300 42.51700 32.25800
H  -1.42500 41.19400 32.83500
N  -0.35000 41.72500 24.45200
C  -1.45300 41.05000 25.03100
C  -2.32800 40.59700 23.97600
C  -1.65700 40.89300 22.70000
C  -0.31700 41.49800 23.06000
C  -3.68900 39.95400 24.31100
C  -2.05300 40.63300 21.26300
O  -1.35700 40.85300 20.27900
C  -3.48700 40.17300 20.98700
N  2.36500 42.69000 23.83200
C  1.98800 42.30300 22.61100
C  3.13500 42.50700 21.63300
C  4.04800 43.56200 22.33400
C  3.49900 43.46900 23.72800
C  3.82100 41.11300 21.27600
C  3.92400 45.05000 21.87200
C  2.50200 45.58400 21.77800
N  2.81100 43.26000 26.65400
C  4.06800 43.74600 26.22200
C  4.88800 44.00800 27.34200
C  4.15000 43.54200 28.45100
C  2.92000 43.08200 28.01200
C  6.28600 44.60700 27.30400
C  4.15700 43.36000 29.94500
O  5.02500 43.67400 30.76700
C  2.82400 42.70400 30.31500
C  3.03800 41.52400 31.08500
O  3.74800 40.57300 30.72800
O  2.28600 41.56800 32.22000
C  2.21700 40.38200 33.04700
H  -2.51200 40.36700 26.85500
H  0.75400 41.53000 21.20500
H  5.26800 44.16100 24.48900
H  0.26100 40.77700 30.56500
H  -2.21100 41.28500 29.06200
H  -2.39300 39.05700 29.38900
H  -0.72000 38.85100 29.93200
H  -1.14700 38.70400 28.20000
H  -1.74600 43.01200 30.35700
H  -0.15700 43.61000 30.60300
H  -1.53700 43.25900 32.67100
H  0.14800 42.74100 32.62600
H  -3.80800 39.35800 25.21600
H  -3.80600 39.22600 23.50900
H  -4.52100 40.65700 24.27100
H  -4.27400 40.60700 21.60400
H  -3.60600 39.09300 21.07400
H  -3.74200 40.39100 19.94900
H  2.79200 42.95200 20.69900
H  5.07400 43.19600 22.28800
H  3.15000 40.27200 21.44700
H  4.68800 41.01400 21.92900
H  4.11400 41.05800 20.22700
H  4.20100 44.91100 20.82700
H  4.78900 45.56500 22.28900
H  2.40700 45.78900 20.71100
H  2.42800 46.48600 22.38600
H  1.67400 44.96500 22.12200
H  6.33800 45.64800 26.98300
H  7.01300 44.01700 26.74600
H  6.69400 44.59200 28.31500
H  2.30700 43.38000 30.99600
H  2.10600 39.43000 32.52900
H  1.43800 40.47000 33.80500
H  3.14800 40.25700 33.60000

