158

Mg 26.06100 50.59900 25.79800
C  23.90300 51.45600 28.46100
C  28.21200 49.41200 28.23300
C  28.04400 49.59700 23.32100
C  23.74100 51.71500 23.52500
N  26.01400 50.41600 28.23200
C  25.02200 50.80900 29.03300
C  25.40300 50.62700 30.48000
C  26.89500 50.03300 30.37700
C  27.09000 49.94100 28.85300
C  28.05500 50.76900 31.13100
C  24.36700 49.71600 31.27000
C  24.88800 49.17400 32.56500
H  24.11300 49.42100 33.79600
N  27.87500 49.78200 25.77300
C  28.57500 49.23500 26.88300
C  29.89700 48.78900 26.38000
C  29.89300 48.92600 24.98400
C  28.52900 49.48000 24.62600
C  30.96000 48.13000 27.31600
C  30.92800 48.61900 23.94100
O  30.92900 48.95100 22.76000
C  32.16200 47.99500 24.45800
N  25.90200 50.63100 23.71400
C  26.84200 50.13300 22.85800
C  26.36600 50.09000 21.36500
C  24.91400 50.68800 21.46500
C  24.83400 51.02300 22.98000
C  27.35800 50.68800 20.31200
C  23.87700 49.75300 20.79900
C  23.57400 48.46400 21.42100
N  24.19800 51.50500 25.88800
C  23.33400 51.87500 24.86500
C  22.09200 52.32700 25.45900
C  22.24100 52.24700 26.89100
C  23.55000 51.66700 27.10400
C  21.01100 52.80300 24.47700
C  21.68400 52.52600 28.18800
O  20.60900 52.93000 28.60900
C  22.73500 52.13100 29.18500
C  23.16400 53.32900 30.01000
O  24.16200 53.96200 29.73600
O  22.39200 53.40400 31.13400
C  22.72600 54.47100 32.01400
H  29.00900 49.14500 28.93000
H  28.67300 49.20200 22.52000
H  22.98200 52.08200 22.83100
H  25.30500 51.61200 30.93500
H  26.96200 49.03200 30.80500
H  28.67600 50.17200 31.79800
H  27.58100 51.56300 31.70800
H  28.79000 51.24800 30.48400
H  24.20100 48.81000 30.68700
H  23.35500 50.11300 31.33700
H  25.84300 49.64600 32.79700
H  24.95900 48.08800 32.50600
H  31.10700 47.06900 27.11600
H  30.72800 48.23800 28.37600
H  31.92600 48.63500 27.29700
H  32.78200 47.64100 23.63400
H  31.90800 47.10600 25.03500
H  32.68300 48.78400 25.00000
H  26.31700 49.04600 21.05700
H  25.05100 51.63000 20.93300
H  28.17100 51.18600 20.84000
H  26.91900 51.45400 19.67300
H  27.83000 49.93400 19.68200
H  24.33200 49.42600 19.86400
H  22.97900 50.30700 20.53100
H  22.48700 48.42100 21.48900
H  24.11300 48.26600 22.34700
H  23.89500 47.67000 20.74600
H  20.12100 52.97200 25.08300
H  20.76900 51.98800 23.79500
H  21.27600 53.73600 23.97900
H  22.31400 51.32500 29.78500
H  23.69700 54.24000 32.45400
H  21.95300 54.51900 32.78100
H  23.03600 55.43600 31.61400
Mg -2.40600 34.92400 26.86000
C  -3.78400 32.94100 29.47400
C  -1.01900 36.93800 29.22800
C  -1.48000 37.10300 24.39100
C  -4.26600 33.21900 24.63500
N  -2.32200 34.86700 29.09700
C  -2.97100 33.97300 29.96600
C  -2.59500 34.25500 31.44000
C  -1.88500 35.62100 31.32300
C  -1.78200 35.87200 29.80900
C  -2.49500 36.77300 32.14900
C  -1.78500 33.19500 32.07600
C  -2.35300 32.25100 33.13400
H  -1.41100 32.13100 34.39800
N  -1.32400 36.66000 26.82200
C  -0.78700 37.31000 27.88900
C  -0.10600 38.47300 27.42100
C  -0.19400 38.49900 26.06800
C  -1.03600 37.35900 25.70300
C  0.64200 39.37700 28.41700
C  0.51600 39.41500 25.11900
O  0.53600 39.27900 23.92300
C  1.07400 40.77000 25.62800
N  -2.66800 35.02600 24.75900
C  -2.28900 36.02000 23.93200
C  -2.65600 35.78400 22.44700
C  -3.33700 34.40000 22.53300
C  -3.42700 34.15800 24.07000
C  -3.46700 36.93100 21.83100
C  -2.65500 33.19800 21.81300
C  -1.52200 32.41500 22.56500
N  -3.73500 33.43900 26.88900
C  -4.35600 32.77800 25.93900
C  -5.24000 31.70100 26.49300
C  -4.98900 31.73700 27.83300
C  -4.14700 32.85000 28.06700
C  -6.02300 30.69600 25.72500
C  -5.35000 31.09700 29.06800
O  -6.19100 30.23500 29.32400
C  -4.55100 31.84200 30.17400
C  -5.56500 32.30900 31.13100
O  -6.09600 33.40700 31.08700
O  -5.80900 31.36000 32.07800
C  -6.72400 31.84100 33.08800
H  -0.55900 37.43800 30.08300
H  -1.13400 37.70100 23.54500
H  -5.00600 32.72000 24.00500
H  -3.55900 34.33400 31.94400
H  -0.82800 35.58400 31.58600
H  -2.93300 37.46000 31.42400
H  -1.81700 37.31000 32.81200
H  -3.34900 36.35000 32.67700
H  -0.90700 33.63000 32.55400
H  -1.55600 32.54100 31.23500
H  -2.49800 31.28200 32.65600
H  -3.34000 32.57000 33.47000
H  -0.12400 40.06900 28.76700
H  1.53500 39.92600 28.11800
H  0.85900 38.90900 29.37700
H  1.10300 41.60600 24.93000
H  2.04700 40.61600 26.09500
H  0.48000 41.22000 26.42400
H  -1.70100 35.87400 21.92900
H  -4.37600 34.46500 22.21000
H  -3.83300 37.62500 22.58800
H  -4.38900 36.50300 21.43600
H  -2.88300 37.44800 21.06900
H  -2.18700 33.62400 20.92500
H  -3.45800 32.55400 21.45500
H  -1.65500 32.42700 23.64700
H  -0.60700 32.95700 22.32300
H  -1.55500 31.36500 22.27600
H  -6.18800 30.97900 24.68600
H  -6.93700 30.48400 26.28200
H  -5.43500 29.77800 25.70400
H  -3.76500 31.26300 30.66000
H  -7.58900 32.36300 32.67900
H  -6.14700 32.39400 33.82900
H  -7.11500 31.01400 33.68100

