158

Mg 30.53500 57.96700 40.51800
C  27.94000 56.28900 38.92400
C  32.56500 55.28800 39.83800
C  33.08000 60.04900 40.88700
C  28.36300 60.83700 40.53400
N  30.25900 56.02200 39.43100
C  29.09100 55.51700 38.99400
C  29.29100 54.08300 38.49000
C  30.61600 53.68400 39.21000
C  31.20800 55.07400 39.52000
C  30.55000 52.74300 40.38100
C  29.43600 53.99600 36.93000
C  28.24500 53.35400 36.16100
H  27.70300 54.10900 34.91400
N  32.63000 57.72600 40.45000
C  33.23600 56.54400 40.15000
C  34.67300 56.76700 40.16300
C  34.86700 58.14000 40.42100
C  33.48900 58.71000 40.63200
C  35.64100 55.68300 39.87500
C  36.22800 58.70400 40.51900
O  37.15900 57.93500 40.42200
C  36.51600 60.08500 40.94900
N  30.70700 60.16000 40.54600
C  31.87800 60.71400 40.87300
C  31.78600 62.24000 41.13200
C  30.28000 62.47900 40.96700
C  29.69700 61.10900 40.67300
C  32.39700 62.73500 42.48400
C  29.98100 63.46400 39.79500
C  28.70800 64.22800 40.00200
N  28.52000 58.40300 40.19000
C  27.87500 59.61000 40.22700
C  26.52600 59.43400 39.76100
C  26.49300 58.12700 39.37200
C  27.73500 57.55000 39.54200
C  25.32300 60.43000 39.73600
C  25.64800 57.10400 38.77700
O  24.42700 57.19500 38.52100
C  26.54900 55.88600 38.41200
C  25.99400 54.67100 39.21100
O  26.48200 54.11400 40.17500
O  24.82600 54.24400 38.59400
C  24.28600 52.92100 38.97900
H  33.12200 54.35100 39.77200
H  33.95000 60.68100 41.08000
H  27.73200 61.72800 40.57200
H  28.45500 53.45300 38.79500
H  31.20700 53.14800 38.46700
H  29.56800 52.43200 40.73800
H  31.05900 53.09500 41.27900
H  31.12200 51.85900 40.10100
H  30.35000 53.48900 36.62100
H  29.54600 55.03600 36.62300
H  27.42200 53.09600 36.82800
H  28.64600 52.42500 35.75600
H  36.22700 55.84600 38.97000
H  35.11000 54.73100 39.86300
H  36.30900 55.51600 40.72000
H  37.53400 60.38100 41.20300
H  35.91600 60.34400 41.82100
H  36.26300 60.62000 40.03400
H  32.40000 62.58700 40.30100
H  29.79100 62.83000 41.87500
H  33.23200 63.38800 42.22900
H  32.69300 61.84700 43.04300
H  31.69000 63.29200 43.09900
H  29.93800 62.87900 38.87700
H  30.77700 64.19600 39.66300
H  28.19000 64.04900 40.94400
H  28.06800 64.04800 39.13800
H  28.95900 65.28700 39.95200
H  25.66500 61.30000 39.17400
H  24.97500 60.70200 40.73200
H  24.48200 59.93200 39.25400
H  26.43400 55.58500 37.37100
H  24.25400 52.34900 38.05200
H  23.29700 52.94500 39.43700
H  25.01900 52.44100 39.62800
Mg 1.50900 42.58000 25.38200
C  2.48000 42.96200 28.78400
C  -1.71100 41.73000 26.46700
C  0.59300 41.94000 22.15300
C  4.68400 43.36800 24.43600
N  0.61700 42.24600 27.48500
C  1.13300 42.54000 28.70600
C  0.07200 42.30800 29.88000
C  -1.19800 41.76800 29.09800
C  -0.78400 41.98500 27.54100
C  -1.60900 40.28400 29.35100
C  -0.27700 43.57200 30.76300
C  0.15500 43.48900 32.22800
H  -0.88500 43.52500 33.40600
N  -0.33000 41.99700 24.46900
C  -1.50700 41.71500 25.10000
C  -2.51700 41.46900 24.00400
C  -1.82100 41.56300 22.74000
C  -0.49000 41.91600 23.06600
C  -3.96700 41.20100 24.37400
C  -2.35500 41.41300 21.35800
O  -1.73300 41.61200 20.35100
C  -3.70500 40.76900 21.20000
N  2.48300 42.63900 23.60100
C  1.92500 42.25100 22.42200
C  2.95000 42.25400 21.28600
C  4.25600 42.68800 21.98900
C  3.75500 43.01700 23.46700
C  3.08100 40.83000 20.60500
C  5.03200 43.79900 21.23700
C  4.39300 45.20600 21.05700
N  3.29200 43.01100 26.35700
C  4.53000 43.30100 25.87200
C  5.42600 43.50800 26.93800
C  4.67100 43.36800 28.05300
C  3.33700 43.09700 27.70100
C  6.85100 43.80700 26.86400
C  4.74500 43.47700 29.44500
O  5.74400 43.64900 30.18500
C  3.31000 43.15300 29.99700
C  3.31400 41.93500 30.75100
O  3.28300 40.79500 30.30800
O  3.25800 42.20700 32.09700
C  3.40900 41.13000 33.09600
H  -2.67100 41.39700 26.86700
H  0.35900 41.65000 21.12600
H  5.72000 43.47900 24.11100
H  0.43400 41.48100 30.49000
H  -2.11000 42.35400 29.21200
H  -1.15800 39.96100 30.28900
H  -1.22100 39.69000 28.52300
H  -2.69000 40.13900 29.33500
H  -1.35600 43.70300 30.84200
H  0.07500 44.45300 30.22700
H  0.68600 44.43000 32.37000
H  0.78500 42.60000 32.27300
H  -4.17200 40.22500 24.81400
H  -4.70600 41.35600 23.58900
H  -4.21300 41.97800 25.09800
H  -3.90000 39.82000 21.70100
H  -3.72200 40.56300 20.12900
H  -4.47100 41.49400 21.47300
H  2.81800 42.89000 20.41100
H  4.87800 41.79400 22.02900
H  3.61200 40.22300 21.33900
H  3.67100 40.99900 19.70400
H  2.08000 40.49100 20.33900
H  5.25600 43.45000 20.22900
H  5.93400 43.96300 21.82700
H  3.37700 45.35700 21.41900
H  4.44500 45.46300 19.99800
H  4.98100 45.96600 21.57200
H  7.15200 44.60300 27.54600
H  7.05200 44.06100 25.82300
H  7.31000 42.88600 27.22200
H  2.99300 43.86400 30.75900
H  2.67900 41.27700 33.89200
H  4.40500 41.18900 33.53300
H  3.35400 40.08000 32.80600

