158

Mg 27.24000 50.91200 25.75200
C  25.25600 52.06700 28.40000
C  29.24700 49.59900 28.06200
C  29.25500 49.77400 23.15700
C  25.07300 52.36900 23.49400
N  27.27400 51.00100 27.96600
C  26.35200 51.44600 28.83100
C  26.66000 51.10900 30.27800
C  28.14900 50.54100 30.15500
C  28.19900 50.38700 28.62000
C  29.29500 51.44300 30.80800
C  25.68900 50.07600 30.92200
C  25.05100 50.56500 32.24000
H  26.04100 50.92900 33.38500
N  29.07500 49.86600 25.63400
C  29.75900 49.49300 26.75100
C  30.90200 48.75700 26.27700
C  30.88000 48.71300 24.87500
C  29.75800 49.48400 24.47000
C  32.01100 48.11100 27.17300
C  31.71800 48.00900 23.85600
O  31.72200 48.14400 22.61100
C  32.66000 47.02600 24.40600
N  27.29100 51.19400 23.66500
C  28.10700 50.51400 22.81300
C  27.50500 50.52000 21.36400
C  26.05800 51.18800 21.50000
C  26.15300 51.68000 22.98700
C  28.53400 51.11900 20.37400
C  24.79800 50.37300 21.08600
C  24.69400 48.89500 21.65400
N  25.53300 52.04300 25.88500
C  24.77400 52.53700 24.85000
C  23.66400 53.20600 25.48700
C  23.83400 53.06000 26.81600
C  24.96200 52.30000 27.02700
C  22.57200 53.92600 24.71800
C  23.30900 53.42200 28.04500
O  22.29500 54.05700 28.29600
C  24.06400 52.68900 29.17000
C  24.54900 53.80200 30.01700
O  25.44900 54.55100 29.69100
O  23.82400 53.83000 31.15500
C  24.32000 54.61600 32.21600
H  29.83800 49.04000 28.79100
H  29.53500 49.27900 22.22600
H  24.25400 52.76700 22.89200
H  26.72500 52.11300 30.69600
H  28.31500 49.56200 30.60400
H  30.00000 50.76800 31.29200
H  28.90000 52.18100 31.50700
H  29.90200 51.94200 30.05300
H  26.14500 49.11000 31.13500
H  24.89300 49.93200 30.19100
H  24.56100 49.65000 32.57300
H  24.47500 51.48900 32.18500
H  32.09900 48.58600 28.15000
H  32.97400 48.37500 26.73500
H  32.02500 47.02100 27.19200
H  33.52600 47.53700 24.82600
H  32.99800 46.34000 23.62800
H  32.07700 46.45000 25.12400
H  27.33000 49.48200 21.08200
H  25.87500 52.07000 20.88700
H  29.39200 51.35200 21.00400
H  28.13500 51.98400 19.84500
H  28.74000 50.40700 19.57500
H  24.65000 50.21400 20.01800
H  23.91600 50.92300 21.41300
H  25.63500 48.58100 22.10500
H  24.47900 48.13900 20.89800
H  23.96000 48.75800 22.44700
H  22.91000 54.28200 23.74500
H  22.28900 54.82900 25.25800
H  21.71700 53.25600 24.62700
H  23.50900 51.92500 29.71500
H  24.59400 55.65300 32.02000
H  25.18100 54.14900 32.69300
H  23.59000 54.77500 33.00900
Mg -2.19100 35.05000 26.95200
C  -3.59900 33.18200 29.66200
C  -1.12700 37.32400 29.49000
C  -1.07200 37.06500 24.59200
C  -3.77500 33.07600 24.67500
N  -2.31700 35.18300 29.32300
C  -2.88500 34.29400 30.19000
C  -2.74400 34.80600 31.69000
C  -2.05900 36.22900 31.52200
C  -1.85700 36.30900 30.04100
C  -2.79100 37.49800 32.17500
C  -2.01500 33.77600 32.61500
C  -2.85200 33.37900 33.81200
H  -2.10600 32.78400 35.02400
N  -1.09800 36.86200 27.08000
C  -0.78000 37.59200 28.15100
C  0.17200 38.60200 27.71700
C  0.19100 38.59800 26.26700
C  -0.71200 37.55300 25.89000
C  0.94500 39.45500 28.64900
C  0.92500 39.41900 25.22600
O  0.65600 39.38800 24.03600
C  2.08800 40.37900 25.65300
N  -2.41500 35.03900 24.90700
C  -1.89200 35.99500 24.15400
C  -2.01200 35.61800 22.65000
C  -2.83700 34.38300 22.68300
C  -2.97500 34.08100 24.19800
C  -2.51600 36.69500 21.65000
C  -2.42000 33.22000 21.79900
C  -1.68700 32.04600 22.40000
N  -3.54000 33.52400 27.09200
C  -4.03400 32.73300 26.03300
C  -4.94800 31.75700 26.50800
C  -4.70600 31.89100 27.93100
C  -3.85900 32.90200 28.24600
C  -5.76400 30.87000 25.69200
C  -5.05000 31.23600 29.25900
O  -5.68800 30.24900 29.55900
C  -4.33900 32.14800 30.33800
C  -5.35300 32.64300 31.28500
O  -6.00000 33.69400 31.14400
O  -5.58500 31.76400 32.30400
C  -6.63400 32.15700 33.25700
H  -0.87800 38.11000 30.20600
H  -0.68700 37.67100 23.76900
H  -4.27100 32.39200 23.98400
H  -3.74600 34.84000 32.11900
H  -1.03400 36.35300 31.87400
H  -3.25500 38.06000 31.36500
H  -2.00300 38.16700 32.52200
H  -3.47900 37.26700 32.98900
H  -1.04800 34.18500 32.90800
H  -1.88500 32.90100 31.97700
H  -3.57200 32.62200 33.50300
H  -3.43900 34.22200 34.17800
H  0.84800 39.32400 29.72700
H  0.50700 40.44200 28.50400
H  2.00400 39.55200 28.41300
H  3.01400 39.88200 25.94300
H  1.75800 41.12200 26.37900
H  2.40500 40.88900 24.74400
H  -0.99600 35.34800 22.36300
H  -3.79000 34.65500 22.22900
H  -2.75100 37.57500 22.25000
H  -3.36700 36.32800 21.07700
H  -1.72700 36.87500 20.92100
H  -1.81400 33.44100 20.92000
H  -3.38200 32.87100 21.42100
H  -0.90300 31.79000 21.68600
H  -2.36800 31.21600 22.58500
H  -1.15200 32.26200 23.32500
H  -6.41300 31.33300 24.94900
H  -6.49100 30.34500 26.31200
H  -5.15900 30.02700 25.35900
H  -3.58700 31.59700 30.90100
H  -7.62400 32.45400 32.90900
H  -6.38200 33.08000 33.77900
H  -6.67200 31.38600 34.02600

