158

Mg 47.72400 45.95700 43.55300
C  44.47500 46.34500 42.47500
C  47.67200 42.69300 42.35300
C  50.96300 45.63300 44.24000
C  47.72800 49.16000 44.82700
N  46.28300 44.75100 42.25400
C  45.00400 45.14000 41.99100
C  44.17900 43.96600 41.42000
C  45.13100 42.72500 41.49900
C  46.40900 43.36300 42.10500
C  44.61500 41.47900 42.34100
C  43.55600 44.31500 39.98100
C  42.27600 43.64200 39.59100
H  42.53100 42.58000 38.49800
N  49.13500 44.32200 43.46000
C  48.93100 43.11000 42.89600
C  50.15100 42.26500 43.03600
C  51.14300 43.08600 43.63400
C  50.41200 44.42300 43.83300
C  50.18100 40.84000 42.68100
C  52.52500 42.67100 43.91600
O  52.85000 41.59200 43.54700
C  53.53800 43.71500 44.46000
N  49.17100 47.29500 44.22900
C  50.43700 46.91000 44.49700
C  51.28400 48.10300 45.10200
C  50.26900 49.28200 45.17300
C  48.96400 48.57100 44.75400
C  51.91500 47.83300 46.43800
C  50.67200 50.47200 44.20200
C  51.31200 51.70300 44.88700
N  46.40600 47.49400 43.54400
C  46.55000 48.71300 44.26100
C  45.27500 49.37100 44.27100
C  44.44500 48.47800 43.65900
C  45.15800 47.36400 43.19900
C  45.02000 50.85800 44.83900
C  43.06900 48.27400 43.25200
O  42.05300 48.97000 43.25100
C  43.11300 46.91500 42.39900
C  42.04500 45.98100 42.75200
O  41.06200 45.76200 42.06700
O  42.20300 45.46200 44.03900
C  41.21800 44.49100 44.43700
H  47.63200 41.67500 41.96200
H  52.02900 45.67900 44.47400
H  47.61300 50.09900 45.37300
H  43.42700 43.61900 42.12900
H  45.39100 42.32800 40.51800
H  45.41000 41.02500 42.93300
H  44.13700 40.79900 41.63600
H  43.79500 41.71500 43.02000
H  44.30300 44.01400 39.24700
H  43.33200 45.38100 39.94300
H  41.52000 44.32900 39.21100
H  41.92900 43.10700 40.47500
H  50.05400 40.61900 41.62100
H  49.30100 40.36900 43.11900
H  50.99900 40.23300 43.07100
H  53.64500 44.46900 43.68000
H  54.49000 43.27400 44.75400
H  53.05100 44.09900 45.35700
H  52.05700 48.20700 44.34100
H  50.03900 49.58200 46.19500
H  53.00500 47.81500 46.45300
H  51.41400 46.94500 46.82600
H  51.64800 48.62100 47.14300
H  49.77500 50.60800 43.59600
H  51.42800 50.09800 43.51200
H  52.26900 51.95600 44.43100
H  51.55200 51.33200 45.88300
H  50.56700 52.49400 44.79200
H  44.00300 51.11600 45.13400
H  45.28500 51.59200 44.07800
H  45.57800 50.97600 45.76800
H  42.88200 47.34600 41.42500
H  41.57700 43.51900 44.09900
H  40.25000 44.55800 43.94000
H  41.08100 44.56600 45.51500
Mg -8.35300 40.50200 42.54100
C  -7.42900 37.36100 41.35300
C  -5.79200 41.89300 40.87300
C  -9.99400 43.51600 42.73000
C  -11.27200 38.99000 43.71700
N  -6.90600 39.70400 41.24600
C  -6.56900 38.40300 40.92100
C  -5.22100 38.17800 40.27600
C  -4.57400 39.62100 40.44300
C  -5.84300 40.49700 40.88700
C  -3.47400 39.66400 41.57000
C  -5.29500 37.67000 38.77500
C  -4.48500 36.35100 38.61300
H  -3.23100 36.45500 37.68800
N  -7.83600 42.51500 42.14400
C  -6.71800 42.86700 41.41800
C  -6.55100 44.32300 41.46700
C  -7.77900 44.88600 42.02600
C  -8.62600 43.65000 42.27900
C  -5.25100 44.84100 40.97300
C  -8.10300 46.30100 42.29500
O  -7.32400 47.16200 41.89200
C  -9.33200 46.69300 42.98400
N  -10.44100 41.17200 43.00600
C  -10.76900 42.49200 43.14000
C  -12.20500 42.62000 43.68900
C  -12.48000 41.18100 44.17900
C  -11.40900 40.38900 43.49600
C  -12.40200 43.70400 44.79800
C  -13.91800 40.71400 44.08200
C  -14.25900 39.80100 42.86900
N  -9.24000 38.57500 42.61000
C  -10.40100 38.13000 43.12400
C  -10.40600 36.68200 43.05600
C  -9.26100 36.33100 42.40900
C  -8.60900 37.55600 42.09600
C  -11.45900 35.78400 43.68800
C  -8.41800 35.19900 41.89000
O  -8.57600 34.00700 41.96500
C  -7.22100 35.85700 41.12500
C  -5.96900 35.38500 41.83800
O  -5.56500 35.75200 42.89600
O  -5.40500 34.38600 41.09800
C  -4.10200 33.94800 41.56200
H  -4.85200 42.16600 40.38900
H  -10.54600 44.45600 42.80100
H  -12.03000 38.50600 44.33700
H  -4.69100 37.50200 40.94700
H  -4.16400 40.01400 39.51200
H  -3.85900 39.98900 42.53700
H  -2.74200 40.38400 41.20500
H  -3.07400 38.66800 41.75700
H  -4.85600 38.37300 38.06700
H  -6.32600 37.56200 38.43900
H  -5.23000 35.63500 38.26600
H  -4.12300 36.02100 39.58700
H  -5.22700 44.51900 39.93200
H  -4.35400 44.40600 41.41200
H  -5.16900 45.92800 40.98600
H  -9.09100 47.67400 43.39300
H  -9.51500 46.08600 43.87100
H  -10.13600 46.68100 42.24800
H  -12.88600 42.84400 42.86800
H  -12.35900 41.20300 45.26200
H  -12.67800 43.33700 45.78600
H  -13.28300 44.26100 44.48000
H  -11.48500 44.29200 44.82300
H  -14.57000 41.58600 44.03500
H  -14.27000 40.13600 44.93700
H  -14.43000 38.78300 43.22100
H  -13.41700 39.93000 42.18900
H  -15.16800 40.18700 42.40700
H  -12.29600 35.68400 42.99700
H  -11.65600 36.15300 44.69500
H  -11.08400 34.76500 43.78700
H  -7.30200 35.62400 40.06300
H  -3.44200 34.72800 41.94200
H  -3.53800 33.33500 40.85900
H  -4.24700 33.31200 42.43500

