158

Mg 30.61100 58.15400 40.10000
C  28.07900 56.17400 38.70000
C  32.76300 55.84300 39.01100
C  33.07300 60.47200 40.61800
C  28.21400 60.73500 40.43700
N  30.40100 56.30500 38.82800
C  29.27200 55.56600 38.62400
C  29.60700 54.16800 38.12800
C  31.05700 53.97100 38.73300
C  31.44900 55.45300 38.86100
C  31.10700 53.19700 40.14100
C  29.63700 54.11100 36.51200
C  28.44800 53.37600 35.83900
H  27.59600 54.18700 34.83700
N  32.62000 58.16200 39.86200
C  33.30600 57.07700 39.28900
C  34.70700 57.38300 39.38800
C  34.88400 58.70000 39.88900
C  33.51000 59.22200 40.11400
C  35.77500 56.42800 38.87200
C  36.21200 59.42700 40.19100
O  37.25800 58.83800 39.96300
C  36.31100 60.80400 40.73800
N  30.64800 60.32400 40.61200
C  31.78400 60.93800 40.92600
C  31.50800 62.41100 41.32600
C  29.96800 62.40000 41.45700
C  29.58100 61.12000 40.69900
C  32.20300 62.89900 42.56000
C  29.17200 63.64100 40.92800
C  28.67700 64.59300 41.90100
N  28.52400 58.41300 39.83000
C  27.72400 59.56300 39.97100
C  26.38200 59.17900 39.53900
C  26.49600 57.87500 39.00000
C  27.82400 57.48200 39.16200
C  25.11800 59.96400 39.57800
C  25.71300 56.75500 38.42500
O  24.51700 56.62800 38.23000
C  26.69000 55.65500 38.21600
C  26.24900 54.45600 38.88000
O  26.81600 53.93400 39.82200
O  25.11900 53.90900 38.32900
C  24.40300 52.78200 38.90900
H  33.45000 55.02100 38.80000
H  33.82900 61.25000 40.74300
H  27.49600 61.52000 40.68300
H  28.98500 53.36300 38.52000
H  31.75100 53.56100 38.00000
H  31.59500 52.22600 40.05300
H  30.09200 52.82500 40.28500
H  31.43300 53.76400 41.01300
H  30.50100 53.50800 36.23300
H  29.69600 55.14700 36.17800
H  27.84000 52.96800 36.64700
H  28.80200 52.44000 35.40600
H  35.39200 55.62300 38.24500
H  36.20200 55.89400 39.72100
H  36.57900 56.93700 38.34100
H  37.33300 61.04300 41.03100
H  35.71300 60.92900 41.64100
H  36.05200 61.59100 40.03000
H  31.82000 62.95300 40.43400
H  29.55900 62.08800 42.41800
H  32.74500 63.79500 42.25600
H  32.82600 62.12900 43.01500
H  31.47900 63.19600 43.31800
H  28.24000 63.41200 40.41100
H  29.77600 64.22500 40.23300
H  28.68500 65.59700 41.47400
H  29.18600 64.55600 42.86400
H  27.62000 64.44800 42.12400
H  25.45000 60.92900 39.19600
H  24.77200 60.10800 40.60100
H  24.38900 59.55800 38.87700
H  26.72200 55.40300 37.15600
H  23.40500 53.12400 39.18100
H  24.88800 52.52000 39.84900
H  24.53000 51.91200 38.26500
Mg 37.01400 49.76400 24.96800
C  36.95000 48.02800 27.88000
C  35.69300 52.55100 26.43400
C  36.50300 51.18200 21.92700
C  38.05800 46.83100 23.28700
N  36.25400 50.16500 26.86500
C  36.52500 49.33200 28.04500
C  36.29700 50.07800 29.36500
C  35.64900 51.50600 28.80600
C  35.79900 51.45000 27.23200
C  34.23800 51.86400 29.37900
C  37.61600 50.19700 30.12200
C  37.52100 49.70200 31.62700
H  36.33600 49.99600 32.55000
N  36.49100 51.69500 24.27300
C  35.96000 52.66700 25.07600
C  35.61400 53.83400 24.29300
C  35.97600 53.53000 22.90300
C  36.31400 52.09200 22.99100
C  34.85300 55.06200 24.82300
C  36.10200 54.37900 21.66600
O  36.41000 53.86800 20.56200
C  35.73600 55.76400 21.67500
N  37.12800 49.02200 22.86200
C  36.94900 49.83400 21.80700
C  37.42500 49.23600 20.47700
C  38.26500 48.06100 20.99100
C  37.86100 47.96000 22.51100
C  36.26800 48.88100 19.48100
C  39.74900 48.38200 20.88800
C  40.76800 47.31700 20.88400
N  37.24600 47.73400 25.38500
C  37.69900 46.68800 24.56500
C  37.88500 45.55400 25.46700
C  37.59000 46.02700 26.79700
C  37.29100 47.38000 26.65700
C  38.50900 44.24300 25.05200
C  37.54900 45.58400 28.18700
O  37.88900 44.54500 28.71000
C  37.14000 46.90300 28.95900
C  35.95400 46.46300 29.65100
O  34.74000 46.37700 29.29000
O  36.30300 46.31700 30.95000
C  35.19400 45.97300 31.87000
H  35.21700 53.37000 26.97800
H  36.43400 51.70200 20.96900
H  38.57300 45.96600 22.86300
H  35.62800 49.44700 29.95100
H  36.31700 52.28200 29.18000
H  34.23400 52.76700 29.99000
H  33.86900 51.08100 30.04100
H  33.49700 52.08900 28.61200
H  38.03700 51.20200 30.15200
H  38.36900 49.62000 29.58500
H  38.45600 50.02600 32.08400
H  37.58100 48.61400 31.59800
H  35.57500 55.85900 25.00200
H  34.39500 54.89500 25.79800
H  34.12000 55.42600 24.10400
H  35.96200 56.35700 20.78900
H  36.30500 56.23800 22.47600
H  34.68200 55.88200 21.92700
H  38.08500 50.00800 20.08100
H  38.02300 47.10700 20.52200
H  35.95400 47.85100 19.65200
H  36.62300 48.98800 18.45600
H  35.43100 49.57100 19.58900
H  39.89500 48.99200 21.77900
H  39.90900 49.12500 20.10700
H  41.65100 47.63100 21.44100
H  41.03600 47.25400 19.82900
H  40.42300 46.31800 21.15000
H  38.98000 43.70600 25.87500
H  39.30000 44.24800 24.30100
H  37.66900 43.64800 24.69500
H  37.88200 47.21100 29.69600
H  34.92600 44.91700 31.91000
H  34.38900 46.67100 31.64200
H  35.41800 46.20300 32.91100

