158

Mg 0.08000 43.63700 25.60800
C  2.00900 43.92600 28.33500
C  -2.78500 43.43000 27.54000
C  -1.66200 42.78000 22.83400
C  3.03100 43.98100 23.65600
N  -0.38700 43.79800 27.68800
C  0.58800 43.88300 28.65800
C  0.01800 43.94700 30.07800
C  -1.48800 43.62000 29.79700
C  -1.59200 43.66400 28.23700
C  -2.12000 42.39200 30.44200
C  0.28400 45.34500 30.76300
C  0.84000 45.31400 32.20300
H  0.44000 44.15600 33.17600
N  -1.94400 43.18600 25.21100
C  -2.99900 43.14100 26.16400
C  -4.23100 42.64900 25.52100
C  -3.88600 42.48900 24.14100
C  -2.44100 42.70300 24.01600
C  -5.49100 42.46600 26.35100
C  -4.83300 42.02500 22.96100
O  -4.43600 41.88700 21.76400
C  -6.21000 41.84200 23.15700
N  0.62100 43.43300 23.52800
C  -0.29900 43.18200 22.58500
C  0.41500 43.11000 21.20000
C  1.68900 44.00200 21.40300
C  1.80500 43.83000 22.92600
C  0.56500 41.67900 20.71600
C  1.60400 45.47600 20.80300
C  1.47000 46.77700 21.69700
N  2.11300 43.93800 25.88000
C  3.15300 44.01000 25.01800
C  4.43300 44.12600 25.77300
C  4.03600 44.08500 27.13200
C  2.63800 44.03500 27.07800
C  5.87700 44.18200 25.28400
C  4.46900 44.04000 28.51800
O  5.55600 43.99300 29.07200
C  3.11100 43.93600 29.40700
C  3.11000 42.65300 30.29300
O  3.12900 41.45100 29.96500
O  3.50500 43.11400 31.52400
C  3.83800 42.12800 32.50600
H  -3.70200 43.37700 28.13100
H  -2.16500 42.52900 21.89800
H  3.95300 44.16100 23.09800
H  0.42100 43.09300 30.62400
H  -2.02600 44.48700 30.18100
H  -2.19900 41.67700 29.62300
H  -3.10500 42.76300 30.72400
H  -1.56700 41.90500 31.24400
H  -0.59000 45.98700 30.66000
H  0.90500 45.96600 30.11800
H  0.60200 46.26500 32.68000
H  1.90900 45.17400 32.04300
H  -5.36200 41.54500 26.92100
H  -6.39000 42.41800 25.73600
H  -5.70300 43.14800 27.17400
H  -6.68300 41.56900 22.21300
H  -6.65800 42.78600 23.46700
H  -6.29800 41.00300 23.84700
H  -0.20100 43.56700 20.42500
H  2.55200 43.48100 20.98800
H  0.26700 40.93500 21.45500
H  1.54700 41.41300 20.32500
H  -0.19700 41.47400 19.96400
H  0.80200 45.49600 20.06600
H  2.54300 45.55500 20.25500
H  1.80900 46.55700 22.70900
H  0.42500 47.08300 21.74600
H  2.16300 47.49000 21.25200
H  6.06500 43.27300 24.71300
H  6.60300 44.34200 26.08100
H  6.11000 45.01400 24.61900
H  3.04100 44.82300 30.03600
H  3.44000 41.12400 32.35600
H  3.54100 42.57000 33.45700
H  4.92400 42.17400 32.57600
Mg -6.19500 25.68500 26.23400
C  -4.77700 27.26300 29.11400
C  -8.02900 23.74400 28.47200
C  -7.20600 23.95100 23.62300
C  -4.20000 27.75900 24.24200
N  -6.40600 25.58400 28.51000
C  -5.73600 26.28700 29.45600
C  -6.29100 25.98700 30.86600
C  -7.07000 24.68100 30.64900
C  -7.15300 24.64600 29.11400
C  -6.56900 23.46200 31.43900
C  -7.10600 27.13900 31.44800
C  -6.98000 27.34200 32.95000
H  -6.37300 26.24600 33.88500
N  -7.49500 24.07000 26.11000
C  -8.15000 23.38700 27.08900
C  -8.95200 22.39500 26.50200
C  -8.64900 22.35800 25.12200
C  -7.66800 23.46500 24.86700
C  -9.90500 21.49200 27.32100
C  -9.15400 21.40200 24.10300
O  -8.80600 21.32300 22.93900
C  -10.14400 20.26000 24.47300
N  -5.58000 25.71100 24.22800
C  -6.26400 24.96400 23.31800
C  -5.67100 25.25200 21.96000
C  -4.99300 26.69300 22.12900
C  -4.97100 26.78300 23.64100
C  -4.69900 24.11600 21.52300
C  -5.77700 27.78400 21.51600
C  -5.62600 27.98500 19.98100
N  -4.87600 27.26400 26.49000
C  -4.10100 27.98600 25.66500
C  -3.43500 29.04900 26.37900
C  -3.67300 28.82900 27.73200
C  -4.44500 27.67200 27.77700
C  -2.53300 30.10600 25.73500
C  -3.33700 29.16000 29.12000
O  -2.52200 30.05900 29.39500
C  -4.08700 28.15800 30.10400
C  -2.89000 27.45700 30.76000
O  -2.03800 26.82200 30.17600
O  -3.02100 27.78600 32.11900
C  -2.12500 27.07200 33.00700
H  -8.51600 23.02100 29.12900
H  -7.55600 23.38500 22.75700
H  -3.61400 28.39600 23.57600
H  -5.41700 25.88500 31.51000
H  -8.11500 24.77800 30.94300
H  -6.08600 22.70800 30.81800
H  -7.42400 22.92700 31.85100
H  -5.94500 23.75600 32.28300
H  -8.17400 26.97500 31.31000
H  -6.87300 28.04700 30.89100
H  -7.99200 27.47600 33.33200
H  -6.51700 28.28900 33.22700
H  -10.85400 21.39000 26.79500
H  -10.05700 21.85900 28.33600
H  -9.40900 20.52200 27.35900
H  -9.88500 19.58800 25.29000
H  -10.60200 19.82000 23.58800
H  -10.85000 20.97900 24.89000
H  -6.45400 25.36800 21.21000
H  -3.95400 26.64800 21.80200
H  -4.97600 23.90200 20.49000
H  -4.78800 23.30200 22.24300
H  -3.65600 24.43100 21.50900
H  -5.35200 28.70800 21.90800
H  -6.83600 27.68900 21.75300
H  -6.54800 28.50000 19.71200
H  -5.62100 27.11800 19.32100
H  -4.85500 28.68800 19.66500
H  -2.39800 29.88900 24.67600
H  -1.61900 30.04800 26.32600
H  -3.04900 31.04900 25.91600
H  -4.75400 28.61900 30.83200
H  -1.09500 27.08300 32.64800
H  -2.40300 26.04500 33.24600
H  -2.13800 27.62200 33.94700

