158

Mg 17.26900 -2.44200 27.37700
C  15.93200 -0.33200 29.84900
C  18.84100 -4.17900 29.83400
C  18.72400 -4.10700 24.98400
C  15.62900 -0.45200 24.95700
N  17.42500 -2.19200 29.56000
C  16.70400 -1.37100 30.36600
C  16.96200 -1.61500 31.78400
C  17.88400 -2.86000 31.78400
C  18.08500 -3.10300 30.28500
C  19.24400 -2.79400 32.56600
C  15.61200 -1.71400 32.57800
C  15.74100 -1.15700 34.01000
H  16.99400 -0.62600 34.66200
N  18.54200 -4.05400 27.39000
C  19.07200 -4.59300 28.53000
C  19.90500 -5.71000 28.11900
C  19.88800 -5.72200 26.70800
C  19.07600 -4.59500 26.27400
C  20.46000 -6.77200 29.00700
C  20.50700 -6.71400 25.74900
O  20.17700 -6.67000 24.59400
C  21.34100 -7.85900 26.20100
N  17.01200 -2.52800 25.28200
C  17.85900 -3.20100 24.53400
C  17.87600 -2.80500 23.03100
C  16.70200 -1.71100 23.00900
C  16.32700 -1.58600 24.49200
C  19.25400 -2.26600 22.48300
C  15.51900 -1.94200 21.97600
C  15.10300 -0.74500 21.08900
N  16.03900 -0.70300 27.33000
C  15.35100 -0.14400 26.28500
C  14.54300 0.94600 26.77800
C  14.80500 0.98800 28.13300
C  15.71700 -0.05800 28.42600
C  13.72800 1.82500 25.88100
C  14.44200 1.68900 29.37700
O  13.74800 2.62400 29.63400
C  15.17500 0.84700 30.49400
C  16.08500 1.81800 31.32000
O  17.26000 2.01400 30.96100
O  15.46500 2.45000 32.33900
C  16.10600 3.60300 32.99900
H  19.32700 -4.69700 30.66300
H  19.31500 -4.56600 24.18900
H  15.22300 0.26500 24.24000
H  17.53700 -0.77700 32.17900
H  17.26800 -3.67700 32.16100
H  19.20400 -2.10800 33.41200
H  20.12700 -2.51400 31.99200
H  19.32800 -3.79300 32.99200
H  15.38500 -2.75900 32.79000
H  14.73200 -1.34600 32.05100
H  15.29600 -1.92300 34.64400
H  15.11000 -0.27400 34.11000
H  21.47100 -7.10400 28.77100
H  19.82800 -7.65800 28.95500
H  20.38300 -6.51600 30.06400
H  20.77000 -8.45900 26.91000
H  22.22000 -7.41300 26.66600
H  21.62900 -8.50700 25.37400
H  17.57100 -3.69300 22.47700
H  17.19000 -0.75100 22.84100
H  20.01000 -2.18000 23.26300
H  19.12600 -1.31200 21.97100
H  19.51700 -3.00900 21.73100
H  14.60000 -2.09000 22.54300
H  15.78000 -2.78900 21.34200
H  14.42700 -1.26400 20.40900
H  15.89400 -0.40300 20.42100
H  14.73200 0.08700 21.68800
H  14.30900 2.11500 25.00500
H  13.38900 2.66400 26.48900
H  12.92200 1.22700 25.45600
H  14.33000 0.56900 31.12300
H  16.71500 3.15400 33.78300
H  15.33800 4.18000 33.51500
H  16.68900 4.30900 32.40800
Mg 0.83200 42.64900 25.38600
C  2.90200 42.09800 28.12100
C  -1.88700 41.70400 27.23300
C  -1.14600 42.93300 22.52900
C  3.61000 43.27200 23.29600
N  0.58200 41.81700 27.43700
C  1.50300 41.92200 28.37200
C  0.82700 41.83800 29.77000
C  -0.63400 41.33600 29.44000
C  -0.68400 41.69100 27.97000
C  -1.04600 39.90700 30.02500
C  0.89900 43.15400 30.45200
C  1.59800 43.11800 31.78500
H  1.34300 41.99600 32.74500
N  -1.18700 42.36800 24.97500
C  -2.19500 42.07600 25.88700
C  -3.48700 42.04900 25.24500
C  -3.27100 42.55400 23.91700
C  -1.81400 42.68300 23.74200
C  -4.70500 41.48600 25.91400
C  -4.36700 42.88100 22.80600
O  -4.20000 43.48300 21.75300
C  -5.86600 42.64100 23.05900
N  1.25000 42.79700 23.09200
C  0.19000 42.99100 22.29300
C  0.72600 43.38000 20.94800
C  2.21200 43.80000 21.21700
C  2.41300 43.23000 22.65300
C  0.42500 42.19400 19.98500
C  2.54700 45.27500 21.03400
C  2.97800 45.64400 19.55900
N  2.91100 42.73600 25.57600
C  3.90500 42.95800 24.65500
C  5.21800 42.82700 25.34100
C  4.87400 42.57500 26.70900
C  3.43700 42.43200 26.78600
C  6.67200 43.25600 24.84800
C  5.38200 42.42500 28.03600
O  6.59300 42.41200 28.35900
C  4.09200 42.27200 29.05000
C  4.38700 41.06100 29.91500
O  4.36700 39.86400 29.56700
O  4.73300 41.48000 31.18600
C  4.95600 40.33000 32.15300
H  -2.76700 41.58500 27.86800
H  -1.86700 43.15600 21.74000
H  4.39800 43.81200 22.76600
H  1.38500 41.09500 30.33900
H  -1.43700 41.90800 29.90500
H  -1.47000 39.32600 29.20600
H  -1.83200 40.21200 30.71500
H  -0.29300 39.35000 30.58200
H  -0.10100 43.56600 30.58700
H  1.52900 43.89600 29.96100
H  1.19800 43.92700 32.39600
H  2.63500 43.38900 31.59100
H  -4.39000 41.12500 26.89300
H  -5.05600 40.69500 25.25100
H  -5.51400 42.21600 25.94900
H  -6.44300 42.91200 22.17400
H  -6.21900 43.34100 23.81600
H  -5.89000 41.57200 23.26800
H  0.14000 44.20200 20.53900
H  2.90900 43.17400 20.65900
H  1.39700 41.74700 19.77700
H  0.01600 42.72200 19.12400
H  -0.28700 41.46300 20.37000
H  3.39100 45.52900 21.67600
H  1.72000 45.95000 21.25300
H  3.97500 46.08300 19.54200
H  2.28500 46.28700 19.01500
H  3.06400 44.74100 18.95500
H  7.39300 43.74200 25.50500
H  6.52200 43.85900 23.95300
H  7.08300 42.31100 24.49200
H  3.99900 43.15500 29.68200
H  5.39100 40.61700 33.11000
H  5.68600 39.70000 31.64400
H  4.07800 39.73300 32.40000

