158

Mg 46.88400 25.79400 28.38500
C  47.68100 28.03700 30.90800
C  45.71500 23.57800 30.83900
C  46.45400 23.51600 26.02300
C  48.60600 27.90200 26.19200
N  46.69300 25.87800 30.58900
C  47.04000 26.90300 31.40200
C  46.74700 26.62900 32.89000
C  46.19600 25.17400 32.81600
C  46.19600 24.82200 31.29300
C  47.05000 24.16100 33.67100
C  45.82700 27.66800 33.61400
C  46.43100 28.48500 34.87900
H  45.42900 28.79700 36.02500
N  45.86300 23.99200 28.34800
C  45.46100 23.24100 29.45200
C  44.71200 22.13900 28.94300
C  44.99100 22.03700 27.53000
C  45.88100 23.18000 27.27200
C  43.99500 21.20200 29.86700
C  44.72300 20.95400 26.50800
O  45.21500 20.89600 25.37400
C  43.86200 19.79400 27.03700
N  47.50000 25.65600 26.42400
C  47.16400 24.63300 25.60900
C  47.40400 24.95900 24.13500
C  48.25200 26.29800 24.22700
C  48.15600 26.63100 25.70600
C  48.11900 23.75000 23.40300
C  47.64800 27.37600 23.33200
C  48.56300 28.25400 22.47700
N  47.97400 27.57700 28.47100
C  48.47400 28.38700 27.43600
C  48.86800 29.67600 28.00400
C  48.70300 29.50100 29.33900
C  48.05500 28.25700 29.58100
C  49.50300 30.80400 27.35200
C  48.86900 30.14400 30.59600
O  49.33200 31.19900 30.85900
C  48.20600 29.17000 31.63100
C  49.25100 28.76100 32.51400
O  49.99000 27.79700 32.37500
O  49.33600 29.68600 33.57100
C  50.30300 29.37800 34.58700
H  45.42300 22.95200 31.68500
H  46.11800 22.89700 25.18900
H  49.00900 28.62400 25.47900
H  47.73600 26.74300 33.33300
H  45.14600 25.19100 33.11000
H  46.40600 23.50000 34.25100
H  47.63600 24.78200 34.34900
H  47.70200 23.52000 33.07900
H  45.00500 27.14800 34.10700
H  45.36500 28.26400 32.82600
H  46.74100 29.43200 34.43800
H  47.30900 27.95000 35.24200
H  42.91600 21.29200 29.74400
H  44.29900 21.43900 30.88600
H  44.30200 20.16800 29.71000
H  44.46500 19.07700 27.59400
H  43.50100 19.20100 26.19600
H  42.95600 20.14400 27.53100
H  46.43200 25.18700 23.69700
H  49.29800 26.22000 23.93000
H  47.40400 23.11300 22.88200
H  48.69000 23.18600 24.14000
H  48.86100 24.16400 22.72000
H  47.14600 28.10400 23.97100
H  47.00800 26.89800 22.59100
H  49.57800 27.85600 22.48700
H  48.48400 29.28400 22.82400
H  48.20300 28.13700 21.45500
H  49.20300 31.01200 26.32500
H  50.49700 30.35700 27.34400
H  49.47300 31.65800 28.02900
H  47.43500 29.76500 32.12100
H  50.72700 30.23300 35.11300
H  51.16800 28.95900 34.07300
H  49.96000 28.58700 35.25500
Mg 1.62600 42.04200 26.01900
C  3.19000 42.26300 29.14500
C  -0.99300 40.73700 27.48500
C  0.68700 41.27400 22.96900
C  4.80400 43.11300 24.66300
N  1.17100 41.74200 28.13900
C  1.89500 41.94000 29.26900
C  1.05300 41.64300 30.56400
C  -0.36600 41.37000 29.87100
C  -0.05400 41.23800 28.42900
C  -1.18100 40.25600 30.52900
C  1.13000 42.83100 31.48100
C  -0.07600 43.28100 32.41600
H  -0.38900 42.55300 33.71400
N  0.03700 41.11200 25.35600
C  -0.95200 40.67800 26.12400
C  -1.88700 39.97900 25.34600
C  -1.39600 40.16600 23.94500
C  -0.17500 40.90900 24.04700
C  -3.09800 39.28000 25.82300
C  -2.00000 39.61200 22.69200
O  -1.50500 39.85600 21.57900
C  -3.28400 38.76800 22.70200
N  2.59700 42.22800 24.14200
C  1.93100 41.89100 22.99700
C  2.73900 42.26800 21.71400
C  3.83600 43.17500 22.34200
C  3.80600 42.72100 23.77500
C  3.29300 41.05300 20.98300
C  3.69200 44.73300 22.26300
C  4.25600 45.29300 20.97900
N  3.54500 42.57700 26.66500
C  4.75900 42.98000 26.04000
C  5.83500 43.14600 26.97600
C  5.25100 42.84500 28.21200
C  3.89800 42.48500 27.97800
C  7.26500 43.52500 26.68300
C  5.54300 42.70000 29.58100
O  6.62900 42.88400 30.20400
C  4.22500 42.40600 30.25800
C  4.37600 41.11900 31.00100
O  4.32400 40.02100 30.48800
O  4.24500 41.23100 32.32900
C  4.29800 39.99800 33.21500
H  -1.86400 40.24600 27.92400
H  0.44100 41.22300 21.90600
H  5.75200 43.40900 24.20900
H  1.39500 40.77900 31.13400
H  -0.96400 42.26400 30.05100
H  -0.70200 40.00400 31.47500
H  -1.32300 39.39400 29.87700
H  -2.19300 40.62500 30.69800
H  1.50800 43.75400 31.04200
H  1.84200 42.57900 32.26700
H  -1.00600 43.40900 31.86100
H  0.09000 44.28100 32.81700
H  -3.94500 39.76000 25.33100
H  -3.35100 39.45000 26.86900
H  -3.04900 38.20500 25.65300
H  -3.22700 37.84300 23.27500
H  -3.45600 38.34200 21.71400
H  -4.15700 39.28200 23.10500
H  2.09500 42.79100 21.00600
H  4.85000 42.92700 22.02900
H  2.71000 40.22900 21.39500
H  4.35800 40.85600 21.10300
H  2.98700 41.19600 19.94700
H  4.34200 45.01000 23.09300
H  2.66900 45.08300 22.40000
H  5.09300 45.95200 21.21000
H  3.45900 45.89900 20.55000
H  4.63100 44.47200 20.36700
H  7.28100 44.03500 25.72000
H  7.77400 42.56100 26.67500
H  7.53900 44.13300 27.54500
H  4.02400 43.23400 30.93800
H  3.58500 39.28100 32.80900
H  4.19100 40.19300 34.28200
H  5.25100 39.48500 33.08200

