158

Mg 17.49700 -1.33200 28.47300
C  16.59400 0.81800 31.24800
C  19.81700 -2.86200 30.52100
C  18.83800 -2.87400 25.81600
C  16.03800 1.11300 26.45300
N  18.16000 -1.01600 30.60100
C  17.44400 -0.27600 31.56600
C  18.00600 -0.60700 32.96900
C  19.13800 -1.62300 32.66500
C  19.04800 -1.93700 31.20600
C  20.54800 -1.15800 33.19600
C  16.94200 -1.19600 33.94000
C  16.82700 -0.55300 35.29200
H  17.94700 0.07100 36.00600
N  18.91900 -2.82400 28.23900
C  19.71400 -3.31800 29.21000
C  20.51000 -4.35200 28.61600
C  20.21200 -4.47200 27.25800
C  19.28700 -3.36600 27.06700
C  21.58600 -5.06900 29.42100
C  20.65000 -5.46000 26.26500
O  20.32900 -5.36300 25.12800
C  21.55900 -6.66300 26.59700
N  17.35900 -0.93900 26.39900
C  17.97200 -1.79400 25.48100
C  17.66600 -1.25200 24.02700
C  16.67300 -0.06100 24.32300
C  16.66300 0.06900 25.81300
C  18.99100 -0.70300 23.34000
C  15.26100 -0.16100 23.58000
C  14.16900 -1.05000 24.22200
N  16.43900 0.63600 28.73900
C  15.90200 1.42500 27.79500
C  15.16600 2.52800 28.46700
C  15.35800 2.22300 29.81500
C  16.22800 1.15800 29.88700
C  14.20400 3.43700 27.75900
C  14.92900 2.50200 31.22000
O  13.97800 3.18400 31.59600
C  15.85400 1.71900 32.16400
C  16.68000 2.70700 32.75500
O  17.48700 3.36600 32.17200
O  16.33700 2.82400 34.11000
C  16.99400 3.88900 34.88900
H  20.49500 -3.45300 31.14100
H  19.33000 -3.36000 24.97100
H  15.40400 1.65200 25.74600
H  18.52100 0.21600 33.46600
H  19.05500 -2.53400 33.25800
H  20.43000 -0.25800 33.80000
H  21.15400 -0.99700 32.30400
H  20.90900 -1.96800 33.82800
H  17.20200 -2.25100 34.03000
H  15.95300 -1.25000 33.48500
H  16.38000 -1.21900 36.03000
H  16.05900 0.21400 35.19800
H  22.32500 -5.60200 28.82200
H  21.22300 -5.82700 30.11600
H  22.10400 -4.31400 30.01200
H  21.16200 -7.46300 25.97200
H  21.33100 -7.00300 27.60700
H  22.63600 -6.50300 26.55100
H  17.23800 -1.95500 23.31200
H  17.17200 0.77700 23.83700
H  19.71400 -0.48600 24.12600
H  18.91900 0.35700 23.10000
H  19.27400 -1.36000 22.51700
H  15.48900 -0.51500 22.57400
H  14.86600 0.84700 23.45600
H  13.36500 -0.48800 24.69700
H  14.62100 -1.70700 24.96500
H  13.69600 -1.65300 23.44700
H  13.95000 3.19400 26.72800
H  14.68300 4.40700 27.62300
H  13.33300 3.58900 28.39700
H  15.32100 1.11200 32.89600
H  18.02400 3.65500 35.15900
H  16.35200 4.13200 35.73600
H  17.25100 4.75200 34.27400
Mg 26.23900 1.19300 29.71600
C  28.37600 0.72400 32.65400
C  23.59200 1.43000 31.78500
C  24.28400 1.07800 26.99900
C  29.02100 0.52200 27.67600
N  26.08900 1.08300 31.95700
C  27.05000 1.08900 32.98000
C  26.41600 1.10800 34.32000
C  24.85800 1.14400 34.01700
C  24.81900 1.27200 32.47500
C  24.00700 -0.03800 34.53300
C  27.00100 2.24000 35.19000
C  26.34900 2.60800 36.53200
H  26.94800 2.09700 37.87700
N  24.13400 1.27100 29.45800
C  23.18100 1.41900 30.39800
C  21.87300 1.63000 29.78300
C  22.12100 1.47400 28.36700
C  23.56300 1.25700 28.18700
C  20.72000 1.95300 30.69300
C  21.03400 1.40800 27.32700
O  21.27300 1.15600 26.11800
C  19.55000 1.46700 27.75900
N  26.58900 0.69900 27.66800
C  25.62500 0.95600 26.69000
C  26.20000 0.90300 25.24400
C  27.76600 0.80000 25.52500
C  27.84100 0.70100 27.05800
C  25.61900 -0.28600 24.40500
C  28.62200 2.07700 25.04600
C  27.90700 3.41700 25.24800
N  28.30400 0.74500 30.02800
C  29.25000 0.39700 29.07800
C  30.52900 0.08600 29.76500
C  30.24300 0.24200 31.16100
C  28.87000 0.59400 31.29300
C  31.93300 -0.19300 29.24900
C  30.74500 0.07600 32.50700
O  31.87400 -0.27600 32.80700
C  29.67700 0.50000 33.50800
C  29.51000 -0.61400 34.53600
O  28.75700 -1.56900 34.28400
O  30.31400 -0.52400 35.62900
C  30.04300 -1.54200 36.60500
H  22.75900 1.65000 32.45600
H  23.65400 1.09000 26.10700
H  29.89000 0.16800 27.11800
H  26.69300 0.17400 34.80800
H  24.43800 2.06700 34.41600
H  24.42100 -0.48800 35.43500
H  23.85000 -0.77900 33.74900
H  22.99800 0.23200 34.84500
H  27.15600 3.13300 34.58300
H  28.03100 1.92000 35.34800
H  25.30700 2.29000 36.56500
H  26.29700 3.69100 36.63900
H  20.44400 2.96600 30.39900
H  20.85600 2.01500 31.77300
H  19.86800 1.27600 30.63300
H  18.89700 1.27900 26.90700
H  19.40100 2.39700 28.30800
H  19.32100 0.67700 28.47400
H  25.94300 1.86900 24.80900
H  28.15700 -0.14100 25.13900
H  24.78500 0.12800 23.83800
H  25.21300 -1.03700 25.08300
H  26.44100 -0.57100 23.74800
H  28.80400 2.04400 23.97200
H  29.52600 2.16700 25.64800
H  28.55300 4.05900 25.84700
H  27.05500 3.34700 25.92400
H  27.45600 3.79500 24.33000
H  31.95100 -0.91000 28.42800
H  32.60400 -0.61300 30.00000
H  32.37000 0.72500 28.85700
H  30.09700 1.37600 34.00300
H  30.95000 -1.70300 37.18800
H  29.84100 -2.52600 36.18200
H  29.17700 -1.20200 37.17200

