158

Mg 1.53500 8.68200 27.25900
C  2.20000 10.51100 30.21000
C  1.19100 5.82400 29.07100
C  1.10700 7.10400 24.39900
C  1.75900 11.81900 25.56100
N  1.86100 8.19400 29.38800
C  1.97600 9.11300 30.50000
C  1.85400 8.38400 31.84900
C  1.69800 6.92400 31.38900
C  1.60400 6.90600 29.85500
C  2.87800 5.92200 31.78100
C  0.69600 8.99900 32.75300
C  1.20100 9.27800 34.23700
H  2.15800 8.22200 34.82600
N  1.20800 6.77300 26.80000
C  1.00100 5.68100 27.65400
C  0.60600 4.51800 26.90000
C  0.62000 4.86400 25.55300
C  1.00700 6.30900 25.51300
C  0.35700 3.18500 27.60000
C  0.32100 4.03700 24.27300
O  0.28000 4.52000 23.13200
C  0.13900 2.52600 24.42300
N  1.44900 9.40500 25.36200
C  1.29500 8.50000 24.33300
C  1.21700 9.16500 22.94400
C  1.07100 10.65600 23.35000
C  1.51500 10.64800 24.86500
C  2.52100 8.83600 22.20800
C  -0.30000 11.25700 23.11500
C  -0.46500 12.22300 21.90500
N  1.94000 10.80600 27.74300
C  2.05100 11.93500 26.95900
C  2.31700 13.08100 27.80800
C  2.54500 12.57200 29.04400
C  2.20600 11.19600 28.97700
C  2.38400 14.53700 27.36000
C  2.90400 12.87900 30.39900
O  3.26700 13.97200 30.86300
C  2.56700 11.59400 31.21500
C  3.65100 11.29100 32.17100
O  4.58900 10.51100 31.98300
O  3.34100 11.99900 33.36700
C  4.32000 11.93100 34.46700
H  1.12700 4.94000 29.70900
H  1.06400 6.60900 23.42700
H  1.62200 12.75700 25.01800
H  2.82300 8.41100 32.34700
H  0.74700 6.49300 31.70200
H  3.71500 5.91800 31.08300
H  2.45600 4.91700 31.75000
H  3.22500 6.07700 32.80200
H  -0.07600 8.23100 32.80500
H  0.38900 9.91200 32.24300
H  0.37900 9.35800 34.94800
H  1.78700 10.19100 34.33800
H  0.74600 2.28900 27.11500
H  -0.70600 3.12300 27.83200
H  0.88500 3.16500 28.55300
H  1.17100 2.21100 24.57400
H  -0.25200 2.12400 23.48800
H  -0.66700 2.40700 25.14700
H  0.34100 8.90400 22.35000
H  1.80800 11.19500 22.75400
H  2.30700 8.29400 21.28700
H  3.21800 8.23200 22.78900
H  3.11500 9.73600 22.04500
H  -0.48400 11.85900 24.00500
H  -1.17900 10.61600 23.05600
H  -1.21300 11.89600 21.18300
H  0.43800 12.25400 21.29600
H  -0.72100 13.22000 22.26400
H  1.77300 15.19400 27.97800
H  2.01200 14.52000 26.33500
H  3.36900 14.96800 27.17400
H  1.61900 11.84600 31.68800
H  3.72300 11.75700 35.36200
H  4.86100 12.87700 34.46400
H  4.94100 11.04200 34.35200
Mg 9.11700 47.74900 25.48500
C  6.90400 48.12800 28.12600
C  11.65300 48.57800 27.63400
C  11.24100 47.05100 22.99700
C  6.38300 47.41500 23.28400
N  9.26700 48.10400 27.63800
C  8.23300 48.12100 28.55800
C  8.69800 48.37400 29.97800
C  10.12600 49.00700 29.69100
C  10.41700 48.46000 28.24100
C  10.26800 50.61500 29.87900
C  8.75100 47.12000 30.88500
C  9.06400 47.48800 32.35200
H  9.24600 46.33000 33.33500
N  11.14100 47.77300 25.32700
C  12.02700 48.24600 26.30700
C  13.34300 48.16400 25.79300
C  13.25400 47.53500 24.49400
C  11.83000 47.42300 24.22900
C  14.59500 48.50800 26.58900
C  14.41900 47.21900 23.60400
O  14.31400 46.65400 22.49000
C  15.79700 47.41700 24.04700
N  8.84800 47.36700 23.44800
C  9.87800 46.99400 22.68700
C  9.41300 46.50100 21.30200
C  7.91300 46.51200 21.42800
C  7.67400 47.21400 22.81200
C  9.99700 47.39100 20.17300
C  7.39600 45.06700 21.30800
C  6.01300 44.97500 20.72900
N  7.06900 47.93800 25.54900
C  6.02200 47.81500 24.57900
C  4.76400 48.01200 25.24800
C  5.09000 48.17300 26.57900
C  6.44600 48.06300 26.78400
C  3.38600 47.86800 24.67100
C  4.48400 48.45300 27.85700
O  3.29300 48.58800 28.08600
C  5.63600 48.32600 28.96100
C  5.46500 47.27500 29.85900
O  5.47300 46.05100 29.54800
O  5.26500 47.68700 31.10500
C  5.29800 46.71900 32.19700
H  12.40700 49.00900 28.29500
H  11.90400 46.62100 22.24200
H  5.53900 47.28200 22.60400
H  8.06200 49.10400 30.47900
H  10.93300 48.59800 30.30000
H  9.26500 51.00700 30.05300
H  10.67600 51.17000 29.03400
H  10.98500 50.85800 30.66300
H  9.54700 46.47800 30.50800
H  7.87400 46.48900 30.74200
H  8.18400 48.06600 32.63500
H  9.92600 48.14900 32.44100
H  14.38700 48.79900 27.61800
H  15.09800 49.38500 26.18300
H  15.32200 47.69900 26.67300
H  16.14000 46.88100 24.93200
H  15.83500 48.48100 24.28200
H  16.40300 47.09000 23.20200
H  9.85300 45.52900 21.08000
H  7.57300 47.24800 20.69900
H  11.03500 47.69900 20.29700
H  9.30500 48.23100 20.11400
H  9.86800 46.90800 19.20400
H  7.25800 44.78900 22.35300
H  8.09600 44.43400 20.76300
H  5.25300 44.44500 21.30200
H  6.07700 44.51200 19.74400
H  5.53100 45.93600 20.55000
H  3.24300 48.73700 24.03000
H  2.74300 47.86800 25.55100
H  3.33600 46.97500 24.04700
H  5.76500 49.29200 29.44900
H  4.34300 46.61800 32.71300
H  5.97800 47.08900 32.96400
H  5.59700 45.68100 32.05500

