158

Mg 44.49600 5.08500 46.85500
C  42.49700 7.89500 46.29800
C  41.76300 3.09500 46.46700
C  46.61700 2.51500 46.60500
C  47.36300 7.31100 46.77000
N  42.32500 5.49600 46.50600
C  41.75000 6.68100 46.33000
C  40.21100 6.49300 46.17000
C  39.99400 4.92700 46.46700
C  41.45800 4.45000 46.63700
C  39.02000 4.68100 47.72800
C  39.69300 6.93900 44.68500
C  38.56600 7.96400 44.50800
H  38.81400 8.93100 43.35100
N  44.25800 3.08400 46.65000
C  43.02200 2.48000 46.39200
C  43.28200 1.09900 46.29800
C  44.65800 0.84200 46.49300
C  45.27500 2.17500 46.60100
C  42.22600 0.10700 45.97100
C  45.33200 -0.50300 46.54500
O  44.70100 -1.46600 46.29300
C  46.77100 -0.63600 46.82400
N  46.68700 4.92900 46.37500
C  47.31600 3.77200 46.57400
C  48.80200 3.84900 46.77000
C  49.03200 5.36900 46.85500
C  47.61300 5.94000 46.61900
C  49.32900 3.14000 48.01000
C  50.12200 5.92500 45.90500
C  51.30100 6.62800 46.57000
N  44.91200 7.10900 46.58200
C  46.06800 7.87100 46.61500
C  45.69700 9.23600 46.45200
C  44.30700 9.27100 46.39700
C  43.89300 7.98200 46.43200
C  46.53700 10.50100 46.37900
C  43.22600 10.12800 46.33100
O  43.20400 11.35900 46.37700
C  41.93100 9.30100 46.24900
C  41.17100 9.60800 47.45800
O  41.28800 9.02500 48.53000
O  40.27000 10.62200 47.25000
C  39.23500 10.65700 48.29100
H  40.89500 2.43300 46.48900
H  47.31800 1.68000 46.64700
H  48.29500 7.87400 46.85700
H  39.75900 7.07100 46.97600
H  39.43600 4.43500 45.67000
H  38.66600 5.57800 48.23700
H  39.63700 4.34700 48.56200
H  38.13500 4.07200 47.54000
H  39.27400 6.10700 44.11800
H  40.51800 7.40300 44.14600
H  38.41800 8.50600 45.44200
H  37.65000 7.39800 44.33900
H  41.22600 0.48000 45.75000
H  42.08100 -0.74900 46.63000
H  42.51100 -0.27700 44.99100
H  47.08800 -0.00500 47.65500
H  47.33500 -0.51200 45.89900
H  46.93400 -1.65200 47.18300
H  49.38800 3.41000 45.96300
H  49.20800 5.73100 47.86800
H  49.21200 2.05900 47.94100
H  48.71000 3.50900 48.82800
H  50.38700 3.40500 48.00100
H  49.59600 6.57800 45.20800
H  50.57600 5.23300 45.19700
H  51.68200 7.38000 45.88000
H  52.06500 5.89900 46.84000
H  50.98900 7.20100 47.44300
H  45.84500 11.33900 46.45800
H  46.98700 10.46400 45.38700
H  47.24300 10.61100 47.20100
H  41.53800 9.65600 45.29600
H  39.53000 10.48600 49.32600
H  38.62900 9.79200 48.02000
H  38.78600 11.64600 48.38500
Mg 27.46100 50.95900 26.17600
C  25.20700 52.17200 28.71100
C  29.46600 49.72500 28.65500
C  29.68700 50.30900 23.73300
C  25.19500 52.45600 23.69700
N  27.21400 50.85100 28.40500
C  26.17500 51.34800 29.23900
C  26.47500 51.00800 30.73200
C  27.98400 50.38800 30.73200
C  28.24300 50.23600 29.17300
C  29.13600 51.27600 31.42900
C  25.46900 49.99100 31.25300
C  25.13100 50.14400 32.75100
H  26.21900 50.69500 33.75500
N  29.35000 50.25100 26.21100
C  30.00200 49.75000 27.32200
C  31.27200 49.23500 26.86800
C  31.34500 49.45000 25.47800
C  30.08900 50.03800 25.06400
C  32.31300 48.62000 27.87000
C  32.52700 49.10800 24.58600
O  32.48900 49.26700 23.33500
C  33.79700 48.31500 25.09100
N  27.46600 51.39800 24.03300
C  28.48800 50.93200 23.26300
C  28.23700 51.22500 21.76700
C  26.77200 51.77500 21.75600
C  26.39700 51.84900 23.22600
C  29.35600 52.03000 21.07300
C  25.75300 50.95300 20.89300
C  24.80000 51.75000 19.96200
N  25.57700 52.09000 26.09400
C  24.82900 52.68500 25.07700
C  23.69100 53.34500 25.67400
C  23.82300 53.25600 27.06800
C  24.95600 52.42900 27.27400
C  22.71200 54.14800 24.89400
C  23.23500 53.55900 28.34700
O  22.19000 54.18100 28.63700
C  24.14300 52.81600 29.45100
C  24.58200 53.84900 30.47600
O  25.39200 54.74300 30.36400
O  24.03200 53.56600 31.69400
C  24.38600 54.35100 32.91100
H  30.02200 49.16500 29.41000
H  30.26500 49.82200 22.94400
H  24.46400 52.80500 22.96600
H  26.50100 51.97300 31.23700
H  28.06400 49.41300 31.21200
H  29.74100 51.63500 30.59600
H  29.80700 50.62700 31.99300
H  28.59900 51.99400 32.04800
H  25.91500 48.99800 31.19700
H  24.53400 49.96700 30.69400
H  24.76600 49.19800 33.15100
H  24.25400 50.79100 32.74100
H  33.22300 49.21800 27.93300
H  32.58100 47.63900 27.47800
H  31.83600 48.40700 28.82600
H  34.15000 48.53700 26.09800
H  34.60900 48.52800 24.39600
H  33.63900 47.23900 25.17200
H  28.13600 50.22300 21.34900
H  26.98000 52.74100 21.29500
H  30.34600 52.08300 21.52700
H  29.09900 53.06800 20.86200
H  29.35100 51.53400 20.10200
H  25.11500 50.43300 21.60700
H  26.30800 50.26600 20.25300
H  24.98900 52.81000 20.13200
H  23.77300 51.40300 20.06800
H  25.14300 51.49600 18.95900
H  23.18400 55.10700 24.67900
H  21.80600 54.34000 25.46900
H  22.45000 53.60200 23.98800
H  23.65000 52.01800 30.00600
H  24.68300 55.37400 32.68200
H  25.31600 53.90000 33.25800
H  23.61500 54.33200 33.68100

