158

Mg 23.45600 -4.42700 44.74700
C  25.22100 -1.71100 43.42800
C  20.72500 -3.54100 43.00600
C  22.00400 -7.57500 45.45000
C  26.42800 -5.58600 46.17600
N  23.10700 -2.82500 43.16100
C  23.90700 -1.83400 42.88300
C  23.18700 -0.82200 41.92700
C  21.68100 -1.23200 42.17200
C  21.81800 -2.62300 42.76300
C  20.82200 -0.29000 43.00900
C  23.68700 -1.20200 40.52800
C  23.97000 -0.03900 39.46300
H  24.79800 -0.53100 38.25000
N  21.51500 -5.42400 44.30600
C  20.53400 -4.86200 43.54000
C  19.39800 -5.73900 43.55900
C  19.73000 -6.85300 44.42200
C  21.12800 -6.67700 44.73200
C  18.11100 -5.39100 42.95300
C  18.84100 -8.05500 44.68200
O  17.69300 -8.12700 44.22000
C  19.27300 -9.29400 45.34100
N  24.21400 -6.40600 45.62700
C  23.36800 -7.45700 45.85000
C  24.22000 -8.59900 46.55600
C  25.59100 -7.99000 46.67700
C  25.39500 -6.60300 46.11000
C  23.62200 -9.07600 47.91100
C  26.74200 -8.78200 45.93200
C  28.17000 -8.47200 46.50700
N  25.41800 -3.74200 44.95700
C  26.47800 -4.29300 45.66000
C  27.59900 -3.31300 45.63600
C  27.15100 -2.32900 44.68400
C  25.82100 -2.66200 44.27900
C  28.95200 -3.46900 46.33300
C  27.56500 -1.14400 43.96500
O  28.66200 -0.60700 43.99400
C  26.34200 -0.70100 43.03600
C  26.02300 0.73800 43.22300
O  25.54500 1.36800 44.17600
O  26.60700 1.30900 42.07800
C  26.62800 2.75500 41.91000
H  19.75400 -3.17400 42.66400
H  21.52300 -8.47200 45.84600
H  27.38600 -5.85500 46.62600
H  23.20500 0.26500 42.00300
H  21.09100 -1.37400 41.26600
H  20.43800 0.49500 42.35800
H  21.33700 0.20900 43.83000
H  19.92600 -0.83000 43.31700
H  22.78800 -1.71200 40.18100
H  24.48700 -1.94200 40.55300
H  24.50500 0.67700 40.08600
H  22.97900 0.22600 39.09300
H  17.55500 -6.22300 42.52200
H  18.18800 -4.65400 42.15400
H  17.52200 -4.92300 43.74300
H  18.39700 -9.88800 45.60200
H  19.59900 -9.01900 46.34400
H  20.03200 -9.70900 44.67800
H  24.22100 -9.37700 45.79200
H  25.88900 -7.90800 47.72200
H  24.08000 -8.68300 48.81800
H  23.76400 -10.14600 48.06700
H  22.54500 -8.91400 47.91700
H  26.72300 -8.34500 44.93400
H  26.51100 -9.84300 45.83600
H  28.73700 -9.35600 46.79900
H  28.22100 -7.88600 47.42500
H  28.71100 -7.95400 45.71500
H  28.82000 -3.02300 47.31900
H  29.61200 -2.83600 45.74000
H  29.23800 -4.52000 46.35700
H  26.67300 -1.01200 42.04500
H  25.66900 3.06900 41.49800
H  27.39300 3.05300 41.19300
H  26.84900 3.19000 42.88500
Mg -11.35400 37.65100 42.73300
C  -9.01900 35.05700 42.00400
C  -9.06700 39.83300 41.64000
C  -13.71200 40.00600 43.00500
C  -13.64800 35.17400 43.75000
N  -9.31400 37.40000 41.78300
C  -8.51300 36.31000 41.63500
C  -7.15100 36.64600 40.98600
C  -7.18600 38.23100 41.02000
C  -8.63500 38.53400 41.47200
C  -6.06400 38.99600 41.71200
C  -6.76400 35.95200 39.65900
C  -5.29900 35.63800 39.48700
H  -4.96300 34.72100 38.32800
N  -11.30200 39.62200 42.57800
C  -10.26100 40.35800 42.14400
C  -10.54600 41.74500 42.34400
C  -11.90500 41.91600 42.69500
C  -12.40200 40.49300 42.71500
C  -9.58500 42.79200 42.27000
C  -12.56300 43.26800 43.05900
O  -11.94800 44.30200 43.06900
C  -13.97600 43.24600 43.52800
N  -13.42000 37.54100 43.13400
C  -14.12400 38.68800 43.27100
C  -15.62600 38.37600 43.69000
C  -15.64700 36.79400 43.93600
C  -14.15900 36.44100 43.59600
C  -16.23400 39.16200 44.94900
C  -16.68900 36.01100 43.11500
C  -16.40600 35.62100 41.62400
N  -11.43300 35.51300 42.78400
C  -12.36100 34.68300 43.38500
C  -11.77800 33.31200 43.51600
C  -10.46800 33.44200 42.96300
C  -10.27500 34.75000 42.60700
C  -12.46900 32.19500 44.27300
C  -9.25300 32.78700 42.65400
O  -8.96900 31.66000 42.92700
C  -8.30700 33.73600 41.89600
C  -7.08600 33.68800 42.73200
O  -6.06800 33.06900 42.46700
O  -7.19700 34.39200 43.89800
C  -6.08700 34.18800 44.89500
H  -8.30400 40.55000 41.32700
H  -14.50500 40.72900 43.20900
H  -14.37700 34.45300 44.12700
H  -6.32600 36.36100 41.63900
H  -7.19000 38.60300 39.99500
H  -5.78300 39.68100 40.91300
H  -5.24700 38.30200 41.90800
H  -6.30000 39.41800 42.68900
H  -6.93100 36.70800 38.89200
H  -7.46800 35.14200 39.47000
H  -5.02500 35.01600 40.33900
H  -4.67000 36.52600 39.41800
H  -9.93400 43.40300 41.43700
H  -8.58100 42.36900 42.24500
H  -9.54100 43.24600 43.26000
H  -14.33200 44.24000 43.80100
H  -14.06300 42.66800 44.44800
H  -14.50400 42.85200 42.66000
H  -16.22100 38.55000 42.79300
H  -15.70600 36.53000 44.99100
H  -17.12600 39.62000 44.52300
H  -15.56400 39.90800 45.37700
H  -16.58500 38.52900 45.76400
H  -17.52800 36.70700 43.14600
H  -16.90800 35.12000 43.70300
H  -17.00900 34.73600 41.42100
H  -15.37100 35.29800 41.52100
H  -16.59500 36.49700 41.00300
H  -13.17300 32.59300 45.00400
H  -11.65800 31.63100 44.73500
H  -13.06500 31.53900 43.63900
H  -8.02400 33.39900 40.89800
H  -5.11200 34.54300 44.56100
H  -6.12400 33.24000 45.43200
H  -6.34000 34.88700 45.69200

