158

Mg 30.29500 57.99100 39.75700
C  27.32300 56.11000 39.21800
C  32.13300 55.38100 38.72400
C  32.87900 59.95500 39.87300
C  28.13800 60.87400 40.15700
N  29.66800 56.04700 38.92500
C  28.51700 55.39300 39.02000
C  28.61700 53.90400 38.71000
C  30.17900 53.71100 38.67500
C  30.72900 55.14000 38.82700
C  30.93000 52.79300 39.67100
C  27.86900 53.47600 37.39900
C  27.53400 54.60400 36.37000
H  27.71700 54.20700 34.95900
N  32.26500 57.65100 39.42600
C  32.81700 56.54300 38.95600
C  34.27500 56.73800 38.84400
C  34.57700 58.04200 39.21500
C  33.21900 58.61000 39.53300
C  35.28800 55.70300 38.43700
C  35.96500 58.66100 39.41700
O  36.94500 58.02500 39.05500
C  36.23900 59.95900 40.08800
N  30.45300 60.11400 40.04600
C  31.66900 60.60800 40.17100
C  31.73900 62.17900 40.22000
C  30.14500 62.43800 40.52800
C  29.52300 61.09700 40.10800
C  32.62400 62.85500 41.19800
C  29.49900 63.66900 39.80600
C  28.81300 64.69000 40.70600
N  28.19300 58.43700 39.67500
C  27.50400 59.62600 39.95300
C  26.12300 59.39700 39.85700
C  25.93900 58.04600 39.66300
C  27.24900 57.47800 39.54000
C  25.10400 60.46800 39.84400
C  25.01700 56.91900 39.48400
O  23.80400 56.93100 39.44900
C  25.89200 55.56500 39.28700
C  25.68400 54.69400 40.48700
O  26.46000 54.50800 41.40400
O  24.45300 54.18500 40.31500
C  24.23200 53.10600 41.34200
H  32.76700 54.52500 38.48300
H  33.79000 60.53300 40.04600
H  27.57700 61.80000 40.30100
H  28.10800 53.46900 39.56900
H  30.56100 53.37400 37.71100
H  31.19500 53.39500 40.54000
H  31.80200 52.31200 39.22700
H  30.25600 52.07100 40.13300
H  27.04000 52.77900 37.52300
H  28.60300 52.80100 36.95800
H  28.04700 55.55100 36.53800
H  26.47600 54.82000 36.51600
H  34.86500 55.27200 37.52900
H  35.28300 54.85700 39.12400
H  36.31900 55.97200 38.20700
H  35.88600 60.76500 39.44500
H  37.31700 60.10000 40.16200
H  35.89600 60.04400 41.11900
H  31.90200 62.49700 39.19000
H  30.07100 62.50800 41.61400
H  32.09900 63.44400 41.94900
H  33.37800 63.46800 40.70500
H  33.21800 62.09300 41.70300
H  28.74300 63.36100 39.08300
H  30.28900 64.13600 39.21800
H  29.17900 65.66900 40.39600
H  29.04000 64.51500 41.75700
H  27.74200 64.51900 40.59500
H  24.88900 60.69500 38.80000
H  25.55900 61.33800 40.31600
H  24.28100 59.98900 40.37300
H  25.61100 54.90800 38.46400
H  24.11600 53.46400 42.36500
H  25.01900 52.35400 41.39700
H  23.27800 52.60900 41.16200
Mg 0.90900 43.59300 26.00700
C  2.99100 43.94900 28.87100
C  -1.55600 42.72000 28.21200
C  -0.94000 42.96500 23.31800
C  3.73500 44.24700 24.02000
N  0.81400 43.28700 28.27200
C  1.66700 43.69900 29.21900
C  1.03200 43.78800 30.68100
C  -0.39400 43.21000 30.46200
C  -0.37000 43.05200 28.88000
C  -0.85700 41.96800 31.24400
C  1.00400 45.26900 31.34700
C  0.97000 45.33500 32.83500
H  0.71600 43.96000 33.52800
N  -0.99200 42.93500 25.77000
C  -1.86900 42.68300 26.74900
C  -3.14100 42.48000 26.22200
C  -2.94700 42.46400 24.80200
C  -1.59900 42.75800 24.55800
C  -4.37200 42.20900 27.00300
C  -4.02000 41.93800 23.83300
O  -3.73400 41.85900 22.59700
C  -5.42400 41.65100 24.18800
N  1.46700 43.36900 24.03700
C  0.40600 43.10900 23.15100
C  0.96900 43.19200 21.69900
C  2.36100 43.89100 21.94000
C  2.54700 43.82200 23.40300
C  1.15800 41.86900 21.04700
C  2.56900 45.31700 21.32900
C  2.51600 46.60200 22.21400
N  2.94500 44.14400 26.33000
C  3.96500 44.31100 25.39100
C  5.27400 44.45800 26.09300
C  4.93200 44.29000 27.43800
C  3.50700 44.13900 27.57400
C  6.58700 44.65300 25.34600
C  5.37900 44.09800 28.78100
O  6.53500 44.13800 29.12700
C  4.22300 43.98400 29.77200
C  4.31300 42.76800 30.52900
O  4.17600 41.64000 30.12500
O  4.58700 43.05800 31.82100
C  4.60600 42.04800 32.85200
H  -2.41100 42.56400 28.87400
H  -1.54100 42.98700 22.40600
H  4.52900 44.44400 23.29600
H  1.64800 43.15900 31.32300
H  -1.02900 44.03700 30.78000
H  -1.68000 42.36100 31.84100
H  -0.07000 41.53500 31.86300
H  -1.20700 41.08300 30.71400
H  0.19500 45.77700 30.82100
H  1.85200 45.80500 30.92100
H  0.20300 46.04600 33.14400
H  1.95800 45.72300 33.08200
H  -5.23900 42.84100 26.81000
H  -4.08500 42.51200 28.01000
H  -4.57900 41.14100 26.92900
H  -5.44700 40.81700 24.89000
H  -5.85100 41.34600 23.23300
H  -5.90200 42.57800 24.50300
H  0.33800 43.80200 21.05200
H  3.16400 43.28700 21.51800
H  2.05500 41.55100 20.51600
H  0.32500 41.76300 20.35200
H  0.84000 41.01000 21.63900
H  1.74600 45.53400 20.64800
H  3.49700 45.28500 20.75800
H  1.96900 46.43700 23.14200
H  1.91900 47.43300 21.83800
H  3.52500 46.94600 22.44400
H  7.41700 44.20100 25.88900
H  6.77900 45.69900 25.10600
H  6.62700 44.16400 24.37300
H  4.24000 44.92600 30.32100
H  4.58300 42.48200 33.85200
H  5.50900 41.43900 32.85200
H  3.73000 41.43800 32.63200

