158

Mg 43.83600 3.71700 47.75100
C  41.54900 6.40200 47.12300
C  41.14200 1.49300 47.15700
C  46.00700 1.13000 47.47400
C  46.37700 6.13100 47.32000
N  41.68000 3.93500 47.11000
C  40.96700 5.05600 46.99500
C  39.54500 4.81100 46.81500
C  39.38200 3.27900 46.99000
C  40.83800 2.84600 47.21500
C  38.43100 2.84600 48.19900
C  39.02200 5.26400 45.41200
C  37.67800 5.97300 45.26000
H  37.01800 5.86100 43.93300
N  43.62500 1.58900 47.53100
C  42.47200 0.93500 47.28800
C  42.74300 -0.48000 47.31500
C  44.17700 -0.63700 47.32100
C  44.67800 0.72800 47.51000
C  41.71200 -1.56200 47.24300
C  44.92700 -2.00500 47.14200
O  44.40100 -2.99100 46.70800
C  46.41700 -2.14100 47.50300
N  45.92300 3.66000 47.43000
C  46.60200 2.46000 47.51500
C  48.12300 2.66400 47.36800
C  48.26500 4.23500 47.38400
C  46.80100 4.73800 47.32000
C  48.96000 1.95300 48.46000
C  49.06700 4.87000 46.23400
C  50.63300 4.65800 46.23300
N  43.98800 5.85700 47.43700
C  45.05300 6.61300 47.30800
C  44.70500 7.94400 47.06700
C  43.29100 7.96000 47.06900
C  42.92400 6.61900 47.22400
C  45.71000 9.06000 46.85000
C  42.03600 8.77500 46.96300
O  41.92000 9.96500 46.78100
C  40.82500 7.71000 47.00100
C  39.84300 7.91000 48.06100
O  39.98300 7.63600 49.27900
O  38.62800 8.29800 47.48900
C  37.49200 7.87800 48.35900
H  40.34100 0.79200 46.91500
H  46.73100 0.32100 47.35200
H  47.24900 6.77600 47.44300
H  38.98000 5.34900 47.57600
H  39.13100 2.65100 46.13500
H  38.04200 3.75600 48.65500
H  38.96800 2.36100 49.01400
H  37.76800 2.16300 47.66800
H  39.03300 4.40600 44.74000
H  39.77400 5.94200 45.00700
H  37.80800 7.04500 45.40600
H  36.96400 5.64500 46.01500
H  42.01100 -2.50000 47.71200
H  41.71700 -1.76000 46.17100
H  40.72200 -1.29100 47.61000
H  46.82500 -1.48000 48.26800
H  46.93000 -2.09600 46.54300
H  46.61800 -3.11300 47.95200
H  48.42600 2.38100 46.36000
H  48.74300 4.66100 48.26600
H  48.26200 1.77100 49.27700
H  49.58200 2.72400 48.91600
H  49.45300 1.06100 48.07400
H  48.82300 5.92700 46.12300
H  48.63800 4.32800 45.39200
H  50.97200 4.18700 47.15500
H  51.03800 5.66900 46.19200
H  51.01300 4.08800 45.38500
H  46.53800 9.06500 47.55900
H  45.26800 10.05100 46.95100
H  46.16200 8.94200 45.86500
H  40.36600 7.81800 46.01900
H  37.29300 8.70100 49.04600
H  37.61100 6.89200 48.80800
H  36.58600 7.64100 47.80200
Mg 53.55500 23.32000 44.88100
C  51.31000 25.58300 43.49600
C  52.01100 20.87600 43.20200
C  56.23800 21.47900 45.44900
C  55.40500 26.20100 46.01000
N  51.84700 23.23700 43.48500
C  51.09500 24.30300 43.10600
C  50.08100 23.83700 42.10300
C  50.10200 22.25100 42.22900
C  51.37900 22.04500 43.05300
C  48.85200 21.58400 42.94100
C  50.58900 24.17700 40.66900
C  49.42700 24.43700 39.72300
H  49.82600 24.82100 38.27300
N  53.93300 21.35700 44.56600
C  53.15700 20.46000 43.89300
C  53.64500 19.17100 44.05300
C  54.87200 19.33300 44.69700
C  55.01500 20.78300 44.98300
C  52.80500 18.00200 43.76300
C  55.76800 18.11500 45.00200
O  55.39000 17.00400 44.61100
C  57.00100 18.18800 45.95400
N  55.56200 23.82600 45.48600
C  56.46200 22.82900 45.65300
C  57.85400 23.49900 46.03800
C  57.37900 24.76600 46.67000
C  55.99700 24.98300 45.98000
C  58.83000 22.60100 46.85700
C  58.37800 25.99600 46.60200
C  58.53600 26.60400 45.26900
N  53.37300 25.47400 44.89800
C  54.15800 26.43500 45.49900
C  53.42300 27.70400 45.37300
C  52.32100 27.42400 44.55800
C  52.37900 26.09000 44.29100
C  53.82700 29.04500 45.98100
C  51.09300 27.96900 44.02100
O  50.63400 29.07700 44.07600
C  50.38400 26.82300 43.28000
C  50.10200 27.32900 41.91600
O  50.95900 27.82500 41.17200
O  48.68800 27.40600 41.66000
C  48.10300 27.97400 40.46700
H  51.42600 20.16400 42.61600
H  57.12300 20.93400 45.78300
H  55.93100 27.03400 46.47900
H  49.14100 24.35900 42.28300
H  50.12000 21.84700 41.21700
H  48.42100 20.84900 42.26100
H  48.04800 22.30800 43.07200
H  49.19400 21.05100 43.82800
H  51.29800 23.43200 40.30700
H  51.07900 25.14300 40.79600
H  48.80000 25.25200 40.08400
H  48.87600 23.49600 39.72200
H  52.90900 17.45400 44.69900
H  52.96400 17.41600 42.85800
H  51.73800 18.22000 43.70700
H  56.97400 18.68400 46.92400
H  57.86700 18.48700 45.36300
H  57.25300 17.14500 46.14900
H  58.36300 23.76700 45.11200
H  57.13700 24.54500 47.71000
H  59.09000 23.24100 47.70000
H  59.72300 22.45600 46.24900
H  58.34700 21.70200 47.23800
H  59.36100 25.63600 46.90400
H  58.18500 26.74600 47.36900
H  57.68100 26.37800 44.63200
H  59.41600 26.08800 44.88600
H  58.56100 27.68600 45.40000
H  52.99900 29.51800 46.50900
H  54.24000 29.63400 45.16300
H  54.53500 28.91400 46.79900
H  49.45300 26.64800 43.81900
H  48.81800 28.65200 40.00100
H  47.24800 28.54400 40.82900
H  47.94200 27.31200 39.61600

