158

Mg 7.04900 53.43700 41.91900
C  6.22700 50.00300 41.18500
C  10.28300 52.79900 40.68900
C  7.73700 56.69500 41.87600
C  3.60700 54.01800 42.32300
N  8.11100 51.61800 40.85000
C  7.57300 50.34500 40.91100
C  8.71300 49.34300 40.35700
C  10.01700 50.17200 40.46800
C  9.45100 51.62500 40.71600
C  11.00900 49.67100 41.56100
C  8.31600 48.78400 38.94100
C  7.42400 49.66000 38.05900
H  7.15900 49.14900 36.71200
N  8.80900 54.60100 41.38200
C  10.02000 54.18200 40.96300
C  10.96000 55.24000 40.92000
C  10.13600 56.36600 41.17900
C  8.79200 55.93400 41.49300
C  12.44400 55.01200 40.44400
C  10.63200 57.78300 41.04100
O  11.81500 58.02400 40.78900
C  9.73500 59.00100 41.08400
N  5.81200 55.11300 41.96900
C  6.40600 56.40200 42.13800
C  5.29900 57.37900 42.43800
C  4.04500 56.52600 42.62400
C  4.47900 55.13700 42.26700
C  5.52300 58.49200 43.50300
C  2.80800 57.05700 41.77600
C  1.40700 56.94400 42.41900
N  5.33200 52.30000 41.90100
C  3.97500 52.68200 42.09000
C  3.11900 51.51600 42.05800
C  4.05200 50.41500 41.84500
C  5.31100 50.99900 41.59300
C  1.62300 51.48000 42.33400
C  4.12500 49.01000 41.82700
O  3.26600 48.20700 42.13800
C  5.56700 48.61500 41.33300
C  5.39400 47.68400 40.11800
O  4.93000 47.99800 39.03100
O  5.59400 46.42300 40.54700
C  5.18900 45.31100 39.62300
H  11.33800 52.56400 40.53300
H  7.72100 57.78500 41.82200
H  2.52500 54.15000 42.39000
H  8.66200 48.53700 41.08900
H  10.56400 50.15300 39.52500
H  11.96900 49.30900 41.19500
H  10.57300 48.81100 42.07000
H  11.26700 50.41500 42.31500
H  7.76100 47.86300 39.12000
H  9.17800 48.42800 38.37700
H  7.98200 50.59400 37.99300
H  6.48400 49.93800 38.53800
H  12.41500 54.41700 39.53000
H  12.90900 54.39800 41.21500
H  13.10400 55.87600 40.36900
H  10.36800 59.88700 41.03700
H  9.40500 59.03000 42.12300
H  9.00700 58.99300 40.27300
H  5.24400 57.85200 41.45800
H  3.86900 56.44500 43.69600
H  5.55300 59.50300 43.09700
H  6.43900 58.36600 44.08000
H  4.67500 58.51600 44.18800
H  2.80400 56.66200 40.76100
H  3.02400 58.08400 41.48100
H  0.73100 56.44100 41.72700
H  1.01400 57.94300 42.61000
H  1.43900 56.40300 43.36500
H  1.48400 51.93400 43.31500
H  1.21800 50.46800 42.33500
H  1.14400 52.25700 41.73800
H  5.99200 48.03300 42.15100
H  5.68400 44.35600 39.79900
H  5.43700 45.64300 38.61500
H  4.11100 45.15000 39.66600
Mg -12.69500 17.12700 41.39300
C  -9.87600 15.04900 40.96300
C  -10.93800 19.65100 39.85800
C  -15.68500 18.92500 40.97200
C  -14.58300 14.41100 42.40700
N  -10.63900 17.26100 40.51400
C  -9.65400 16.36000 40.57900
C  -8.28200 16.89000 40.07400
C  -8.58600 18.40900 39.74600
C  -10.17900 18.46100 40.05500
C  -7.72500 19.45500 40.54600
C  -7.76900 16.15000 38.77600
C  -6.17900 16.25700 38.66500
H  -5.54100 16.10400 37.28400
N  -13.19900 19.05100 40.52900
C  -12.31000 19.93600 39.97800
C  -13.07700 21.16800 39.65700
C  -14.44000 21.00700 40.00000
C  -14.48900 19.57700 40.43400
C  -12.42000 22.36100 39.14000
C  -15.51300 22.03600 39.78000
O  -15.25300 23.13000 39.27000
C  -16.88000 21.81700 40.20100
N  -14.84400 16.73600 41.68200
C  -15.84500 17.63000 41.51300
C  -17.20300 17.07300 41.91900
C  -16.89100 15.58700 42.29200
C  -15.35400 15.51100 42.10600
C  -18.08500 17.92700 42.91500
C  -17.66600 14.42300 41.60200
C  -18.14000 13.26600 42.47900
N  -12.37700 15.15800 41.74400
C  -13.21700 14.17300 42.19100
C  -12.43900 12.84200 42.35600
C  -11.14000 13.21600 41.92000
C  -11.17200 14.57300 41.52500
C  -12.96100 11.54700 42.83900
C  -9.80500 12.76000 41.74200
O  -9.43000 11.60900 41.97200
C  -8.87600 13.93100 41.18500
C  -7.92100 14.39300 42.21200
O  -8.18400 14.89300 43.29000
O  -6.62200 14.01000 41.78400
C  -5.48600 14.55100 42.56200
H  -10.32700 20.48400 39.50500
H  -16.64900 19.40200 40.78300
H  -15.17400 13.55600 42.74300
H  -7.55600 16.75900 40.87600
H  -8.43700 18.69100 38.70400
H  -8.38300 19.93600 41.27000
H  -7.29300 20.19600 39.87400
H  -6.96500 18.88100 41.07600
H  -8.20200 16.56500 37.86600
H  -8.00900 15.09000 38.85300
H  -5.67500 15.53500 39.30700
H  -6.04700 17.30500 38.93300
H  -12.56600 23.24500 39.76100
H  -12.84000 22.61000 38.16500
H  -11.36800 22.26400 38.87300
H  -16.92000 21.57300 41.26200
H  -17.31900 21.01900 39.60100
H  -17.45000 22.73400 40.05000
H  -17.71400 16.96000 40.96300
H  -17.13100 15.40600 43.34000
H  -18.09000 17.26300 43.77900
H  -19.11300 18.09300 42.59100
H  -17.57900 18.82000 43.28200
H  -17.11200 13.93200 40.80200
H  -18.47700 14.97900 41.13200
H  -17.81400 13.43500 43.50500
H  -17.86000 12.28300 42.10200
H  -19.22600 13.28500 42.57300
H  -13.86200 11.57800 43.45200
H  -12.15200 11.20200 43.48300
H  -13.08000 11.03200 41.88500
H  -8.25800 13.57700 40.36000
H  -5.32500 15.62500 42.46600
H  -4.70900 14.01700 42.01600
H  -5.41400 14.24200 43.60500

