158

Mg 35.84200 1.50000 29.46600
C  33.64500 2.50200 32.07200
C  38.39600 1.67800 31.73200
C  37.88500 0.86300 26.91800
C  33.06900 1.63500 27.26200
N  36.00300 2.08700 31.60700
C  34.95500 2.40900 32.52600
C  35.43400 2.43600 33.89200
C  36.99900 2.29100 33.75000
C  37.21500 2.06700 32.28500
C  37.75500 3.55900 34.32500
C  34.89400 1.17500 34.65400
C  34.54100 1.47900 36.13700
H  35.25500 2.60100 36.82300
N  37.82100 1.25000 29.36300
C  38.73200 1.26400 30.44000
C  40.08000 0.98700 29.90000
C  40.00200 0.94100 28.50300
C  38.54100 1.03200 28.17200
C  41.35600 0.65300 30.81400
C  41.02400 0.63700 27.46700
O  40.81800 0.52600 26.28500
C  42.50300 0.64100 27.95600
N  35.49000 1.08000 27.35700
C  36.54100 0.89400 26.50800
C  36.05700 0.86100 25.04000
C  34.54700 0.97300 25.17500
C  34.28600 1.24500 26.66900
C  36.65600 1.99100 24.11700
C  33.73200 -0.21400 24.61000
C  32.66100 0.04800 23.56100
N  33.79500 1.89900 29.60600
C  32.80500 1.95700 28.61900
C  31.51300 2.36100 29.17900
C  31.83000 2.49700 30.51800
C  33.17200 2.26900 30.73000
C  30.15400 2.62700 28.53900
C  31.14700 2.80200 31.81000
O  29.96600 2.92900 32.06000
C  32.32900 2.84300 32.81200
C  32.30400 4.13200 33.51200
O  32.88800 5.12800 33.19700
O  31.60100 4.00100 34.75300
C  31.33200 5.14700 35.63300
H  39.18100 1.93100 32.44800
H  38.52100 0.82900 26.03000
H  32.24400 1.63100 26.54600
H  35.14000 3.40000 34.30700
H  37.34600 1.37800 34.23300
H  38.35600 3.18600 35.15500
H  37.09900 4.41100 34.50500
H  38.49000 4.02600 33.67100
H  35.45800 0.25400 34.50400
H  33.89600 0.99600 34.25500
H  34.62300 0.54300 36.69000
H  33.51600 1.83100 36.25900
H  42.11600 1.40100 30.58800
H  41.78200 -0.33100 30.61800
H  41.12900 0.63100 31.88000
H  42.61200 1.53100 28.57600
H  43.17600 0.59800 27.09900
H  42.59900 -0.28000 28.53000
H  36.54300 0.02500 24.53600
H  34.18900 1.89700 24.72000
H  37.13800 2.67300 24.81900
H  35.84100 2.47300 23.57600
H  37.36700 1.55700 23.41400
H  33.46800 -0.91000 25.40600
H  34.47900 -0.82700 24.10500
H  33.15300 -0.34200 22.67000
H  32.44300 1.08300 23.29700
H  31.78000 -0.56200 23.76200
H  29.68500 1.67600 28.28800
H  30.24600 3.24400 27.64500
H  29.48100 3.15800 29.21200
H  32.04700 2.08200 33.53900
H  31.69000 4.91600 36.63600
H  30.32800 5.57200 35.62100
H  31.89300 5.97800 35.20600
Mg -11.18300 16.38400 41.24400
C  -8.15200 14.69000 40.97400
C  -9.62500 19.21400 40.09300
C  -14.19300 17.62700 40.42700
C  -12.70600 13.45300 42.16700
N  -9.16100 16.80000 40.38100
C  -8.10400 15.97200 40.46000
C  -6.79500 16.70100 39.96600
C  -7.20100 18.12900 40.02400
C  -8.75100 18.09700 40.14100
C  -6.50000 18.99900 41.13900
C  -6.36400 16.09400 38.60900
C  -5.02200 16.55700 38.07700
H  -5.01100 17.17300 36.71100
N  -11.80900 18.26800 40.52800
C  -11.04400 19.37600 40.25900
C  -11.84200 20.51300 40.07100
C  -13.17500 20.04900 40.05600
C  -13.12600 18.59300 40.32700
C  -11.23700 21.91700 39.96500
C  -14.41100 20.90700 39.83400
O  -14.21000 22.11700 39.67400
C  -15.89600 20.39000 39.82900
N  -13.09300 15.56700 41.09600
C  -14.17300 16.33100 40.84400
C  -15.49600 15.49700 40.89800
C  -15.02600 14.31200 41.79200
C  -13.52200 14.45000 41.75100
C  -16.77500 16.29700 41.33700
C  -15.54800 12.89800 41.40400
C  -15.98200 12.07000 42.60900
N  -10.53900 14.45700 41.66000
C  -11.25700 13.38200 42.05600
C  -10.33700 12.30700 42.33700
C  -9.05700 12.82100 41.97200
C  -9.25700 14.09400 41.42400
C  -10.59400 10.92600 42.84800
C  -7.64600 12.47700 41.95200
O  -7.03900 11.51800 42.27600
C  -7.04900 13.70600 41.18800
C  -6.04800 14.27800 42.12800
O  -6.35100 14.79500 43.17700
O  -4.78400 14.23400 41.60700
C  -3.76600 14.37100 42.63700
H  -9.02600 20.09400 39.85000
H  -15.16100 17.99400 40.08000
H  -13.29000 12.64700 42.61500
H  -6.04700 16.51000 40.73500
H  -6.92300 18.47000 39.02700
H  -5.95400 18.31300 41.78700
H  -7.32300 19.52600 41.62100
H  -5.72600 19.68000 40.78700
H  -7.18800 16.28800 37.92200
H  -6.30000 15.01400 38.73900
H  -4.43900 15.63700 38.03800
H  -4.55200 17.25500 38.77100
H  -11.26900 22.32400 38.95500
H  -10.21800 22.02800 40.33500
H  -11.69700 22.76400 40.47600
H  -16.54500 21.22300 39.56100
H  -16.13200 19.89800 40.77200
H  -15.96900 19.64800 39.03400
H  -15.75900 15.07600 39.92700
H  -15.35900 14.62200 42.78200
H  -17.45000 16.60700 40.53900
H  -16.51800 17.20700 41.88000
H  -17.36800 15.63100 41.96500
H  -14.81200 12.35400 40.81200
H  -16.47800 12.99400 40.84400
H  -15.53000 11.10700 42.37300
H  -16.99300 11.67100 42.68600
H  -15.69800 12.47900 43.57900
H  -11.52500 10.88800 43.41400
H  -9.74600 10.52600 43.40400
H  -10.80800 10.22800 42.03800
H  -6.56900 13.40600 40.25600
H  -2.89900 13.80300 42.30000
H  -3.92400 13.91900 43.61600
H  -3.47200 15.37900 42.92900

