158

Mg 43.36700 3.79000 48.23100
C  41.29200 6.46400 47.35100
C  40.53600 1.65700 48.00000
C  45.37000 1.17100 48.27500
C  46.13900 5.93800 47.55200
N  41.10900 4.06400 47.70100
C  40.54100 5.26300 47.37700
C  39.01100 5.07000 47.20300
C  38.78300 3.53300 47.76800
C  40.22700 3.02100 47.89600
C  37.97000 3.47700 49.13300
C  38.51600 5.20400 45.76500
C  37.45400 6.33000 45.55600
H  36.77100 6.37400 44.14300
N  42.99300 1.75300 48.07700
C  41.79700 1.05200 48.01600
C  42.04500 -0.35100 48.11900
C  43.44100 -0.51600 48.06500
C  44.00900 0.78600 48.14000
C  41.03400 -1.49300 48.16700
C  44.15800 -1.84400 48.00900
O  43.46100 -2.92100 48.19400
C  45.60500 -1.96200 47.56100
N  45.45700 3.57000 47.68600
C  46.04700 2.40900 48.05000
C  47.59300 2.54100 48.11900
C  47.85400 4.01400 47.59200
C  46.39400 4.53600 47.60400
C  47.99200 2.44000 49.64500
C  48.42200 4.11800 46.13900
C  49.49500 5.11200 45.97100
N  43.66400 5.84200 47.88900
C  44.82000 6.55400 47.56900
C  44.48400 7.93700 47.37500
C  43.08700 7.96000 47.43700
C  42.61900 6.61800 47.56800
C  45.41500 9.11900 47.22800
C  41.87800 8.81500 47.44000
O  41.79400 10.06000 47.50200
C  40.71400 7.88900 47.24500
C  39.74200 8.25600 48.38100
O  39.85800 7.98500 49.53900
O  38.76700 9.09800 47.86300
C  37.86000 9.69000 48.84800
H  39.69000 1.00900 48.24200
H  46.01400 0.34300 48.57800
H  47.01600 6.58200 47.47000
H  38.47300 5.68600 47.92400
H  38.38900 2.87100 46.99600
H  37.43700 4.36800 49.46500
H  38.76100 3.19600 49.82900
H  37.42000 2.53600 49.12200
H  37.82400 4.37200 45.63400
H  39.28900 5.32300 45.00500
H  37.85000 7.33800 45.67300
H  36.69000 6.20200 46.32300
H  40.02600 -1.07900 48.19600
H  41.18800 -2.14600 49.02700
H  41.10400 -2.17000 47.31500
H  46.30900 -2.00300 48.39300
H  45.78000 -1.11900 46.89400
H  45.68900 -2.87000 46.96400
H  48.08100 1.78900 47.49900
H  48.55300 4.53700 48.24500
H  47.45600 1.58700 50.06200
H  47.65700 3.33700 50.16700
H  49.07600 2.38600 49.74500
H  47.68200 4.36800 45.37900
H  48.77500 3.13300 45.83100
H  49.18600 5.75100 45.14400
H  50.37800 4.53900 45.69100
H  49.76100 5.59800 46.91000
H  44.92600 9.86300 46.59900
H  46.28000 8.73600 46.68700
H  45.64300 9.44600 48.24200
H  40.21300 8.06500 46.29200
H  36.88600 9.22900 48.68800
H  37.71300 10.75400 48.66300
H  38.13600 9.50200 49.88500
Mg 30.12000 58.38000 40.80200
C  27.41800 56.55700 39.64700
C  32.27100 56.02500 39.32500
C  32.73800 60.51400 41.36800
C  27.84100 61.06400 41.51800
N  29.89000 56.52600 39.71000
C  28.67300 55.99700 39.29000
C  28.88700 54.80900 38.43900
C  30.39700 54.46700 38.51000
C  30.91800 55.73600 39.28700
C  30.87200 53.18000 39.16600
C  28.41000 55.14900 37.01400
C  27.35500 54.17800 36.36400
H  26.51300 54.84200 35.30000
N  32.26900 58.29200 40.40900
C  32.97100 57.18000 39.87300
C  34.36500 57.47400 39.88500
C  34.47500 58.79900 40.50500
C  33.18400 59.25700 40.80700
C  35.42300 56.67200 39.28300
C  35.80700 59.47400 41.00000
O  36.83400 58.90200 40.70000
C  35.89500 60.75100 41.86300
N  30.27100 60.46900 41.25100
C  31.50900 61.07400 41.53500
C  31.35500 62.58600 41.76100
C  29.75900 62.74500 41.82600
C  29.22600 61.32400 41.62900
C  32.19600 63.09300 42.98800
C  29.16300 63.84500 40.88700
C  27.92800 64.57900 41.41800
N  28.00500 58.72200 40.87900
C  27.24800 59.87600 41.09100
C  25.88800 59.54700 40.87300
C  25.91500 58.24000 40.36600
C  27.22900 57.77600 40.28300
C  24.63700 60.30400 41.07300
C  25.01200 57.13600 39.94600
O  23.82000 56.98500 39.95200
C  26.01000 56.05700 39.32300
C  25.69400 54.74200 39.98400
O  26.18500 54.44600 41.05500
O  24.78700 54.10200 39.28900
C  24.35300 52.80800 39.89500
H  32.85500 55.18700 38.93800
H  33.44700 61.33400 41.50400
H  27.22100 61.92000 41.79200
H  28.31000 53.96100 38.80900
H  30.76700 54.41900 37.48600
H  31.44800 53.29200 40.08400
H  31.46700 52.69300 38.39300
H  30.14000 52.41500 39.42200
H  29.19900 55.03600 36.27000
H  27.97200 56.14200 36.91900
H  26.82200 53.42000 36.93900
H  27.88200 53.48900 35.70400
H  36.15000 56.35000 40.02900
H  35.92200 57.27900 38.52900
H  35.02000 55.82200 38.73200
H  35.26200 60.56000 42.72900
H  35.56300 61.65400 41.35000
H  36.93600 60.81700 42.18100
H  31.67900 63.09200 40.85200
H  29.45500 62.95600 42.85100
H  32.39400 62.20300 43.58500
H  31.67600 63.86300 43.55700
H  33.13700 63.59600 42.76500
H  28.88200 63.39900 39.93300
H  29.91300 64.60900 40.68200
H  28.14400 65.64600 41.47000
H  27.63400 64.23700 42.41000
H  27.02800 64.49100 40.81000
H  24.67100 61.29100 41.53500
H  23.87600 59.74200 41.61400
H  24.14100 60.41400 40.10900
H  25.72000 56.00400 38.27400
H  25.25500 52.20300 39.98300
H  23.67400 52.33600 39.18600
H  23.93400 52.86500 40.89900

