158

Mg 48.28500 15.47300 28.71100
C  46.40800 15.55200 31.68000
C  50.75300 17.23400 30.32000
C  49.67000 15.97400 25.73800
C  45.47800 14.15700 27.11300
N  48.50100 16.41700 30.74400
C  47.65900 16.17100 31.81200
C  48.28000 16.63200 33.15400
C  49.53800 17.41300 32.63200
C  49.62000 17.00700 31.12700
C  49.55300 18.92600 32.68000
C  48.55200 15.39600 34.09900
C  48.29300 15.59000 35.59600
H  48.07000 16.98600 36.17200
N  50.04400 16.35800 28.16400
C  50.97500 16.88900 29.00400
C  52.17200 17.15000 28.18100
C  51.94400 16.74300 26.85000
C  50.50900 16.34000 26.86500
C  53.32100 17.89400 28.81700
C  52.88900 16.80500 25.65800
O  52.52400 16.44200 24.54500
C  54.33000 17.38400 25.79300
N  47.60300 15.11600 26.66000
C  48.41400 15.51200 25.62100
C  47.70600 15.23700 24.21900
C  46.24700 14.63500 24.70100
C  46.42000 14.60800 26.23100
C  47.69000 16.32300 23.09800
C  46.02400 13.26300 24.09700
C  44.89300 13.02200 23.05000
N  46.33600 14.84300 29.20200
C  45.32400 14.36700 28.50000
C  44.12700 14.16400 29.33700
C  44.54000 14.53700 30.59500
C  45.86300 15.06600 30.49600
C  42.77100 13.67400 28.81700
C  44.18100 14.65800 31.98900
O  43.06200 14.44700 32.43000
C  45.34700 15.30200 32.75800
C  44.78300 16.58100 33.35100
O  44.83900 17.68000 32.78200
O  44.13100 16.32000 34.49600
C  43.72800 17.41500 35.28100
H  51.58200 17.76300 30.79600
H  50.17100 16.06400 24.77200
H  44.59000 13.67000 26.70600
H  47.41400 17.13300 33.58700
H  50.40200 17.04000 33.18200
H  49.79600 19.44000 31.75000
H  50.32100 19.20600 33.40100
H  48.56200 19.24400 33.00500
H  49.59500 15.16000 33.88800
H  47.85900 14.61000 33.79800
H  49.12100 15.10100 36.10900
H  47.34700 15.05300 35.67000
H  53.71500 18.69800 28.19500
H  54.08800 17.20300 29.16900
H  52.92900 18.43900 29.67600
H  54.92500 17.18500 24.90200
H  54.90100 16.85400 26.55500
H  54.27700 18.44600 26.03000
H  48.28100 14.39900 23.82600
H  45.47000 15.29900 24.32300
H  46.85100 16.17700 22.41700
H  48.56700 16.20400 22.46100
H  47.64700 17.23300 23.69600
H  45.62300 12.62200 24.88200
H  46.92100 12.83500 23.65000
H  44.39500 13.98000 22.89800
H  44.29800 12.15600 23.34300
H  45.36000 12.83300 22.08300
H  42.64500 13.81200 27.74300
H  41.99800 14.35300 29.17600
H  42.46300 12.67600 29.12900
H  45.61600 14.64700 33.58700
H  42.91900 17.95900 34.79400
H  44.60200 18.03300 35.48600
H  43.38600 17.09900 36.26700
Mg 16.98900 51.59700 25.60500
C  18.57400 50.15200 28.45900
C  14.21800 52.08600 27.45100
C  15.58400 52.50400 22.86800
C  19.83400 50.54100 23.72500
N  16.57700 51.30500 27.73900
C  17.37100 50.75900 28.71700
C  16.73000 51.18500 30.11000
C  15.23200 51.40100 29.71000
C  15.26000 51.65000 28.20400
C  14.36400 50.10100 30.01200
C  17.28100 52.47000 30.81600
C  16.86900 52.89100 32.24100
H  15.81400 52.03500 33.01100
N  15.19300 52.28100 25.23000
C  14.14900 52.46500 26.12200
C  13.07400 53.13500 25.45700
C  13.48200 53.35700 24.14600
C  14.75200 52.73100 24.04200
C  11.61300 53.30000 25.97500
C  12.69500 54.05700 22.95400
O  13.10600 54.27900 21.82000
C  11.39500 54.62000 23.24300
N  17.72300 51.53500 23.56200
C  16.86000 51.95200 22.66900
C  17.41600 51.82400 21.24700
C  18.79900 51.22900 21.47300
C  18.85600 51.19600 23.01700
C  16.63500 50.89100 20.29000
C  20.04600 51.96500 20.86600
C  20.31600 53.34400 21.50500
N  18.91200 50.68400 25.95500
C  19.90500 50.26900 25.11100
C  20.93100 49.55700 25.87000
C  20.41100 49.46300 27.21400
C  19.22300 50.13700 27.21500
C  22.06300 48.87600 25.21800
C  20.70300 48.88400 28.46700
O  21.62400 48.20600 28.83200
C  19.61300 49.49000 29.42500
C  19.05500 48.51500 30.40400
O  18.38300 47.51300 30.10900
O  19.08900 49.06800 31.70800
C  18.55700 48.10900 32.66000
H  13.29900 52.17000 28.03500
H  15.10300 52.85700 21.95400
H  20.61100 50.13100 23.07800
H  16.84100 50.32900 30.77700
H  14.82700 52.34400 30.07900
H  13.76900 50.43800 30.86100
H  14.94700 49.23300 30.32100
H  13.79300 49.81800 29.12800
H  16.98400 53.32400 30.20800
H  18.37000 52.42300 30.79100
H  16.54100 53.92700 32.16400
H  17.75500 52.82700 32.87200
H  11.08800 54.25100 25.88700
H  11.76500 53.17800 27.04700
H  10.97800 52.53200 25.53300
H  11.46500 55.58500 23.74600
H  10.75600 53.85500 23.68300
H  10.96600 54.71200 22.24500
H  17.40400 52.85800 20.90400
H  18.87000 50.22600 21.05200
H  17.25800 50.33800 19.58800
H  15.86700 51.44000 19.74500
H  16.12300 50.11100 20.85300
H  19.85900 52.18300 19.81500
H  20.90800 51.30400 20.78700
H  20.30700 54.23700 20.88000
H  21.32100 53.27600 21.92200
H  19.59100 53.49800 22.30400
H  22.86800 49.61100 25.23600
H  21.93000 48.54800 24.18700
H  22.20200 47.99900 25.84900
H  20.11800 50.22300 30.05400
H  17.57100 47.82100 32.29700
H  18.42600 48.61600 33.61600
H  19.23400 47.25700 32.70800

