158

Mg 25.96100 2.12500 29.85600
C  27.91800 1.92500 32.77500
C  23.17200 2.57600 31.83100
C  24.24600 2.03900 27.16100
C  28.88400 1.19400 28.04400
N  25.60800 2.26600 32.14900
C  26.58300 2.23200 33.11900
C  25.98300 2.50800 34.56200
C  24.47100 2.61700 34.22200
C  24.36600 2.42500 32.65300
C  23.56800 1.78700 35.11800
C  26.62300 3.75200 35.26100
C  27.20500 3.51800 36.78300
H  26.77700 4.49500 37.93000
N  24.00300 2.40300 29.51600
C  23.01100 2.52000 30.39700
C  21.78400 2.80300 29.69600
C  22.04000 2.61800 28.31300
C  23.45600 2.32400 28.25800
C  20.46500 3.18600 30.38000
C  21.07700 2.68300 27.19700
O  21.38800 2.69600 25.95900
C  19.62700 2.68800 27.54400
N  26.52800 1.80300 27.87500
C  25.58600 1.88600 26.92300
C  26.18200 1.52500 25.53500
C  27.77700 1.50000 25.89900
C  27.74200 1.45400 27.34500
C  25.65000 0.11000 25.17400
C  28.52500 2.72500 25.20000
C  29.78400 2.30800 24.33300
N  27.92200 1.58800 30.27200
C  29.01000 1.31600 29.48700
C  30.14400 0.96300 30.27700
C  29.77100 1.23700 31.54200
C  28.45000 1.59700 31.51600
C  31.51100 0.40200 29.80000
C  30.29900 1.23500 32.90700
O  31.41400 0.93100 33.33600
C  29.02200 1.61200 33.80300
C  28.66100 0.44800 34.71700
O  28.02900 -0.53800 34.41500
O  29.00300 0.78300 36.02000
C  28.33500 -0.04200 36.99900
H  22.25700 2.85500 32.35700
H  23.71100 1.92500 26.21600
H  29.83700 1.06700 27.52500
H  26.26000 1.65200 35.17700
H  24.21900 3.64000 34.50000
H  22.97800 2.39500 35.80400
H  24.14000 1.09800 35.74000
H  22.90100 1.25100 34.44300
H  25.91600 4.57600 35.17100
H  27.52000 3.90900 34.66200
H  28.29100 3.56300 36.86400
H  26.92600 2.49400 37.03400
H  20.22100 4.18700 30.02200
H  20.60400 3.17400 31.46100
H  19.67400 2.44800 30.24900
H  19.27900 1.98200 28.29800
H  19.03100 2.60000 26.63500
H  19.32900 3.62600 28.01300
H  25.84600 2.26600 24.81000
H  28.19500 0.60000 25.44900
H  24.73300 -0.12100 25.71500
H  26.26200 -0.75400 25.43200
H  25.38200 0.06800 24.11800
H  28.90700 3.40700 25.96000
H  27.85700 3.30600 24.56300
H  30.65900 2.67300 24.87000
H  29.77000 2.85200 23.38900
H  29.94400 1.23500 24.22500
H  31.62900 -0.53900 30.33800
H  32.27100 1.15500 30.00800
H  31.42500 0.01700 28.78400
H  29.29600 2.48400 34.39600
H  28.64200 -1.08400 37.08800
H  27.26900 0.07200 36.80300
H  28.34500 0.47900 37.95600
Mg 35.76300 3.01300 30.76200
C  33.41400 4.30800 33.03000
C  38.11400 2.94000 33.31400
C  38.03800 2.20200 28.45300
C  33.43300 3.60300 28.21800
N  35.82600 3.76600 32.91000
C  34.65500 3.97700 33.64000
C  34.92600 3.88500 35.19800
C  36.48900 3.61400 35.22400
C  36.87500 3.46300 33.72400
C  37.23600 4.79600 35.85500
C  34.08800 2.69000 35.73000
C  33.35300 3.01200 37.10200
H  33.99200 4.14800 37.93900
N  37.70300 2.45200 30.89000
C  38.50300 2.51200 32.02400
C  39.80900 1.99600 31.73300
C  39.78700 1.65200 30.30300
C  38.48300 2.14800 29.80800
C  40.88300 1.67800 32.82400
C  40.79200 0.96400 29.43600
O  40.53500 0.67900 28.24500
C  42.16500 0.55200 30.05100
N  35.69500 2.82800 28.59700
C  36.73700 2.41500 27.88400
C  36.41900 2.45200 26.45900
C  34.85200 2.40400 26.34500
C  34.65200 3.05000 27.78600
C  37.04300 3.71100 25.83800
C  34.21500 0.98000 26.16100
C  33.47300 0.80700 24.87800
N  33.86500 3.91900 30.62200
C  33.04100 3.99200 29.51100
C  31.78500 4.56700 29.86500
C  31.82900 4.70400 31.26300
C  33.13500 4.30900 31.67800
C  30.63300 4.83000 28.85400
C  31.14900 5.13000 32.44400
O  30.06600 5.61900 32.42400
C  32.13400 4.81600 33.65900
C  32.23700 6.02200 34.55300
O  33.04500 6.97400 34.39400
O  31.36800 5.88900 35.54800
C  31.38300 6.80300 36.66800
H  38.70100 2.88400 34.23300
H  38.75600 1.99900 27.65500
H  32.63700 3.56700 27.47100
H  34.58400 4.80900 35.66700
H  36.77900 2.71400 35.76400
H  38.01500 5.10900 35.16000
H  37.84500 4.48100 36.70200
H  36.69200 5.69800 36.13300
H  34.75800 1.83300 35.80300
H  33.30900 2.32000 35.06200
H  33.49300 2.07000 37.63100
H  32.28000 3.12100 36.94500
H  41.90700 2.02800 32.69800
H  40.99400 0.60100 32.95200
H  40.59300 2.14100 33.76700
H  42.50800 -0.21800 29.35900
H  41.87600 0.11800 31.00800
H  42.90700 1.34100 30.17400
H  36.81600 1.48500 26.15000
H  34.55800 3.08800 25.54900
H  37.38600 4.44500 26.56700
H  36.38700 4.28000 25.17900
H  37.92800 3.35600 25.31000
H  33.72700 0.75600 27.11000
H  35.01700 0.24400 26.10900
H  33.61900 1.62400 24.17100
H  32.39900 0.73000 25.04600
H  33.85300 -0.12600 24.46300
H  30.01500 5.66300 29.18900
H  30.03300 3.94300 29.05800
H  30.83300 4.95700 27.79000
H  31.69300 4.02000 34.26000
H  30.75000 7.67900 36.52300
H  32.37000 7.12800 36.99700
H  31.01700 6.10200 37.41900

