158

Mg 35.57200 48.59500 25.36800
C  35.99900 46.69700 28.29600
C  34.37400 51.13700 27.32700
C  34.61100 50.14400 22.53300
C  36.30400 45.69300 23.52700
N  35.06100 48.80500 27.58400
C  35.33000 47.88100 28.62500
C  35.01900 48.49700 29.93500
C  34.30000 49.86900 29.59000
C  34.64200 49.98200 28.08200
C  32.74300 49.93500 29.81900
C  36.26700 48.74600 30.94300
C  36.09200 48.73900 32.43000
H  34.67000 48.58500 32.99900
N  34.63600 50.41300 25.03200
C  34.29100 51.34400 25.91300
C  33.93300 52.58200 25.26100
C  33.87500 52.26200 23.91600
C  34.39700 50.88700 23.75000
C  33.77200 53.91200 25.92500
C  33.41800 53.19400 22.74600
O  33.28600 52.80300 21.57200
C  33.10100 54.64400 22.96000
N  35.29100 47.93400 23.37500
C  35.00000 48.83000 22.39300
C  35.13400 48.17700 21.03900
C  35.72500 46.77200 21.33300
C  35.75800 46.77300 22.85300
C  33.80900 48.09700 20.24100
C  37.19000 46.51500 20.68300
C  38.36300 47.09300 21.48300
N  36.08900 46.63600 25.76200
C  36.55100 45.70500 24.91500
C  37.07800 44.58400 25.71800
C  36.81400 44.91800 27.04900
C  36.22100 46.21000 26.96800
C  37.77800 43.35700 25.21800
C  36.91600 44.46600 28.36400
O  37.33800 43.38500 28.78200
C  36.45400 45.64700 29.25600
C  35.38100 45.13900 30.13500
O  34.20000 44.96500 29.76800
O  35.96100 44.86200 31.32200
C  34.93900 44.63100 32.30400
H  34.02000 51.90800 28.01400
H  34.51500 50.71300 21.60600
H  36.54600 44.77900 22.98000
H  34.24000 47.91000 30.42100
H  34.72800 50.71800 30.12400
H  32.31800 50.03400 28.82000
H  32.37500 50.83600 30.31000
H  32.27200 49.07300 30.29100
H  36.73900 49.71000 30.75500
H  36.99500 47.95000 30.79000
H  36.40800 49.73300 32.74600
H  36.66200 48.00300 32.99700
H  32.92400 54.52100 25.61200
H  34.60200 54.56600 25.66000
H  33.65000 53.78100 27.00000
H  33.88600 55.13300 23.53700
H  32.11600 54.62200 23.42700
H  33.08400 55.00000 21.93000
H  35.81900 48.70300 20.37400
H  34.96500 46.05300 21.02700
H  33.00700 48.61600 20.76600
H  33.59900 47.06400 19.96500
H  34.02600 48.68500 19.34900
H  37.31000 47.02500 19.72700
H  37.51900 45.48700 20.53000
H  37.99500 47.44400 22.44700
H  38.74300 48.02100 21.05500
H  39.07900 46.28200 21.61700
H  38.40100 43.12100 26.08000
H  38.29500 43.51700 24.27100
H  36.96900 42.63000 25.14700
H  37.29200 45.95100 29.88300
H  34.60100 43.61400 32.10300
H  34.05600 45.27000 32.26800
H  35.49800 44.67000 33.23900
Mg -5.85000 25.06800 26.68300
C  -4.50600 26.82000 29.38300
C  -7.45000 23.04000 28.89100
C  -6.82600 23.18500 24.06700
C  -3.49000 26.65500 24.61300
N  -5.91900 24.89600 28.90000
C  -5.30800 25.76100 29.78500
C  -5.93900 25.48300 31.16000
C  -6.59800 24.03100 31.03400
C  -6.61700 23.94200 29.48000
C  -5.81500 22.88900 31.60100
C  -6.95700 26.62900 31.47200
C  -7.31500 26.79600 32.94900
H  -6.67400 25.80000 33.88800
N  -7.15700 23.49300 26.50600
C  -7.78900 22.82800 27.51900
C  -8.76900 21.88700 26.96300
C  -8.55800 21.84800 25.59700
C  -7.51800 22.87900 25.31100
C  -9.76900 21.12300 27.75200
C  -9.33900 21.12400 24.44200
O  -8.90000 21.18000 23.27800
C  -10.51500 20.15400 24.75100
N  -5.20800 24.97900 24.68300
C  -5.84300 24.15500 23.78100
C  -5.21200 24.30000 22.36500
C  -4.12400 25.39600 22.53800
C  -4.28800 25.70400 24.02600
C  -4.65700 22.96600 21.74100
C  -4.34500 26.62100 21.48900
C  -5.53600 27.55100 21.70900
N  -4.28100 26.38300 26.93500
C  -3.47600 27.08600 25.97600
C  -2.68100 28.07800 26.56800
C  -3.16900 28.13000 27.92900
C  -4.06800 27.08900 28.08600
C  -1.68000 29.01500 25.87400
C  -2.98400 28.75400 29.19600
O  -2.21500 29.64900 29.50600
C  -3.97200 27.98000 30.17300
C  -3.18200 27.58000 31.37400
O  -2.05500 27.11000 31.39500
O  -3.85900 27.93400 32.53900
C  -3.15300 27.89800 33.78800
H  -7.88000 22.35900 29.62800
H  -7.07300 22.65200 23.14600
H  -2.75400 27.11200 23.94800
H  -5.21800 25.54600 31.97500
H  -7.53500 24.13600 31.58000
H  -6.32400 22.47900 32.47300
H  -4.84100 23.28300 31.89200
H  -5.55200 22.10100 30.89600
H  -7.79400 26.36600 30.82500
H  -6.57000 27.59600 31.15300
H  -8.38900 26.70000 33.10900
H  -7.02800 27.79300 33.28500
H  -9.73100 20.09300 27.39900
H  -10.78700 21.51200 27.74100
H  -9.53000 21.12800 28.81500
H  -9.91700 19.37800 25.22900
H  -11.05800 19.80800 23.87200
H  -11.18000 20.60900 25.48500
H  -6.04700 24.71300 21.79900
H  -3.12700 25.04600 22.27100
H  -4.36900 22.12000 22.36500
H  -3.75100 23.24000 21.19900
H  -5.29500 22.54700 20.96400
H  -4.35900 26.17900 20.49200
H  -3.53500 27.35000 21.52400
H  -6.40600 27.30900 21.10000
H  -5.19700 28.56300 21.48900
H  -5.87700 27.44600 22.73900
H  -1.83500 28.80500 24.81500
H  -0.69500 28.64900 26.16400
H  -1.71800 30.08400 26.08100
H  -4.76100 28.67000 30.47200
H  -3.78500 28.31500 34.57200
H  -2.26200 28.52400 33.75700
H  -2.92400 26.89500 34.14800

