158

Mg 48.74200 34.61500 26.15600
C  46.59700 33.35400 28.75100
C  49.00600 37.38100 27.98200
C  50.36400 35.95100 23.59600
C  47.74200 31.89800 24.16500
N  48.06300 35.20700 28.15000
C  47.33100 34.49500 29.05100
C  47.57700 35.02700 30.46200
C  47.95200 36.53300 30.15100
C  48.43700 36.37000 28.67200
C  46.64400 37.44400 30.14400
C  48.68400 34.28300 31.32800
C  48.67200 34.51300 32.89400
H  47.49600 35.38800 33.45100
N  49.60800 36.38100 25.84900
C  49.57500 37.41500 26.71600
C  50.29500 38.54500 26.16000
C  50.64400 38.12700 24.84100
C  50.24000 36.76300 24.73700
C  50.51600 39.88900 26.89300
C  51.39500 38.91500 23.75100
O  51.79500 38.44400 22.72700
C  51.27700 40.36700 23.89200
N  49.01500 33.97900 24.14400
C  49.81900 34.68700 23.35100
C  50.11800 33.87400 22.04300
C  49.22900 32.63500 22.21000
C  48.67500 32.81200 23.60800
C  49.89600 34.68900 20.81000
C  49.95200 31.19500 22.16500
C  49.34900 30.16000 21.16700
N  47.47400 32.96700 26.35900
C  47.19900 31.94300 25.46800
C  46.24000 31.04600 26.14600
C  45.96200 31.54700 27.38100
C  46.74500 32.71500 27.45400
C  45.77300 29.79900 25.48600
C  45.27500 31.34500 28.60000
O  44.47300 30.46400 28.85400
C  45.77800 32.48500 29.62300
C  46.48200 31.77200 30.68800
O  47.32300 30.94300 30.47900
O  46.08400 32.17100 31.96300
C  46.66300 31.25500 32.95500
H  49.23200 38.27600 28.56700
H  50.91500 36.45000 22.79600
H  47.42300 31.10600 23.48300
H  46.62700 35.04500 30.99600
H  48.74200 36.93800 30.78300
H  46.04400 37.12800 30.99800
H  46.09700 37.29200 29.21300
H  46.96800 38.48300 30.20300
H  49.65600 34.56100 30.92000
H  48.58300 33.20600 31.19800
H  49.60200 35.05700 33.05500
H  48.72600 33.54900 33.40000
H  51.55900 40.20200 26.94200
H  50.20600 39.88700 27.93800
H  49.91400 40.66100 26.41300
H  51.93400 40.83100 24.62800
H  50.25200 40.66100 24.11600
H  51.57800 40.74300 22.91400
H  51.15400 33.55200 22.15400
H  48.37600 32.63400 21.53200
H  49.79300 34.05600 19.92900
H  50.84000 35.22200 20.70200
H  49.08700 35.42000 20.79900
H  50.08800 30.63600 23.09100
H  50.93400 31.52500 21.82500
H  50.03600 30.17700 20.32100
H  48.37200 30.47700 20.80200
H  49.25400 29.16900 21.61300
H  45.41500 30.21300 24.54300
H  44.84300 29.44800 25.93300
H  46.50900 28.99600 25.44500
H  44.79600 32.87600 29.88900
H  46.58200 31.82100 33.88300
H  47.71600 30.98500 32.87200
H  46.18700 30.27700 33.03000
Mg -9.98700 39.55200 40.47100
C  -8.54300 36.32900 39.45500
C  -6.92500 40.93900 39.70600
C  -11.38400 42.67200 40.44400
C  -12.94900 38.01100 40.87500
N  -7.97900 38.73200 39.56200
C  -7.57600 37.43100 39.49600
C  -6.09000 37.33300 39.25100
C  -5.59800 38.74900 39.57500
C  -6.94000 39.53300 39.66800
C  -4.65400 38.90000 40.75100
C  -5.80900 36.87000 37.77200
C  -6.53800 37.67600 36.65000
H  -7.27600 36.85700 35.53500
N  -9.29600 41.49600 40.07100
C  -7.95500 41.82700 39.85100
C  -7.86000 43.20500 39.59600
C  -9.09200 43.76600 39.87800
C  -10.05600 42.65200 40.23900
C  -6.51800 43.87400 39.18800
C  -9.43300 45.26400 39.80200
O  -8.61900 46.08900 39.44700
C  -10.71300 45.72700 40.22400
N  -11.93400 40.29300 40.64900
C  -12.35300 41.61800 40.60100
C  -13.82600 41.72800 41.04900
C  -14.24800 40.20300 41.34400
C  -12.97900 39.46000 40.92500
C  -14.14000 42.70300 42.25800
C  -15.59500 39.71800 40.65200
C  -16.77100 39.12000 41.48300
N  -10.66900 37.59400 40.31700
C  -11.94700 37.10100 40.47500
C  -12.02300 35.68700 40.09400
C  -10.68300 35.34300 39.77000
C  -9.91300 36.48300 39.87800
C  -13.18800 34.78300 40.14000
C  -9.86800 34.26200 39.26800
O  -10.14400 33.11000 38.98900
C  -8.37200 34.80000 39.13800
C  -7.56000 34.12700 40.25600
O  -7.96800 33.70900 41.34700
O  -6.17700 34.08100 39.83900
C  -5.31600 33.25200 40.74100
H  -5.91200 41.32700 39.57800
H  -11.91400 43.61500 40.29300
H  -13.93100 37.54300 40.96900
H  -5.73300 36.61500 39.98900
H  -5.10300 39.09800 38.66900
H  -5.29500 39.21200 41.57600
H  -3.93800 39.66200 40.44000
H  -4.23700 37.90800 40.92500
H  -5.89900 35.79700 37.60200
H  -4.74800 37.09200 37.65900
H  -5.78200 38.18900 36.05700
H  -7.03200 38.55200 37.07100
H  -6.75700 44.33800 38.23100
H  -5.64100 43.30400 38.88200
H  -6.20400 44.63500 39.90200
H  -10.99600 45.45500 41.24100
H  -11.46400 45.31800 39.54800
H  -10.85500 46.79400 40.05100
H  -14.27700 42.10200 40.13000
H  -14.28500 40.05100 42.42300
H  -14.87800 43.43700 41.93500
H  -13.29200 43.28100 42.62700
H  -14.67400 42.13300 43.01800
H  -15.32200 39.02600 39.85600
H  -15.97900 40.47500 39.96800
H  -17.65000 39.72700 41.26200
H  -16.45200 39.34300 42.50100
H  -16.91000 38.04200 41.40900
H  -14.06300 35.20800 40.63100
H  -12.90100 33.84300 40.61200
H  -13.52800 34.63900 39.11400
H  -7.79600 34.63700 38.22700
H  -5.79000 32.50400 41.37800
H  -4.83900 33.95500 41.42400
H  -4.54300 32.78600 40.13000

