158

Mg -1.48600 16.90300 26.02200
C  -1.74900 14.68000 28.73900
C  -1.89600 19.55000 28.25600
C  -1.71800 19.06100 23.35700
C  -1.66200 14.20900 23.80700
N  -1.77700 17.07900 28.28000
C  -1.74000 16.02200 29.15900
C  -1.63600 16.55500 30.54800
C  -1.97500 18.06600 30.43900
C  -1.93900 18.28200 28.90100
C  -3.37100 18.47000 30.94700
C  -0.22100 16.35400 31.20800
C  -0.07000 15.93500 32.71900
H  -1.11800 16.20200 33.83500
N  -1.62900 19.01100 25.83900
C  -1.85900 19.92600 26.87600
C  -1.91000 21.28100 26.32600
C  -1.70800 21.17100 24.85800
C  -1.68800 19.65500 24.63700
C  -2.07800 22.55400 27.13700
C  -1.51100 22.19600 23.79900
O  -1.33400 21.91500 22.66500
C  -1.48900 23.68000 24.10900
N  -1.78400 16.69300 23.87800
C  -1.72600 17.76700 22.99500
C  -1.88900 17.22000 21.53600
C  -1.58700 15.66500 21.74800
C  -1.70100 15.47100 23.22100
C  -3.31900 17.49200 20.93700
C  -0.18300 15.07000 21.23700
C  1.12100 15.45100 22.01600
N  -1.55200 14.88400 26.21000
C  -1.64800 13.91000 25.19200
C  -1.66400 12.63800 25.88000
C  -1.58300 12.84600 27.19600
C  -1.66000 14.22700 27.39700
C  -1.81800 11.30000 25.18500
C  -1.55300 12.22800 28.52300
O  -1.57200 11.05400 28.82800
C  -1.95200 13.39100 29.49100
C  -1.23300 13.17100 30.79000
O  -0.04500 13.15000 30.92700
O  -2.15800 12.84800 31.74200
C  -1.69300 12.34000 33.02200
H  -1.76300 20.48300 28.80800
H  -1.96300 19.75800 22.55200
H  -1.89100 13.44000 23.06600
H  -2.35800 16.01500 31.16100
H  -1.24500 18.66500 30.98400
H  -3.82200 19.34600 30.48100
H  -3.17500 18.71800 31.99000
H  -4.07400 17.63900 31.00100
H  0.38900 17.24500 31.05900
H  0.36000 15.60300 30.67400
H  0.80500 16.44200 33.12600
H  -0.03300 14.84600 32.75600
H  -2.42900 22.30800 28.13900
H  -2.87400 23.11400 26.64800
H  -1.10600 23.04200 27.07400
H  -0.61500 23.79000 24.75000
H  -2.39600 24.06200 24.57900
H  -1.28500 24.38400 23.30200
H  -1.12600 17.61700 20.86700
H  -2.35700 15.05800 21.27200
H  -4.06000 17.80500 21.67300
H  -3.63800 16.56700 20.45700
H  -3.19800 18.28200 20.19700
H  -0.13000 15.57700 20.27300
H  -0.27900 13.98800 21.14600
H  1.46700 14.50900 22.44100
H  0.79500 16.16500 22.77200
H  1.94500 15.76200 21.37300
H  -2.73500 11.24200 24.59900
H  -1.86900 10.60000 26.02000
H  -0.93400 11.05300 24.59600
H  -3.01300 13.34200 29.73900
H  -1.41800 11.29100 32.91100
H  -2.41700 12.31300 33.83600
H  -0.85200 12.92900 33.38900
Mg 46.07500 24.32600 27.61200
C  46.92600 26.35900 30.43400
C  45.41000 21.81100 29.87400
C  45.98500 22.30500 25.07200
C  47.32600 27.00000 25.49600
N  46.03400 24.18500 29.95900
C  46.30700 25.09900 30.86600
C  45.89000 24.68300 32.26900
C  45.47900 23.17700 32.04400
C  45.74200 22.97000 30.53200
C  46.11500 22.10400 32.97500
C  44.67400 25.51000 32.96800
C  44.88800 26.02200 34.39900
H  43.68200 26.27200 35.30200
N  45.63300 22.42300 27.47700
C  45.40300 21.57600 28.49200
C  45.06300 20.27800 27.90000
C  45.28500 20.31000 26.48100
C  45.61700 21.70800 26.30600
C  44.42100 19.17800 28.78200
C  45.14200 19.31200 25.35600
O  45.21700 19.63300 24.16400
C  44.82500 17.84400 25.66500
N  46.59900 24.63500 25.61200
C  46.33800 23.63500 24.72400
C  46.73600 24.09900 23.27400
C  46.91500 25.56800 23.42400
C  46.96000 25.74500 24.90700
C  47.97200 23.34400 22.55300
C  45.76200 26.36400 22.76500
C  44.40100 26.63300 23.49400
N  46.91400 26.28500 27.78200
C  47.37100 27.26500 26.86300
C  47.93000 28.44400 27.57100
C  47.70400 28.10000 28.87000
C  47.14700 26.81300 29.03400
C  48.59200 29.62300 26.90600
C  47.81700 28.60400 30.23300
O  48.29900 29.63200 30.62400
C  47.29700 27.45500 31.27100
C  48.35500 27.05800 32.17600
O  49.38600 26.48700 31.86000
O  48.02000 27.45200 33.44900
C  48.89300 26.85700 34.42400
H  45.20300 20.94400 30.50500
H  45.98200 21.64100 24.20500
H  47.59300 27.63600 24.65000
H  46.77000 24.70200 32.91200
H  44.39700 23.04400 32.04200
H  45.33800 21.44900 33.37000
H  46.65200 22.65300 33.74800
H  46.90700 21.59000 32.43000
H  43.93900 24.70900 33.04600
H  44.39600 26.22500 32.19500
H  45.33900 27.00300 34.25300
H  45.54300 25.36000 34.96600
H  43.63200 18.76300 28.15400
H  44.07200 19.42400 29.78400
H  45.15800 18.38800 28.93100
H  43.77200 17.69400 25.90300
H  45.57100 17.43900 26.34800
H  44.89800 17.29200 24.72800
H  45.83400 23.89500 22.69700
H  47.86500 25.96500 23.06800
H  47.72300 22.87900 21.59900
H  48.29400 22.59800 23.28000
H  48.85100 23.98700 22.50600
H  45.58900 25.96400 21.76600
H  46.12800 27.38400 22.64400
H  44.51800 26.37900 24.54800
H  43.49200 26.14000 23.15100
H  44.19500 27.69100 23.32700
H  49.08200 30.30800 27.59700
H  47.86300 30.25200 26.39600
H  49.32200 29.34500 26.14500
H  46.40400 27.71400 31.84000
H  48.36700 26.97500 35.37100
H  49.88200 27.31500 34.46700
H  49.10400 25.80800 34.21600

