158

Mg 17.51900 52.04100 26.42300
C  19.22300 50.62600 28.99000
C  15.05300 53.27100 28.53900
C  15.71200 52.95400 23.73900
C  19.73700 50.37600 24.16300
N  17.21600 51.92800 28.55200
C  18.05900 51.30300 29.42600
C  17.46900 51.51400 30.86700
C  16.01200 52.01000 30.60000
C  16.02500 52.43700 29.15000
C  14.91400 50.92700 30.76800
C  18.19800 52.71000 31.55700
C  18.19300 52.75200 33.12300
H  17.08700 52.03700 33.93900
N  15.77300 53.22100 26.22600
C  14.98700 53.64600 27.17600
C  14.05800 54.62500 26.59300
C  14.08900 54.44100 25.17600
C  15.27100 53.53300 24.99400
C  13.16000 55.42900 27.52100
C  13.26600 55.04700 24.01500
O  13.55600 54.97700 22.82000
C  12.18000 55.99300 24.42400
N  17.61000 51.60800 24.33100
C  16.78400 52.15000 23.41000
C  17.17600 51.94700 21.93300
C  18.57600 51.23700 22.11400
C  18.64400 51.01000 23.57600
C  16.08700 51.25300 21.12600
C  19.81200 52.10900 21.62600
C  21.18300 51.41800 21.49000
N  19.13200 50.76700 26.54800
C  19.98200 50.29600 25.55000
C  20.98900 49.55400 26.20200
C  20.82600 49.77600 27.56400
C  19.64000 50.41000 27.73300
C  22.09100 48.78600 25.55800
C  21.40300 49.42300 28.85400
O  22.42000 48.84200 29.16000
C  20.34600 49.99300 29.91100
C  19.95200 49.00600 30.94300
O  19.63300 47.85200 30.67600
O  20.13600 49.51200 32.14200
C  19.81000 48.55300 33.25900
H  14.16900 53.51200 29.13300
H  15.24100 53.26200 22.80400
H  20.48000 49.87600 23.53900
H  17.24200 50.67600 31.52600
H  15.64700 52.81000 31.24400
H  13.97300 51.25500 31.21000
H  15.29400 50.08800 31.35200
H  14.78000 50.59800 29.73800
H  17.88100 53.68900 31.19800
H  19.21600 52.51300 31.22100
H  18.24200 53.79800 33.42300
H  19.07700 52.21700 33.47000
H  13.52600 55.41200 28.54800
H  12.15800 55.00600 27.59400
H  13.10000 56.48000 27.24100
H  12.62900 56.96300 24.63900
H  11.57800 55.68100 25.27600
H  11.53100 56.11500 23.55700
H  17.38300 52.94100 21.53900
H  18.61900 50.28500 21.58400
H  16.52300 50.36300 20.67100
H  15.66600 51.87100 20.33200
H  15.22800 50.96700 21.73300
H  19.96700 52.85600 22.40400
H  19.57000 52.63200 20.70100
H  21.77900 51.69600 22.35900
H  21.76300 51.80000 20.65000
H  21.16300 50.34300 21.31300
H  23.04600 49.09000 25.98700
H  22.01900 48.91600 24.47800
H  22.08900 47.70100 25.66000
H  20.80900 50.80500 30.47100
H  20.76000 48.36500 33.75800
H  19.21500 47.65600 33.08500
H  19.28600 49.07800 34.05800
Mg -1.90200 34.96600 26.86800
C  -3.74600 33.10900 29.11700
C  -1.30500 37.19300 29.51100
C  -0.08300 36.86300 24.78100
C  -3.05100 33.03600 24.23500
N  -2.48900 35.14100 29.08600
C  -3.08400 34.12600 29.72100
C  -3.17100 34.44700 31.19800
C  -2.56400 35.90400 31.41100
C  -2.11500 36.13700 29.97600
C  -3.54200 37.05000 31.81300
C  -2.36000 33.32600 31.99600
C  -3.10300 32.75700 33.16800
H  -2.32200 32.62600 34.48500
N  -0.93500 36.86500 27.13000
C  -0.69400 37.53700 28.30200
C  0.31600 38.61400 28.09000
C  0.62400 38.64900 26.67500
C  -0.14900 37.45900 26.14200
C  0.86200 39.62100 29.18700
C  1.59200 39.49200 25.97600
O  1.86100 39.30200 24.82700
C  2.11000 40.71000 26.59500
N  -1.77800 35.08900 24.70900
C  -0.79500 35.85700 24.14300
C  -0.48000 35.53600 22.65100
C  -1.39900 34.23300 22.53700
C  -2.26800 34.16800 23.84700
C  -0.84000 36.73800 21.73200
C  -0.60300 32.96900 22.34500
C  0.16400 32.31300 23.51200
N  -3.19800 33.37400 26.66700
C  -3.54500 32.68900 25.51600
C  -4.51500 31.68800 25.82100
C  -4.61700 31.82900 27.19900
C  -3.70900 32.81500 27.67600
C  -5.26100 30.75500 24.86100
C  -5.28400 31.27800 28.36700
O  -6.20200 30.48300 28.48200
C  -4.64600 31.95600 29.69600
C  -5.79600 32.49600 30.53800
O  -6.71700 33.18800 30.10600
O  -5.64700 32.02100 31.79500
C  -6.75500 32.35500 32.72200
H  -0.88600 37.87500 30.25300
H  0.70600 37.45000 24.30500
H  -3.28700 32.49200 23.31800
H  -4.23900 34.44900 31.41800
H  -1.73000 35.89400 32.11300
H  -4.45000 36.58300 32.19400
H  -3.79000 37.78100 31.04400
H  -2.99300 37.50600 32.63700
H  -1.37300 33.74700 32.18800
H  -2.03300 32.56100 31.29200
H  -3.30300 31.75100 32.79800
H  -3.97100 33.38400 33.37300
H  1.94900 39.55500 29.21800
H  0.54200 39.36400 30.19700
H  0.51000 40.63700 29.01100
H  2.88900 40.47500 27.32000
H  1.28100 41.27500 27.02100
H  2.60300 41.33100 25.84700
H  0.56500 35.25500 22.52300
H  -2.16800 34.24600 21.76500
H  -0.86200 37.64800 22.33300
H  -1.74100 36.57300 21.14000
H  -0.03800 36.92300 21.01800
H  0.14600 33.11200 21.56600
H  -1.14100 32.16800 21.83800
H  -0.27600 32.66100 24.44600
H  1.21000 32.61400 23.45200
H  0.14500 31.22400 23.55900
H  -4.79000 30.66100 23.88300
H  -6.23400 31.22100 24.70600
H  -5.31900 29.79100 25.36600
H  -4.02000 31.25000 30.24200
H  -7.05600 33.39900 32.63200
H  -6.42100 32.30500 33.75800
H  -7.57100 31.65000 32.56000

