158

Mg -2.46100 16.85800 26.78400
C  -2.88500 14.52900 29.56000
C  -2.72600 19.42200 29.06900
C  -2.46900 18.79200 24.16500
C  -2.83200 13.94100 24.73800
N  -2.87400 16.97400 29.07500
C  -2.82100 15.91300 29.94200
C  -2.85500 16.47900 31.43500
C  -2.95200 18.04500 31.18800
C  -2.85500 18.15700 29.69300
C  -4.23100 18.74900 31.81400
C  -1.70400 15.94100 32.41600
C  -1.19200 16.88800 33.49700
H  -0.74800 16.21300 34.75700
N  -2.48400 18.82500 26.67400
C  -2.60000 19.76800 27.70000
C  -2.58100 21.08900 27.09500
C  -2.59300 20.91800 25.65200
C  -2.49600 19.44600 25.43700
C  -2.75300 22.28700 27.99100
C  -2.66300 21.95500 24.63300
O  -2.79500 21.67800 23.42500
C  -2.78400 23.41600 25.01500
N  -2.71700 16.38400 24.78000
C  -2.57300 17.35000 23.82700
C  -2.59400 16.84100 22.34600
C  -2.58300 15.30500 22.60700
C  -2.59200 15.13300 24.11200
C  -3.92300 17.30500 21.62400
C  -1.45200 14.52200 21.82800
C  -1.93000 13.41000 20.81100
N  -2.82100 14.67100 27.01900
C  -2.89700 13.68200 26.10100
C  -2.96700 12.40700 26.74200
C  -2.99000 12.72500 28.08700
C  -2.85600 14.09500 28.25900
C  -2.93000 11.03800 26.09300
C  -3.00100 12.09100 29.42700
O  -3.08300 10.93400 29.82400
C  -2.88200 13.28500 30.43800
C  -1.62600 13.10400 31.17500
O  -0.52300 13.42900 30.76800
O  -1.78500 12.49200 32.36300
C  -0.64200 12.36900 33.31100
H  -2.63000 20.30200 29.70800
H  -2.40400 19.44500 23.29200
H  -2.81300 13.01400 24.16300
H  -3.78100 16.05600 31.82400
H  -2.11100 18.64700 31.53000
H  -5.07700 18.80400 31.12900
H  -3.93800 19.72400 32.20600
H  -4.53200 18.13800 32.66500
H  -0.86800 15.73400 31.74800
H  -1.99700 14.98900 32.86000
H  -1.90000 17.69500 33.68500
H  -0.29700 17.31500 33.04400
H  -3.34900 21.97500 28.84900
H  -3.25600 23.15800 27.57000
H  -1.86300 22.78400 28.37600
H  -2.86900 24.06700 24.14500
H  -1.94300 23.82400 25.57500
H  -3.68900 23.55400 25.60600
H  -1.73500 17.20300 21.78100
H  -3.57000 14.95200 22.30900
H  -4.80000 17.02000 22.20400
H  -4.05700 16.65600 20.75900
H  -4.05900 18.34900 21.34100
H  -0.68900 14.11500 22.49200
H  -0.93500 15.23800 21.19000
H  -1.50400 13.63600 19.83400
H  -3.01000 13.42700 20.66400
H  -1.58700 12.40600 21.06200
H  -3.91600 10.64900 25.84100
H  -2.36800 10.42900 26.80200
H  -2.41300 11.08800 25.13500
H  -3.75900 13.22500 31.08200
H  -0.78300 11.31100 33.53100
H  -0.68200 13.04000 34.16900
H  0.36600 12.55100 32.93800
Mg 7.79100 2.68400 27.58300
C  9.06100 0.97900 30.34200
C  5.58500 4.47800 29.77600
C  6.02700 3.65200 24.90100
C  9.31800 0.11900 25.54600
N  7.32800 2.67800 29.82100
C  8.14100 2.00000 30.73000
C  7.85700 2.43400 32.17400
C  6.67500 3.54500 31.95700
C  6.52000 3.59000 30.46400
C  5.39400 3.21500 32.77400
C  9.23900 3.01800 32.72500
C  9.47800 2.75500 34.16000
H  9.37900 3.89800 35.12800
N  6.25700 4.07000 27.34900
C  5.45500 4.63200 28.33800
C  4.66600 5.66800 27.67100
C  4.79100 5.47300 26.26800
C  5.74200 4.35600 26.08000
C  3.75700 6.59400 28.50600
C  4.19600 6.28200 25.04400
O  4.32400 5.98500 23.81500
C  3.32400 7.48800 25.32600
N  7.55200 1.79100 25.46100
C  6.81300 2.52000 24.58800
C  7.08400 2.04700 23.08300
C  8.17100 0.89400 23.36300
C  8.42300 0.94000 24.87500
C  5.86500 1.61500 22.29400
C  9.49500 0.97200 22.60800
C  9.86600 -0.17600 21.73100
N  9.01600 0.98800 27.80300
C  9.56000 0.03700 26.88800
C  10.34100 -0.87600 27.62600
C  10.19600 -0.54600 28.98700
C  9.39500 0.59500 29.02300
C  11.02000 -1.99300 27.00000
C  10.58800 -0.91100 30.34300
O  11.30400 -1.74600 30.82700
C  9.90400 0.09300 31.18200
C  9.09300 -0.66300 32.19200
O  8.12800 -1.32500 31.91500
O  9.68900 -0.47500 33.41400
C  8.76700 -1.04900 34.48100
H  4.99400 5.13300 30.42000
H  5.55200 4.09000 24.02100
H  9.88400 -0.61800 24.97200
H  7.52300 1.47600 32.57300
H  7.06000 4.55300 32.10600
H  4.68400 2.78800 32.06600
H  5.03900 4.13400 33.24100
H  5.59400 2.49100 33.56400
H  9.18600 4.10700 32.69400
H  10.07000 2.75300 32.07200
H  10.48100 2.36600 34.33200
H  8.73200 2.03200 34.49100
H  4.14600 6.87800 29.48400
H  2.85600 5.99900 28.65000
H  3.42000 7.50300 28.00700
H  3.92100 8.04500 26.04800
H  2.36200 7.19700 25.74700
H  3.38700 8.19300 24.49800
H  7.55900 2.78400 22.43500
H  7.64100 -0.04800 23.22300
H  4.95600 1.69200 22.89000
H  6.02900 0.58100 21.99100
H  5.61600 2.32400 21.50300
H  10.36500 1.15200 23.23900
H  9.54900 1.89500 22.03100
H  10.38400 0.20700 20.85200
H  9.03600 -0.80000 21.40100
H  10.59400 -0.83200 22.20800
H  11.57900 -2.45500 27.81300
H  11.70600 -1.56900 26.26600
H  10.28900 -2.71300 26.63300
H  10.71100 0.65600 31.64900
H  7.70300 -1.19000 34.29100
H  8.93200 -0.38400 35.32900
H  9.22300 -1.98400 34.80800

