158

Mg 34.98700 3.55800 30.42600
C  33.08900 4.56000 32.95300
C  37.81500 3.58900 32.42600
C  37.06200 2.91100 27.70400
C  32.30200 3.91100 28.17600
N  35.38300 3.90500 32.40600
C  34.41000 4.28400 33.31600
C  35.04000 4.44400 34.75000
C  36.53900 4.43100 34.42400
C  36.59900 4.04400 32.93400
C  37.31300 5.72000 34.78300
C  34.51800 3.33400 35.64100
C  33.98100 3.72600 37.05300
H  34.70100 4.95600 37.66900
N  37.08700 3.02100 30.23400
C  38.07400 3.02900 31.14500
C  39.36700 2.56800 30.62700
C  39.12400 2.39500 29.25600
C  37.67900 2.76700 29.01800
C  40.58600 2.32700 31.51000
C  40.14100 2.00300 28.20900
O  39.91100 2.02100 27.02000
C  41.52100 1.60500 28.52000
N  34.71100 3.42800 28.32000
C  35.72400 3.18700 27.40200
C  35.24000 3.24100 25.94700
C  33.68500 3.15700 26.17700
C  33.53600 3.50700 27.64700
C  35.62500 4.55900 25.14800
C  33.09300 1.79200 25.78800
C  31.57100 1.73700 25.43100
N  33.13200 4.18500 30.51200
C  32.13700 4.29800 29.52400
C  30.95800 4.72900 30.16600
C  31.29600 4.99300 31.52900
C  32.61400 4.55400 31.63900
C  29.66500 4.91400 29.46000
C  30.80200 5.36300 32.82900
O  29.73600 5.77000 33.24100
C  31.93900 5.12100 33.82400
C  32.23100 6.47900 34.42000
O  32.75500 7.49200 33.90200
O  31.75900 6.46300 35.67200
C  31.68900 7.78300 36.34300
H  38.64600 3.59800 33.13400
H  37.51700 2.57000 26.77200
H  31.43100 3.88000 27.51700
H  34.69100 5.41300 35.10800
H  37.04500 3.67200 35.02100
H  37.52200 6.41500 33.97000
H  38.24900 5.46900 35.28300
H  36.79000 6.21600 35.60000
H  35.25700 2.53600 35.72000
H  33.74600 2.80800 35.07900
H  34.01100 2.95400 37.82200
H  32.92700 3.93500 36.87100
H  40.49700 1.31000 31.89200
H  40.66500 3.07700 32.29600
H  41.48300 2.45600 30.90500
H  41.99000 2.55000 28.79500
H  42.02500 1.17100 27.65600
H  41.54800 0.89200 29.34500
H  35.76000 2.39900 25.49200
H  33.13400 3.88300 25.57900
H  34.81000 5.11800 24.68800
H  36.37800 4.26400 24.41800
H  36.13500 5.21300 25.85600
H  33.31100 1.11600 26.61500
H  33.60600 1.46500 24.88400
H  31.33600 2.79900 25.35900
H  31.07800 1.28500 26.29200
H  31.38000 1.14000 24.53900
H  29.24300 3.91400 29.35400
H  29.85100 5.45300 28.53100
H  28.99600 5.43900 30.14300
H  31.63100 4.41300 34.59300
H  32.09100 7.53500 37.32600
H  30.65800 8.11300 36.47400
H  32.23800 8.58500 35.85100
Mg 42.68400 42.03100 26.46500
C  41.48300 44.21100 28.88700
C  43.74500 39.87200 28.88100
C  43.86500 39.99700 24.01900
C  41.92200 44.47100 24.04700
N  42.73800 42.15000 28.74800
C  42.09500 43.06700 29.50300
C  41.97900 42.59000 31.01900
C  42.98500 41.33400 30.93600
C  43.23800 41.10000 29.44000
C  44.31700 41.38300 31.80500
C  40.52500 42.27700 31.50700
C  39.85900 43.33600 32.41900
H  39.31700 42.95000 33.72500
N  43.58200 40.14600 26.49700
C  43.91900 39.43000 27.52400
C  44.47900 38.18100 27.14100
C  44.35300 38.05800 25.72300
C  43.97300 39.43800 25.36900
C  45.03500 37.12000 28.08900
C  44.56000 36.91500 24.78400
O  44.33000 37.02700 23.56600
C  44.91300 35.48300 25.25800
N  42.79300 42.14100 24.35700
C  43.34000 41.19700 23.59000
C  43.24800 41.50700 22.12000
C  42.48000 42.89300 22.06600
C  42.37100 43.21400 23.59200
C  44.64800 41.60300 21.48200
C  41.09300 42.76800 21.40200
C  40.24700 41.69900 22.07000
N  41.93000 43.96300 26.44200
C  41.69200 44.79200 25.36900
C  41.20400 46.12500 25.86600
C  41.08700 45.94400 27.26800
C  41.50100 44.60200 27.50900
C  41.03100 47.35100 25.05800
C  40.69800 46.60200 28.54000
O  40.18700 47.67600 28.73100
C  40.94600 45.50400 29.64100
C  42.00100 46.09100 30.55800
O  43.19000 46.26800 30.30800
O  41.40900 46.22900 31.79000
C  42.29200 46.82900 32.83600
H  44.03400 39.11500 29.61300
H  44.34200 39.32200 23.30600
H  41.69400 45.21300 23.27900
H  42.48300 43.33400 31.63700
H  42.39300 40.48500 31.27800
H  44.23000 42.34400 32.31200
H  45.10900 41.47100 31.06000
H  44.46200 40.69300 32.63600
H  40.38100 41.26600 31.88700
H  40.01000 42.19400 30.55000
H  39.02800 43.78200 31.87400
H  40.62100 44.08400 32.64000
H  46.02200 36.72900 27.83900
H  44.32400 36.31300 28.26900
H  45.18700 37.66500 29.02100
H  45.03100 34.93000 24.32700
H  44.09000 35.01900 25.80100
H  45.83300 35.64700 25.82100
H  42.67400 40.74500 21.59200
H  42.99300 43.70400 21.54900
H  44.86200 40.62500 21.05000
H  45.41800 41.80400 22.22700
H  44.60600 42.35000 20.69000
H  41.24300 42.50700 20.35400
H  40.50500 43.68500 21.37600
H  39.89600 41.02400 21.28900
H  39.29300 42.14800 22.34600
H  40.69500 41.23500 22.94900
H  40.88100 48.21700 25.70300
H  40.10200 47.24800 24.49900
H  41.85200 47.59800 24.38500
H  40.05500 45.28100 30.22800
H  42.15600 46.13600 33.66600
H  41.88400 47.77000 33.20700
H  43.36300 46.86800 32.63700

