158

Mg 2.40300 -2.12100 44.73700
C  5.83100 -1.57500 44.28900
C  1.77500 0.43700 42.52800
C  -0.80300 -3.00100 44.80300
C  3.21600 -5.02000 46.51300
N  3.67000 -0.77400 43.50400
C  5.09200 -0.68300 43.48200
C  5.52700 0.30600 42.39300
C  4.24000 1.15600 42.07800
C  3.14900 0.16800 42.74100
C  4.03000 2.56300 42.72200
C  6.22800 -0.25700 41.09300
C  7.68000 0.18600 40.86800
H  8.06200 0.70400 39.42800
N  0.68100 -1.19900 43.98800
C  0.64000 -0.19900 43.10100
C  -0.71600 0.20400 42.94100
C  -1.54400 -0.75200 43.63900
C  -0.56200 -1.70800 44.22300
C  -1.13900 1.39000 42.05300
C  -3.05900 -0.84900 43.63900
O  -3.73900 -0.13400 42.97000
C  -3.82800 -1.84300 44.54700
N  1.41700 -3.92800 45.35800
C  0.05200 -3.96400 45.39900
C  -0.39200 -5.36200 45.75100
C  0.78300 -5.89500 46.53000
C  1.92300 -4.83000 46.10300
C  -1.78700 -5.37100 46.52800
C  1.13600 -7.37900 46.08000
C  1.49400 -8.31900 47.24300
N  4.07100 -2.97000 45.44300
C  4.28500 -4.13400 46.16800
C  5.69400 -4.39500 46.41700
C  6.32600 -3.35100 45.72300
C  5.31600 -2.61100 45.10600
C  6.31400 -5.54400 47.28000
C  7.62800 -2.79500 45.38600
O  8.77000 -3.27300 45.50400
C  7.36200 -1.65500 44.31500
C  8.05100 -0.37400 44.76700
O  9.13000 -0.02900 44.37600
O  7.18700 0.29300 45.58900
C  7.52900 1.69300 45.87900
H  1.63500 1.27600 41.84400
H  -1.84900 -3.26200 44.63000
H  3.60400 -5.84900 47.10900
H  6.26700 0.96100 42.85400
H  3.97400 1.28800 41.02900
H  5.03300 2.97100 42.84900
H  3.47600 2.60000 43.66000
H  3.63900 3.27700 41.99700
H  5.73900 0.06100 40.17300
H  6.21800 -1.34500 41.02500
H  8.30800 -0.70100 40.95100
H  8.01500 0.79900 41.70500
H  -0.38700 1.57500 41.28600
H  -1.12700 2.30200 42.65000
H  -2.06600 1.20700 41.50800
H  -4.88300 -1.57100 44.50100
H  -3.53900 -1.66000 45.58200
H  -3.73900 -2.92000 44.40100
H  -0.53900 -5.94800 44.84400
H  0.62300 -5.81600 47.60600
H  -1.65400 -5.84100 47.50200
H  -2.58100 -5.84000 45.94600
H  -2.09500 -4.37100 46.83200
H  2.00400 -7.38200 45.42000
H  0.27500 -7.69400 45.49000
H  0.76300 -9.10600 47.05800
H  1.31600 -7.79400 48.18200
H  2.52400 -8.67300 47.24000
H  5.81900 -6.46800 46.98300
H  6.18200 -5.28700 48.33100
H  7.38900 -5.54400 47.09800
H  7.88800 -1.94300 43.40500
H  7.40000 1.72000 46.96100
H  6.73900 2.38200 45.58300
H  8.49800 2.06000 45.53800
Mg 50.93400 45.64900 43.52200
C  48.08100 47.04100 42.15800
C  50.18500 42.65400 42.06000
C  54.10800 44.63300 44.11600
C  51.74100 48.70600 44.90100
N  49.29500 45.01300 42.25600
C  48.20000 45.65300 41.90900
C  47.16400 44.78000 41.20100
C  47.82500 43.35100 41.39500
C  49.24600 43.68400 41.94500
C  47.22900 42.40700 42.50200
C  46.96500 45.31400 39.74700
C  45.50300 45.53200 39.37300
H  44.93800 44.59700 38.31400
N  51.96400 43.84200 43.19300
C  51.47300 42.69000 42.57200
C  52.59100 41.71400 42.45100
C  53.78100 42.31600 42.94900
C  53.29700 43.63100 43.48200
C  52.47200 40.38700 41.77800
C  55.22900 41.76500 42.95400
O  55.47700 40.54700 42.60800
C  56.49600 42.50800 43.42200
N  52.65700 46.52600 44.40200
C  53.83400 45.90500 44.49300
C  54.91900 46.74600 45.20700
C  54.06800 47.94400 45.69800
C  52.75600 47.73300 44.92700
C  55.86200 46.18500 46.32500
C  54.84100 49.24300 45.32500
C  54.74300 50.29000 46.43900
N  50.06000 47.55300 43.66600
C  50.47400 48.71700 44.23500
C  49.54100 49.80700 43.95800
C  48.55000 49.13400 43.15700
C  48.97100 47.80700 42.91600
C  49.59300 51.17100 44.47400
C  47.35200 49.39000 42.36500
O  46.80400 50.40500 42.05700
C  46.95500 47.99000 41.71100
C  45.52500 47.65100 42.16600
O  45.30600 46.96400 43.13100
O  44.52900 48.06500 41.24100
C  43.19100 47.78500 41.80500
H  50.00700 41.69500 41.56900
H  55.15700 44.38500 44.28600
H  52.00900 49.62700 45.42300
H  46.27300 45.03400 41.77500
H  47.90400 42.73800 40.49600
H  47.79600 42.42600 43.43300
H  47.31600 41.35900 42.21500
H  46.19300 42.67200 42.71100
H  47.47500 44.56900 39.13700
H  47.46000 46.23900 39.45000
H  45.37300 46.54400 38.98900
H  44.85300 45.47300 40.24600
H  53.44300 40.03500 41.42900
H  51.83700 40.52200 40.90300
H  51.99200 39.66100 42.43400
H  56.54700 42.67500 44.49800
H  56.53200 43.49600 42.96400
H  57.38600 41.92100 43.19400
H  55.48700 47.10900 44.35100
H  53.83100 47.76700 46.74700
H  55.63400 45.11900 46.34500
H  55.59800 46.70000 47.24900
H  56.86100 46.43600 45.97100
H  54.42100 49.60200 44.38500
H  55.91100 49.07000 45.21000
H  54.14400 51.11300 46.04900
H  55.72100 50.73300 46.62800
H  54.30800 50.02800 47.40300
H  49.02000 51.68300 43.70200
H  50.56900 51.64700 44.57100
H  49.09900 51.16800 45.44600
H  46.86800 48.20200 40.64600
H  42.48200 48.44900 41.30900
H  43.10400 47.83300 42.89000
H  43.05400 46.77100 41.42900

