158

Mg 23.82600 -5.92600 45.39900
C  26.37500 -3.92600 43.98500
C  21.61600 -4.46000 43.39400
C  21.84300 -8.46500 46.20900
C  26.57400 -7.76100 47.15200
N  24.04600 -4.40700 44.00000
C  25.09700 -3.67700 43.49600
C  24.76700 -2.68000 42.52000
C  23.21400 -2.62400 42.59800
C  22.88500 -3.90700 43.38300
C  22.65500 -1.37100 43.21800
C  25.41800 -3.12000 41.19100
C  26.19500 -2.00700 40.43100
H  25.87500 -1.79500 38.97400
N  21.94900 -6.42000 44.90200
C  21.19400 -5.61000 44.02900
C  19.88400 -6.30300 43.92200
C  19.87900 -7.39100 44.83400
C  21.28300 -7.45400 45.38100
C  18.79200 -5.89000 42.99800
C  18.65700 -8.39400 45.01300
O  17.59300 -8.35700 44.39700
C  18.67300 -9.54200 46.06300
N  24.18200 -7.81700 46.49800
C  23.13000 -8.65700 46.75200
C  23.62600 -9.99900 47.39000
C  24.99900 -9.52200 48.11800
C  25.30200 -8.23700 47.20400
C  22.78000 -10.65000 48.49700
C  26.09400 -10.51600 48.20300
C  26.97900 -10.67600 49.51000
N  26.04000 -5.77000 45.67300
C  26.90600 -6.55700 46.39400
C  28.23200 -5.90400 46.19400
C  28.08900 -4.97300 45.24400
C  26.70700 -4.92000 44.93900
C  29.45900 -6.35500 46.89200
C  28.78900 -4.04900 44.44000
O  30.00400 -3.80500 44.48500
C  27.75500 -3.26000 43.61400
C  27.87700 -1.78300 43.93300
O  27.39500 -1.24900 44.88700
O  28.63200 -1.10500 42.97300
C  28.80600 0.34000 43.22800
H  20.85500 -3.92100 42.82700
H  21.19900 -9.30900 46.46500
H  27.43700 -8.28100 47.57300
H  25.12100 -1.71700 42.88800
H  22.90500 -2.80100 41.56800
H  23.32100 -0.69000 43.74900
H  22.01400 -1.69600 44.03700
H  22.06000 -0.83000 42.48200
H  24.66000 -3.44700 40.47900
H  26.10000 -3.96300 41.30300
H  27.23200 -2.34300 40.42900
H  26.39800 -1.10100 41.00200
H  19.20400 -5.12400 42.34100
H  17.85700 -5.55300 43.44500
H  18.60900 -6.68700 42.27700
H  19.37400 -10.28200 45.67700
H  17.67000 -9.96700 46.11300
H  19.03000 -9.11500 47.00000
H  23.79800 -10.70700 46.58000
H  24.86900 -9.20600 49.15300
H  22.17000 -11.39800 47.99000
H  22.07700 -9.98600 49.00000
H  23.38600 -11.07900 49.29500
H  26.81500 -10.40200 47.39400
H  25.63500 -11.48300 48.00000
H  27.06000 -9.78100 50.12700
H  27.92800 -11.13900 49.23700
H  26.59500 -11.47700 50.14200
H  29.44500 -7.40700 47.17600
H  29.54800 -5.83800 47.84800
H  30.33300 -6.24000 46.25100
H  28.01600 -3.48700 42.58100
H  29.09400 0.91900 42.35200
H  29.54100 0.46000 44.02400
H  27.89600 0.75100 43.66500
Mg -12.37900 17.03100 42.24100
C  -9.24900 15.36700 42.08400
C  -10.73200 19.77000 40.90700
C  -15.34200 18.07300 41.42700
C  -13.73400 13.99100 43.46500
N  -10.20600 17.48000 41.58600
C  -9.09400 16.66000 41.53100
C  -7.80300 17.40600 41.15700
C  -8.36200 18.89700 41.11500
C  -9.86100 18.78800 41.15500
C  -7.80800 19.72600 42.22900
C  -7.23100 16.88600 39.84400
C  -5.72900 16.63700 39.86000
H  -5.25100 15.34600 39.18700
N  -12.95500 18.77600 41.39200
C  -12.12600 19.79500 40.97100
C  -13.05300 20.79200 40.36500
C  -14.36400 20.42200 40.58800
C  -14.30500 19.06600 41.21700
C  -12.59200 22.06700 39.55500
C  -15.58100 21.10400 40.08000
O  -15.54800 22.21800 39.49200
C  -16.93900 20.59000 40.37000
N  -14.21800 16.20300 42.54500
C  -15.34500 16.87700 42.14000
C  -16.64400 16.21300 42.58900
C  -16.16100 14.82300 43.17500
C  -14.58600 15.01600 43.05100
C  -17.46900 17.01100 43.56800
C  -16.66800 13.55200 42.47600
C  -17.67100 12.60800 43.20200
N  -11.69700 15.14600 42.70700
C  -12.33500 14.03800 43.25300
C  -11.34200 13.00700 43.61500
C  -10.15800 13.53700 43.18800
C  -10.42200 14.79100 42.61600
C  -11.63800 11.61600 44.17100
C  -8.81800 13.25000 43.09400
O  -8.18500 12.25400 43.45300
C  -8.16100 14.38300 42.36900
C  -7.08100 14.96300 43.31700
O  -7.41800 15.52800 44.31800
O  -5.86900 14.82300 42.81100
C  -4.77000 15.41400 43.65300
H  -10.29000 20.69500 40.53200
H  -16.33000 18.26200 41.00100
H  -14.07800 13.04900 43.89800
H  -7.00600 17.19500 41.87000
H  -8.14300 19.52200 40.24900
H  -7.35100 19.11200 43.00500
H  -8.65900 20.16100 42.75300
H  -7.13900 20.50100 41.85300
H  -7.41000 17.59800 39.03900
H  -7.76900 15.97100 39.59400
H  -5.36000 16.57900 40.88300
H  -5.31400 17.50900 39.35500
H  -13.04500 22.10700 38.56400
H  -11.50600 22.06600 39.46100
H  -12.76500 22.99200 40.10500
H  -17.73300 21.33600 40.33200
H  -16.80200 20.32100 41.41700
H  -17.13500 19.78600 39.66000
H  -17.23500 15.99000 41.70100
H  -16.39400 14.72300 44.23500
H  -17.55600 16.58500 44.56700
H  -18.43800 17.11700 43.07900
H  -17.05800 18.01200 43.70100
H  -15.75700 12.98700 42.27900
H  -17.10800 13.86500 41.53000
H  -17.14900 11.65600 43.28900
H  -18.51800 12.55300 42.51800
H  -17.84000 13.11700 44.15200
H  -11.96900 11.80400 45.19300
H  -10.71200 11.04200 44.14100
H  -12.41800 11.04600 43.66700
H  -7.74500 13.93100 41.46900
H  -5.16000 15.73300 44.62000
H  -4.34100 16.29200 43.17100
H  -3.96400 14.68500 43.73800

