158

Mg 26.02300 1.49600 29.32900
C  27.91900 1.00600 32.25300
C  23.26300 1.91100 31.40300
C  24.07200 1.57200 26.62800
C  28.81100 0.66500 27.41000
N  25.63600 1.62300 31.57300
C  26.56600 1.43100 32.51200
C  26.04200 1.65300 33.88800
C  24.46700 1.71700 33.70300
C  24.46100 1.80300 32.14300
C  23.72500 0.51400 34.19600
C  26.70200 2.80800 34.78300
C  27.12600 2.48100 36.27900
H  27.03500 3.60200 37.40700
N  23.91800 1.63000 29.07000
C  22.97100 1.86500 30.01100
C  21.67300 1.90900 29.35100
C  21.80900 1.82900 27.93900
C  23.30000 1.65900 27.85600
C  20.37000 2.02700 30.13200
C  20.89000 1.89600 26.76700
O  21.29900 1.72900 25.61200
C  19.45400 2.36000 26.85900
N  26.32900 1.05100 27.26800
C  25.38900 1.27800 26.33900
C  25.95400 1.17000 24.94000
C  27.51000 0.95200 25.15700
C  27.57500 0.85600 26.69700
C  25.34900 0.19500 23.92400
C  28.46200 2.04300 24.52800
C  28.89900 3.34300 25.32700
N  27.99900 0.81500 29.71400
C  29.00200 0.51300 28.83400
C  30.20200 0.25800 29.60400
C  29.81800 0.33100 30.92600
C  28.45100 0.74800 30.94500
C  31.57200 -0.06800 29.06000
C  30.19300 0.35200 32.29300
O  31.30000 0.20400 32.78900
C  28.99700 0.70700 33.19000
C  28.69700 -0.45400 34.11900
O  28.01400 -1.47200 33.79600
O  29.18400 -0.22400 35.35400
C  28.58500 -1.11000 36.36900
H  22.45200 2.14400 32.09500
H  23.57300 1.86100 25.70000
H  29.68300 0.51800 26.77000
H  26.23100 0.70500 34.39200
H  24.05500 2.56800 34.24500
H  23.16400 -0.00300 33.41700
H  22.97500 0.85400 34.91000
H  24.23700 -0.28800 34.72700
H  25.94300 3.59000 34.82800
H  27.57200 3.17800 34.24000
H  28.18600 2.28700 36.11500
H  26.65800 1.58400 36.68400
H  20.39000 1.74500 31.18500
H  19.60700 1.34600 29.75600
H  19.99100 3.04700 30.18300
H  19.04600 1.58200 27.50300
H  18.95500 2.33700 25.89000
H  19.39800 3.34500 27.32400
H  25.92500 2.19000 24.55700
H  27.76600 -0.01300 24.72000
H  25.97100 -0.68800 23.77600
H  25.33000 0.67400 22.94400
H  24.35200 -0.11400 24.23400
H  28.09000 2.32000 23.54200
H  29.31300 1.38800 24.33700
H  28.40700 3.37100 26.30000
H  28.69300 4.29500 24.83800
H  29.97000 3.14300 25.33400
H  31.72800 0.65800 28.26200
H  31.65400 -1.13200 28.84000
H  32.39100 0.18700 29.73300
H  29.29300 1.59600 33.74600
H  28.74500 -2.18000 36.23200
H  27.50300 -0.97900 36.40300
H  29.14300 -0.85400 37.27000
Mg 17.39200 52.21200 25.15700
C  18.83900 50.95000 28.16600
C  14.84500 53.56400 27.11500
C  16.36300 53.47400 22.45600
C  19.92900 50.47200 23.39100
N  16.85600 52.11500 27.37200
C  17.67100 51.68700 28.35700
C  17.15100 52.14900 29.68800
C  15.76100 52.73300 29.36800
C  15.80300 52.84100 27.87400
C  14.57400 51.81500 29.88900
C  18.24100 53.07000 30.46500
C  18.53600 52.74900 31.97900
H  17.41700 52.02600 32.88200
N  15.75700 53.28200 24.79700
C  14.79800 53.70300 25.68000
C  13.83500 54.47700 24.97100
C  14.22300 54.47900 23.57300
C  15.47800 53.67000 23.52300
C  12.79400 55.26300 25.72100
C  13.52800 55.09700 22.43600
O  14.03100 55.17600 21.28800
C  12.11400 55.52200 22.69600
N  18.17200 52.07300 23.25100
C  17.54800 52.78600 22.29200
C  18.22800 52.56300 20.92400
C  19.44400 51.76700 21.30000
C  19.15600 51.34500 22.72300
C  17.23900 51.81200 19.90600
C  20.77700 52.65100 21.27800
C  21.56300 52.45000 19.99700
N  19.00500 50.82400 25.62500
C  19.90600 50.25100 24.75900
C  20.83700 49.47000 25.59400
C  20.39600 49.68100 26.94800
C  19.35400 50.53200 26.91900
C  22.10500 48.70700 25.12400
C  20.81200 49.38700 28.29800
O  21.79100 48.78100 28.76600
C  19.89400 50.33900 29.18700
C  19.27500 49.36400 30.15600
O  18.40000 48.49500 29.88400
O  19.98800 49.48900 31.28700
C  19.58900 48.62700 32.38900
H  14.03900 53.99700 27.71200
H  16.11800 54.04900 21.56100
H  20.63700 49.88200 22.80500
H  17.10700 51.26500 30.32300
H  15.47300 53.73000 29.70100
H  14.06800 51.55800 28.95800
H  13.92800 52.45600 30.49000
H  14.91600 50.99400 30.51800
H  18.00000 54.12700 30.35300
H  19.12200 53.00800 29.82600
H  18.68700 53.67000 32.54100
H  19.43900 52.13900 32.00100
H  12.85200 56.27900 25.33000
H  12.81500 55.32900 26.80800
H  11.84300 54.82600 25.41400
H  11.86000 56.48200 23.14400
H  11.53400 54.71400 23.14100
H  11.64900 55.59500 21.71200
H  18.44500 53.55300 20.52200
H  19.69800 50.95000 20.62500
H  17.34100 52.26100 18.91700
H  16.25100 51.78900 20.36700
H  17.49600 50.76200 19.76900
H  21.37500 52.22500 22.08500
H  20.59100 53.72300 21.34100
H  20.95300 52.56600 19.10100
H  21.88200 51.40800 19.96900
H  22.41600 53.12800 20.03300
H  22.62700 49.16700 24.28500
H  21.97100 47.66200 24.84500
H  22.77700 48.64900 25.98100
H  20.46300 51.02900 29.81100
H  18.50100 48.57600 32.33100
H  19.86100 49.16300 33.29800
H  20.00500 47.62100 32.33700

