158

Mg 54.05900 25.06600 45.78200
C  51.44100 27.02300 44.56800
C  52.37000 22.23200 44.42000
C  56.87300 23.20500 45.76900
C  55.84300 27.96400 46.26000
N  52.15800 24.72200 44.66500
C  51.22800 25.65100 44.28100
C  50.10200 24.95900 43.50400
C  50.24200 23.47600 43.92500
C  51.70600 23.44300 44.31700
C  49.32000 23.03400 45.04900
C  50.25600 25.11200 41.93300
C  49.07000 25.23700 40.96900
H  49.20700 25.89900 39.62000
N  54.51900 22.91500 45.38100
C  53.69800 21.94800 44.73900
C  54.29500 20.66000 44.84800
C  55.65000 20.90300 45.21500
C  55.76700 22.36500 45.43700
C  53.53100 19.33400 44.52200
C  56.69000 19.84500 45.31600
O  56.43200 18.67900 45.02600
C  58.15800 20.11300 45.74000
N  56.12900 25.49700 45.85600
C  57.07600 24.57000 45.94100
C  58.41800 25.16200 46.38700
C  58.11500 26.71000 46.56700
C  56.61100 26.76600 46.26000
C  58.98500 24.38000 47.63700
C  59.07400 27.53300 45.70100
C  58.89200 27.47200 44.13900
N  53.66300 27.08900 45.72900
C  54.49800 28.17500 46.01000
C  53.69200 29.42600 46.00000
C  52.47400 29.03300 45.41200
C  52.55600 27.63000 45.21400
C  54.06900 30.81200 46.43600
C  51.14300 29.42900 44.88500
O  50.62300 30.52700 44.86800
C  50.47300 28.13300 44.28200
C  50.34500 28.42700 42.88500
O  51.31300 28.63300 42.16800
O  49.09800 28.82000 42.61600
C  48.79500 29.15300 41.14000
H  51.89900 21.36000 43.96100
H  57.83100 22.77300 46.06500
H  56.39100 28.89400 46.42600
H  49.12400 25.33100 43.81000
H  50.06800 22.77800 43.10600
H  48.53300 23.77500 45.18200
H  49.84900 23.08400 46.00100
H  49.04200 21.99800 44.85400
H  50.96600 24.33200 41.66000
H  50.90700 25.97500 41.79300
H  48.33400 25.89300 41.43400
H  48.63500 24.25200 40.80200
H  53.55300 19.04600 43.47100
H  52.50300 19.52100 44.83000
H  53.89400 18.56900 45.20900
H  58.70400 19.17500 45.84800
H  58.16000 20.70800 46.65300
H  58.48900 20.67000 44.86400
H  59.08400 24.98000 45.54300
H  58.32200 27.03900 47.58600
H  58.35300 23.59700 48.05700
H  59.24400 25.16400 48.34900
H  59.91300 23.90100 47.32600
H  60.09100 27.21700 45.93000
H  58.91700 28.59100 45.91100
H  57.89700 27.86100 43.91900
H  59.10900 26.46700 43.77800
H  59.49600 28.25300 43.67900
H  55.01700 30.75500 46.97100
H  53.38900 31.16400 47.21200
H  53.90500 31.58300 45.68400
H  49.49700 27.88400 44.69900
H  48.41900 30.17600 41.16200
H  48.07600 28.40100 40.81500
H  49.59700 28.97800 40.42300
Mg 6.77100 54.76600 40.65100
C  6.09600 51.37000 40.20100
C  9.93800 54.24000 39.29700
C  6.99100 58.02500 40.27500
C  3.32800 55.20300 41.50200
N  7.80100 53.03700 39.72100
C  7.36600 51.75100 39.66700
C  8.43000 50.82600 38.96600
C  9.68400 51.62900 39.24500
C  9.15100 53.07600 39.51900
C  10.66400 51.10500 40.32900
C  8.18300 50.50900 37.47200
C  8.27000 49.01800 36.99400
H  7.22300 48.37900 36.06000
N  8.25500 55.98600 39.99800
C  9.50200 55.57300 39.55400
C  10.30100 56.74300 39.26400
C  9.61800 57.85800 39.68300
C  8.19800 57.32600 39.99500
C  11.73400 56.60800 38.67900
C  10.20600 59.28800 39.66600
O  11.36000 59.55300 39.27800
C  9.32000 60.46300 40.14200
N  5.26700 56.36200 40.53200
C  5.74600 57.61000 40.56200
C  4.66800 58.55700 41.12000
C  3.36100 57.70300 41.11600
C  4.00600 56.34500 41.02800
C  4.96500 59.13300 42.48600
C  2.45100 57.97400 39.90300
C  1.02600 58.48200 40.01700
N  4.98500 53.60700 40.82300
C  3.73400 53.90600 41.25500
C  3.09800 52.73300 41.44800
C  3.95800 51.62800 41.10600
C  5.10300 52.27400 40.67300
C  1.67500 52.71100 41.92700
C  4.13100 50.12200 41.03100
O  3.42400 49.18200 41.26300
C  5.59800 49.96500 40.43600
C  5.31800 49.00800 39.27000
O  4.62700 49.20000 38.30700
O  5.83400 47.75500 39.66000
C  5.36700 46.54600 38.86500
H  10.94500 53.94000 38.99700
H  7.06600 59.10600 40.41300
H  2.32300 55.27400 41.92400
H  8.37400 49.90200 39.54000
H  10.22700 51.65800 38.30100
H  11.39100 50.42500 39.88500
H  10.08800 50.41900 40.95000
H  11.05400 51.90000 40.96500
H  8.78300 51.05900 36.74800
H  7.17000 50.86100 37.28100
H  8.26200 48.45500 37.92800
H  9.17800 48.81500 36.42700
H  12.36200 57.48600 38.82800
H  11.70500 56.37600 37.61400
H  12.14400 55.74900 39.20900
H  9.83100 61.42600 40.11900
H  8.95500 60.32900 41.16000
H  8.54000 60.50500 39.38200
H  4.64600 59.44100 40.48300
H  2.85100 57.76800 42.07700
H  4.38200 58.76600 43.33000
H  4.82700 60.21200 42.41900
H  6.04700 59.01900 42.56100
H  2.49200 57.04000 39.34300
H  2.98700 58.54600 39.14600
H  0.94100 59.47000 39.56500
H  0.72300 58.46900 41.06400
H  0.33800 57.78500 39.53900
H  1.39900 52.84900 42.97300
H  1.20300 51.74400 41.75200
H  1.08800 53.38900 41.30800
H  6.28200 49.43300 41.09700
H  4.34400 46.34600 39.18500
H  5.99000 45.70300 39.16600
H  5.39700 46.70000 37.78700

