158

Mg 9.18600 3.66900 27.50700
C  10.24500 1.96700 30.40600
C  7.42500 5.71100 29.48100
C  7.78700 4.86900 24.69300
C  10.45400 0.87200 25.56600
N  8.92900 3.78200 29.69300
C  9.44600 3.02100 30.69100
C  9.15900 3.60400 32.03800
C  8.15100 4.77400 31.69900
C  8.19600 4.75700 30.18000
C  6.81000 4.75500 32.43200
C  10.41900 4.06000 32.79000
C  10.71700 3.47100 34.21900
H  10.67100 4.40500 35.45300
N  7.99400 5.23400 27.13500
C  7.35200 5.95700 28.10000
C  6.59600 6.95500 27.48100
C  6.68500 6.77400 26.05000
C  7.50300 5.55100 25.88300
C  5.83600 7.97200 28.26400
C  5.99300 7.58500 24.90600
O  6.16300 7.28500 23.69800
C  5.16700 8.75600 25.28900
N  9.16500 3.01100 25.46100
C  8.61100 3.68600 24.45200
C  8.70600 3.03600 23.04800
C  9.76100 1.92800 23.34000
C  9.84100 1.94200 24.89100
C  7.37200 2.55500 22.53900
C  11.21900 2.18700 22.91300
C  11.91500 1.26800 21.86700
N  10.22300 1.83600 27.85800
C  10.73300 0.88700 26.97800
C  11.42400 -0.14500 27.79400
C  11.28100 0.29400 29.13300
C  10.52300 1.46400 29.12600
C  12.07800 -1.44400 27.37600
C  11.67400 0.00600 30.51900
O  12.24100 -0.99000 30.95700
C  10.89100 1.03300 31.41100
C  9.87600 0.34900 32.30200
O  8.79700 -0.08900 31.96400
O  10.45500 0.07100 33.45500
C  9.63900 -0.61800 34.49900
H  7.03800 6.47400 30.16000
H  7.16700 5.00000 23.80400
H  10.86200 0.04400 24.98300
H  8.69900 2.80200 32.61500
H  8.56500 5.71300 32.06700
H  5.88900 4.45900 31.92800
H  6.50700 5.75800 32.73100
H  6.93800 4.19100 33.35600
H  10.42300 5.14800 32.84800
H  11.29000 3.69700 32.24400
H  11.66600 2.93500 34.18200
H  10.00000 2.69300 34.48500
H  5.62600 7.72800 29.30500
H  4.79700 8.02100 27.94000
H  6.42700 8.87400 28.42300
H  5.36800 9.47000 24.49000
H  5.42300 9.26500 26.21800
H  4.11900 8.48000 25.40500
H  9.13300 3.80700 22.40600
H  9.34300 1.01500 22.91700
H  6.51200 2.55900 23.21000
H  7.53700 1.57600 22.09000
H  7.26000 3.33000 21.78100
H  11.92900 2.16900 23.73900
H  11.21900 3.23500 22.61100
H  12.09200 1.92700 21.01600
H  11.20200 0.52500 21.51100
H  12.83200 0.97100 22.37500
H  13.06800 -1.14000 27.03300
H  11.50500 -1.99600 26.63200
H  12.33200 -2.03000 28.25900
H  11.56000 1.63600 32.02400
H  9.66100 -1.69700 34.34600
H  8.58900 -0.33900 34.58700
H  10.16300 -0.46000 35.44200
Mg 40.58200 8.23700 29.42000
C  42.35500 9.77600 32.08400
C  38.28600 6.96900 31.66500
C  39.15500 6.57000 26.83200
C  43.27600 9.00300 27.35400
N  40.39300 8.39300 31.64000
C  41.16900 9.07400 32.47200
C  40.62900 9.03200 33.90400
C  39.26900 8.20900 33.73800
C  39.32900 7.76400 32.29900
C  39.10500 7.04200 34.75300
C  40.47600 10.44100 34.64200
C  39.54300 10.51800 35.86900
H  40.03000 11.38900 37.05400
N  38.92700 6.95200 29.20400
C  38.10900 6.63000 30.24600
C  37.02800 5.91500 29.71500
C  37.24000 5.73300 28.29100
C  38.46900 6.44100 28.05900
C  35.81600 5.52000 30.52900
C  36.31800 5.11800 27.22400
O  36.58200 5.05100 26.01600
C  34.93000 4.62100 27.62900
N  41.21500 7.78200 27.36000
C  40.33400 7.16900 26.49000
C  40.93300 7.17100 25.06900
C  42.33000 7.91200 25.27200
C  42.34500 8.22700 26.73300
C  40.98700 5.71400 24.47300
C  42.44200 9.16900 24.35900
C  42.14800 10.57400 24.98500
N  42.40100 9.28400 29.59400
C  43.37300 9.46200 28.66800
C  44.49600 10.21200 29.32600
C  44.07600 10.40700 30.64700
C  42.81400 9.78200 30.78300
C  45.70900 10.73700 28.55200
C  44.44800 11.03500 31.98600
O  45.33200 11.76400 32.35800
C  43.24200 10.69400 32.92500
C  43.79300 10.16700 34.25100
O  44.17600 9.03500 34.50700
O  43.90200 11.22400 35.17500
C  44.68800 10.89900 36.38600
H  37.60500 6.48800 32.36900
H  38.75600 6.15900 25.90200
H  44.09400 9.35600 26.72200
H  41.37500 8.50600 34.50100
H  38.39700 8.85900 33.80800
H  38.39400 7.35100 35.51800
H  40.01600 6.64900 35.20400
H  38.67700 6.14300 34.31000
H  40.03200 11.07400 33.87400
H  41.45300 10.86700 34.87200
H  39.30900 9.53300 36.27300
H  38.60800 10.98500 35.56100
H  35.86600 6.01500 31.49900
H  35.74700 4.43400 30.58600
H  34.90400 5.80500 30.00500
H  34.28600 5.49200 27.75100
H  35.00600 3.96900 28.49900
H  34.50900 4.05200 26.80000
H  40.22800 7.67700 24.40900
H  43.17500 7.22600 25.23800
H  40.86500 4.92200 25.21100
H  41.97200 5.64800 24.01100
H  40.14400 5.66000 23.78400
H  41.84000 9.08900 23.45300
H  43.50700 9.15000 24.12900
H  41.67100 10.47100 25.96000
H  41.52400 11.12000 24.27800
H  43.07100 11.11400 25.19600
H  45.31000 11.49100 27.87300
H  46.05400 9.86600 27.99500
H  46.45000 11.12900 29.24900
H  42.80300 11.66600 33.14800
H  45.76900 10.83300 36.26300
H  44.39600 9.96400 36.86400
H  44.50700 11.71200 37.08900

