158

Mg -1.72100 17.69900 26.82400
C  -2.34400 15.63800 29.48200
C  -2.46900 20.41200 28.88000
C  -1.26300 19.80700 24.21800
C  -1.45800 14.97900 24.67000
N  -2.68200 17.95400 28.89000
C  -2.52200 16.96000 29.83800
C  -3.04000 17.49100 31.22600
C  -3.09700 19.01900 30.95300
C  -2.64300 19.15300 29.43900
C  -4.46800 19.73800 31.45400
C  -2.07700 16.96500 32.40500
C  -1.81300 17.72200 33.70800
H  -1.95900 16.88200 34.99000
N  -1.78300 19.83900 26.56800
C  -2.03600 20.74100 27.55800
C  -1.96400 22.08600 27.07100
C  -1.43500 21.93900 25.70400
C  -1.54300 20.49100 25.40800
C  -2.31900 23.37800 27.81600
C  -1.00100 22.90200 24.73700
O  -0.70600 22.67400 23.54400
C  -0.80800 24.35000 25.33400
N  -1.54200 17.43000 24.68800
C  -1.27900 18.48600 23.87300
C  -1.02800 17.95300 22.43500
C  -1.00700 16.40000 22.61400
C  -1.25100 16.24400 24.05500
C  -2.21500 18.44400 21.48400
C  0.32900 15.72900 22.13400
C  1.50200 15.74300 23.20600
N  -1.91100 15.72600 26.94200
C  -1.75000 14.73000 25.98000
C  -1.83500 13.48000 26.66300
C  -1.97200 13.75900 28.04300
C  -2.07600 15.17900 28.15500
C  -1.69100 12.20000 25.92600
C  -2.09400 13.16100 29.34000
O  -2.08400 11.99700 29.73200
C  -2.32200 14.31000 30.36500
C  -1.16500 14.23000 31.29900
O  -0.03000 14.65600 31.19800
O  -1.61400 13.35700 32.24000
C  -0.72500 13.20200 33.35900
H  -2.51800 21.24700 29.58200
H  -1.10200 20.49200 23.38200
H  -1.33700 14.12500 24.00000
H  -3.97600 16.97000 31.42600
H  -2.25600 19.51500 31.43600
H  -5.07700 18.90600 31.80700
H  -4.92200 20.12200 30.54000
H  -4.33700 20.36600 32.33500
H  -1.14900 16.69100 31.90300
H  -2.58100 16.04200 32.68800
H  -2.54500 18.51000 33.88200
H  -0.78600 18.07700 33.79300
H  -2.75000 23.29800 28.81400
H  -3.06400 23.83300 27.16400
H  -1.43600 23.99300 27.98900
H  -1.81900 24.75400 25.38700
H  -0.37800 24.84200 24.46200
H  -0.15700 24.42500 26.20500
H  -0.02800 18.31500 22.19600
H  -1.93100 15.98600 22.20800
H  -2.87800 19.14600 21.99000
H  -2.91900 17.64000 21.26800
H  -1.85100 18.88000 20.55300
H  0.64800 16.14200 21.17700
H  0.10600 14.68000 21.94100
H  1.22800 16.03700 24.21900
H  2.24800 16.40300 22.76400
H  1.85600 14.71500 23.27600
H  -2.53800 11.53900 26.10800
H  -0.76900 11.65700 26.13700
H  -1.83500 12.35000 24.85700
H  -3.31400 14.20200 30.80500
H  0.27300 12.91500 33.02900
H  -1.10000 12.34700 33.92100
H  -0.65700 14.13500 33.91900
Mg -2.54900 34.67300 26.61700
C  -4.39100 33.45200 29.19900
C  -1.41500 37.27100 28.62400
C  -0.94200 36.04100 23.96200
C  -4.00100 32.30000 24.43200
N  -2.96300 35.25500 28.61100
C  -3.59700 34.54800 29.53800
C  -3.27300 35.05000 30.92600
C  -2.63000 36.48100 30.63300
C  -2.29800 36.31200 29.21800
C  -3.55800 37.71000 30.89400
C  -2.41000 34.15100 31.86000
C  -3.10000 33.81900 33.20600
H  -2.90700 34.85000 34.32300
N  -1.29600 36.35800 26.31300
C  -0.89800 37.23900 27.28800
C  -0.00100 38.17900 26.74500
C  0.15600 37.93000 25.34600
C  -0.69500 36.73200 25.15300
C  0.58700 39.42800 27.50000
C  0.85700 38.65200 24.28700
O  0.81500 38.34400 23.10400
C  1.78700 39.81200 24.58300
N  -2.52800 34.23200 24.42300
C  -1.76600 34.95100 23.55500
C  -1.85700 34.42600 22.11800
C  -2.59900 33.03100 22.31500
C  -3.08300 33.16900 23.84400
C  -2.40200 35.47700 21.13700
C  -1.83000 31.68200 22.05700
C  -2.74100 30.58700 21.57900
N  -3.88800 33.11800 26.77000
C  -4.35000 32.22000 25.85000
C  -5.23600 31.28700 26.49900
C  -5.35100 31.72500 27.83300
C  -4.41100 32.81800 27.91000
C  -5.95100 30.01900 25.93500
C  -5.95000 31.57800 29.18400
O  -6.85200 30.83100 29.48800
C  -5.17900 32.54100 30.12300
C  -6.09700 33.38800 30.99500
O  -6.76700 34.43000 30.73300
O  -6.33900 32.53900 32.10200
C  -7.34400 32.96600 33.08100
H  -1.03900 37.97800 29.36700
H  -0.29300 36.37400 23.14900
H  -4.36200 31.45000 23.84900
H  -4.21400 35.32100 31.40400
H  -1.71600 36.62700 31.21000
H  -3.89800 38.10500 29.93600
H  -3.04100 38.52300 31.40500
H  -4.49800 37.47600 31.39300
H  -1.40700 34.53500 32.04400
H  -2.32800 33.18900 31.35400
H  -2.77500 32.82000 33.49700
H  -4.13800 33.58700 32.96900
H  0.31200 39.61200 28.53800
H  0.06200 40.21900 26.96400
H  1.67100 39.49700 27.40700
H  1.18300 40.61500 25.00400
H  2.08200 40.07400 23.56700
H  2.65200 39.47700 25.15600
H  -0.78600 34.30600 21.95300
H  -3.49100 33.06400 21.69000
H  -1.56100 35.51800 20.44400
H  -2.73200 36.38000 21.65100
H  -3.27800 35.12800 20.59000
H  -1.40000 31.33400 22.99700
H  -0.99800 31.85800 21.37600
H  -2.37000 30.10000 20.67700
H  -3.78300 30.83800 21.38200
H  -2.85500 29.96400 22.46600
H  -5.19800 29.23300 25.88500
H  -6.20400 30.18100 24.88800
H  -6.74800 29.70800 26.61100
H  -4.47800 31.98400 30.74400
H  -8.13900 32.99200 32.33600
H  -7.09100 33.95800 33.45300
H  -7.64600 32.29500 33.88500

