158

Mg 35.96200 48.63400 24.62500
C  36.41500 46.83700 27.58500
C  34.77600 51.32600 26.44100
C  35.65200 50.32200 21.81500
C  37.31200 45.94500 22.92100
N  35.52600 48.93400 26.80900
C  35.85800 48.10100 27.84200
C  35.59600 48.77500 29.14700
C  34.90400 50.11700 28.74800
C  35.06900 50.17800 27.27200
C  33.36600 50.25900 29.02100
C  36.86000 48.98800 30.04000
C  36.76000 48.73800 31.53500
H  35.43700 48.82200 32.29600
N  35.24100 50.47000 24.19000
C  34.82700 51.42800 25.06500
C  34.54800 52.65700 24.33700
C  34.70300 52.28600 23.00100
C  35.18200 50.95200 22.94000
C  34.18900 53.92600 25.07300
C  34.39900 53.21200 21.78800
O  34.59300 52.89600 20.62200
C  34.02100 54.60500 21.98600
N  36.44600 48.23100 22.67000
C  36.09400 49.04800 21.67900
C  36.46800 48.49900 20.33600
C  37.00500 47.07100 20.66600
C  36.90800 47.06400 22.17600
C  35.40200 48.53900 19.25700
C  38.45800 46.59300 20.13200
C  39.67300 47.05300 20.93300
N  36.72700 46.77700 25.05700
C  37.10800 45.72400 24.29100
C  37.59200 44.64000 25.07600
C  37.31600 45.03600 26.38200
C  36.71800 46.36600 26.30200
C  38.24600 43.41700 24.50200
C  37.44300 44.56500 27.73700
O  37.86700 43.52300 28.16200
C  36.72800 45.66600 28.60500
C  35.46100 45.27600 29.15900
O  34.43800 44.86000 28.57400
O  35.62100 45.35200 30.56400
C  34.54300 44.68000 31.33000
H  34.46000 52.16900 27.05900
H  35.73500 50.95400 20.92800
H  37.72600 45.10500 22.36000
H  35.04600 48.00300 29.68600
H  35.44500 50.97600 29.14700
H  32.86900 49.43600 29.53400
H  32.74300 50.42300 28.14200
H  33.25000 51.03200 29.78100
H  37.27400 49.98500 29.88600
H  37.59400 48.26500 29.68400
H  37.47900 49.41500 31.99700
H  37.03200 47.70300 31.74300
H  33.37400 54.48000 24.60600
H  35.13300 54.45100 25.21900
H  33.75400 53.78200 26.06200
H  34.56700 55.14400 22.76000
H  33.01500 54.57900 22.40400
H  34.00200 55.17100 21.05500
H  37.32900 49.10300 20.04800
H  36.22000 46.42200 20.27800
H  34.43600 48.53800 19.76000
H  35.31900 47.66000 18.61800
H  35.58900 49.44200 18.67500
H  38.54800 46.94900 19.10600
H  38.62500 45.52100 20.02700
H  39.40200 48.00200 21.39600
H  40.59200 47.35100 20.42900
H  39.99900 46.36600 21.71400
H  38.28200 42.52100 25.12200
H  39.10500 43.78500 23.94200
H  37.55300 42.97200 23.78800
H  37.34100 46.03200 29.42900
H  34.86500 44.79600 32.36400
H  34.50400 43.62800 31.04700
H  33.58900 45.18400 31.17700
Mg -1.30200 34.36500 27.73200
C  -3.14000 32.29800 29.98300
C  0.18200 35.72900 30.49300
C  0.00600 36.55300 25.65300
C  -3.07800 32.79000 25.13600
N  -1.56300 34.07400 29.94600
C  -2.34800 33.21300 30.64400
C  -2.11100 33.25600 32.13500
C  -1.21800 34.55100 32.33200
C  -0.88500 34.90300 30.84900
C  -1.85100 35.72700 33.07400
C  -1.45800 31.96300 32.73300
C  -1.95200 31.48000 34.11300
H  -1.30500 31.91100 35.41400
N  0.07600 35.85100 27.99400
C  0.60900 36.24600 29.25600
C  1.66400 37.16000 28.97900
C  1.60800 37.38200 27.55200
C  0.54500 36.57000 26.97400
C  2.51600 37.80200 30.08400
C  2.39700 38.43500 26.75900
O  2.12300 38.71800 25.63900
C  3.47900 39.21500 27.40800
N  -1.55500 34.61200 25.70800
C  -0.99100 35.71600 25.10000
C  -1.59100 35.95900 23.73300
C  -2.28500 34.61700 23.41400
C  -2.39800 33.93400 24.80700
C  -2.50600 37.21300 23.58700
C  -1.59500 33.73500 22.30200
C  -2.18700 34.03100 20.85200
N  -2.74500 32.81900 27.46200
C  -3.33400 32.17200 26.39000
C  -4.18800 31.12400 26.78500
C  -4.21200 31.17500 28.19900
C  -3.29300 32.17900 28.57600
C  -4.92700 30.17900 25.87100
C  -4.75600 30.51900 29.30400
O  -5.55400 29.59100 29.27600
C  -4.04000 31.18000 30.58100
C  -5.25600 31.70800 31.29500
O  -6.11000 32.51000 30.89200
O  -5.27800 31.15300 32.56300
C  -6.18800 31.78500 33.52400
H  0.56300 36.24400 31.37800
H  0.24700 37.35800 24.95500
H  -3.56900 32.37700 24.25200
H  -3.05100 33.43600 32.65800
H  -0.28500 34.35800 32.86100
H  -2.92700 35.55700 33.12100
H  -1.66500 36.65400 32.53300
H  -1.47400 35.77900 34.09600
H  -0.42800 32.27500 32.90500
H  -1.48000 31.13900 32.01900
H  -2.17100 30.41500 34.04500
H  -2.96600 31.85100 34.25900
H  3.52700 37.64700 29.70600
H  2.53800 37.21900 31.00400
H  2.27400 38.85300 30.24200
H  3.05500 39.83700 28.19600
H  4.03800 39.85800 26.72700
H  4.20300 38.53600 27.85800
H  -0.74700 35.96600 23.04300
H  -3.31700 34.84300 23.14600
H  -2.80400 37.58400 24.56800
H  -3.45600 37.03300 23.08400
H  -2.02500 38.01600 23.02900
H  -1.65200 32.67800 22.56300
H  -0.51800 33.87200 22.40300
H  -2.98500 34.77300 20.85800
H  -2.59600 33.10200 20.45700
H  -1.41500 34.46500 20.21700
H  -4.32300 30.00300 24.98100
H  -5.94300 30.48600 25.62200
H  -5.06300 29.21100 26.35500
H  -3.47300 30.55200 31.26800
H  -5.68500 32.20800 34.39400
H  -6.74400 30.98700 34.01600
H  -6.88600 32.51200 33.11100

