158

Mg 9.22100 3.75900 28.00400
C  10.68000 2.21300 30.76100
C  7.25500 5.54700 29.98800
C  7.85000 5.02800 25.14900
C  11.08900 1.39500 25.93500
N  8.99100 3.73000 30.16600
C  9.78800 3.23900 31.11500
C  9.34600 3.72700 32.50000
C  8.04100 4.59200 32.20800
C  8.05800 4.65100 30.65500
C  6.67000 4.07000 32.74900
C  10.49600 4.37800 33.33400
C  10.19000 5.43400 34.39900
H  10.82600 5.23000 35.77800
N  7.98300 5.21200 27.64900
C  7.15600 5.88500 28.58000
C  6.30200 6.84700 27.96300
C  6.58200 6.79600 26.56300
C  7.53700 5.57900 26.39900
C  5.52900 7.87700 28.72800
C  6.10600 7.80400 25.52300
O  6.51700 7.71500 24.36400
C  5.15300 8.86200 25.94500
N  9.54200 3.25500 25.86500
C  8.81400 3.93300 24.92000
C  9.11100 3.42700 23.50000
C  9.96700 2.11600 23.84300
C  10.32800 2.34700 25.27400
C  7.95800 3.01000 22.51700
C  11.15000 1.98400 22.79200
C  12.40000 2.89900 22.98900
N  10.42000 2.01200 28.21400
C  11.16000 1.27800 27.34200
C  11.96300 0.31900 28.06400
C  11.85300 0.67700 29.44200
C  10.90900 1.68900 29.46400
C  12.79700 -0.83900 27.57600
C  12.27400 0.34600 30.77500
O  13.00500 -0.52400 31.15300
C  11.58100 1.38100 31.69700
C  10.77100 0.69400 32.61500
O  9.72400 0.12400 32.31700
O  11.34000 0.72300 33.87000
C  10.61300 -0.18400 34.87800
H  6.58600 6.19300 30.56000
H  7.30000 5.40100 24.28300
H  11.78300 0.85300 25.28900
H  9.10900 2.78500 32.99600
H  8.09800 5.61600 32.58000
H  6.36000 4.72600 33.56300
H  6.70200 3.09900 33.24300
H  5.95800 3.96100 31.93100
H  11.08700 4.92800 32.60200
H  11.06200 3.54200 33.74600
H  9.13200 5.64600 34.54900
H  10.54900 6.43700 34.16600
H  5.95900 8.87500 28.81100
H  5.47000 7.70800 29.80300
H  4.49800 7.91900 28.37800
H  4.30400 8.28400 26.31000
H  4.83900 9.40700 25.05400
H  5.54500 9.59400 26.65100
H  9.73500 4.16700 22.99700
H  9.40900 1.18000 23.87900
H  8.10800 2.00900 22.11300
H  7.78100 3.82500 21.81500
H  7.04200 3.00500 23.10800
H  10.71800 2.01000 21.79200
H  11.57200 0.98500 22.90600
H  13.03600 2.23500 23.57300
H  12.08000 3.79200 23.52600
H  12.68100 3.15300 21.96600
H  13.76900 -0.62200 27.13200
H  12.17300 -1.35100 26.84400
H  12.93600 -1.44300 28.47300
H  12.41900 1.94800 32.10300
H  9.86200 -0.83800 34.43500
H  10.23900 0.43100 35.69600
H  11.35200 -0.86100 35.30800
Mg 36.13400 1.50700 30.40000
C  33.57200 2.68500 32.57000
C  38.13400 1.09800 33.06400
C  38.51800 0.45100 28.25100
C  33.89700 1.82400 27.77900
N  35.85800 1.94400 32.57800
C  34.78000 2.48700 33.26700
C  34.96900 2.40600 34.75200
C  36.57100 2.18500 34.85700
C  36.82900 1.62300 33.39200
C  37.42600 3.47000 35.08900
C  34.06600 1.34200 35.48100
C  33.52000 1.82200 36.83900
H  34.24300 2.91900 37.60800
N  38.06100 0.83400 30.64600
C  38.63100 0.61400 31.82900
C  39.92100 -0.00800 31.58600
C  39.99100 -0.26100 30.21100
C  38.81400 0.28600 29.63700
C  40.93600 -0.33800 32.72500
C  40.97200 -1.02600 29.36600
O  40.73200 -1.45200 28.23000
C  42.25700 -1.55800 29.96700
N  36.28100 1.33900 28.25000
C  37.34100 0.95000 27.54400
C  37.00600 0.85200 26.04600
C  35.53400 1.25400 25.93300
C  35.20100 1.53000 27.41300
C  37.89800 1.63200 25.00000
C  34.57100 0.21100 25.33900
C  34.00900 0.56000 23.96500
N  34.15800 2.10600 30.13000
C  33.40800 2.23700 29.02100
C  32.13500 2.75400 29.34200
C  32.10800 2.94300 30.74700
C  33.37400 2.52800 31.20100
C  31.07800 3.09200 28.34200
C  31.31800 3.45400 31.85500
O  30.20900 3.93900 31.92500
C  32.21500 3.22900 33.12100
C  32.38500 4.53900 33.86700
O  33.14100 5.40000 33.60200
O  31.50900 4.61600 34.89500
C  31.51800 5.84400 35.67500
H  38.88300 1.01400 33.85300
H  39.23700 0.22500 27.46000
H  33.19800 1.90000 26.94300
H  34.77300 3.40400 35.14400
H  36.81800 1.50400 35.67100
H  37.11900 3.99700 35.99200
H  37.35300 4.11500 34.21400
H  38.51300 3.42700 35.14900
H  34.65000 0.45500 35.72400
H  33.21400 1.09100 34.85000
H  33.42200 0.91900 37.44100
H  32.50100 2.14100 36.62000
H  41.19600 -1.39300 32.80400
H  40.42500 -0.18600 33.67600
H  41.84700 0.22300 32.51700
H  42.22000 -2.04400 30.94200
H  42.98200 -0.75900 29.81100
H  42.73600 -2.34600 29.38700
H  37.22800 -0.20000 25.86600
H  35.32500 2.26000 25.56700
H  38.71100 2.20600 25.44500
H  37.31100 2.33800 24.41300
H  38.38600 0.87600 24.38500
H  33.72900 -0.04800 25.98000
H  35.02200 -0.75600 25.11300
H  32.92100 0.55900 24.03400
H  34.26200 -0.11600 23.14800
H  34.30400 1.57900 23.71400
H  31.39100 3.17400 27.30100
H  30.55500 4.01100 28.60600
H  30.37600 2.25900 28.33700
H  31.67500 2.48300 33.70500
H  31.71800 6.66400 34.98600
H  32.19600 5.72300 36.52000
H  30.44900 5.94000 35.86700

