158

Mg 48.22500 24.92000 28.60300
C  49.10900 27.21900 31.23300
C  47.19000 22.80400 31.05700
C  47.87200 22.72800 26.18400
C  49.59800 27.21700 26.36100
N  48.18300 25.10100 30.82400
C  48.47900 26.10300 31.67100
C  48.15300 25.71300 33.10700
C  47.65400 24.21400 33.03600
C  47.71400 24.02000 31.55500
C  48.40600 23.15500 33.88900
C  47.08400 26.67500 33.73000
C  47.30300 27.05700 35.22200
H  46.12900 26.98400 36.15000
N  47.67500 23.04400 28.58700
C  47.15400 22.39400 29.69200
C  46.62000 21.15400 29.25100
C  46.87700 21.01600 27.84900
C  47.50100 22.28400 27.45400
C  45.95700 20.17900 30.18000
C  46.44700 19.97700 26.79600
O  46.65100 20.03000 25.60600
C  45.63600 18.77100 27.37900
N  48.78500 24.96800 26.60400
C  48.35800 23.96100 25.79000
C  48.53500 24.26300 24.26300
C  48.95200 25.79500 24.32700
C  49.18900 25.99400 25.84100
C  49.58800 23.24500 23.62600
C  47.84300 26.76600 23.68000
C  46.49300 26.97300 24.42000
N  49.14400 26.88800 28.70700
C  49.70600 27.63500 27.70200
C  50.29900 28.83300 28.27900
C  50.05800 28.72300 29.63000
C  49.39500 27.51100 29.86600
C  50.94500 30.01600 27.54600
C  50.19700 29.41100 30.82300
O  50.77600 30.44500 31.05200
C  49.57900 28.49500 31.98200
C  50.73900 28.26300 32.97400
O  51.71000 27.54100 32.74600
O  50.65800 29.11900 34.01200
C  51.60100 28.95500 35.16200
H  46.66000 22.22900 31.82000
H  47.61400 22.11300 25.31900
H  49.93600 27.99000 25.66700
H  49.11600 25.80800 33.60700
H  46.59200 24.09500 33.25000
H  49.01800 23.66100 34.63500
H  49.03400 22.62900 33.17000
H  47.61600 22.51900 34.28900
H  46.12400 26.16300 33.65600
H  46.95000 27.61500 33.19500
H  47.58000 28.11000 35.16200
H  48.13900 26.48700 35.62700
H  45.01800 20.18900 29.62600
H  45.85400 20.54000 31.20400
H  46.60700 19.30500 30.22700
H  46.10100 18.29400 28.24200
H  45.57000 17.99600 26.61500
H  44.65600 19.18400 27.61900
H  47.59600 24.05300 23.75000
H  49.94800 25.91100 23.90000
H  49.23600 22.81300 22.69000
H  49.83100 22.46600 24.34900
H  50.47200 23.83500 23.38500
H  47.69900 26.35800 22.68000
H  48.31100 27.74500 23.58500
H  46.02300 27.93700 24.22500
H  46.75900 26.95100 25.47700
H  45.80600 26.17600 24.13800
H  51.12300 30.85600 28.21700
H  50.28700 30.28600 26.72000
H  51.87000 29.76100 27.03000
H  48.75500 28.98700 32.50000
H  52.40500 28.23800 34.99700
H  50.92300 28.65200 35.96000
H  51.89000 29.93100 35.55300
Mg -11.45100 38.75600 42.48100
C  -10.14200 35.63400 41.65900
C  -8.95500 40.13900 40.71900
C  -13.19200 41.65000 42.56000
C  -14.52900 36.96200 43.24700
N  -9.76700 37.93800 41.33600
C  -9.39000 36.66700 41.17700
C  -8.13000 36.59600 40.33100
C  -7.53700 37.99000 40.37500
C  -8.87700 38.75200 40.81000
C  -6.29700 38.19300 41.17800
C  -8.41300 35.97300 38.94100
C  -7.60600 34.82000 38.57200
H  -6.61400 35.00200 37.39500
N  -11.00600 40.69000 41.84700
C  -9.88500 41.06400 41.20800
C  -9.95800 42.48900 41.00300
C  -11.17200 42.96800 41.55200
C  -11.87300 41.75900 42.03900
C  -8.88500 43.22600 40.16700
C  -11.67100 44.49300 41.56800
O  -10.90900 45.33800 41.06100
C  -12.93800 44.92600 42.14500
N  -13.51500 39.17200 42.86300
C  -13.89600 40.45800 42.96500
C  -15.32100 40.54500 43.51700
C  -15.77600 39.09400 43.62800
C  -14.55400 38.31800 43.21400
C  -15.44900 41.49200 44.74700
C  -16.92600 38.54800 42.75300
C  -18.13200 37.90200 43.40300
N  -12.20800 36.70800 42.70700
C  -13.38100 36.15100 43.08900
C  -13.21700 34.67900 43.09700
C  -11.95700 34.45400 42.52100
C  -11.42300 35.69800 42.22500
C  -14.14100 33.58900 43.59300
C  -11.15200 33.45300 42.00200
O  -11.33000 32.23700 42.02300
C  -9.78400 34.18700 41.48600
C  -8.61000 33.78400 42.37700
O  -7.63300 33.13100 42.01800
O  -8.76200 34.45600 43.60500
C  -7.49100 34.32300 44.45600
H  -8.06100 40.52700 40.22600
H  -13.84500 42.51500 42.68600
H  -15.39700 36.45400 43.67200
H  -7.39200 35.97100 40.83500
H  -7.28200 38.31900 39.36800
H  -5.68400 38.94500 40.68100
H  -5.87900 37.20800 41.38300
H  -6.66900 38.61300 42.11200
H  -8.15500 36.71900 38.18900
H  -9.47600 35.75700 38.83900
H  -8.34700 34.07200 38.29100
H  -7.13300 34.36100 39.44000
H  -9.04800 43.00500 39.11200
H  -7.94600 42.72900 40.40900
H  -8.80700 44.29400 40.37000
H  -13.78100 44.58600 41.54300
H  -13.01400 46.00400 42.29000
H  -13.03200 44.56300 43.16900
H  -15.87000 41.08700 42.74600
H  -15.88800 38.90100 44.69500
H  -14.54600 42.09300 44.85400
H  -15.77100 41.11000 45.71600
H  -16.24900 42.13800 44.38500
H  -16.43500 37.93000 42.00100
H  -17.30600 39.37500 42.15400
H  -18.16100 37.85400 44.49200
H  -18.26900 36.88900 43.02700
H  -19.04400 38.45000 43.16600
H  -14.52700 33.12800 42.68400
H  -14.91700 34.08600 44.17600
H  -13.63300 32.83300 44.19100
H  -9.54100 34.03800 40.43400
H  -7.63100 33.40500 45.02600
H  -7.36800 35.06100 45.24900
H  -6.57100 34.28400 43.87200

