158

Mg 1.76400 -0.96300 45.67500
C  5.14600 0.01900 45.00500
C  0.74600 1.59600 43.61300
C  -1.23800 -2.46700 45.74500
C  3.15100 -4.20800 46.60000
N  2.89700 0.58100 44.34800
C  4.27100 0.80800 44.29800
C  4.58900 2.01600 43.37800
C  3.14200 2.47600 42.95000
C  2.12700 1.54800 43.72600
C  2.90300 3.97600 43.13100
C  5.56100 1.57400 42.23500
C  6.55200 2.67000 41.84500
H  7.32900 2.31400 40.54600
N  -0.01500 -0.42200 44.92400
C  -0.26200 0.74200 44.09700
C  -1.68000 0.77900 43.93800
C  -2.34600 -0.28200 44.67800
C  -1.16700 -1.07800 45.22600
C  -2.30000 1.90600 43.20700
C  -3.84100 -0.59400 44.86700
O  -4.64600 0.07400 44.18200
C  -4.39100 -1.52700 45.98200
N  1.05700 -3.07500 46.10500
C  -0.26500 -3.30000 46.21400
C  -0.50100 -4.71800 46.69500
C  0.88300 -5.32600 46.73200
C  1.80600 -4.14000 46.46500
C  -1.28500 -4.80400 48.05200
C  1.23300 -6.45400 45.77300
C  2.04800 -7.66700 46.16200
N  3.71900 -1.89400 45.89800
C  4.07600 -3.19000 46.32100
C  5.49300 -3.24200 46.53400
C  5.91900 -1.91800 46.17300
C  4.84300 -1.15500 45.65400
C  6.28300 -4.36100 47.22200
C  7.10700 -1.02900 46.11900
O  8.26700 -1.25300 46.46300
C  6.60700 0.30500 45.39900
C  6.68400 1.45300 46.31700
O  5.99500 1.57400 47.32100
O  7.58500 2.35800 45.72900
C  7.58700 3.67700 46.47100
H  0.46000 2.48700 43.05000
H  -2.20600 -2.89800 46.00800
H  3.58400 -5.14000 46.96700
H  5.12900 2.74200 43.98700
H  3.02400 2.29100 41.88200
H  3.74900 4.52200 43.55100
H  1.99100 4.19400 43.68700
H  2.70400 4.24300 42.09400
H  5.12800 1.28700 41.27700
H  6.10400 0.66100 42.48000
H  7.31100 2.82100 42.61300
H  6.07400 3.64600 41.76500
H  -3.27400 1.77100 42.73400
H  -1.57000 2.45000 42.60800
H  -2.36200 2.62600 44.02300
H  -3.84200 -1.29500 46.89500
H  -4.32600 -2.54100 45.58700
H  -5.45500 -1.29300 46.00000
H  -1.15500 -5.16900 45.94900
H  1.08700 -5.57800 47.77300
H  -1.04700 -5.69500 48.63200
H  -2.32800 -4.89800 47.75100
H  -1.19100 -3.89200 48.64300
H  1.82200 -5.93400 45.01800
H  0.26000 -6.65600 45.32500
H  2.90600 -7.65600 45.48900
H  1.40200 -8.52900 45.99400
H  2.41500 -7.71900 47.18600
H  5.83700 -4.63100 48.18000
H  7.33200 -4.14400 47.42200
H  6.21900 -5.19400 46.52200
H  7.23600 0.57600 44.55100
H  7.07100 3.69800 47.43100
H  7.33800 4.57700 45.90900
H  8.61500 3.88900 46.76500
Mg -12.76400 38.97000 42.37400
C  -10.83500 35.99300 41.57600
C  -10.68900 40.70800 40.18500
C  -14.69800 41.59000 42.77400
C  -15.16000 36.80500 43.72400
N  -10.92000 38.39700 41.07400
C  -10.25600 37.18800 41.03600
C  -8.96000 37.36800 40.26300
C  -8.95900 38.92400 39.90700
C  -10.31000 39.34800 40.35800
C  -7.75200 39.75800 40.46100
C  -8.83100 36.41100 38.99500
C  -7.57400 35.52700 39.00000
H  -6.65500 35.56300 37.65800
N  -12.66100 40.94400 41.65000
C  -11.74300 41.46600 40.76300
C  -12.13500 42.85000 40.34200
C  -13.34400 43.14100 41.14400
C  -13.63300 41.89700 41.89500
C  -11.73200 43.71200 39.16700
C  -14.12900 44.42100 41.05200
O  -13.75600 45.45700 40.50300
C  -15.42100 44.62300 41.76200
N  -14.64300 39.21800 43.16200
C  -15.21500 40.43800 43.30800
C  -16.63100 40.30600 43.92200
C  -16.78400 38.77800 44.18300
C  -15.48600 38.20000 43.57800
C  -16.86400 41.19200 45.19100
C  -18.10600 38.15600 43.81200
C  -18.78900 37.07100 44.68800
N  -12.87800 36.78500 42.75800
C  -13.95800 36.09700 43.35500
C  -13.70300 34.74500 43.36500
C  -12.46800 34.63800 42.78200
C  -11.97200 35.95700 42.38500
C  -14.65100 33.67500 43.81000
C  -11.47400 33.64700 42.30900
O  -11.40200 32.46400 42.43500
C  -10.40000 34.46100 41.44800
C  -9.05400 34.28600 42.06300
O  -8.26500 33.43600 41.70200
O  -8.73400 35.25000 42.94100
C  -7.42300 35.13700 43.60000
H  -10.03500 41.40400 39.65600
H  -15.49900 42.30200 42.98600
H  -15.86300 36.02200 44.01500
H  -8.15000 37.17800 40.96700
H  -8.85100 39.05300 38.83000
H  -7.00200 39.68000 39.67400
H  -7.31400 39.23600 41.31200
H  -8.01300 40.79600 40.66800
H  -8.80600 36.96300 38.05600
H  -9.69600 35.75300 38.91900
H  -7.93600 34.50300 39.09200
H  -6.99400 35.66700 39.91200
H  -12.58300 43.65400 38.48700
H  -10.78300 43.39600 38.73400
H  -11.50600 44.75500 39.39100
H  -16.08000 43.85200 41.36300
H  -15.79500 45.57300 41.38000
H  -15.37400 44.59700 42.85100
H  -17.41600 40.64300 43.24500
H  -16.66600 38.44300 45.21300
H  -17.43500 42.05900 44.85900
H  -15.91100 41.50400 45.61800
H  -17.29500 40.67200 46.04700
H  -17.98800 37.73900 42.81200
H  -18.92500 38.87100 43.74400
H  -18.84800 36.10200 44.19300
H  -19.80300 37.32600 44.99800
H  -18.23500 36.86900 45.60500
H  -14.67500 33.68300 44.89900
H  -14.32500 32.73700 43.36100
H  -15.58700 33.81200 43.26900
H  -10.25900 34.19600 40.40000
H  -6.89700 36.09200 43.58700
H  -6.78000 34.33400 43.23900
H  -7.46800 34.82600 44.64300

