158

Mg 49.71100 44.50900 42.96600
C  46.18100 44.93600 42.14600
C  49.24900 41.13600 42.17900
C  52.97000 44.37100 42.50800
C  49.87900 47.88400 43.61500
N  47.93100 43.23800 42.05200
C  46.61000 43.60500 41.94600
C  45.77600 42.46700 41.27500
C  46.71800 41.20000 41.82300
C  48.05400 41.86400 42.07000
C  46.09300 40.59400 43.05500
C  45.74800 42.63600 39.72200
C  44.33800 42.49000 39.07300
H  44.01600 43.64000 38.12300
N  50.95800 42.95300 42.58400
C  50.56500 41.65900 42.18000
C  51.80700 40.92800 41.83200
C  52.93100 41.80600 41.99500
C  52.32300 43.08700 42.46500
C  51.76300 39.56000 41.25500
C  54.41100 41.43900 41.70300
O  54.72400 40.33500 41.23800
C  55.60900 42.47600 41.87200
N  51.25400 45.95600 43.35500
C  52.52900 45.64200 42.90700
C  53.40100 46.87800 42.95900
C  52.45000 48.00000 43.37700
C  51.11800 47.26500 43.38600
C  54.65000 46.55900 43.86700
C  52.39700 49.35000 42.56500
C  52.21800 50.62400 43.39700
N  48.32400 46.04000 43.01500
C  48.57900 47.39100 43.37800
C  47.29100 48.12300 43.34700
C  46.34900 47.21700 42.78300
C  47.03700 45.93000 42.63400
C  47.04600 49.58900 43.68100
C  44.96300 47.05000 42.40200
O  44.02600 47.83600 42.32400
C  44.80900 45.60400 41.83600
C  43.62200 44.96800 42.32800
O  42.66900 44.62800 41.60000
O  43.66500 44.86700 43.69500
C  42.46100 44.35100 44.36700
H  49.16800 40.04700 42.15900
H  54.02100 44.40300 42.21400
H  49.72200 48.94500 43.82200
H  44.79500 42.57300 41.73700
H  46.68400 40.39000 41.09400
H  45.55400 39.65800 42.91100
H  45.27900 41.23700 43.39200
H  46.83500 40.50700 43.84800
H  46.36600 41.86700 39.25800
H  46.23700 43.59700 39.56700
H  43.57800 42.59700 39.84700
H  44.25500 41.52500 38.57400
H  52.14800 39.69400 40.24400
H  50.73300 39.20400 41.27800
H  52.37800 38.88300 41.84900
H  55.53100 43.30000 41.16300
H  56.58200 42.01400 41.70500
H  55.58500 42.87100 42.88700
H  53.75800 47.05800 41.94500
H  52.70300 48.35000 44.37800
H  54.55300 45.57400 44.32200
H  54.78500 47.22700 44.71700
H  55.52400 46.43900 43.22700
H  51.52100 49.28900 41.91800
H  53.26400 49.34500 41.90500
H  51.30000 51.14200 43.11700
H  53.00000 51.37000 43.25400
H  52.15500 50.50000 44.47800
H  47.42100 49.76000 44.69000
H  46.01000 49.92500 43.69600
H  47.66900 50.24500 43.07300
H  44.76700 45.54800 40.74900
H  42.62100 43.72000 45.24100
H  41.74000 43.83600 43.73200
H  41.93200 45.20700 44.78600
Mg -11.96600 16.65700 42.06200
C  -8.83100 15.06900 41.50000
C  -10.70600 19.44700 40.66000
C  -15.05400 17.84000 42.04000
C  -13.17600 13.41600 43.04800
N  -9.99000 17.15900 41.01100
C  -8.86400 16.38400 41.05300
C  -7.68100 17.23300 40.51800
C  -8.23600 18.71400 40.62400
C  -9.72500 18.40700 40.78400
C  -7.55700 19.66300 41.72000
C  -7.18100 16.82700 39.12300
C  -5.69000 17.34700 38.88900
H  -5.63000 18.16600 37.64100
N  -12.75200 18.39300 41.52200
C  -12.05200 19.44900 40.99200
C  -12.80200 20.60400 40.88800
C  -14.11100 20.20900 41.38500
C  -14.00300 18.78600 41.66100
C  -12.19900 22.03500 40.55400
C  -15.31500 21.06300 41.50800
O  -15.23800 22.22000 41.18900
C  -16.63400 20.73300 42.03900
N  -13.85700 15.68800 42.49000
C  -14.96200 16.44700 42.39500
C  -16.26000 15.67200 42.73400
C  -15.60100 14.29900 43.32500
C  -14.14000 14.42400 42.93200
C  -17.33200 16.27700 43.69400
C  -16.16100 13.01400 42.68900
C  -16.29800 11.83600 43.67800
N  -11.28700 14.65500 42.25400
C  -11.82000 13.42900 42.68300
C  -10.79400 12.42800 42.73800
C  -9.64200 13.06200 42.26000
C  -9.98700 14.35500 42.00400
C  -10.87900 11.03900 43.30200
C  -8.24300 12.87600 42.07000
O  -7.54400 11.85700 42.08800
C  -7.66300 14.16700 41.48500
C  -6.48600 14.55200 42.40900
O  -6.55600 14.62700 43.64500
O  -5.32100 14.74400 41.64300
C  -4.07800 15.02500 42.36500
H  -10.21600 20.39700 40.43300
H  -16.07500 18.19100 41.87900
H  -13.53300 12.48600 43.49600
H  -6.90100 17.05900 41.26000
H  -8.22700 19.18600 39.64200
H  -8.36600 19.91700 42.40400
H  -7.28300 20.60100 41.23600
H  -6.63700 19.25400 42.13900
H  -7.73700 17.44300 38.41600
H  -7.27900 15.75300 38.97000
H  -5.05300 16.46700 38.80100
H  -5.29800 17.91300 39.73400
H  -12.21400 22.41100 39.53000
H  -11.19300 22.07300 40.97300
H  -12.79500 22.72400 41.15100
H  -17.21600 21.59900 42.35400
H  -16.60100 20.10200 42.92700
H  -17.22700 20.22200 41.28100
H  -16.68400 15.47900 41.74800
H  -15.69400 14.32400 44.41000
H  -17.17200 17.33800 43.88600
H  -17.52400 15.74200 44.62400
H  -18.23700 16.15600 43.09900
H  -15.54300 12.77100 41.82500
H  -17.14800 13.22700 42.27800
H  -16.33900 12.08400 44.73800
H  -15.60300 11.00200 43.58000
H  -17.30800 11.45700 43.51800
H  -11.44800 10.35500 42.67300
H  -11.39400 11.16000 44.25500
H  -9.87000 10.69400 43.52800
H  -7.30500 14.06400 40.46100
H  -3.85200 14.06900 42.83800
H  -4.22000 15.78900 43.12900
H  -3.17000 15.31600 41.83700

