158

Mg -2.24600 17.34400 26.88900
C  -2.84300 15.29600 29.63300
C  -2.42000 20.02200 28.97200
C  -2.10400 19.32500 24.11600
C  -2.73500 14.57000 24.73300
N  -2.76400 17.62600 29.15000
C  -2.79400 16.63500 30.08100
C  -2.76500 17.22200 31.57800
C  -2.78700 18.79500 31.25600
C  -2.67100 18.86600 29.72900
C  -4.12700 19.47600 31.69000
C  -1.61700 16.77900 32.49400
C  -1.18400 17.63900 33.59800
H  -0.94500 16.81400 34.92800
N  -1.95500 19.28600 26.61300
C  -2.05600 20.22200 27.62900
C  -1.67400 21.54600 27.11600
C  -1.65100 21.36400 25.73500
C  -1.90400 19.89000 25.41700
C  -1.58200 22.77700 27.99500
C  -1.39800 22.51600 24.69300
O  -1.48300 22.39400 23.51300
C  -1.21000 23.82500 25.20700
N  -2.74900 17.03600 24.78300
C  -2.58100 18.07200 23.84200
C  -2.77700 17.46700 22.43800
C  -2.40900 15.99000 22.66500
C  -2.60400 15.81400 24.15500
C  -4.21800 17.67900 21.99100
C  -0.95200 15.58900 22.24100
C  0.14000 16.06900 23.13300
N  -2.68600 15.34600 27.07500
C  -2.83600 14.37800 26.14500
C  -3.05700 13.09300 26.78600
C  -3.04900 13.37400 28.19000
C  -2.82000 14.79100 28.30800
C  -3.30400 11.69800 26.19100
C  -3.25600 12.84400 29.53900
O  -3.40700 11.70200 29.97600
C  -3.09200 14.02200 30.50000
C  -1.90700 13.61000 31.33700
O  -0.71500 13.90300 31.19300
O  -2.43400 12.92700 32.40500
C  -1.48500 12.45700 33.39900
H  -2.36100 20.87200 29.65600
H  -2.10300 19.97700 23.24000
H  -2.79400 13.62500 24.18800
H  -3.64600 16.86800 32.11300
H  -2.06000 19.43000 31.76200
H  -3.88000 20.47600 32.04800
H  -4.60600 18.96800 32.52700
H  -4.78300 19.59500 30.82800
H  -0.79300 16.51400 31.83100
H  -2.07700 15.85000 32.83200
H  -1.84800 18.49100 33.74600
H  -0.28600 18.16000 33.26800
H  -1.40900 22.57800 29.05300
H  -2.42300 23.46000 27.88500
H  -0.63000 23.24300 27.73900
H  -0.24300 23.79000 25.70900
H  -2.02000 24.09100 25.88700
H  -1.13400 24.51200 24.36500
H  -2.04100 17.88800 21.75400
H  -3.10400 15.36600 22.10400
H  -4.82900 17.95100 22.85100
H  -4.51300 16.77100 21.46500
H  -4.24500 18.59800 21.40500
H  -0.89300 16.03700 21.25000
H  -0.92000 14.51900 22.03300
H  0.68700 15.19900 23.49800
H  -0.28900 16.58500 23.99100
H  0.73200 16.79100 22.57100
H  -2.36700 11.14700 26.27100
H  -3.66600 11.82200 25.17000
H  -4.10700 11.25500 26.78100
H  -4.00700 14.13500 31.08100
H  -1.12700 11.59700 32.83300
H  -1.97300 12.04800 34.28400
H  -0.72800 13.18500 33.69000
Mg 17.48100 52.70300 26.47900
C  19.38000 51.42800 29.17200
C  14.86900 53.17100 28.63800
C  15.70300 53.71000 23.90400
C  20.07000 51.53600 24.31300
N  17.13600 52.39100 28.66300
C  18.14100 52.04000 29.54800
C  17.71200 52.21700 30.99200
C  16.18300 52.63400 30.92500
C  16.05100 52.72600 29.34000
C  15.15100 51.68400 31.64800
C  18.67200 53.15200 31.84800
C  18.86000 52.94100 33.33300
H  17.73000 52.15100 34.07200
N  15.53500 53.29900 26.29400
C  14.59300 53.45800 27.31500
C  13.36100 54.05200 26.85700
C  13.65400 54.27800 25.45300
C  15.04900 53.79200 25.18100
C  12.18200 54.40500 27.79700
C  12.77500 55.00200 24.37500
O  13.18800 55.30200 23.25000
C  11.52200 55.69600 24.89100
N  17.89100 52.73500 24.45300
C  16.93400 53.21700 23.60900
C  17.48000 53.20300 22.17900
C  18.88800 52.55400 22.26600
C  18.93700 52.19700 23.72800
C  16.54800 52.39600 21.17700
C  20.03200 53.50800 21.70400
C  20.17200 54.75700 22.60700
N  19.27800 51.63000 26.65100
C  20.17600 51.31500 25.71100
C  21.28200 50.69200 26.30300
C  20.97700 50.64200 27.66000
C  19.76800 51.28800 27.85600
C  22.38300 49.98500 25.67800
C  21.48800 50.23200 28.94800
O  22.47800 49.57800 29.28700
C  20.50300 50.74600 30.00200
C  19.87300 49.63300 30.81100
O  18.96600 48.93800 30.41800
O  20.44200 49.39500 32.03400
C  19.81200 48.55800 33.00600
H  14.04100 53.48900 29.27500
H  15.19100 54.00100 22.98500
H  20.85000 51.15300 23.65200
H  17.83600 51.21000 31.38800
H  16.03400 53.67200 31.21900
H  14.76400 51.05400 30.84700
H  14.34300 52.21400 32.15300
H  15.62800 51.05600 32.40100
H  18.17000 54.10600 31.68600
H  19.62600 53.25600 31.33100
H  18.96700 53.88700 33.86400
H  19.81600 52.44300 33.49200
H  11.22000 54.53000 27.29800
H  12.51200 55.28900 28.34200
H  12.07200 53.67600 28.59900
H  10.90000 54.88900 25.27800
H  11.14100 56.14400 23.97400
H  11.75400 56.50400 25.58400
H  17.46100 54.24900 21.87400
H  19.09200 51.59700 21.78700
H  16.74200 51.32900 21.28200
H  16.73500 52.87800 20.21700
H  15.50800 52.60900 21.42500
H  19.82200 53.86000 20.69400
H  21.03200 53.07500 21.72000
H  19.64800 55.68600 22.38500
H  21.23000 54.97900 22.47100
H  19.98300 54.43700 23.63200
H  22.93400 50.71000 25.07800
H  21.95000 49.32000 24.93100
H  23.04100 49.32700 26.24500
H  20.93400 51.54100 30.61000
H  19.93000 49.02500 33.98400
H  20.27200 47.57100 33.04400
H  18.73300 48.55100 32.84700

