158

Mg 6.03300 52.81100 40.79400
C  6.14000 49.32500 40.26600
C  9.15700 53.09100 39.53100
C  5.50500 56.24900 40.57700
C  2.63500 52.46400 41.86600
N  7.37900 51.35700 39.92800
C  7.30500 49.95600 39.81000
C  8.63300 49.28200 39.27100
C  9.59500 50.53400 39.36000
C  8.70200 51.73300 39.59300
C  10.69100 50.45300 40.39900
C  8.52800 48.78000 37.77500
C  7.87100 49.51900 36.62900
H  6.69400 48.80300 35.87000
N  7.16100 54.49500 40.09500
C  8.48900 54.33000 39.76600
C  9.01500 55.67200 39.56100
C  7.93200 56.55600 39.67100
C  6.73800 55.79000 40.06000
C  10.49700 55.99800 39.39200
C  8.10100 58.07900 39.41300
O  9.28200 58.48700 39.22900
C  6.92400 59.03200 39.32300
N  4.30700 54.17100 41.11600
C  4.45900 55.51200 41.05200
C  3.17100 56.18300 41.65100
C  2.26000 54.99800 41.94800
C  3.04700 53.79700 41.60500
C  3.34900 56.99000 42.99000
C  0.86000 55.09900 41.22100
C  -0.30500 55.45200 42.21200
N  4.69600 51.22500 41.08000
C  3.37600 51.22200 41.55300
C  2.93200 49.80700 41.70100
C  4.05800 49.05100 41.30400
C  5.06800 49.92800 40.89600
C  1.61500 49.27600 42.11700
C  4.44000 47.71300 41.07300
O  3.82100 46.68700 41.24500
C  5.83800 47.81100 40.44900
C  5.83700 47.04400 39.11800
O  5.20900 47.40200 38.13900
O  6.56100 45.81300 39.26700
C  6.28900 44.88800 38.11300
H  10.21200 53.14900 39.25900
H  5.48200 57.34000 40.60500
H  1.66700 52.29900 42.34400
H  8.92100 48.46800 39.93500
H  10.11000 50.70000 38.41400
H  10.85100 51.38700 40.93800
H  11.59600 50.25800 39.82500
H  10.60200 49.56800 41.02900
H  8.03300 47.81600 37.88600
H  9.59100 48.71100 37.54600
H  8.67400 49.84100 35.96600
H  7.53100 50.47600 37.02500
H  10.65000 56.57300 38.47900
H  10.95400 55.01100 39.32600
H  10.99400 56.41800 40.26700
H  7.19700 59.86800 38.68000
H  6.49500 59.20600 40.30900
H  6.28500 58.40600 38.69800
H  2.76200 56.81700 40.86400
H  2.12000 54.93000 43.02700
H  4.18800 56.58300 43.55500
H  2.48700 57.01500 43.65600
H  3.61000 58.01600 42.72900
H  0.55700 54.18500 40.71100
H  0.94600 55.91400 40.50200
H  -0.67400 54.43400 42.33800
H  -1.06700 56.10600 41.78800
H  0.05300 55.83100 43.16900
H  0.92300 50.09600 42.30900
H  1.63000 48.84100 43.11600
H  1.06600 48.59500 41.46700
H  6.53400 47.33200 41.13800
H  6.59700 45.41600 37.21000
H  5.21800 44.71800 38.00700
H  6.88500 44.02300 38.40300
Mg 17.26400 50.72700 26.20700
C  18.91400 48.95800 28.73000
C  14.71100 51.33800 28.66600
C  15.36200 51.84500 23.80000
C  19.27000 49.03900 23.86100
N  16.83000 50.13100 28.49000
C  17.73100 49.52700 29.31400
C  17.26800 49.76700 30.76000
C  15.76100 50.16600 30.59500
C  15.76400 50.59900 29.12400
C  14.71300 49.05000 30.75600
C  18.11100 50.82400 31.53100
C  18.51700 50.46700 32.97500
H  17.55800 50.87200 34.14900
N  15.37500 51.60800 26.23700
C  14.49000 51.89500 27.35900
C  13.37200 52.65200 26.87300
C  13.56900 52.84700 25.48400
C  14.79000 52.06000 25.14400
C  12.26100 53.17400 27.79900
C  12.80900 53.70500 24.48900
O  13.16700 53.75500 23.32100
C  11.61400 54.55900 24.99900
N  17.26000 50.39800 24.06200
C  16.45700 51.12700 23.33100
C  16.78500 51.00600 21.82200
C  18.01800 50.08700 21.82000
C  18.20200 49.80400 23.30800
C  15.60600 50.48200 20.94500
C  19.34100 50.68000 21.29000
C  20.18100 49.63500 20.53000
N  18.80900 49.50400 26.27900
C  19.54100 48.90700 25.20800
C  20.67400 48.20800 25.74400
C  20.58200 48.32600 27.17800
C  19.30500 48.93900 27.41300
C  21.73700 47.48100 24.89800
C  21.15300 47.95800 28.46600
O  22.27000 47.42100 28.68700
C  20.18600 48.52600 29.54700
C  19.88000 47.46300 30.52300
O  18.97200 46.63400 30.46600
O  20.72600 47.55900 31.61200
C  20.27300 46.77000 32.83100
H  13.94200 51.53900 29.41500
H  14.81700 52.32100 22.98200
H  19.97100 48.56600 23.17000
H  17.36100 48.80100 31.25500
H  15.47000 51.02600 31.19700
H  14.77400 48.27500 29.99300
H  13.73700 49.51300 30.60600
H  14.69700 48.57800 31.73900
H  17.48100 51.67500 31.78800
H  18.91700 51.33200 31.00100
H  19.55000 50.76900 33.14900
H  18.67800 49.38900 32.95300
H  12.16000 54.24800 27.64500
H  12.41800 52.83000 28.82100
H  11.38000 52.68100 27.38700
H  10.99400 53.86800 25.57000
H  11.17500 55.08100 24.14900
H  12.03200 55.30800 25.67100
H  17.03500 52.00300 21.46000
H  17.68500 49.18700 21.30200
H  14.90200 49.90900 21.54900
H  16.03300 49.85900 20.15800
H  15.00500 51.31100 20.57200
H  19.99600 50.95500 22.11700
H  19.19000 51.50400 20.59200
H  20.90400 49.29300 21.27100
H  20.68300 50.07400 19.66800
H  19.59800 48.74800 20.28400
H  22.24400 48.00200 24.08600
H  21.36200 46.50900 24.58000
H  22.47300 47.10100 25.60700
H  20.66500 49.32200 30.11600
H  20.43300 45.75000 32.48100
H  19.21100 46.74000 33.07600
H  20.84400 46.98200 33.73500

