158

Mg 24.99600 -6.27200 47.51300
C  26.51900 -3.62400 45.76200
C  22.34500 -6.19800 45.34000
C  24.17900 -9.26300 48.60800
C  28.14400 -6.54400 49.29300
N  24.65300 -5.18400 45.60700
C  25.34100 -4.04600 45.18500
C  24.67300 -3.45600 43.90300
C  23.21400 -4.07300 44.04200
C  23.35000 -5.25500 45.07000
C  22.12200 -2.96200 44.44700
C  25.45900 -3.88700 42.62600
C  25.93700 -2.75400 41.77400
H  25.21000 -2.38300 40.44000
N  23.36200 -7.54300 47.16600
C  22.37300 -7.31000 46.24300
C  21.49700 -8.46600 46.23200
C  22.04500 -9.46600 47.10500
C  23.24400 -8.78400 47.71300
C  20.29800 -8.49200 45.28300
C  21.50400 -10.84400 47.42500
O  20.50900 -11.21200 46.74800
C  21.92600 -11.77200 48.52300
N  26.01300 -7.64600 48.82900
C  25.39300 -8.78900 49.12100
C  26.29300 -9.78600 49.88500
C  27.64200 -8.96100 49.95500
C  27.30500 -7.65200 49.35400
C  25.86600 -10.37100 51.28400
C  28.82800 -9.60000 49.26200
C  29.84400 -10.29200 50.17300
N  26.91300 -5.22200 47.67800
C  28.03500 -5.40100 48.47300
C  29.00000 -4.27200 48.32500
C  28.39700 -3.50600 47.29100
C  27.25800 -4.23400 46.85700
C  30.18800 -4.03300 49.25100
C  28.52100 -2.32500 46.40900
O  29.37900 -1.47900 46.40700
C  27.38600 -2.42400 45.34800
C  26.68500 -1.02500 45.50200
O  27.21500 0.02400 45.13600
O  25.49400 -1.19900 46.25200
C  24.79100 0.00500 46.68700
H  21.48200 -5.95600 44.71600
H  23.96300 -10.25000 49.02200
H  29.05200 -6.65900 49.88800
H  24.55200 -2.38300 44.05600
H  22.89400 -4.40000 43.05300
H  21.68500 -3.15100 45.42800
H  21.39000 -3.02400 43.64200
H  22.56100 -1.96700 44.37000
H  24.80400 -4.51000 42.01700
H  26.33600 -4.48700 42.86800
H  27.00700 -2.89900 41.62600
H  25.93400 -1.79900 42.30000
H  20.20500 -9.40600 44.69600
H  20.28900 -7.74200 44.49200
H  19.48200 -8.42300 46.00300
H  22.85400 -12.23200 48.18500
H  21.22900 -12.60600 48.61500
H  21.98600 -11.23900 49.47200
H  26.23000 -10.70300 49.29800
H  28.01800 -8.81800 50.96800
H  26.61600 -10.19700 52.05600
H  25.48500 -11.38600 51.17400
H  25.12400 -9.65300 51.63500
H  29.39000 -8.79400 48.79000
H  28.51400 -10.28900 48.47800
H  30.12600 -11.30600 49.89100
H  29.29300 -10.47200 51.09600
H  30.66400 -9.58100 50.27100
H  30.18500 -2.95200 49.38800
H  31.03500 -4.33900 48.63600
H  30.12300 -4.58700 50.18800
H  27.87200 -2.60500 44.39000
H  23.98400 -0.38000 47.31000
H  24.39200 0.46500 45.78200
H  25.42200 0.67400 47.27300
Mg 7.20100 54.06800 41.47300
C  6.76900 50.53200 41.54300
C  10.52600 53.23100 40.44600
C  7.71100 57.37100 40.91900
C  3.82100 54.45000 41.53600
N  8.45900 52.10900 40.99200
C  8.06800 50.81900 41.08300
C  9.23600 49.81600 40.96700
C  10.45500 50.73900 41.03900
C  9.75700 52.12000 40.80300
C  11.39100 50.71500 42.29400
C  9.29800 48.83200 39.79800
C  9.07800 49.48000 38.42900
H  7.72600 49.17100 37.74800
N  8.96200 55.16300 40.91000
C  10.18900 54.68000 40.46300
C  11.08900 55.82000 40.35500
C  10.27500 56.99400 40.45600
C  8.88100 56.56300 40.75600
C  12.55500 55.61600 40.07600
C  10.81300 58.41500 40.40100
O  11.97000 58.56600 40.04300
C  10.01100 59.58100 40.79700
N  5.93800 55.62600 41.32200
C  6.39600 56.94800 41.17600
C  5.15200 57.83800 41.14800
C  3.93100 56.96600 41.39200
C  4.56600 55.59600 41.39500
C  5.17600 59.14100 42.06500
C  2.89200 57.14400 40.23000
C  1.41800 56.74300 40.53200
N  5.60600 52.87100 41.64000
C  4.24000 53.07400 41.68600
C  3.49000 51.92200 41.93200
C  4.45600 50.95700 42.03400
C  5.70000 51.51500 41.73800
C  2.05300 51.80600 42.20400
C  4.73000 49.52500 42.28000
O  3.98100 48.66200 42.63500
C  6.19300 49.13000 41.78600
C  5.79700 48.35700 40.62800
O  5.24900 48.79700 39.61300
O  6.12400 46.98700 40.89200
C  5.89500 45.89500 39.86700
H  11.59800 53.05600 40.32900
H  7.79200 58.46000 40.88200
H  2.76700 54.59200 41.78700
H  9.28000 49.17200 41.84500
H  11.14000 50.54800 40.21300
H  11.23200 49.84300 42.93000
H  11.25500 51.61300 42.89600
H  12.44900 50.78200 42.04300
H  8.58500 48.02200 39.95000
H  10.22600 48.26100 39.83800
H  9.82700 49.17800 37.69700
H  9.26700 50.54900 38.52700
H  12.67200 55.10400 39.12100
H  12.88600 54.97200 40.89100
H  13.09700 56.56100 40.05600
H  10.70600 60.34300 41.15100
H  9.33000 59.34000 41.61300
H  9.47800 60.08300 39.99000
H  5.05200 58.23400 40.13700
H  3.59400 57.15700 42.41100
H  5.74000 59.88700 41.50600
H  5.80500 58.87600 42.91500
H  4.21300 59.33600 42.53700
H  3.26400 56.57200 39.38000
H  2.82700 58.21900 40.06100
H  1.31100 56.56200 41.60200
H  1.13500 55.82200 40.02200
H  0.80900 57.61300 40.28900
H  1.54600 51.26000 41.40800
H  1.63300 52.81200 42.17400
H  1.85400 51.36700 43.18100
H  6.71100 48.63100 42.60500
H  4.86100 45.55200 39.83600
H  6.64000 45.10700 39.97500
H  6.06300 46.32500 38.87900

