158

Mg 40.86500 9.24800 30.51300
C  42.53700 10.56200 33.16800
C  38.63900 7.66600 32.74800
C  39.17400 7.96100 27.93500
C  43.38300 10.12100 28.40200
N  40.56800 9.30400 32.70000
C  41.40300 9.88700 33.58300
C  40.88900 9.75200 35.03100
C  39.71800 8.73600 34.91300
C  39.66100 8.48400 33.35700
C  39.85800 7.30800 35.64100
C  40.50100 11.18800 35.65200
C  41.24200 11.63400 36.90800
H  40.37700 12.18800 38.02500
N  39.09700 8.03700 30.37500
C  38.33700 7.55800 31.39900
C  37.19100 6.88500 30.83400
C  37.31600 6.94900 29.39900
C  38.56900 7.57500 29.16900
C  36.08300 6.26100 31.71400
C  36.29800 6.50400 28.36200
O  36.47800 6.56600 27.17000
C  34.92300 6.10400 28.81100
N  41.18600 9.14700 28.47800
C  40.33100 8.56400 27.59500
C  40.88900 8.67000 26.16100
C  42.17800 9.53400 26.36200
C  42.30500 9.49300 27.86100
C  41.24100 7.28700 25.45700
C  41.97400 11.11400 25.90500
C  41.79400 11.48300 24.43600
N  42.53300 10.28500 30.64000
C  43.54700 10.44700 29.74900
C  44.58000 11.29800 30.36500
C  44.20200 11.35000 31.70300
C  43.00900 10.70200 31.86900
C  45.72100 11.83900 29.56100
C  44.67600 11.78600 32.92400
O  45.73900 12.40100 33.07300
C  43.65300 11.31100 34.06600
C  44.28500 10.43800 35.06000
O  44.37600 9.18800 35.06400
O  44.62800 11.20800 36.14200
C  44.83900 10.47600 37.35100
H  37.99900 7.19100 33.49500
H  38.74600 7.52400 27.03000
H  44.05600 10.56800 27.66700
H  41.67300 9.14300 35.48000
H  38.79700 9.20300 35.26300
H  40.00400 6.52500 34.89700
H  38.90800 6.97000 36.05500
H  40.65200 7.33200 36.38700
H  39.42500 11.23000 35.81800
H  40.82800 11.90200 34.89700
H  41.91500 12.43800 36.61000
H  41.83500 10.83000 37.34300
H  36.00600 5.17600 31.64300
H  35.16700 6.79400 31.45900
H  36.28400 6.49000 32.76100
H  34.97400 5.26000 29.49900
H  34.37600 5.70600 27.95500
H  34.39300 6.93200 29.28200
H  40.22600 9.21400 25.48800
H  43.06200 9.04900 25.94700
H  40.89400 6.46300 26.08100
H  42.27600 7.14100 25.14900
H  40.70000 7.26300 24.51100
H  42.83300 11.73700 26.15300
H  41.10000 11.52800 26.40800
H  42.71400 11.21100 23.91700
H  41.49700 12.52600 24.33000
H  41.00900 10.81200 24.08700
H  45.41400 12.16100 28.56600
H  46.34300 10.94700 29.47900
H  46.24200 12.61100 30.12700
H  43.21700 12.15100 34.60600
H  44.18200 10.76700 38.17100
H  45.81200 10.66000 37.80600
H  44.74000 9.39300 37.27400
Mg 47.34700 16.25800 28.86800
C  45.32600 16.06400 31.86600
C  49.56500 18.07700 30.51900
C  48.77800 16.66300 26.01300
C  44.41900 14.76300 27.26600
N  47.32600 16.99700 30.84000
C  46.52700 16.71200 31.95600
C  47.12400 17.24700 33.29000
C  48.25700 18.17500 32.78900
C  48.41200 17.70600 31.28100
C  47.87800 19.68300 32.88300
C  47.58700 16.05900 34.20700
C  47.02700 16.18900 35.64000
H  46.79500 17.58300 36.35700
N  48.99000 17.15900 28.33900
C  49.86600 17.81700 29.11500
C  51.04100 18.18400 28.41900
C  50.92300 17.62300 27.08900
C  49.53300 17.11900 27.10200
C  52.11900 19.03700 29.04300
C  51.89400 17.59900 25.94800
O  51.66400 17.12700 24.85400
C  53.24000 18.17100 26.20400
N  46.68400 15.67300 26.86400
C  47.51900 16.04900 25.83500
C  46.82200 15.68400 24.48400
C  45.43900 15.04700 24.96700
C  45.47800 15.14200 26.42100
C  46.66200 16.95700 23.51900
C  45.31000 13.62900 24.53500
C  45.03300 13.49400 23.06900
N  45.34700 15.52800 29.38500
C  44.32000 14.95900 28.63100
C  43.25100 14.53900 29.51600
C  43.61300 14.99000 30.76400
C  44.84000 15.54100 30.65500
C  41.94700 13.82500 28.97500
C  43.11900 15.14600 32.10600
O  42.05800 14.84300 32.59600
C  44.25500 15.67800 32.90300
C  43.68700 16.86500 33.66200
O  43.56400 18.03100 33.23200
O  43.18300 16.41700 34.84500
C  42.55600 17.49000 35.69100
H  50.26700 18.67200 31.10600
H  49.19800 16.68300 25.00500
H  43.60500 14.17200 26.84100
H  46.31500 17.79700 33.77100
H  49.17200 18.08800 33.37400
H  47.89000 20.15900 31.90200
H  48.62500 20.24200 33.44700
H  47.00100 19.76000 33.52500
H  48.66700 15.92100 34.25500
H  47.16900 15.13600 33.80500
H  47.52500 15.49400 36.31600
H  46.05900 15.68900 35.64200
H  52.36500 19.86500 28.37900
H  53.05600 18.47900 29.04900
H  51.81900 19.40000 30.02600
H  53.90600 18.04400 25.35100
H  53.66400 17.77100 27.12600
H  53.07500 19.23500 26.37200
H  47.40600 14.94700 23.93400
H  44.56100 15.62700 24.68200
H  46.79400 16.61700 22.49200
H  47.38600 17.73600 23.75700
H  45.64800 17.34900 23.59100
H  44.50100 13.21200 25.13400
H  46.28300 13.15900 24.68400
H  45.84100 12.92500 22.60800
H  45.16600 14.43100 22.52800
H  44.13000 12.91300 22.88300
H  42.23500 12.81300 28.69100
H  41.53600 14.31000 28.08900
H  41.29100 13.74900 29.84200
H  44.51900 14.90700 33.62800
H  41.75700 17.92200 35.08900
H  43.21800 18.33400 35.88800
H  42.14600 17.07700 36.61300

