158

Mg 24.39900 -4.77600 45.39700
C  26.46400 -2.53500 43.82200
C  21.77200 -3.52700 43.48000
C  22.67900 -7.77800 45.92400
C  27.17000 -6.23000 47.00100
N  24.17400 -3.23700 43.82000
C  25.16600 -2.41000 43.44100
C  24.59900 -1.47200 42.41000
C  23.10300 -1.48200 42.72800
C  23.00900 -2.82700 43.41700
C  22.52200 -0.34800 43.59000
C  24.92300 -1.92100 40.96900
C  25.20700 -0.70300 40.03400
H  24.90500 -0.85600 38.53700
N  22.39200 -5.52300 44.85100
C  21.52100 -4.88600 44.00000
C  20.30400 -5.68400 44.03800
C  20.55700 -6.89500 44.65500
C  21.94400 -6.78800 45.21900
C  19.00900 -5.17900 43.37400
C  19.61900 -8.02000 44.90600
O  18.52000 -7.92600 44.32300
C  19.91000 -9.27900 45.86700
N  24.71800 -6.63500 46.55400
C  23.84400 -7.70900 46.58600
C  24.46100 -8.93100 47.31700
C  25.81700 -8.35800 47.75100
C  25.92900 -6.93200 47.08500
C  23.58500 -9.57600 48.41300
C  27.10300 -9.33100 47.70900
C  27.72900 -9.71200 49.12800
N  26.38800 -4.35200 45.55100
C  27.41300 -5.01000 46.26300
C  28.67100 -4.32700 46.01700
C  28.37100 -3.38100 45.05100
C  26.96300 -3.46200 44.84100
C  30.02300 -4.78300 46.53700
C  28.85400 -2.41600 44.12800
O  30.04700 -2.09400 43.92400
C  27.64300 -1.79400 43.28200
C  27.62900 -0.34000 43.59900
O  27.29300 0.08400 44.72500
O  28.03800 0.38300 42.48700
C  27.97400 1.81500 42.77800
H  20.92800 -3.07300 42.95500
H  22.34700 -8.80900 45.78700
H  27.92100 -6.74600 47.60300
H  25.06200 -0.49800 42.57200
H  22.49500 -1.65700 41.84000
H  21.84300 0.28100 43.01400
H  23.38600 0.27400 43.82200
H  22.12800 -0.70900 44.54000
H  24.06000 -2.48400 40.61200
H  25.77900 -2.59600 40.99900
H  26.26600 -0.44800 40.01700
H  24.64900 0.17500 40.36100
H  18.28000 -5.97200 43.20700
H  19.22500 -4.72400 42.40700
H  18.67600 -4.37100 44.02700
H  20.29700 -9.02900 46.85500
H  20.63800 -9.84800 45.29000
H  18.97300 -9.80700 46.04600
H  24.61700 -9.71200 46.57300
H  25.68300 -8.08600 48.79800
H  23.34800 -10.62800 48.24900
H  22.65400 -9.06600 48.65700
H  24.14400 -9.53700 49.34800
H  27.88100 -9.06600 46.99200
H  26.68900 -10.22100 47.23400
H  28.81200 -9.62200 49.04400
H  27.47700 -10.71900 49.46000
H  27.51400 -8.95900 49.88600
H  30.74500 -4.56200 45.75100
H  29.96800 -5.87000 46.46700
H  30.20800 -4.39000 47.53600
H  27.82100 -2.06600 42.24200
H  27.27500 2.21000 42.04000
H  28.95700 2.26900 42.65900
H  27.56600 2.20200 43.71200
Mg 9.65900 48.35400 26.15900
C  7.54700 48.31900 29.01200
C  12.12900 49.75800 28.06800
C  11.59800 48.47100 23.38200
C  6.84300 47.83000 24.21900
N  9.70000 49.03900 28.28900
C  8.84300 48.70200 29.29000
C  9.29500 49.21600 30.59700
C  10.70900 49.94400 30.19100
C  10.88600 49.60900 28.73500
C  10.81200 51.48100 30.49000
C  9.35000 48.17000 31.70700
C  10.01100 48.63700 33.01200
H  9.28200 48.42000 34.36100
N  11.64200 48.89400 25.79400
C  12.55000 49.37500 26.73600
C  13.92000 49.33000 26.15100
C  13.61500 49.12700 24.78500
C  12.22600 48.93000 24.57800
C  15.20500 49.68300 26.92100
C  14.56900 49.19500 23.64600
O  14.21400 49.20300 22.48200
C  16.06200 49.30300 23.96200
N  9.24700 48.24900 24.09900
C  10.23700 48.25900 23.12800
C  9.58700 47.83100 21.76500
C  8.15800 47.46100 22.11700
C  8.09000 47.77400 23.59800
C  9.72400 48.82300 20.54900
C  7.84600 46.00400 21.77600
C  8.47500 45.04100 22.72300
N  7.51000 48.14700 26.49900
C  6.51700 47.90700 25.57200
C  5.31800 47.59400 26.26300
C  5.64700 47.68900 27.61900
C  7.00500 48.02600 27.70700
C  3.93300 47.10000 25.79000
C  5.16300 47.60700 28.98700
O  4.03800 47.29100 29.36600
C  6.37300 47.99600 29.96900
C  6.55900 46.69200 30.60500
O  7.49000 45.93900 30.26300
O  5.65300 46.55900 31.60700
C  5.86600 45.36900 32.52400
H  12.90300 49.87600 28.82900
H  12.05000 48.42300 22.38900
H  5.99600 47.48000 23.62400
H  8.57900 49.98400 30.89000
H  11.51200 49.45200 30.74000
H  11.83100 51.63800 30.84200
H  10.11100 51.78100 31.26900
H  10.70100 51.95700 29.51500
H  9.92000 47.33300 31.30400
H  8.33800 47.85600 31.96100
H  10.14200 49.71900 32.98300
H  10.96900 48.14000 33.16600
H  15.96100 48.89800 26.93900
H  14.89300 49.87400 27.94800
H  15.55800 50.61000 26.46900
H  16.30800 48.58200 24.74100
H  16.32100 50.29300 24.33800
H  16.60100 49.07800 23.04200
H  10.04000 46.90200 21.41700
H  7.46500 48.03300 21.50000
H  10.15000 49.76600 20.89200
H  8.73300 49.01300 20.13900
H  10.41200 48.33200 19.86000
H  8.35600 45.71500 20.85700
H  6.75800 45.96700 21.83700
H  7.71300 44.55300 23.33100
H  9.20400 45.48100 23.40500
H  8.92700 44.24100 22.13800
H  4.02700 46.54800 24.85600
H  3.43800 48.05300 25.60500
H  3.29100 46.49700 26.43200
H  6.22200 48.84900 30.63200
H  5.96200 45.52600 33.59900
H  6.61600 44.63300 32.23500
H  4.99700 44.73600 32.34200

