158

Mg 9.13900 3.20700 27.58000
C  10.15800 1.59700 30.57900
C  7.56200 5.47300 29.51300
C  7.96500 4.55500 24.76400
C  10.20300 0.39100 25.90900
N  9.01500 3.54500 29.73000
C  9.55400 2.86800 30.79700
C  9.26900 3.42400 32.18900
C  8.36400 4.64100 31.80000
C  8.29300 4.62700 30.26800
C  6.96400 4.77900 32.45500
C  10.58300 3.59400 33.05200
C  10.58600 4.74800 34.09600
H  11.19900 4.36800 35.52300
N  7.87100 4.74000 27.22900
C  7.32500 5.58400 28.10200
C  6.62600 6.64900 27.35700
C  6.91700 6.45900 25.95000
C  7.66500 5.24800 25.94000
C  5.83100 7.78900 28.09200
C  6.49900 7.26500 24.66100
O  6.81100 6.89300 23.58800
C  5.64000 8.47100 24.81700
N  9.21900 2.65800 25.62600
C  8.68900 3.35400 24.63300
C  8.95900 2.80900 23.17300
C  9.64900 1.42200 23.59400
C  9.74900 1.49900 25.11900
C  7.78000 2.74800 22.23500
C  11.06900 1.22500 22.88300
C  11.16000 0.16800 21.80200
N  10.09800 1.38700 28.05900
C  10.44700 0.33500 27.24000
C  11.07700 -0.69500 28.01900
C  11.00400 -0.27200 29.35700
C  10.42600 0.99100 29.33400
C  11.87200 -1.80400 27.42800
C  11.29100 -0.59500 30.76400
O  11.74700 -1.59000 31.30300
C  10.78800 0.62000 31.60600
C  9.75500 0.14600 32.58600
O  8.62100 -0.09800 32.27800
O  10.19700 0.10500 33.84000
C  9.13700 0.06000 34.88100
H  6.96600 6.16800 30.10700
H  7.78100 4.95200 23.76300
H  10.66000 -0.41500 25.33200
H  8.54400 2.70200 32.56500
H  8.83200 5.56900 32.12900
H  6.20500 4.49400 31.72600
H  6.68800 5.80600 32.69500
H  6.88600 4.19100 33.37000
H  11.42700 3.76000 32.38400
H  10.76800 2.61800 33.50000
H  9.55700 4.99000 34.36200
H  11.12800 5.64900 33.80800
H  6.48300 8.66300 28.06400
H  5.45300 7.48500 29.06800
H  4.90400 8.03700 27.57600
H  4.77000 8.02600 25.30000
H  5.45300 8.85200 23.81300
H  6.18600 9.26500 25.32700
H  9.64100 3.45600 22.62100
H  9.09000 0.57000 23.20900
H  8.02400 3.38100 21.38200
H  6.87500 3.22400 22.61000
H  7.48500 1.72700 21.99200
H  11.80400 1.05500 23.67000
H  11.24100 2.18400 22.39200
H  10.80800 -0.80200 22.15200
H  12.16400 -0.08900 21.46400
H  10.52700 0.41200 20.94900
H  12.45900 -1.45000 26.58100
H  11.15100 -2.49400 26.99000
H  12.56600 -2.16700 28.18700
H  11.65300 1.15800 31.99500
H  8.53400 0.96800 34.91100
H  9.44100 0.06600 35.92700
H  8.49700 -0.78400 34.62600
Mg 35.76800 0.49500 29.33200
C  33.53400 1.22500 31.80400
C  38.18300 0.25400 31.65800
C  37.96700 -0.27000 26.90300
C  33.25000 0.74400 26.81200
N  35.85700 0.76700 31.34500
C  34.85000 1.01000 32.24700
C  35.35700 1.19200 33.73000
C  36.87800 1.17300 33.55900
C  37.00400 0.69500 32.07600
C  37.69100 2.53000 33.81500
C  34.88000 -0.06200 34.60400
C  34.74500 0.17600 36.17600
H  35.38300 1.41700 36.67400
N  37.81000 0.02300 29.29600
C  38.61800 -0.07200 30.34400
C  39.93900 -0.56400 29.93100
C  39.85300 -0.64500 28.47100
C  38.53000 -0.28600 28.14200
C  41.00700 -0.97100 30.85400
C  40.86900 -1.20700 27.48500
O  40.62800 -1.42600 26.32300
C  42.27700 -1.82700 28.01700
N  35.56600 0.26800 27.17800
C  36.71100 0.01600 26.40700
C  36.32600 -0.11200 24.92900
C  34.85400 0.37400 24.92200
C  34.44200 0.32500 26.36500
C  37.17100 0.79100 24.02100
C  34.00600 -0.59800 24.12400
C  32.96500 -1.50000 24.72400
N  33.79200 0.96400 29.28600
C  32.91800 1.04100 28.21400
C  31.61000 1.40800 28.75400
C  31.79800 1.45700 30.18700
C  33.15200 1.21300 30.44900
C  30.40200 1.40100 27.96900
C  31.09800 1.54500 31.47700
O  29.95200 1.54300 31.78800
C  32.27900 1.60700 32.56500
C  32.23600 2.98100 33.23500
O  32.43300 4.01200 32.58400
O  32.13700 2.87800 34.55600
C  32.14000 4.06900 35.43200
H  38.90300 0.15300 32.47200
H  38.65800 -0.50000 26.09000
H  32.52000 0.86000 26.00800
H  34.98600 2.13600 34.13000
H  37.34600 0.53100 34.30600
H  37.13700 3.15700 34.51300
H  37.69400 2.93300 32.80300
H  38.67000 2.26100 34.21200
H  35.50900 -0.94400 34.48600
H  33.93500 -0.31300 34.12300
H  35.26900 -0.69500 36.57200
H  33.70000 0.23900 36.47900
H  41.99400 -0.59800 30.57900
H  41.00400 -2.05700 30.76400
H  40.81500 -0.45200 31.79300
H  42.80800 -1.09100 28.62100
H  42.79800 -1.93300 27.06500
H  42.01600 -2.73500 28.56000
H  36.44900 -1.19100 24.84400
H  34.61800 1.33400 24.46400
H  36.48200 1.50600 23.57000
H  37.48100 0.27400 23.11300
H  38.08000 1.14400 24.50800
H  34.72200 -1.04300 23.43400
H  33.37500 -0.08800 23.39600
H  31.92800 -1.22600 24.52800
H  33.18800 -1.76300 25.75800
H  33.05100 -2.41700 24.14100
H  30.26300 0.52400 27.33600
H  30.27600 2.15800 27.19600
H  29.51900 1.52600 28.59600
H  32.09200 0.91500 33.38600
H  32.81700 4.88200 35.16900
H  32.38200 3.77600 36.45300
H  31.12500 4.46500 35.45900

