158

Mg -2.79100 17.75300 26.86900
C  -3.35700 15.47500 29.49100
C  -3.18800 20.27800 29.14300
C  -2.36000 19.78900 24.37600
C  -2.82000 14.91400 24.68100
N  -3.11600 17.80600 29.00200
C  -3.20500 16.81500 29.89100
C  -3.22700 17.27700 31.36600
C  -3.44300 18.77000 31.18800
C  -3.22200 18.97400 29.65800
C  -4.83400 19.24800 31.72400
C  -1.92100 16.90900 32.04100
C  -1.50300 17.77600 33.31200
H  -1.08700 16.98400 34.63500
N  -2.76500 19.79700 26.80100
C  -2.85800 20.64400 27.80700
C  -2.81000 21.99000 27.29200
C  -2.38500 21.85000 25.93000
C  -2.48500 20.45900 25.66100
C  -3.09500 23.23200 28.16000
C  -1.86000 22.89700 24.99700
O  -1.54100 22.68100 23.80400
C  -1.62500 24.30300 25.44700
N  -2.78400 17.43300 24.76100
C  -2.41100 18.42500 23.98400
C  -2.32000 17.94200 22.50300
C  -2.24400 16.36300 22.59700
C  -2.64100 16.18000 24.06400
C  -3.42000 18.46100 21.62000
C  -0.77000 15.88100 22.32500
C  0.17100 15.80700 23.55700
N  -3.14700 15.62300 26.95500
C  -3.15200 14.64100 26.03800
C  -3.44200 13.33800 26.65300
C  -3.47100 13.58500 27.99400
C  -3.25800 14.94600 28.15500
C  -3.59600 11.98500 26.04400
C  -3.58100 12.99500 29.24000
O  -3.76800 11.87300 29.59300
C  -3.56900 14.18400 30.28600
C  -2.47700 13.84400 31.20600
O  -1.27500 13.79100 30.98000
O  -3.08700 13.40000 32.41900
C  -2.13600 12.90500 33.42200
H  -3.14500 21.13900 29.81300
H  -2.19400 20.38400 23.47600
H  -2.74200 14.07500 23.98700
H  -4.04900 16.77600 31.87800
H  -2.78400 19.44400 31.73600
H  -5.17100 18.67700 32.58900
H  -5.60800 19.14900 30.96300
H  -4.70600 20.31800 31.88900
H  -1.08100 16.95100 31.34700
H  -1.87000 15.89800 32.44500
H  -2.37500 18.40600 33.48900
H  -0.76300 18.53100 33.04700
H  -3.98000 23.02000 28.76000
H  -3.37000 24.11100 27.57800
H  -2.27900 23.48100 28.83700
H  -2.49200 24.95100 25.57100
H  -0.94200 24.75600 24.72900
H  -1.07100 24.16200 26.37500
H  -1.42700 18.46500 22.16000
H  -2.87500 15.80400 21.90600
H  -4.42800 18.13900 21.88200
H  -3.42500 17.97700 20.64300
H  -3.30900 19.54600 21.60600
H  -0.30900 16.48600 21.54500
H  -1.01700 14.88700 21.95200
H  -0.32000 15.97500 24.51600
H  1.00400 16.49300 23.40400
H  0.64600 14.83100 23.64800
H  -2.74400 11.40300 26.39500
H  -3.61700 11.99000 24.95500
H  -4.53800 11.61300 26.44700
H  -4.48900 14.31500 30.85600
H  -1.31300 12.38300 32.93200
H  -2.63900 12.23100 34.11500
H  -1.85400 13.80000 33.97500
Mg 49.41100 36.19600 27.46800
C  47.78800 34.18300 29.75700
C  49.58900 38.66000 29.83800
C  50.96500 38.01600 25.16500
C  48.78400 33.66400 25.09000
N  48.77000 36.34500 29.60500
C  48.15800 35.38600 30.36000
C  48.16300 35.83300 31.83300
C  48.15200 37.36600 31.61700
C  48.90200 37.48600 30.26700
C  46.78700 37.98000 31.63500
C  49.48600 35.39800 32.63800
C  49.35400 35.21200 34.14800
H  48.45300 36.15200 35.06200
N  50.20100 38.05200 27.53400
C  50.11700 38.99400 28.51800
C  50.69500 40.21200 28.07600
C  51.14200 40.06000 26.76000
C  50.81800 38.65900 26.44900
C  50.73600 41.48300 29.03800
C  51.82800 40.98400 25.78200
O  52.13800 40.64800 24.63300
C  52.10000 42.38500 26.21600
N  49.79900 35.81100 25.42800
C  50.43100 36.76200 24.75400
C  50.78900 36.33300 23.32000
C  50.31400 34.80100 23.37800
C  49.58900 34.74400 24.63300
C  50.19900 37.18200 22.17000
C  51.46500 33.76600 23.39800
C  51.20900 32.51400 22.64800
N  48.48500 34.29300 27.38200
C  48.35300 33.31600 26.36900
C  47.82500 32.10300 26.94600
C  47.56800 32.39900 28.29800
C  47.92400 33.75600 28.49200
C  47.39400 30.87400 26.15600
C  47.06400 31.83100 29.55400
O  46.60500 30.70700 29.79300
C  46.98800 33.09400 30.48000
C  47.31800 32.75800 31.88100
O  48.29400 32.12000 32.27000
O  46.36600 33.21900 32.67900
C  46.32200 32.89800 34.15000
H  49.46300 39.51900 30.50000
H  51.37800 38.58000 24.32600
H  48.61000 32.87200 24.35900
H  47.26700 35.51900 32.36900
H  48.72700 37.76700 32.45200
H  46.01300 37.30200 31.99600
H  46.52600 38.20400 30.60100
H  46.87000 38.92400 32.17300
H  50.30700 36.06800 32.38400
H  49.78100 34.51700 32.06700
H  50.34100 35.31700 34.59900
H  49.13000 34.14600 34.19400
H  51.51400 42.20700 28.79600
H  50.95400 41.15100 30.05300
H  49.73300 41.90100 29.11500
H  52.35600 43.13700 25.46900
H  52.84800 42.44300 27.00700
H  51.28800 42.99800 26.60700
H  51.86500 36.44500 23.18800
H  49.54000 34.63100 22.63000
H  49.77400 38.03600 22.69700
H  49.39200 36.66300 21.65400
H  50.92100 37.44500 21.39700
H  51.62100 33.46900 24.43500
H  52.39300 34.12400 22.95300
H  52.01000 32.31300 21.93600
H  50.44100 32.59500 21.87800
H  50.90500 31.65200 23.24200
H  48.26000 30.21500 26.08900
H  47.07400 31.18400 25.16100
H  46.57600 30.39600 26.69500
H  45.95200 33.42800 30.41800
H  45.67700 32.05100 34.38500
H  45.79500 33.75900 34.56000
H  47.28400 32.82000 34.65600

