158

Mg -1.89900 18.06700 26.92700
C  -2.45400 15.88900 29.71200
C  -2.13900 20.79300 29.21100
C  -1.48400 20.05300 24.38200
C  -1.96500 15.22000 24.83700
N  -2.14300 18.32300 29.16300
C  -2.36100 17.28200 30.11400
C  -2.57700 17.80700 31.49800
C  -2.71600 19.28900 31.25700
C  -2.21600 19.51000 29.80500
C  -4.08100 19.98400 31.66000
C  -1.40000 17.46700 32.59800
C  -1.86200 16.78100 33.83200
H  -0.80700 16.46100 34.92900
N  -1.73300 20.12000 26.77900
C  -1.87600 21.06400 27.82000
C  -1.83400 22.41100 27.19500
C  -1.62700 22.27500 25.73900
C  -1.64300 20.76300 25.57700
C  -1.84900 23.69900 27.92300
C  -1.45700 23.29900 24.61600
O  -1.19000 23.03900 23.46000
C  -1.35800 24.69500 24.98200
N  -1.94500 17.72800 24.94100
C  -1.63300 18.73500 24.07800
C  -1.56600 18.16700 22.62300
C  -1.88300 16.66400 22.70200
C  -1.98700 16.45300 24.27000
C  -2.60700 18.89200 21.57900
C  -0.71000 15.83200 22.05100
C  0.57400 15.65600 22.83700
N  -2.22200 16.00500 27.12300
C  -2.17000 14.95700 26.20300
C  -2.29000 13.68300 26.92500
C  -2.32900 14.01100 28.29700
C  -2.34900 15.39500 28.36200
C  -2.31800 12.37100 26.26800
C  -2.48600 13.44600 29.64700
O  -2.57300 12.32700 30.04900
C  -2.55100 14.65800 30.61500
C  -1.36400 14.37600 31.47800
O  -0.21600 14.62100 31.19300
O  -1.74100 13.73600 32.58700
C  -0.73800 13.22800 33.46000
H  -2.27400 21.60400 29.93000
H  -1.26800 20.70200 23.53200
H  -2.06200 14.41700 24.10400
H  -3.44800 17.31000 31.92500
H  -2.05800 19.81800 31.94700
H  -4.44000 20.54600 30.79700
H  -3.97400 20.64000 32.52400
H  -4.78600 19.22200 31.99200
H  -0.73600 18.25900 32.94600
H  -0.76500 16.78700 32.03100
H  -2.28900 15.80900 33.58700
H  -2.69500 17.39700 34.17400
H  -1.95600 23.55600 28.99800
H  -2.71100 24.33200 27.71400
H  -0.90900 24.22200 27.74300
H  -2.05300 25.01700 25.75800
H  -1.57700 25.37000 24.15500
H  -0.36500 24.86500 25.39700
H  -0.53900 18.32100 22.29400
H  -2.74200 16.42700 22.07500
H  -3.11000 19.72000 22.07900
H  -3.34400 18.18300 21.20300
H  -2.06100 19.13800 20.66800
H  -0.40400 16.33100 21.13100
H  -0.97300 14.83000 21.71200
H  1.16600 16.54500 22.61900
H  1.05200 14.71300 22.57000
H  0.35900 15.48800 23.89300
H  -2.13100 11.50600 26.90500
H  -1.58900 12.37900 25.45800
H  -3.30400 12.31900 25.80600
H  -3.42300 14.56400 31.26200
H  0.11300 13.86500 33.70100
H  -0.45500 12.25400 33.06100
H  -1.29200 13.00300 34.37200
Mg 8.92100 48.36000 25.59500
C  6.37200 48.75900 28.10600
C  11.14300 49.36000 28.04900
C  11.07900 48.14500 23.31500
C  6.19400 48.08800 23.37900
N  8.77800 48.84700 27.84700
C  7.66800 48.96400 28.65000
C  8.04700 49.11500 30.15000
C  9.53000 49.66600 30.04500
C  9.85800 49.26500 28.54000
C  9.63800 51.13800 30.41700
C  7.83100 47.84400 31.07200
C  7.60800 48.07500 32.63200
H  8.54300 47.49000 33.74400
N  10.90300 48.57700 25.72200
C  11.66600 49.06300 26.70400
C  13.04000 49.14700 26.20400
C  13.07100 48.70200 24.87400
C  11.69200 48.40500 24.58000
C  14.27700 49.72300 27.04900
C  14.15100 48.66700 23.83600
O  13.95100 48.39700 22.59300
C  15.59100 48.99000 24.30000
N  8.66900 48.32700 23.62600
C  9.74500 48.07100 22.89200
C  9.49300 47.57500 21.43900
C  7.89000 47.55700 21.44900
C  7.49400 47.98200 22.91300
C  10.16100 48.39000 20.31200
C  7.11500 46.32500 20.86100
C  6.25300 46.58800 19.60500
N  6.69300 48.27600 25.61700
C  5.77400 48.13200 24.68900
C  4.44100 47.91700 25.26600
C  4.59200 48.31200 26.56000
C  5.97000 48.42100 26.76600
C  3.17800 47.78000 24.47300
C  3.88600 48.70800 27.68600
O  2.67200 48.90100 27.89700
C  5.03300 49.10300 28.78300
C  4.71600 48.71600 30.11700
O  4.66200 47.57900 30.57000
O  4.54400 49.86500 30.86900
C  3.93100 49.81600 32.20600
H  11.88000 49.74200 28.75900
H  11.67200 47.78800 22.47100
H  5.44800 47.80000 22.63500
H  7.26800 49.76700 30.54600
H  10.10500 49.07600 30.75900
H  8.74800 51.48600 30.94200
H  9.84500 51.69900 29.50500
H  10.51000 51.23600 31.06300
H  8.71300 47.20300 31.08300
H  7.03400 47.28100 30.58700
H  6.58900 47.74400 32.83200
H  7.69500 49.15600 32.74400
H  14.47200 50.75400 26.75500
H  15.20100 49.16600 26.89400
H  14.04100 49.66600 28.11200
H  15.91300 48.15300 24.91900
H  15.73900 49.92700 24.83700
H  16.30600 48.98200 23.47700
H  9.59000 46.49000 21.43500
H  7.66300 48.42800 20.83500
H  10.24100 47.94800 19.31900
H  11.20000 48.62300 20.54800
H  9.63300 49.34300 20.26000
H  6.47300 45.76500 21.54100
H  7.86900 45.54800 20.73300
H  6.21700 47.66000 19.40900
H  5.26400 46.13900 19.70000
H  6.77100 46.06400 18.80200
H  2.46300 48.57700 24.67400
H  2.81500 46.78100 24.71300
H  3.36000 47.84400 23.40000
H  4.97700 50.19100 28.78400
H  3.07200 50.48600 32.21200
H  4.65600 50.24100 32.90000
H  3.54800 48.83300 32.47700

