158

Mg 6.20600 53.14800 40.38500
C  6.14200 49.53600 39.81000
C  9.59000 52.99500 39.83500
C  6.12000 56.38500 40.12200
C  2.61900 53.05600 40.53400
N  7.59500 51.45800 39.85400
C  7.47000 50.08600 39.70900
C  8.82300 49.40000 39.42200
C  9.82500 50.49200 39.92200
C  8.96800 51.76900 39.89800
C  10.39400 50.37400 41.33900
C  9.05200 48.93300 37.97600
C  8.70600 50.04500 36.91300
H  7.52600 49.81400 35.97500
N  7.66400 54.51300 40.09600
C  9.01700 54.26000 39.96500
C  9.69300 55.50900 39.94400
C  8.68200 56.55300 40.08000
C  7.43700 55.82300 40.14200
C  11.18300 55.66600 39.75800
C  8.85500 58.09400 40.06600
O  9.93600 58.64200 39.71000
C  7.90300 59.04400 40.66700
N  4.47600 54.51600 40.23100
C  4.80000 55.84200 40.18100
C  3.57600 56.69600 40.12500
C  2.38900 55.63800 40.33300
C  3.14800 54.32200 40.41400
C  3.66100 57.85600 41.27500
C  1.24800 55.76200 39.27200
C  -0.06800 55.00700 39.64100
N  4.68900 51.61000 40.22500
C  3.29300 51.78200 40.36700
C  2.72700 50.50700 40.42800
C  3.76700 49.61400 40.23000
C  4.92900 50.27700 40.07400
C  1.26900 50.23800 40.62200
C  4.08300 48.20700 40.19300
O  3.36900 47.21600 40.36800
C  5.62500 48.09800 39.83600
C  5.84800 47.42000 38.50200
O  5.20900 47.68200 37.51200
O  6.58500 46.24400 38.69800
C  6.80200 45.41000 37.57000
H  10.68100 52.93800 39.86400
H  6.08900 57.47400 40.19500
H  1.54700 53.07800 40.74100
H  8.99800 48.65700 40.19900
H  10.59100 50.71400 39.17800
H  10.16000 49.43200 41.83400
H  10.05200 51.18800 41.97800
H  11.46500 50.51600 41.19300
H  8.46200 48.02900 37.82700
H  10.08700 48.72300 37.70300
H  9.60400 50.44000 36.43800
H  8.37400 50.93600 37.44600
H  11.45300 56.70900 39.59300
H  11.49800 55.07400 38.89900
H  11.65400 55.20300 40.62500
H  8.35000 59.86600 41.22500
H  7.30500 58.56800 41.44300
H  7.13500 59.39400 39.97800
H  3.66800 57.16700 39.14600
H  1.89100 55.86400 41.27600
H  3.30700 58.75500 40.76900
H  4.57300 58.00900 41.85200
H  2.96300 57.71300 42.10000
H  1.65100 55.27000 38.38700
H  1.02200 56.82600 39.20100
H  -0.83900 55.75000 39.84300
H  0.00700 54.63900 40.66500
H  -0.41700 54.28200 38.90600
H  0.71700 51.17600 40.66900
H  1.07700 49.79600 41.60000
H  0.94500 49.66100 39.75600
H  6.02700 47.49700 40.65200
H  5.93300 45.43300 36.91300
H  6.79900 44.36600 37.88300
H  7.67600 45.73700 37.00700
Mg 10.05000 47.62700 26.28300
C  8.22300 47.76000 29.21500
C  12.81800 48.96900 27.92200
C  11.66900 47.25000 23.50600
C  7.08200 46.38500 24.77100
N  10.46600 48.35500 28.28700
C  9.57600 48.21100 29.40300
C  10.34100 48.70900 30.64200
C  11.57700 49.49800 30.08400
C  11.67500 48.88000 28.67300
C  11.43300 51.05700 30.00800
C  10.63900 47.55600 31.68100
C  9.88500 47.64300 33.03900
H  9.95400 46.41400 33.90000
N  12.00100 48.11400 25.75200
C  13.01300 48.58400 26.52800
C  14.17000 48.67600 25.72100
C  13.83500 48.28400 24.42100
C  12.44600 47.81100 24.51200
C  15.55800 49.15200 26.24900
C  14.56000 48.35400 23.13200
O  13.96500 48.17600 22.08800
C  15.96500 48.77400 23.03100
N  9.49200 47.06000 24.44900
C  10.34600 46.85600 23.44500
C  9.74800 46.16100 22.15100
C  8.30000 45.95600 22.56700
C  8.26500 46.49700 24.03200
C  9.96900 47.01700 20.85300
C  7.86000 44.43700 22.47200
C  8.55500 43.63600 23.63700
N  7.94900 47.26800 26.81500
C  6.86400 46.80100 26.07900
C  5.72200 46.86400 26.89800
C  6.20200 47.24200 28.20300
C  7.56900 47.35700 28.07400
C  4.34400 46.50700 26.51400
C  5.83400 47.54800 29.57200
O  4.71400 47.56300 30.13100
C  7.25900 47.72900 30.29500
C  7.32800 46.45700 31.14600
O  7.89900 45.43200 30.86700
O  6.49400 46.71100 32.23500
C  6.35000 45.65800 33.25400
H  13.73700 49.24600 28.44200
H  12.17300 47.03300 22.56200
H  6.27100 45.86000 24.26200
H  9.62900 49.42400 31.05500
H  12.46900 49.26600 30.66600
H  10.56900 51.33300 30.61300
H  11.32400 51.38500 28.97400
H  12.24800 51.57600 30.51200
H  11.70500 47.63400 31.89400
H  10.34500 46.54800 31.38900
H  8.82700 47.86800 32.90500
H  10.39000 48.50600 33.47300
H  16.28000 48.40000 25.93200
H  15.48600 49.29300 27.32700
H  15.87600 49.99900 25.64100
H  16.02200 49.78500 23.43600
H  16.26100 48.73400 21.98300
H  16.46400 47.95500 23.54900
H  10.33200 45.25700 21.97800
H  7.57400 46.48200 21.94700
H  10.71100 46.53500 20.21700
H  10.28900 48.01000 21.16700
H  9.01700 47.12100 20.33200
H  8.11800 44.11100 21.46400
H  6.78100 44.31900 22.56800
H  7.82100 43.38700 24.40300
H  9.42800 43.95100 24.20900
H  8.85600 42.71600 23.13600
H  4.27300 45.45500 26.23700
H  4.13500 47.09600 25.62100
H  3.69700 46.75100 27.35700
H  7.15500 48.69600 30.78600
H  6.36400 46.17600 34.21300
H  7.13600 44.90300 33.22800
H  5.37300 45.22000 33.04700

