158

Mg 46.99700 16.61800 29.10600
C  44.82400 16.03000 31.79700
C  49.03700 18.29800 31.29700
C  48.59300 17.97800 26.44900
C  44.58600 15.33600 27.01400
N  46.83600 17.09400 31.31900
C  45.93900 16.74300 32.21600
C  46.33700 17.15900 33.66000
C  47.65800 17.96000 33.45500
C  47.88700 17.76000 31.92000
C  47.69300 19.43700 33.81200
C  46.57800 15.86800 34.56000
C  46.11600 15.96300 35.99500
H  45.90300 17.34600 36.59200
N  48.77300 17.71400 28.90000
C  49.51200 18.24700 29.93000
C  50.65900 18.94100 29.28100
C  50.52500 18.74200 27.83300
C  49.26600 18.07400 27.66500
C  51.72500 19.65100 30.11000
C  51.50700 19.16100 26.78800
O  51.28300 18.98400 25.61400
C  52.86300 19.63500 27.09100
N  46.61100 16.72300 27.07500
C  47.41100 17.35900 26.14700
C  47.04100 17.07300 24.67300
C  45.87600 16.00200 24.89800
C  45.73400 15.90100 26.42800
C  46.65100 18.37400 23.89600
C  46.32000 14.55800 24.30600
C  45.22300 13.91900 23.37800
N  45.08200 15.78000 29.31600
C  44.33800 15.23500 28.37100
C  43.15700 14.67700 28.92600
C  43.33800 14.94200 30.31200
C  44.54000 15.61900 30.49800
C  42.12900 13.96400 28.23600
C  42.76600 14.73000 31.63200
O  41.72800 14.16200 31.93900
C  43.72300 15.43800 32.61200
C  42.97100 16.50400 33.31100
O  42.35000 17.41700 32.75700
O  43.06000 16.33000 34.69000
C  42.19400 17.29800 35.35800
H  49.76200 18.66200 32.02900
H  49.06800 18.46200 25.59300
H  43.89900 14.91400 26.27700
H  45.54700 17.83600 33.98600
H  48.52400 17.58700 34.00300
H  47.97700 20.06900 32.97100
H  48.41300 19.62200 34.60800
H  46.70800 19.72700 34.18000
H  47.61500 15.53000 34.57500
H  46.01200 15.04200 34.13100
H  46.92900 15.60500 36.62700
H  45.19300 15.41000 36.16800
H  52.32900 18.77700 30.35400
H  51.29900 19.97900 31.05800
H  52.27100 20.42600 29.57200
H  53.32800 19.79500 26.11800
H  53.35600 18.85600 27.67300
H  52.82500 20.58400 27.62500
H  47.94300 16.67800 24.20600
H  44.94500 16.29700 24.41300
H  47.00000 19.27000 24.40900
H  45.56500 18.38500 23.79600
H  46.92800 18.32900 22.84300
H  46.70600 14.00000 25.16000
H  47.05100 14.93300 23.59000
H  45.78700 13.63600 22.48900
H  44.41800 14.59400 23.08900
H  44.72200 13.06300 23.82900
H  41.36600 13.54500 28.89100
H  42.67100 13.13400 27.78300
H  41.58300 14.41700 27.40800
H  44.05000 14.66900 33.31300
H  41.12000 17.16200 35.23500
H  42.53600 18.28500 35.04800
H  42.38200 17.17500 36.42500
Mg -9.73800 38.67900 41.56700
C  -8.09200 35.75800 40.57100
C  -7.64400 40.47200 39.76600
C  -12.05900 41.16700 41.52500
C  -12.25300 36.53100 42.80700
N  -8.09500 38.09300 40.21500
C  -7.46500 36.90500 40.02900
C  -6.29400 36.96300 39.06200
C  -6.04000 38.57500 39.08300
C  -7.31500 39.12200 39.77700
C  -4.77600 38.93000 39.96000
C  -6.65800 36.25500 37.70800
C  -5.76400 35.14100 37.20800
H  -5.01300 35.30900 35.92900
N  -9.71600 40.69500 40.99700
C  -8.71900 41.25200 40.27000
C  -8.90000 42.63700 40.19900
C  -10.24900 42.84800 40.58400
C  -10.76100 41.49900 41.04800
C  -7.85700 43.64800 39.78200
C  -10.91000 44.20900 40.73300
O  -10.33000 45.25100 40.35400
C  -12.29100 44.35300 41.33600
N  -11.91200 38.90700 42.22200
C  -12.59300 40.03700 42.13200
C  -14.01900 39.87100 42.59700
C  -14.02800 38.30100 43.10600
C  -12.62800 37.83800 42.64200
C  -14.46100 40.83500 43.71200
C  -15.31200 37.60200 42.62200
C  -15.88000 36.59400 43.60500
N  -10.12800 36.55400 41.76100
C  -11.13700 35.86200 42.35800
C  -10.91100 34.45200 42.34900
C  -9.71600 34.28200 41.56600
C  -9.26500 35.64800 41.31900
C  -11.72000 33.41000 43.08800
C  -8.70700 33.41300 41.00300
O  -8.65600 32.18800 41.06000
C  -7.70300 34.37800 40.22800
C  -6.30400 34.07400 40.61300
O  -5.64600 33.18100 39.99900
O  -5.99700 34.62600 41.82800
C  -4.77000 34.15200 42.40100
H  -6.98200 40.91800 39.02000
H  -12.86000 41.88600 41.34100
H  -13.04500 35.94300 43.27500
H  -5.45300 36.44200 39.52000
H  -5.96300 39.05700 38.10800
H  -4.86000 39.73900 40.68600
H  -3.86700 39.21000 39.42700
H  -4.55900 38.04900 40.56300
H  -6.71200 37.08000 36.99800
H  -7.65900 35.89200 37.94400
H  -6.34100 34.22800 37.06300
H  -5.03000 34.82700 37.95000
H  -6.98800 43.17300 39.32600
H  -7.61500 44.31300 40.61100
H  -8.21300 44.25900 38.95300
H  -12.49800 43.68900 42.17500
H  -13.02700 44.06600 40.58500
H  -12.44500 45.40600 41.57000
H  -14.67600 40.01700 41.74000
H  -13.89000 38.30400 44.18800
H  -15.05300 40.28100 44.44100
H  -15.08500 41.53800 43.16000
H  -13.61700 41.39800 44.11100
H  -14.92400 37.10500 41.73300
H  -16.07600 38.32500 42.33700
H  -15.83700 35.56200 43.25500
H  -16.89900 36.86900 43.87900
H  -15.29900 36.62700 44.52700
H  -11.77200 33.54700 44.16800
H  -11.15900 32.48700 42.94300
H  -12.73800 33.36400 42.70000
H  -7.74100 34.21900 39.15000
H  -3.84900 34.44200 41.89500
H  -4.72700 33.06600 42.49200
H  -4.73600 34.67600 43.35600

