158

Mg 35.52300 48.65200 25.24900
C  35.74800 46.79800 28.26500
C  34.28300 51.39300 27.03300
C  34.81600 49.99500 22.34600
C  36.37700 45.58400 23.53100
N  34.92400 48.96500 27.33700
C  35.18500 48.10800 28.37600
C  35.16200 48.83100 29.66000
C  34.44100 50.15200 29.29400
C  34.54600 50.20000 27.83900
C  32.97300 50.46900 29.89100
C  36.54500 49.01400 30.36800
C  36.64000 48.61700 31.85500
H  35.44500 48.97300 32.76400
N  34.78300 50.50400 24.69000
C  34.38500 51.57400 25.59300
C  34.07700 52.73400 24.83000
C  34.20700 52.32700 23.46200
C  34.57700 50.85300 23.43800
C  33.70500 54.12000 25.49700
C  33.97000 53.12100 22.17700
O  34.18700 52.63200 21.07900
C  33.48800 54.52700 22.24500
N  35.47200 47.85200 23.20400
C  35.17400 48.62400 22.21400
C  35.39100 47.92000 20.80100
C  35.93900 46.55800 21.16700
C  35.99600 46.72100 22.71700
C  34.03400 47.86900 19.96800
C  37.23200 46.08100 20.47400
C  38.52500 46.82700 20.74500
N  36.02200 46.60800 25.74800
C  36.37000 45.56400 24.93800
C  36.75800 44.35300 25.78600
C  36.59700 44.80200 27.08300
C  36.09100 46.16600 26.99600
C  37.27900 43.00900 25.39100
C  36.70500 44.48400 28.48400
O  36.99700 43.43900 29.09900
C  36.24700 45.75900 29.30100
C  35.14800 45.40000 30.20000
O  33.97000 45.17300 29.92400
O  35.58800 45.23700 31.50900
C  34.65000 44.65000 32.46200
H  33.85900 52.29200 27.48600
H  34.76600 50.40200 21.33400
H  36.67600 44.73800 22.90800
H  34.49500 48.33500 30.36500
H  34.98100 51.04100 29.61900
H  32.21700 50.60100 29.11700
H  32.97300 51.30000 30.59700
H  32.78300 49.54400 30.43500
H  36.84400 50.06000 30.30000
H  37.37400 48.46300 29.92400
H  37.58900 48.86700 32.33000
H  36.60600 47.52800 31.89400
H  33.84000 55.03500 24.92000
H  34.28800 54.23800 26.41100
H  32.66000 54.16700 25.80300
H  32.65900 54.69800 22.93100
H  33.19700 54.88400 21.25700
H  34.32800 55.08800 22.65400
H  36.12400 48.51000 20.25100
H  35.26900 45.71500 20.99400
H  33.99000 46.94700 19.38800
H  33.92700 48.64300 19.20800
H  33.16700 47.94300 20.62500
H  37.03700 46.11100 19.40200
H  37.37700 45.04700 20.78400
H  39.32100 46.22500 21.18400
H  38.39500 47.65100 21.44700
H  39.06200 47.26800 19.90500
H  37.52400 42.92200 24.33200
H  36.51600 42.23500 25.47100
H  38.12300 42.78700 26.04300
H  37.06600 46.04100 29.96300
H  34.17200 43.78500 32.00200
H  33.75700 45.22400 32.71000
H  35.21800 44.46100 33.37300
Mg -5.52200 25.58200 26.29100
C  -4.53300 27.42900 29.32300
C  -7.35700 23.59500 28.54500
C  -6.31700 23.72400 23.80100
C  -3.30000 27.53000 24.60300
N  -5.94700 25.59600 28.71600
C  -5.34900 26.36600 29.70600
C  -5.80600 25.85000 31.11900
C  -6.68100 24.57000 30.83700
C  -6.71700 24.59600 29.30300
C  -6.04100 23.21500 31.48000
C  -6.60400 26.89700 31.88800
C  -6.42000 27.01900 33.41800
H  -5.84400 25.93500 34.23800
N  -6.72000 23.98000 26.16900
C  -7.35000 23.27900 27.17500
C  -8.21600 22.22900 26.55400
C  -7.90400 22.26900 25.15900
C  -6.96900 23.34500 25.02700
C  -9.15700 21.36600 27.36900
C  -8.42400 21.39100 24.06100
O  -7.98800 21.38000 22.92300
C  -9.54400 20.37900 24.34600
N  -4.93800 25.66400 24.49000
C  -5.39200 24.71000 23.56800
C  -4.72300 24.88700 22.14700
C  -3.86900 26.26000 22.38000
C  -4.03100 26.45200 23.91200
C  -3.90200 23.60200 21.68600
C  -4.38300 27.65100 21.74100
C  -4.10700 27.82200 20.28900
N  -4.25100 27.18300 26.72700
C  -3.38600 27.83800 25.93100
C  -2.72600 28.87100 26.64800
C  -3.15600 28.78300 27.94200
C  -4.12900 27.75800 27.98000
C  -1.84100 29.85800 25.98000
C  -3.04000 29.32700 29.26300
O  -2.25900 30.20000 29.64900
C  -3.83200 28.47800 30.19400
C  -2.83600 27.79100 31.05300
O  -2.19400 26.80900 30.66300
O  -2.69300 28.35000 32.27500
C  -1.97300 27.50700 33.27700
H  -7.78500 22.84200 29.21000
H  -6.50200 23.14800 22.89200
H  -2.66700 28.24000 24.06700
H  -4.91500 25.59200 31.69100
H  -7.73000 24.70100 31.10300
H  -6.78900 22.65100 32.03600
H  -5.24800 23.54000 32.15300
H  -5.64400 22.56300 30.70100
H  -7.61000 26.93900 31.47000
H  -6.18400 27.77300 31.39400
H  -7.44300 27.03400 33.79200
H  -5.84400 27.94000 33.50900
H  -10.10600 21.11900 26.89400
H  -9.34100 21.74900 28.37300
H  -8.63000 20.42700 27.53800
H  -9.38100 19.67400 25.16100
H  -9.63700 19.76100 23.45200
H  -10.48600 20.91500 24.46100
H  -5.34000 24.99800 21.25600
H  -2.82100 26.11800 22.11600
H  -2.86400 23.77100 21.39900
H  -4.27300 23.23600 20.72900
H  -4.02200 22.71400 22.30700
H  -4.11100 28.51400 22.34800
H  -5.46700 27.54900 21.77900
H  -3.91100 26.82800 19.88700
H  -3.17600 28.38900 20.30000
H  -4.86000 28.40100 19.75500
H  -2.35900 30.34500 25.15400
H  -1.05600 29.34400 25.42600
H  -1.34800 30.56400 26.64900
H  -4.54900 29.04300 30.78900
H  -2.06200 26.42900 33.14000
H  -2.32700 27.82100 34.25800
H  -0.89900 27.69000 33.24200

