158

Mg 25.13000 1.31600 30.08200
C  27.26900 0.98500 32.73200
C  22.42200 1.39000 32.34500
C  22.98600 1.22200 27.53600
C  27.80400 0.61900 27.96400
N  24.92400 1.28500 32.35700
C  25.97400 1.21400 33.22500
C  25.50700 1.51600 34.66300
C  23.91800 1.45100 34.51300
C  23.66400 1.39300 32.98500
C  23.15000 0.26300 35.24200
C  26.10200 2.87300 35.18400
C  26.75600 2.80100 36.61200
H  26.11600 3.70300 37.65700
N  23.00000 1.28500 30.00300
C  22.07500 1.27100 31.01600
C  20.76700 1.04200 30.46000
C  20.88800 0.92600 29.03800
C  22.30100 1.18100 28.78000
C  19.52600 0.88000 31.31600
C  19.84000 0.62000 27.94900
O  20.11400 0.34600 26.79700
C  18.42600 0.53900 28.33400
N  25.41300 0.98500 28.06300
C  24.37100 1.13200 27.20000
C  24.91600 1.22600 25.73700
C  26.42600 1.23900 25.95600
C  26.51300 0.92800 27.45100
C  24.42600 0.07800 24.81600
C  27.22500 2.53800 25.46400
C  26.82600 3.85900 26.12500
N  27.15700 0.82300 30.26800
C  28.13800 0.55400 29.31400
C  29.46200 0.39000 29.93500
C  29.17900 0.59300 31.31200
C  27.74800 0.74100 31.44000
C  30.81800 0.19900 29.30000
C  29.74500 0.87300 32.65100
O  30.90100 1.00400 33.05000
C  28.58200 1.02500 33.56000
C  28.61300 -0.05100 34.57300
O  28.62100 -1.23800 34.33800
O  28.77800 0.47000 35.81800
C  29.25900 -0.33400 36.90300
H  21.55200 1.53700 32.98900
H  22.37000 1.08600 26.64500
H  28.58900 0.70200 27.21000
H  25.74900 0.71700 35.36300
H  23.55000 2.43300 34.81000
H  22.73100 -0.36500 34.45600
H  22.24800 0.67200 35.69800
H  23.83000 -0.29600 35.88400
H  25.31200 3.62300 35.22200
H  26.86800 3.34500 34.56800
H  27.75100 3.22400 36.47400
H  26.86600 1.78900 37.00000
H  18.97200 1.81700 31.26900
H  19.72600 0.58100 32.34400
H  18.94800 0.03100 30.95000
H  18.12000 1.51800 28.70000
H  18.14400 -0.28000 28.99600
H  17.93000 0.30600 27.39200
H  24.68200 2.16400 25.23500
H  26.95600 0.44300 25.43200
H  23.66200 -0.54800 25.27700
H  25.26500 -0.56000 24.53700
H  24.14000 0.49600 23.85100
H  26.95600 2.62200 24.41100
H  28.31000 2.43300 25.45900
H  27.65100 4.24600 26.72400
H  25.98900 3.59400 26.77200
H  26.50400 4.53700 25.33500
H  30.76400 -0.02900 28.23600
H  31.42900 -0.41900 29.95800
H  31.32200 1.16500 29.30700
H  28.61000 1.99600 34.05400
H  28.71300 -0.15500 37.82900
H  30.28400 0.00100 37.06100
H  29.17800 -1.40400 36.70800
Mg 17.03300 52.26900 25.87000
C  18.80300 51.20800 28.60600
C  14.43600 52.94100 27.92600
C  15.40600 53.42500 23.21100
C  19.73000 51.30000 23.84300
N  16.65000 52.06300 28.02800
C  17.57400 51.66700 28.94000
C  17.08900 51.98300 30.40200
C  15.52300 52.29200 30.17200
C  15.46300 52.45600 28.62900
C  14.57700 51.19300 30.78900
C  17.85200 53.11800 31.11500
C  18.18200 52.89900 32.62500
H  17.13600 51.92200 33.38900
N  15.12400 53.21100 25.66300
C  14.20100 53.29600 26.65300
C  13.13500 53.95600 26.06300
C  13.33200 54.12900 24.68400
C  14.66500 53.61200 24.45200
C  11.93700 54.41800 26.90400
C  12.46900 54.55100 23.51700
O  12.80300 54.89500 22.40400
C  11.03700 54.86300 23.77800
N  17.55600 52.54900 23.80300
C  16.69400 52.91100 22.92300
C  17.24600 52.88600 21.49100
C  18.67900 52.23400 21.71800
C  18.72600 52.07000 23.21500
C  16.29500 52.12200 20.52900
C  19.81300 53.17200 21.21100
C  21.00600 52.50000 20.46700
N  18.78700 51.22900 26.05100
C  19.84900 50.98700 25.17700
C  20.89500 50.28500 25.81900
C  20.55600 50.40400 27.18900
C  19.34100 50.98100 27.28800
C  22.19400 49.70300 25.27500
C  21.03300 50.21000 28.52100
O  22.07300 49.74800 28.91000
C  19.97400 50.78300 29.48000
C  19.63000 49.59100 30.20200
O  18.82000 48.72500 29.82600
O  20.33000 49.53900 31.36300
C  19.54200 49.12800 32.49500
H  13.61600 53.17300 28.60800
H  14.82300 53.65000 22.31600
H  20.50400 50.93400 23.16600
H  17.14300 51.01800 30.90600
H  15.27300 53.14400 30.80600
H  14.13400 50.66300 29.94600
H  13.75100 51.57900 31.38600
H  15.12800 50.55100 31.47600
H  17.24900 54.02600 31.12500
H  18.69700 53.25000 30.43900
H  18.24200 53.86800 33.12100
H  19.19800 52.50400 32.66400
H  11.70500 55.48000 26.82500
H  11.99800 54.26800 27.98200
H  11.13700 53.81000 26.48200
H  10.86700 55.77200 24.35600
H  10.48700 54.04300 24.23800
H  10.53900 55.07100 22.83100
H  17.40200 53.91200 21.15600
H  18.63800 51.25500 21.23900
H  15.35200 52.59100 20.24600
H  16.16200 51.16800 21.03800
H  16.74400 51.85300 19.57400
H  20.26400 53.76700 22.00500
H  19.40500 53.77000 20.39700
H  21.98900 52.76500 20.85500
H  21.01700 52.59100 19.38100
H  20.91000 51.41600 20.52900
H  23.02500 50.05000 25.88800
H  22.36300 50.09300 24.27100
H  21.97200 48.63600 25.27100
H  20.51000 51.49400 30.10900
H  20.04100 48.21600 32.82400
H  18.45900 49.00700 32.45600
H  19.56100 49.89600 33.26800

