158

Mg 26.83400 49.91600 26.48000
C  24.68300 51.28200 28.84700
C  28.93100 49.14500 29.07200
C  29.16100 48.88000 24.24800
C  24.73100 51.08400 23.98700
N  26.78700 50.22600 28.80100
C  25.72000 50.64800 29.49800
C  25.90500 50.48700 31.02500
C  27.42900 49.95000 31.07900
C  27.73000 49.75900 29.49100
C  28.44500 50.92700 31.72500
C  24.95200 49.57200 31.66100
C  24.97500 49.15000 33.18700
H  25.80700 49.80400 34.28700
N  28.79400 49.17200 26.64400
C  29.42000 48.86300 27.77700
C  30.67400 48.27500 27.48400
C  30.79400 48.12400 26.04900
C  29.54700 48.69900 25.53200
C  31.74700 47.94400 28.55400
C  31.80000 47.42200 25.21100
O  31.63000 47.24500 24.02200
C  33.09200 46.88000 25.80700
N  26.95700 50.04500 24.46300
C  27.97700 49.48700 23.72200
C  27.76500 49.68200 22.16300
C  26.26400 50.14100 22.14900
C  25.95800 50.48900 23.62500
C  28.82100 50.50500 21.43200
C  25.33800 49.11200 21.47300
C  25.17300 47.73300 22.12000
N  25.00500 50.82400 26.37300
C  24.30900 51.37000 25.27200
C  23.15000 52.11200 25.71200
C  23.23000 52.06000 27.11400
C  24.39000 51.32100 27.47900
C  22.13500 52.78400 24.87800
C  22.65600 52.51300 28.36700
O  21.73700 53.32300 28.54500
C  23.47400 51.88200 29.54300
C  23.71800 52.84000 30.64400
O  24.42900 53.84200 30.59100
O  23.14200 52.44400 31.78800
C  23.39900 53.11300 33.06700
H  29.60100 48.78000 29.85300
H  29.82000 48.61400 23.41800
H  24.05200 51.45900 23.21800
H  25.71900 51.41500 31.56500
H  27.43100 48.97900 31.57400
H  27.99000 51.86500 32.04300
H  29.32300 51.07400 31.09700
H  28.79500 50.48300 32.65700
H  24.95200 48.68700 31.02500
H  23.95400 49.99900 31.56400
H  25.24700 48.10200 33.31400
H  23.93200 49.23800 33.49200
H  31.69600 48.63200 29.39700
H  32.81800 47.92500 28.35100
H  31.62700 46.93200 28.94100
H  33.72500 47.72800 26.07000
H  33.62700 46.25500 25.09300
H  33.02300 46.41500 26.79100
H  27.70900 48.72700 21.64000
H  26.13500 51.11200 21.67100
H  29.49700 50.91000 22.18400
H  28.33200 51.38100 21.00500
H  29.31900 49.88800 20.68400
H  25.58400 49.00100 20.41700
H  24.34500 49.56000 21.49500
H  24.15700 47.34300 22.05000
H  25.40800 47.68500 23.18300
H  25.72900 47.01200 21.52100
H  21.14900 52.88700 25.32900
H  21.99200 52.10100 24.04100
H  22.41100 53.81300 24.64600
H  22.89700 51.03900 29.92400
H  23.76000 54.12400 32.87900
H  24.11800 52.58000 33.69000
H  22.47400 53.30000 33.61100
Mg 6.43300 54.37600 39.68000
C  5.91300 50.95800 39.50900
C  9.67600 53.96400 39.04700
C  6.63600 57.60700 39.03400
C  2.91800 54.70700 39.95800
N  7.59400 52.66400 39.19600
C  7.26600 51.37800 39.25000
C  8.50000 50.53200 38.84100
C  9.66500 51.46700 39.09300
C  8.94700 52.81600 39.15800
C  10.30600 51.23400 40.53200
C  8.41000 50.04000 37.41400
C  8.48500 51.12300 36.37000
H  7.17300 51.51500 35.57400
N  7.95100 55.62000 39.06800
C  9.22600 55.29500 38.89800
C  10.09900 56.50200 38.64100
C  9.19200 57.59400 38.55700
C  7.82600 56.99600 38.92500
C  11.60400 56.60400 38.41400
C  9.58000 59.07400 38.38400
O  10.74700 59.39400 38.37400
C  8.51600 60.11300 38.35000
N  5.01800 55.98800 39.38100
C  5.42100 57.27000 39.38200
C  4.30700 58.24900 39.73500
C  3.12200 57.35100 39.99800
C  3.71500 55.90100 39.79000
C  4.66500 59.17000 40.93700
C  1.88700 57.50000 39.02700
C  0.72900 58.21800 39.68400
N  4.67700 53.14300 39.82600
C  3.33300 53.41700 39.98100
C  2.58000 52.09100 40.13700
C  3.58800 51.11200 39.99100
C  4.81900 51.79300 39.72000
C  1.03400 51.90700 40.48800
C  3.86800 49.68700 40.03800
O  3.13000 48.72900 40.15200
C  5.41100 49.55500 39.78800
C  5.41000 48.69900 38.61000
O  4.96400 48.86300 37.51000
O  6.09000 47.47800 38.86700
C  6.05200 46.46600 37.82000
H  10.74800 53.89000 38.85200
H  6.53900 58.66900 38.79800
H  1.86800 54.92900 40.15600
H  8.63200 49.64300 39.45800
H  10.43900 51.47000 38.32500
H  10.10800 50.23700 40.92400
H  9.98600 52.01100 41.22800
H  11.39500 51.20100 40.52400
H  7.51500 49.43500 37.27000
H  9.12400 49.23600 37.23600
H  9.11300 50.70500 35.58300
H  9.03900 52.01100 36.67400
H  11.84300 56.85000 37.38000
H  12.13900 55.67100 38.59200
H  12.10300 57.37400 39.00300
H  9.12500 61.00700 38.21900
H  7.89400 60.20600 39.24100
H  7.79000 59.89800 37.56600
H  4.06200 58.87300 38.87600
H  2.75200 57.39500 41.02300
H  5.74800 59.17900 41.06100
H  4.26100 58.70400 41.83600
H  4.30000 60.19200 40.83300
H  1.56400 56.64300 38.43500
H  2.20600 58.22500 38.27800
H  -0.02000 58.47600 38.93500
H  1.21000 59.02700 40.23400
H  0.31000 57.52000 40.40800
H  0.68800 52.92400 40.67300
H  0.93700 51.35000 41.42000
H  0.52000 51.46900 39.63300
H  6.04000 48.99300 40.47900
H  7.03400 46.00000 37.73900
H  5.87000 46.85400 36.81800
H  5.34700 45.65900 38.01900

