158

Mg 23.45500 -7.18700 47.33500
C  25.64400 -4.73000 45.78900
C  21.07100 -5.80100 45.43500
C  21.56300 -9.65300 48.40300
C  26.28800 -8.64400 48.62600
N  23.37800 -5.45100 45.79300
C  24.35100 -4.61900 45.38600
C  23.88000 -3.58300 44.35900
C  22.30600 -3.74300 44.41400
C  22.18700 -5.00700 45.28200
C  21.54800 -2.47900 45.05200
C  24.43000 -3.64100 42.98200
C  25.35100 -2.46600 42.47800
H  24.99900 -1.82600 41.11800
N  21.53000 -7.70000 46.83800
C  20.73400 -7.01700 46.06600
C  19.38800 -7.63800 46.15200
C  19.47700 -8.82300 46.96000
C  20.86000 -8.77500 47.47100
C  18.20600 -7.16400 45.41700
C  18.40000 -9.80600 47.28200
O  17.25200 -9.60100 46.91700
C  18.65000 -11.01200 48.08000
N  23.89600 -8.92800 48.30000
C  22.92600 -9.76800 48.82600
C  23.52300 -10.95100 49.49600
C  25.01300 -10.52400 49.69000
C  25.09400 -9.31200 48.77500
C  22.76800 -11.37600 50.77000
C  26.06900 -11.65400 49.24300
C  27.08100 -12.09100 50.28300
N  25.57700 -6.71700 47.41200
C  26.60600 -7.45300 47.96800
C  27.86000 -6.69400 47.87200
C  27.55000 -5.59900 47.02000
C  26.17400 -5.70100 46.73900
C  29.15800 -7.06200 48.37400
C  28.09100 -4.46100 46.38500
O  29.19900 -3.93000 46.35800
C  26.91500 -3.85400 45.50200
C  26.82200 -2.41100 45.99300
O  26.29200 -2.08900 47.06300
O  27.44700 -1.59700 45.07600
C  27.73900 -0.32800 45.81100
H  20.21400 -5.28300 45.00000
H  20.84600 -10.39400 48.76200
H  27.24300 -8.95500 49.05400
H  23.99200 -2.64400 44.90100
H  21.81100 -3.86400 43.45100
H  21.55300 -2.60800 46.13500
H  20.55800 -2.34600 44.61500
H  22.16500 -1.67000 44.66300
H  23.67600 -3.62200 42.19500
H  24.97100 -4.57000 42.80000
H  26.41700 -2.68800 42.52900
H  25.25900 -1.67500 43.22200
H  17.73800 -6.30300 45.89300
H  17.40800 -7.84500 45.12000
H  18.48400 -6.62900 44.50900
H  17.69000 -11.52200 48.16200
H  18.76900 -10.84600 49.15000
H  19.32700 -11.70100 47.57600
H  23.46900 -11.74700 48.75400
H  25.26000 -10.25100 50.71600
H  21.92100 -10.77900 51.10700
H  23.52300 -11.45400 51.55200
H  22.40500 -12.39100 50.60600
H  26.62100 -11.50200 48.31500
H  25.46900 -12.54400 49.05500
H  28.03400 -11.73700 49.89000
H  27.10900 -13.17600 50.38300
H  26.92200 -11.57700 51.23100
H  28.97700 -7.65600 49.26900
H  29.81200 -6.25800 48.71300
H  29.67500 -7.67500 47.63500
H  27.27100 -3.88700 44.47300
H  26.79600 0.17300 46.02700
H  28.22900 0.45600 45.23300
H  28.31200 -0.51100 46.72000
Mg 26.62700 50.60500 26.51500
C  24.70000 52.01700 29.02200
C  29.02000 49.70800 28.91900
C  28.71300 49.53900 24.02900
C  24.47800 52.03000 24.24400
N  26.82800 50.92600 28.69400
C  25.82400 51.37700 29.51300
C  26.23800 51.09100 30.97600
C  27.70000 50.55600 30.94800
C  27.84400 50.29800 29.44000
C  28.75900 51.46500 31.45100
C  25.25800 50.12600 31.73600
C  24.78100 50.50300 33.22800
H  24.94000 49.49400 34.39900
N  28.62500 49.69900 26.50100
C  29.43600 49.49300 27.57200
C  30.71100 48.92400 27.08600
C  30.64600 48.91900 25.57800
C  29.29200 49.38100 25.30500
C  31.85400 48.68700 28.09800
C  31.67700 48.51300 24.47200
O  31.57700 48.68000 23.22900
C  32.98300 47.92400 24.94100
N  26.64600 50.81700 24.46400
C  27.45300 50.12000 23.61400
C  27.01700 50.22300 22.17600
C  25.53300 50.74200 22.31600
C  25.54700 51.25300 23.75800
C  27.87400 51.21900 21.42200
C  24.42500 49.60700 22.21900
C  23.32600 49.96800 21.25300
N  24.89700 51.84200 26.56500
C  24.12300 52.25100 25.56900
C  22.94800 52.86200 26.03800
C  23.02000 52.81700 27.39900
C  24.31400 52.22200 27.70100
C  21.92700 53.53800 25.30500
C  22.47600 53.13800 28.68300
O  21.52700 53.82100 28.87700
C  23.55500 52.61100 29.77000
C  23.99100 53.81300 30.51600
O  24.61500 54.78000 30.10700
O  23.67100 53.66900 31.84300
C  24.19500 54.66700 32.78500
H  29.61700 49.25200 29.71100
H  29.23100 49.09800 23.17500
H  23.80800 52.40200 23.46600
H  26.27400 51.97800 31.60900
H  27.83600 49.57400 31.40200
H  28.56300 51.75100 32.48400
H  28.75400 52.37000 30.84500
H  29.72800 50.99300 31.61800
H  25.62400 49.10000 31.73200
H  24.41900 49.98500 31.05400
H  23.71300 50.71900 33.21200
H  25.40400 51.36600 33.46100
H  31.80800 47.66500 28.47500
H  31.87200 49.38300 28.93600
H  32.79400 48.89300 27.58500
H  32.73100 47.22600 25.73900
H  33.50700 48.76900 25.38900
H  33.60800 47.56800 24.12300
H  26.98200 49.23800 21.71100
H  25.43300 51.56000 21.60400
H  28.77700 51.59600 21.90100
H  27.32900 52.07000 21.01300
H  28.25800 50.77800 20.50200
H  23.95100 49.32500 23.15900
H  24.96500 48.75700 21.80100
H  23.62200 50.75700 20.56000
H  22.51400 50.38800 21.84700
H  23.01700 49.09300 20.68100
H  22.43900 54.18700 24.59400
H  21.31800 54.16600 25.95600
H  21.30900 52.83000 24.75300
H  23.12700 51.90200 30.47900
H  23.55000 54.51600 33.65000
H  23.97900 55.68900 32.47200
H  25.26600 54.46400 32.79000

