158

Mg 53.50800 24.92800 44.37300
C  50.90900 27.23600 43.63700
C  51.56000 22.47900 43.01100
C  56.22400 22.96600 44.56500
C  55.59100 27.73000 44.89100
N  51.46400 24.93600 43.33100
C  50.57400 25.96200 43.18000
C  49.25800 25.35700 42.57200
C  49.38700 23.86100 42.78900
C  50.94700 23.71800 42.98500
C  48.61000 23.24400 43.97500
C  48.75200 25.71100 41.14700
C  49.69300 25.99300 40.02700
H  49.49800 25.26000 38.73700
N  53.77500 22.99300 43.93600
C  52.90500 22.17400 43.28600
C  53.55700 20.89400 43.11200
C  54.82400 20.91600 43.84400
C  54.97000 22.34300 44.20500
C  52.89600 19.64000 42.52400
C  55.73700 19.73900 44.09400
O  55.45900 18.60700 43.62400
C  56.79900 19.75700 45.10600
N  55.73300 25.34600 44.50100
C  56.59200 24.31900 44.67700
C  58.03900 24.82900 44.76100
C  57.78800 26.39300 44.91900
C  56.26000 26.51000 44.71200
C  58.91000 24.07700 45.80700
C  58.66200 27.30800 44.15000
C  59.38300 28.41500 44.93900
N  53.33300 27.00800 44.27700
C  54.23100 27.98400 44.75300
C  53.57700 29.22900 45.04000
C  52.24100 28.95800 44.64200
C  52.20300 27.61600 44.09800
C  54.18700 30.48700 45.55000
C  50.92500 29.60200 44.38000
O  50.46500 30.74600 44.64700
C  50.03800 28.49700 43.70100
C  49.60400 28.94400 42.28300
O  50.46100 29.08200 41.40400
O  48.29200 29.21900 42.20000
C  47.86700 29.65300 40.83000
H  50.95700 21.66800 42.59700
H  57.07800 22.28600 44.59500
H  56.28400 28.48900 45.26200
H  48.44900 25.73800 43.19500
H  49.17100 23.26200 41.90400
H  47.80400 23.87800 44.34500
H  49.32000 22.92000 44.73500
H  48.07900 22.35300 43.63700
H  48.07100 26.53900 41.33900
H  48.09100 24.96400 40.70600
H  50.71100 25.77400 40.34900
H  49.58900 27.04300 39.75500
H  53.58600 19.30500 41.75000
H  51.86100 19.80600 42.22600
H  52.82500 18.80600 43.22200
H  56.76400 18.80700 45.63900
H  56.51800 20.61200 45.72200
H  57.78700 19.98400 44.70500
H  58.56800 24.66400 43.82200
H  57.96200 26.67300 45.95800
H  58.44500 23.21000 46.27700
H  59.11500 24.72600 46.65900
H  59.84300 23.70800 45.38200
H  58.07200 27.84100 43.40500
H  59.38200 26.74500 43.55500
H  59.58100 29.20600 44.21600
H  60.24500 27.95000 45.41800
H  58.67400 28.87400 45.62800
H  55.25600 30.44600 45.75800
H  53.80300 30.74800 46.53600
H  54.00000 31.39300 44.97400
H  49.12800 28.21500 44.23200
H  48.56600 29.37000 40.04300
H  47.60800 30.70200 40.68500
H  47.04300 28.95600 40.68100
Mg 41.92900 40.93200 26.18100
C  40.95800 43.28600 28.71300
C  43.15700 38.87900 28.55300
C  43.05200 39.00400 23.67500
C  40.96400 43.39900 23.78300
N  41.86700 41.09600 28.35400
C  41.39100 42.06900 29.24400
C  41.48700 41.57100 30.71400
C  42.21100 40.19800 30.59200
C  42.43400 39.99900 29.04400
C  43.55900 39.88800 31.38300
C  39.95700 41.52000 31.23800
C  39.77800 40.92700 32.67500
H  38.96700 41.83100 33.63700
N  43.02300 39.23800 26.12900
C  43.36500 38.47800 27.25600
C  44.04100 37.29600 26.83500
C  44.04500 37.35700 25.41000
C  43.38100 38.55400 24.98500
C  44.65900 36.29000 27.83800
C  44.62100 36.39900 24.42400
O  44.80600 36.72500 23.25400
C  45.13800 35.01300 24.86600
N  42.09500 41.20500 24.05600
C  42.47900 40.21100 23.19700
C  42.38700 40.57000 21.70400
C  41.84500 42.03300 21.76200
C  41.63500 42.26100 23.32500
C  43.70500 40.32200 20.97000
C  40.57000 42.37300 20.93300
C  40.71200 43.29600 19.72400
N  41.09300 42.94300 26.13400
C  40.75100 43.77800 25.12700
C  40.26500 45.03700 25.62300
C  40.24300 44.82800 27.07900
C  40.79600 43.54800 27.31200
C  39.62000 46.14300 24.76200
C  39.89600 45.46200 28.32700
O  39.37200 46.54700 28.45400
C  40.22500 44.45000 29.47700
C  41.00300 44.95400 30.60200
O  42.20700 45.24700 30.51500
O  40.26900 45.01200 31.71000
C  41.03100 45.43500 32.87700
H  43.49000 38.17300 29.31600
H  43.27300 38.31200 22.86100
H  40.79000 44.19600 23.05700
H  41.95600 42.35500 31.30900
H  41.57800 39.35800 30.87900
H  44.36300 39.62900 30.69400
H  43.35300 39.02300 32.01300
H  43.96500 40.82600 31.76300
H  39.49700 40.86600 30.49800
H  39.43700 42.47700 31.29500
H  40.77400 40.84700 33.11000
H  39.27200 39.96200 32.65300
H  44.71400 35.30000 27.38700
H  44.22500 36.33600 28.83600
H  45.66300 36.71200 27.79400
H  45.95100 35.20700 25.56600
H  45.46800 34.44500 23.99600
H  44.34200 34.37900 25.25800
H  41.63800 39.88500 21.30700
H  42.63600 42.69800 21.41500
H  44.28200 41.23800 21.09700
H  43.58800 40.04500 19.92200
H  44.35000 39.65500 21.54200
H  39.85200 42.72000 21.67600
H  40.30000 41.38100 20.57000
H  40.56100 42.67900 18.83800
H  41.64400 43.86100 19.70700
H  39.88800 44.00800 19.77600
H  40.42400 46.69100 24.27100
H  39.01200 46.76400 25.42100
H  38.93300 45.64700 24.07700
H  39.29000 44.01200 29.82700
H  40.38200 45.65900 33.72300
H  41.61600 46.35200 32.80600
H  41.70200 44.61500 33.13600

