158

Mg 17.18200 -2.16400 27.16200
C  16.32400 0.19900 29.67500
C  19.01200 -3.88000 29.47200
C  18.32800 -3.97400 24.66100
C  16.00500 0.31600 24.80200
N  17.51700 -1.94200 29.29400
C  17.12500 -0.86600 30.11700
C  17.58800 -1.15000 31.54300
C  18.54000 -2.37700 31.39500
C  18.32900 -2.75800 29.91300
C  20.04100 -2.22400 31.78200
C  16.40500 -1.50100 32.55700
C  16.50800 -0.94000 34.03400
H  17.93800 -0.59700 34.50900
N  18.32900 -3.79700 27.04000
C  19.00900 -4.36400 28.13300
C  19.58900 -5.67500 27.79600
C  19.53800 -5.60200 26.31600
C  18.71500 -4.46100 25.94800
C  20.27600 -6.52800 28.76500
C  20.31600 -6.45400 25.38200
O  20.30100 -6.33800 24.17500
C  21.12600 -7.65700 25.93000
N  17.21200 -1.85700 25.05100
C  17.71400 -2.79200 24.22200
C  17.65800 -2.26600 22.73800
C  16.82400 -0.99900 22.86700
C  16.67900 -0.82000 24.35500
C  19.09100 -1.99200 22.19000
C  15.47400 -1.19600 22.09900
C  15.21600 -0.15500 20.96700
N  16.21900 -0.25400 27.22300
C  15.75000 0.56200 26.16800
C  15.12600 1.71700 26.73000
C  15.23900 1.59100 28.16200
C  15.92100 0.37300 28.39600
C  14.35700 2.75800 26.02700
C  15.06300 2.24800 29.46900
O  14.56100 3.32500 29.73500
C  15.72500 1.32900 30.54500
C  16.69500 2.08500 31.41100
O  17.78100 2.55100 31.09500
O  16.12400 2.25800 32.63900
C  16.84000 3.18300 33.53000
H  19.53400 -4.44600 30.24600
H  18.66100 -4.66900 23.88800
H  15.67800 1.06600 24.07800
H  18.23700 -0.30500 31.77200
H  18.14500 -3.15500 32.04800
H  20.34100 -3.15500 32.26300
H  20.15400 -1.38300 32.46700
H  20.70900 -2.05000 30.93900
H  16.24700 -2.56500 32.73200
H  15.49600 -1.09600 32.11100
H  16.13400 -1.57100 34.84100
H  15.93500 -0.01300 34.04400
H  20.58400 -7.52600 28.45200
H  19.62200 -6.69800 29.62000
H  21.19100 -6.06300 29.13200
H  21.53800 -8.13300 25.04000
H  20.48000 -8.36400 26.45100
H  21.90900 -7.27900 26.58700
H  17.18500 -2.99900 22.08500
H  17.14800 -0.01900 22.51800
H  19.93800 -1.99200 22.87600
H  19.12400 -0.96800 21.81700
H  19.41300 -2.69500 21.42100
H  14.60600 -1.12500 22.75500
H  15.43600 -2.11700 21.51600
H  16.19000 0.06300 20.53000
H  14.70500 0.76300 21.25700
H  14.55400 -0.54700 20.19500
H  13.98900 2.39700 25.06700
H  14.89500 3.69900 25.90900
H  13.43100 2.96700 26.56400
H  14.88300 0.94700 31.12100
H  16.25100 3.49800 34.39100
H  17.33300 4.03400 33.05900
H  17.66200 2.77700 34.12000
Mg 48.40200 14.95800 28.06800
C  46.02300 14.81100 30.75900
C  50.54100 16.74400 30.14200
C  50.39800 15.11900 25.53500
C  45.92400 13.27600 26.13200
N  48.28900 15.72500 30.10000
C  47.26800 15.49400 30.96600
C  47.57900 15.99500 32.36700
C  48.85200 16.83800 32.11500
C  49.29400 16.42900 30.67600
C  48.67100 18.34300 32.34700
C  47.82300 14.71200 33.26600
C  47.26000 14.86600 34.67600
H  47.08900 16.28500 35.30400
N  50.28400 15.82200 27.82000
C  51.03600 16.49800 28.79800
C  52.37600 16.76600 28.22500
C  52.28400 16.46300 26.85200
C  50.98000 15.75000 26.69600
C  53.43600 17.57800 29.00400
C  53.20900 16.67100 25.67100
O  52.98000 16.30900 24.52500
C  54.53200 17.45200 25.88300
N  48.19100 14.25400 26.17300
C  49.14300 14.50000 25.26500
C  48.81400 13.94700 23.79800
C  47.47600 13.08900 24.14200
C  47.18300 13.55000 25.58300
C  48.64400 15.02900 22.72100
C  47.67900 11.56200 24.00200
C  48.13600 10.71600 25.22000
N  46.34800 14.32100 28.27000
C  45.54300 13.61700 27.43300
C  44.27200 13.31600 28.08300
C  44.43500 13.74800 29.42200
C  45.73400 14.27800 29.45900
C  43.09500 12.51800 27.55200
C  43.80100 13.71500 30.68900
O  42.66300 13.34100 31.04500
C  44.80600 14.37700 31.63900
C  44.11400 15.54400 32.26300
O  44.09100 16.67100 31.78200
O  43.57500 15.15800 33.47000
C  42.97500 16.22100 34.18400
H  51.19400 17.13000 30.92700
H  51.01900 15.07700 24.63800
H  45.19200 12.89600 25.41700
H  46.77200 16.65500 32.68600
H  49.68500 16.49600 32.73000
H  47.88500 18.65100 33.03700
H  48.65800 18.86200 31.38900
H  49.56600 18.73100 32.83400
H  48.88500 14.54100 33.44400
H  47.40500 13.79200 32.85800
H  47.84500 14.33400 35.42700
H  46.27200 14.41200 34.74400
H  53.46500 18.56200 28.53600
H  54.40500 17.09600 29.13500
H  53.03900 17.71700 30.01000
H  54.98700 17.18600 26.83700
H  54.27900 18.51000 25.96600
H  55.23600 17.30600 25.06500
H  49.53700 13.21700 23.43500
H  46.63200 13.36100 23.50900
H  49.45100 14.96100 21.99100
H  48.57900 16.03700 23.13000
H  47.69800 14.90000 22.19500
H  48.47200 11.40000 23.27200
H  46.75500 11.12100 23.62700
H  48.79200 9.90200 24.91400
H  47.30700 10.16500 25.66500
H  48.48100 11.44500 25.95400
H  43.35400 11.47300 27.37900
H  42.89500 13.02100 26.60600
H  42.23500 12.62500 28.21300
H  45.14300 13.60700 32.33300
H  43.49900 17.17500 34.11800
H  42.79000 15.99600 35.23400
H  42.00800 16.30700 33.68900

