158

Mg 2.05200 -2.12500 44.81300
C  5.37900 -1.26000 43.93700
C  0.93600 0.60600 42.89600
C  -1.02900 -3.28000 45.22600
C  3.38000 -5.05100 46.11300
N  3.16200 -0.56100 43.47300
C  4.49700 -0.38400 43.32500
C  4.79200 0.86100 42.46200
C  3.32600 1.44900 42.11600
C  2.37500 0.42100 42.85900
C  2.99900 2.92300 42.65900
C  5.63300 0.64400 41.20900
C  6.82900 1.62700 40.99100
H  6.78600 2.42100 39.64300
N  0.24600 -1.47400 44.16300
C  -0.02600 -0.36400 43.39700
C  -1.45700 -0.33300 43.07700
C  -2.05700 -1.46400 43.72500
C  -0.91300 -2.18000 44.36500
C  -2.04500 0.85800 42.31900
C  -3.49500 -1.75200 43.73000
O  -4.40400 -1.02000 43.33300
C  -3.99700 -3.02700 44.11500
N  1.28000 -3.99000 45.35500
C  0.00800 -4.07400 45.73700
C  -0.35100 -5.24600 46.69600
C  1.09400 -5.85300 46.82300
C  1.97900 -4.90900 46.02400
C  -1.01500 -5.04200 48.03900
C  1.40300 -7.30800 46.23400
C  1.68500 -8.47800 47.28700
N  3.99600 -3.09100 45.02000
C  4.38500 -4.28600 45.58100
C  5.81800 -4.36300 45.71900
C  6.24500 -3.15200 45.14300
C  5.12900 -2.47400 44.66800
C  6.55900 -5.37500 46.50800
C  7.35800 -2.34500 44.94400
O  8.49200 -2.54900 45.26300
C  6.88100 -1.19700 43.98100
C  7.27000 0.04600 44.64500
O  7.06400 0.41000 45.78300
O  8.20200 0.65900 43.79800
C  8.69600 1.99100 44.21400
H  0.77800 1.48800 42.27200
H  -2.04900 -3.54300 45.51400
H  3.55900 -5.95000 46.70700
H  5.24000 1.57300 43.15500
H  3.09100 1.33500 41.05800
H  3.93300 3.42300 42.91600
H  2.37400 3.06700 43.54000
H  2.37400 3.35400 41.87700
H  5.09600 0.50700 40.27000
H  6.03000 -0.36700 41.30400
H  7.75400 1.05100 40.95400
H  7.01500 2.33200 41.80000
H  -2.88600 0.48200 41.73500
H  -1.47700 1.37500 41.54600
H  -2.37800 1.71200 42.90800
H  -4.17500 -3.16600 45.18100
H  -3.24000 -3.75200 43.81600
H  -4.97300 -3.21800 43.66800
H  -0.92600 -5.95400 46.10000
H  1.48200 -5.74000 47.83500
H  -1.98700 -4.57800 47.86900
H  -0.34800 -4.49900 48.70700
H  -1.14600 -6.01300 48.51800
H  2.22100 -7.24700 45.51600
H  0.61100 -7.70900 45.60000
H  2.63200 -8.97300 47.07200
H  0.78400 -9.08900 47.22100
H  1.71500 -8.03300 48.28100
H  7.54900 -5.04100 46.81800
H  6.69500 -6.23100 45.84700
H  6.13900 -5.82800 47.40600
H  7.36700 -1.37900 43.02300
H  7.79600 2.54100 44.48600
H  9.23800 2.45200 43.38800
H  9.34000 1.91400 45.09000
Mg 16.71300 51.95900 27.02000
C  18.77300 50.78400 29.49600
C  14.24800 52.61800 29.39400
C  14.72400 53.19300 24.55200
C  19.16500 51.18400 24.59600
N  16.56700 51.70300 29.20900
C  17.57400 51.30200 30.03500
C  17.18200 51.45700 31.48100
C  15.67900 51.84400 31.48500
C  15.43900 51.99700 29.95000
C  14.68400 50.74500 31.99900
C  18.11300 52.57200 32.16000
C  18.61200 52.44600 33.62200
H  17.70800 51.63800 34.52800
N  14.77500 52.84500 26.99200
C  13.98900 53.11400 28.10600
C  12.78100 53.76000 27.62800
C  12.86200 53.93400 26.22500
C  14.19500 53.32600 25.83100
C  11.69100 54.22000 28.62200
C  11.89300 54.66000 25.28200
O  12.09600 54.78200 24.13900
C  10.61500 55.22200 25.83300
N  16.83700 51.97500 24.85500
C  15.94100 52.66200 24.09700
C  16.38700 52.58900 22.58200
C  17.92300 52.44700 22.73500
C  18.04000 51.82600 24.13200
C  15.72400 51.40700 21.77800
C  18.87300 53.70200 22.66300
C  19.36800 54.08100 21.21100
N  18.45900 50.99600 26.94700
C  19.40700 50.76500 25.95100
C  20.49300 49.94700 26.45000
C  20.30900 50.01700 27.80800
C  19.08400 50.65800 28.10200
C  21.60900 49.33000 25.65400
C  20.88300 49.60700 29.06300
O  21.78700 48.77100 29.28400
C  19.97900 50.13800 30.26500
C  19.74500 48.98000 31.12300
O  19.28100 47.89500 30.69000
O  19.91500 49.42900 32.42700
C  19.52400 48.39400 33.37700
H  13.57300 52.89700 30.20500
H  14.07500 53.55000 23.74900
H  19.92500 51.16400 23.81300
H  17.26500 50.52600 32.04200
H  15.43500 52.73100 32.07000
H  14.18900 50.34900 31.11200
H  13.92600 51.19700 32.63900
H  15.26300 49.94700 32.46300
H  17.61800 53.53900 32.07200
H  18.93600 52.69400 31.45600
H  18.69300 53.38200 34.17500
H  19.62900 52.07600 33.75700
H  10.70400 53.88900 28.29700
H  11.78200 55.30100 28.51700
H  12.02800 53.89500 29.60600
H  9.95800 54.56600 26.40400
H  9.94300 55.52100 25.02700
H  10.69500 56.13200 26.42600
H  16.13300 53.53600 22.10600
H  18.33700 51.77100 21.98700
H  14.72900 51.32300 22.21500
H  16.22000 50.44100 21.86800
H  15.57000 51.70600 20.74100
H  19.71600 53.55300 23.33800
H  18.26500 54.53700 23.01300
H  19.01100 55.09500 21.02900
H  19.02400 53.40900 20.42400
H  20.44300 54.11900 21.38900
H  21.64100 49.85400 24.69900
H  21.51100 48.24500 25.64200
H  22.57900 49.46700 26.13200
H  20.46300 50.89600 30.88200
H  18.44300 48.26200 33.33500
H  19.67800 48.77000 34.38800
H  19.96600 47.40800 33.23700

