158

Mg 48.93500 35.30100 27.21500
C  47.01500 33.87400 29.94600
C  49.20800 38.10000 29.23800
C  49.87300 37.07600 24.50000
C  48.13800 32.51500 25.27700
N  48.23700 35.86100 29.39800
C  47.59600 35.06500 30.27800
C  47.86100 35.63300 31.64800
C  48.14700 37.14900 31.35700
C  48.60100 37.03000 29.89100
C  46.98300 38.08300 31.58100
C  49.11300 34.93600 32.35500
C  48.93200 34.68500 33.86000
H  49.75200 35.48700 34.81000
N  49.61900 37.23400 26.94300
C  49.64400 38.26700 27.94700
C  50.25200 39.45100 27.35300
C  50.56600 39.17300 25.91600
C  50.03300 37.78000 25.77000
C  50.57900 40.75600 28.17300
C  51.19200 40.03200 24.93600
O  51.31300 39.64000 23.79900
C  51.76400 41.47600 25.25600
N  49.00900 34.82100 25.24400
C  49.46300 35.79100 24.30000
C  49.65100 35.06800 22.89600
C  49.25200 33.57500 23.28800
C  48.71300 33.65700 24.71800
C  48.95500 35.61900 21.65100
C  50.57300 32.67300 23.27000
C  50.37400 31.30500 22.54900
N  47.86900 33.44200 27.55700
C  47.62900 32.41700 26.64400
C  46.99700 31.34500 27.38400
C  46.60100 31.88100 28.59500
C  47.25100 33.17100 28.69800
C  46.70100 29.91800 26.88400
C  45.87200 31.63200 29.79000
O  45.11600 30.71300 30.11300
C  45.98000 32.99700 30.68500
C  46.43900 32.53000 32.02300
O  47.46800 31.86500 32.23900
O  45.51500 32.89900 32.98500
C  45.89800 32.51300 34.39600
H  49.37500 38.95900 29.89100
H  50.39100 37.42400 23.60300
H  48.03200 31.58400 24.71500
H  46.91100 35.49600 32.16400
H  49.01900 37.45500 31.93500
H  47.18700 39.12800 31.81300
H  46.45100 37.66600 32.43700
H  46.37400 38.08100 30.67700
H  50.02000 35.52400 32.21800
H  49.33100 34.00800 31.82700
H  49.02900 33.61600 34.05200
H  47.90600 34.99300 34.06100
H  50.15400 41.62900 27.67800
H  51.63100 41.00300 28.31600
H  50.03100 40.90500 29.10400
H  52.12100 41.95000 24.34200
H  52.52400 41.46500 26.03800
H  50.90300 42.12600 25.41200
H  50.72800 35.18700 22.77300
H  48.47300 33.15000 22.65500
H  49.53200 36.41400 21.17900
H  48.07400 36.13900 22.02900
H  48.66300 34.95900 20.83400
H  50.96700 32.39600 24.24800
H  51.36200 33.15200 22.69000
H  50.93700 31.30400 21.61600
H  49.32500 31.07300 22.36300
H  50.72100 30.42300 23.08600
H  45.85100 29.93900 26.20100
H  46.45700 29.31200 27.75600
H  47.59800 29.60000 26.35200
H  44.99700 33.42300 30.88500
H  46.35800 33.36400 34.89800
H  46.60200 31.68200 34.44100
H  44.98600 32.26400 34.93700
Mg 10.11500 47.79300 25.92500
C  8.29300 48.11300 29.07600
C  12.89000 49.07300 27.64600
C  11.71800 47.66300 23.08700
C  7.03500 47.05000 24.45600
N  10.51200 48.54300 28.10800
C  9.65700 48.45900 29.21800
C  10.46600 48.83400 30.47900
C  11.79900 49.49600 29.91700
C  11.75300 48.88700 28.50700
C  11.83600 51.04400 29.90400
C  10.69800 47.62700 31.50700
C  10.38100 48.00900 32.96400
H  10.26200 46.89600 34.06200
N  12.08800 48.34500 25.36700
C  13.07400 48.89600 26.19800
C  14.27500 49.03200 25.40000
C  13.92500 48.60900 24.07200
C  12.51100 48.23100 24.11600
C  15.57000 49.53700 25.98400
C  14.72900 48.51300 22.83400
O  14.25900 48.26900 21.74000
C  16.18700 48.74000 22.88300
N  9.47800 47.47100 24.08400
C  10.33500 47.34700 23.08400
C  9.66800 46.94100 21.78000
C  8.22100 46.55700 22.22500
C  8.22400 47.05300 23.61500
C  9.62100 48.03200 20.58800
C  7.93500 45.00700 22.19300
C  8.88100 44.13300 23.13500
N  8.04200 47.65100 26.53100
C  6.89200 47.41000 25.82800
C  5.68900 47.41800 26.64500
C  6.21200 47.56900 27.96100
C  7.63000 47.69900 27.84500
C  4.30900 47.37200 26.16600
C  5.91100 47.64900 29.35500
O  4.82900 47.65600 29.89400
C  7.20900 47.88300 30.18500
C  7.30100 46.68200 31.00900
O  7.76500 45.61200 30.62300
O  6.87900 46.88700 32.33800
C  6.85500 45.71400 33.13000
H  13.78400 49.22300 28.25500
H  12.09500 47.48400 22.07800
H  6.10500 46.73500 23.97700
H  9.87200 49.62300 30.94000
H  12.71700 49.25200 30.45200
H  11.97900 51.35600 28.86900
H  12.60900 51.36900 30.60000
H  10.86800 51.36400 30.29000
H  11.72100 47.26700 31.39500
H  9.97900 46.84700 31.25800
H  9.56700 48.73300 32.99900
H  11.22800 48.57100 33.35700
H  15.45300 49.79500 27.03700
H  15.96400 50.34700 25.37000
H  16.33500 48.76100 25.95400
H  16.50900 49.77100 22.74000
H  16.48900 48.11800 22.04100
H  16.71200 48.31900 23.74000
H  10.23400 46.08500 21.41200
H  7.43200 47.03200 21.64200
H  10.57600 48.03700 20.06300
H  9.39200 49.01200 21.00700
H  8.77700 47.75400 19.95600
H  8.04000 44.69800 21.15400
H  6.87100 44.93400 22.41800
H  8.29100 43.61500 23.89100
H  9.76900 44.71300 23.38400
H  9.20500 43.34500 22.45500
H  3.65600 47.32200 27.03700
H  4.19400 46.49200 25.53300
H  4.02100 48.33000 25.73200
H  6.96700 48.78900 30.74200
H  7.59800 45.90100 33.90600
H  7.10700 44.73600 32.72100
H  5.88700 45.70300 33.63100

