158

Mg 43.86000 3.91200 47.53700
C  41.99300 6.78500 47.09700
C  41.02700 2.05300 47.02200
C  45.95300 1.27900 47.30800
C  46.75300 6.08400 47.49800
N  41.73200 4.36000 47.26200
C  41.20400 5.60700 47.02200
C  39.69300 5.57500 46.66300
C  39.37200 4.10200 47.07600
C  40.75400 3.46400 47.18800
C  38.73500 4.13200 48.47500
C  39.44000 6.01600 45.24600
C  38.30500 6.98800 44.94200
H  37.45800 6.61900 43.68200
N  43.54100 1.96600 47.35400
C  42.32200 1.40600 47.14800
C  42.54100 0.00200 46.86600
C  43.95100 -0.28200 46.89700
C  44.55600 1.02600 47.20600
C  41.46300 -0.96100 46.64600
C  44.56500 -1.63600 46.57100
O  43.86100 -2.58700 46.21300
C  46.12400 -1.88700 46.56100
N  46.08600 3.76400 47.11700
C  46.65300 2.49900 47.32200
C  48.14300 2.58700 47.58800
C  48.42600 4.07200 47.62700
C  47.00100 4.70700 47.40800
C  48.57300 1.80800 48.91200
C  49.39400 4.55900 46.51000
C  50.34100 5.69700 46.85600
N  44.35900 6.05000 47.43100
C  45.53200 6.74600 47.54300
C  45.28700 8.17400 47.49600
C  43.88000 8.26000 47.32300
C  43.34500 6.94700 47.29700
C  46.28100 9.25700 47.51600
C  42.76900 9.16200 47.24100
O  42.67000 10.35100 47.19500
C  41.52100 8.26600 46.97200
C  40.61200 8.65500 48.05700
O  40.67900 8.32600 49.28200
O  39.60700 9.45100 47.52800
C  38.70200 10.03600 48.53000
H  40.16000 1.42700 46.79900
H  46.56200 0.38600 47.46400
H  47.68100 6.64100 47.64700
H  39.18000 6.27100 47.32600
H  38.79000 3.70600 46.24300
H  39.42900 4.42400 49.26200
H  38.17900 3.22700 48.72300
H  37.97700 4.90200 48.61500
H  39.23200 5.09500 44.70100
H  40.36300 6.43100 44.84200
H  38.72900 7.98500 44.81500
H  37.64100 7.07800 45.80200
H  40.57400 -0.68300 47.21200
H  41.64400 -1.98200 46.98200
H  41.13100 -1.00100 45.60800
H  46.57900 -1.88500 47.55100
H  46.67500 -1.23000 45.88700
H  46.31000 -2.90000 46.20300
H  48.72000 2.20200 46.74700
H  48.82200 4.42200 48.58100
H  47.75600 1.91700 49.62600
H  49.46600 2.21900 49.38200
H  48.64400 0.76200 48.61500
H  48.92000 4.97900 45.62400
H  49.99300 3.72500 46.14300
H  50.07800 6.13600 47.81900
H  50.26700 6.46100 46.08200
H  51.36500 5.32700 46.80700
H  47.11000 8.98900 46.86100
H  46.54000 9.50900 48.54500
H  45.63900 10.03300 47.09800
H  41.18000 8.49200 45.96200
H  39.08300 11.04700 48.67500
H  38.49000 9.47900 49.44300
H  37.73100 10.25500 48.08700
Mg 1.01900 43.03600 26.42600
C  3.41800 43.08600 28.90800
C  -1.31700 41.95400 28.73000
C  -0.98800 42.39000 23.93700
C  3.72100 43.46100 24.11000
N  1.03600 42.62500 28.52400
C  2.10500 42.87900 29.42500
C  1.63400 42.88700 30.88600
C  0.15200 42.26700 30.77200
C  -0.05700 42.32100 29.24400
C  -0.16400 40.88800 31.42900
C  1.65900 44.35700 31.50800
C  1.70400 44.41600 33.03900
H  1.33800 43.10600 33.76700
N  -0.89800 42.34800 26.38400
C  -1.67800 41.97600 27.39400
C  -3.00500 41.74900 26.87900
C  -2.94200 41.77900 25.41600
C  -1.55600 42.16900 25.20000
C  -4.16800 41.52300 27.88600
C  -4.01200 41.47500 24.44700
O  -3.80800 41.42500 23.22800
C  -5.39400 41.25500 24.88400
N  1.36900 43.00100 24.30600
C  0.30400 42.68500 23.54800
C  0.72200 42.84900 21.98400
C  2.13200 43.45900 22.02200
C  2.49000 43.29600 23.52600
C  0.60000 41.55900 21.15300
C  2.29700 44.88200 21.53800
C  1.56800 45.97000 22.39300
N  3.12100 43.20100 26.40700
C  4.03000 43.45000 25.45600
C  5.34900 43.57900 26.06500
C  5.13900 43.33700 27.45000
C  3.72800 43.25700 27.59600
C  6.63500 43.84200 25.40200
C  5.77500 43.21000 28.66300
O  6.95600 43.19700 29.05300
C  4.65800 43.11400 29.74500
C  4.94800 41.88000 30.60100
O  5.11700 40.70000 30.24000
O  4.96200 42.28400 31.91400
C  5.10400 41.27600 32.97100
H  -1.96700 41.62100 29.54200
H  -1.64300 42.21900 23.08100
H  4.51300 43.87800 23.48400
H  2.19800 42.17000 31.48100
H  -0.55700 42.98100 31.19000
H  0.66000 40.39700 31.94700
H  -0.45100 40.17200 30.66000
H  -0.99400 40.98500 32.13000
H  0.73000 44.80400 31.15400
H  2.47300 44.92700 31.06000
H  0.96800 45.08300 33.48800
H  2.71300 44.76800 33.25700
H  -4.82800 42.37800 27.73900
H  -3.83500 41.70500 28.90800
H  -4.78900 40.63100 27.80700
H  -6.08100 41.05100 24.06200
H  -5.72500 42.06000 25.54000
H  -5.23400 40.36700 25.49600
H  0.06000 43.58700 21.53000
H  2.75600 42.78400 21.43700
H  1.50200 40.95000 21.20800
H  0.25600 41.78100 20.14300
H  -0.29100 41.08500 21.56600
H  1.83300 44.94900 20.55400
H  3.37800 45.02400 21.54300
H  0.70200 45.62700 22.96000
H  1.20400 46.73500 21.70700
H  2.30400 46.41800 23.06100
H  7.41300 44.30400 26.01100
H  6.34700 44.67100 24.75600
H  7.11200 43.03400 24.84800
H  4.59500 43.97600 30.40900
H  4.75900 40.29800 32.63500
H  4.50800 41.71300 33.77200
H  6.11600 41.20400 33.36900

