158

Mg 1.97900 -0.93500 43.59600
C  5.43100 -0.32700 43.02000
C  1.31900 1.89600 41.83700
C  -1.22000 -1.96700 43.15500
C  2.98200 -4.09100 44.84100
N  3.30900 0.53500 42.48500
C  4.67200 0.64200 42.46500
C  4.98200 1.92400 41.77000
C  3.66300 2.81900 41.81500
C  2.68300 1.66400 42.02700
C  3.66100 3.90000 42.86600
C  5.40500 1.66300 40.24400
C  6.78500 2.19400 39.76700
H  6.85100 2.76000 38.31700
N  0.25100 -0.09500 42.75500
C  0.14300 1.10800 42.06800
C  -1.24400 1.38600 41.72400
C  -1.95400 0.27300 42.14100
C  -0.97500 -0.67700 42.75900
C  -1.71300 2.76400 41.13700
C  -3.43400 0.13200 41.78900
O  -4.14400 1.05900 41.49700
C  -4.19600 -1.18600 41.89600
N  1.02100 -2.76200 43.93300
C  -0.32600 -2.91800 43.72300
C  -0.80700 -4.30500 44.21600
C  0.44600 -4.95100 44.80400
C  1.60600 -3.86700 44.49100
C  -2.01200 -4.25200 45.19600
C  0.80000 -6.37900 44.39900
C  1.14100 -7.38300 45.50100
N  3.84100 -1.96800 43.99100
C  4.00800 -3.22600 44.56200
C  5.44400 -3.40600 44.67400
C  6.02400 -2.29800 44.11500
C  4.99000 -1.44300 43.73700
C  6.09700 -4.63600 45.16100
C  7.28500 -1.66800 43.69500
O  8.39200 -2.15300 43.80800
C  6.91200 -0.34300 43.04800
C  7.48000 0.72000 43.82700
O  6.89000 1.33700 44.74300
O  8.66800 1.13400 43.21600
C  9.17000 2.44200 43.83400
H  1.07800 2.91100 41.51500
H  -2.27700 -2.22900 43.08300
H  3.28900 -5.07300 45.20900
H  5.76100 2.44100 42.33100
H  3.53500 3.30900 40.85000
H  3.63100 4.89100 42.41300
H  4.48600 3.79500 43.57000
H  2.70200 4.01300 43.37100
H  4.73300 2.09800 39.50400
H  5.32800 0.59200 40.05700
H  7.54000 1.42000 39.90100
H  6.96300 3.01000 40.46900
H  -2.48800 2.57200 40.39500
H  -0.90400 3.40100 40.77900
H  -2.08000 3.40500 41.93800
H  -5.09800 -1.03800 41.30300
H  -4.36300 -1.44000 42.94300
H  -3.62200 -2.03100 41.51600
H  -1.17800 -4.83600 43.33900
H  0.32600 -5.01200 45.88500
H  -2.94400 -4.59000 44.74500
H  -2.13700 -3.23500 45.56600
H  -1.76100 -4.90300 46.03400
H  1.57000 -6.43200 43.63000
H  -0.06600 -6.85900 43.94300
H  0.44200 -8.21600 45.58000
H  1.28300 -6.93700 46.48500
H  2.08500 -7.83300 45.19500
H  7.11700 -4.41200 45.47500
H  6.24000 -5.31700 44.32300
H  5.59200 -5.27300 45.88700
H  7.39000 -0.36800 42.06900
H  9.43800 2.30400 44.88200
H  8.61000 3.36700 43.69600
H  10.06700 2.66200 43.25500
Mg 36.15600 49.56800 24.97500
C  36.13200 47.98500 28.16200
C  34.66900 52.25200 26.51200
C  35.50100 50.77900 21.93900
C  37.12800 46.52900 23.46100
N  35.25900 49.91400 27.08800
C  35.64100 49.27700 28.20700
C  35.38600 50.18400 29.47300
C  34.60500 51.36900 28.87200
C  34.77400 51.14000 27.36700
C  33.11700 51.45100 29.19400
C  36.75500 50.49800 30.16500
C  36.96000 49.88600 31.57800
H  35.64600 49.79200 32.44800
N  35.36300 51.32300 24.31500
C  34.92000 52.36300 25.11200
C  34.65800 53.51200 24.34200
C  34.90000 53.09400 23.00500
C  35.20300 51.64500 23.02100
C  34.10100 54.86500 24.77700
C  34.78000 53.92800 21.69400
O  34.76700 53.41200 20.60900
C  34.64500 55.41300 21.73500
N  36.24700 48.75100 22.92700
C  35.94000 49.48500 21.88300
C  36.46400 48.92300 20.58600
C  36.97500 47.47300 21.01900
C  36.70100 47.52400 22.58200
C  35.59000 48.87500 19.23400
C  38.44700 47.16800 20.67100
C  39.55400 47.85200 21.50300
N  36.58700 47.69100 25.60400
C  37.01000 46.55400 24.89300
C  37.31000 45.46600 25.85900
C  37.02900 46.01700 27.14500
C  36.58400 47.35700 26.94800
C  37.60400 43.99900 25.56500
C  37.05600 45.70100 28.55200
O  37.61200 44.78300 29.14000
C  36.35100 46.97100 29.29700
C  35.10000 46.45100 29.82700
O  33.93200 46.48400 29.48000
O  35.35700 45.86400 31.10300
C  34.19400 45.27400 31.80400
H  34.28300 53.16700 26.96400
H  35.32900 51.20600 20.94900
H  37.57000 45.60800 23.07600
H  34.78000 49.65800 30.21100
H  35.05000 52.34300 29.08000
H  32.69500 50.52300 29.58000
H  32.59900 51.80400 28.30300
H  33.04100 52.17000 30.00900
H  36.86300 51.57700 30.04900
H  37.54400 50.08500 29.53700
H  37.52700 50.64300 32.12000
H  37.54400 48.97800 31.72700
H  34.81000 55.69100 24.72100
H  33.80000 54.76700 25.82100
H  33.19400 54.95800 24.17900
H  33.60700 55.67400 21.94200
H  34.88500 55.78300 20.73800
H  35.50900 55.80600 22.27300
H  37.29200 49.62200 20.47400
H  36.23600 46.73000 20.71800
H  35.49300 47.87900 18.80300
H  36.13100 49.35900 18.42100
H  34.62800 49.38700 19.26500
H  38.67100 47.51000 19.66100
H  38.62700 46.10200 20.81100
H  39.02600 48.37600 22.30000
H  40.01400 48.60800 20.86600
H  40.29400 47.21000 21.98000
H  38.61800 43.96100 25.16700
H  36.93800 43.66300 24.77100
H  37.41900 43.47100 26.50100
H  36.82500 47.34600 30.20400
H  34.66500 44.87100 32.70100
H  33.76000 44.42200 31.28100
H  33.47000 46.06900 31.98000

