158

Mg -2.23100 34.03100 28.22500
C  -4.21300 32.55900 30.63900
C  -1.01400 36.18000 30.78700
C  -0.53000 35.63600 25.86100
C  -3.58700 31.87100 25.77600
N  -2.71700 34.38100 30.33500
C  -3.42200 33.52900 31.21800
C  -3.27000 33.94300 32.63500
C  -2.64600 35.31200 32.61000
C  -2.09600 35.31900 31.14400
C  -3.59200 36.46300 32.84600
C  -2.58300 32.90700 33.50400
C  -3.41800 32.25000 34.54500
H  -3.13900 32.53800 36.00100
N  -0.89000 35.65300 28.28400
C  -0.45800 36.33100 29.47100
C  0.64800 37.18100 29.08000
C  0.68500 37.22900 27.64700
C  -0.25800 36.14100 27.18000
C  1.31100 38.05700 30.09100
C  1.52800 38.02000 26.73600
O  1.51000 37.98400 25.48700
C  2.46200 39.03800 27.33000
N  -2.19600 33.83000 26.08800
C  -1.36900 34.61700 25.39000
C  -1.38600 34.21600 23.92500
C  -2.12100 32.82300 23.93900
C  -2.63800 32.78500 25.35500
C  -1.96000 35.28000 22.86500
C  -1.07900 31.62900 23.66800
C  0.43200 31.93200 24.03500
N  -3.60200 32.49600 28.22800
C  -4.05500 31.72900 27.13900
C  -5.12300 30.82800 27.62300
C  -5.21400 31.11500 29.01800
C  -4.28500 32.17200 29.30900
C  -5.90100 29.91200 26.83700
C  -5.88000 30.77700 30.29600
O  -6.81200 30.08800 30.55600
C  -5.16700 31.56600 31.36100
C  -6.24700 32.34700 32.10200
O  -6.53800 33.53400 31.88100
O  -6.79600 31.60400 33.13200
C  -7.73500 32.36100 34.03100
H  -0.60800 36.77800 31.60500
H  0.15000 35.95100 25.06700
H  -3.94100 31.21300 24.98000
H  -4.29600 34.03900 32.99100
H  -1.78700 35.45300 33.26600
H  -3.49600 37.29000 32.14200
H  -3.50300 36.86900 33.85400
H  -4.60200 36.07100 32.72600
H  -1.63100 33.27800 33.88500
H  -2.19200 32.26300 32.71600
H  -3.56500 31.17200 34.48300
H  -4.47400 32.43100 34.34400
H  0.78100 38.09700 31.04300
H  1.35000 39.10300 29.79000
H  2.31000 37.63800 30.21700
H  3.16400 39.37600 26.56700
H  2.97900 38.36600 28.01500
H  1.98100 39.88100 27.82500
H  -0.35600 34.15300 23.57600
H  -2.91800 32.74400 23.20000
H  -2.72200 35.94800 23.26500
H  -2.32100 34.62400 22.07200
H  -1.11100 35.78500 22.40600
H  -1.20000 31.35000 22.62100
H  -1.36100 30.76100 24.26400
H  1.00700 31.03800 24.27600
H  0.36800 32.56400 24.92100
H  0.88300 32.41200 23.16700
H  -6.16900 29.02700 27.41500
H  -5.41700 29.54600 25.93200
H  -6.78300 30.43400 26.46600
H  -4.57000 30.96900 32.05000
H  -7.23900 33.15600 34.58600
H  -8.14100 31.61800 34.71800
H  -8.54500 32.83300 33.47500
Mg -6.15300 24.73600 27.09600
C  -5.13900 26.35500 30.17700
C  -8.14700 22.75300 29.20100
C  -7.13700 23.08800 24.38400
C  -4.02400 26.82800 25.36800
N  -6.57300 24.53900 29.43400
C  -5.99400 25.27700 30.43500
C  -6.44000 24.83000 31.88000
C  -7.14100 23.49600 31.46300
C  -7.37700 23.61500 29.95500
C  -6.44900 22.12200 31.66700
C  -7.33800 26.00900 32.54700
C  -7.16400 26.12100 34.07600
H  -6.60400 24.92300 34.82200
N  -7.49400 23.22300 26.76700
C  -8.19100 22.60200 27.78000
C  -9.10400 21.60600 27.19800
C  -8.78700 21.57200 25.83100
C  -7.75500 22.67500 25.59900
C  -10.00500 20.70800 27.94700
C  -9.39000 20.73700 24.72800
O  -8.96300 20.78300 23.58000
C  -10.37800 19.64600 25.03600
N  -5.57200 24.91000 25.17900
C  -6.16700 24.11900 24.21400
C  -5.64000 24.51100 22.83300
C  -4.75000 25.80500 23.15000
C  -4.71600 25.83900 24.66400
C  -4.94100 23.38400 22.00200
C  -5.37500 27.06700 22.45800
C  -4.53700 28.18600 21.74900
N  -4.91300 26.22600 27.61900
C  -4.07800 26.93600 26.77600
C  -3.23800 27.80900 27.60400
C  -3.61200 27.62800 28.89900
C  -4.68700 26.67500 28.83800
C  -2.10900 28.72000 27.18700
C  -3.28300 27.99600 30.27500
O  -2.40100 28.72200 30.70600
C  -4.31500 27.23000 31.15100
C  -3.45400 26.44600 32.07000
O  -2.50700 25.81500 31.78600
O  -3.88500 26.64700 33.33100
C  -3.01700 26.30700 34.44500
H  -8.82500 22.15200 29.81000
H  -7.29300 22.51200 23.46900
H  -3.48000 27.55900 24.76600
H  -5.51200 24.64800 32.42400
H  -8.07500 23.56200 32.02100
H  -5.51100 22.30200 32.19200
H  -6.28900 21.50600 30.78300
H  -7.10800 21.59900 32.36100
H  -8.38500 25.92400 32.25500
H  -6.90400 26.95500 32.22600
H  -8.07300 26.33500 34.63700
H  -6.41000 26.89700 34.20600
H  -10.93900 20.83000 27.39900
H  -10.25400 21.13700 28.91800
H  -9.63200 19.68400 27.95500
H  -9.90300 18.90500 25.68000
H  -10.62400 19.12800 24.10900
H  -11.27200 20.21200 25.29500
H  -6.57300 24.80600 22.35400
H  -3.72800 25.73000 22.78000
H  -3.87700 23.54800 22.17700
H  -5.14500 23.39400 20.93200
H  -5.27400 22.40800 22.35500
H  -5.98900 27.63500 23.15600
H  -6.00800 26.75800 21.62500
H  -5.28600 28.77300 21.21800
H  -3.92000 27.67400 21.01000
H  -3.95800 28.73800 22.48900
H  -1.57300 28.27000 26.35200
H  -1.40400 28.75000 28.01900
H  -2.42200 29.69500 26.81600
H  -4.91100 27.98600 31.66400
H  -2.52100 25.33800 34.40700
H  -3.61800 26.38400 35.35200
H  -2.19900 27.02300 34.53400

