158

Mg 17.34200 -2.48900 27.88000
C  16.51200 -0.81800 30.81200
C  19.24500 -4.70800 29.73900
C  18.32500 -3.83800 24.92500
C  15.42000 -0.20200 26.16300
N  17.76200 -2.74900 30.04100
C  17.20300 -2.05000 31.10200
C  17.61100 -2.58800 32.43400
C  18.66000 -3.68600 32.02600
C  18.52100 -3.79500 30.50400
C  20.15400 -3.39800 32.51000
C  16.41100 -3.06000 33.32600
C  16.52600 -2.47000 34.76100
H  17.92200 -2.44000 35.37600
N  18.42200 -4.14000 27.49600
C  19.17000 -4.92400 28.32500
C  19.93900 -5.94000 27.63300
C  19.66100 -5.64800 26.22400
C  18.78200 -4.48000 26.17800
C  20.71300 -7.07000 28.32200
C  20.22000 -6.38900 25.01900
O  20.01900 -6.08300 23.85300
C  21.09200 -7.60500 25.18100
N  16.94600 -2.07300 25.77900
C  17.33100 -2.84600 24.74400
C  16.81100 -2.42900 23.43800
C  15.65000 -1.35800 23.87600
C  16.00700 -1.16100 25.36200
C  17.90900 -1.91200 22.57300
C  14.10400 -1.69400 23.70300
C  13.62600 -3.08600 23.98900
N  16.40600 -0.65600 28.23100
C  15.52600 0.08900 27.49800
C  14.95500 1.15300 28.25400
C  15.35300 0.84300 29.57800
C  16.20000 -0.24800 29.55200
C  14.02100 2.15200 27.87500
C  15.31300 1.28000 30.94100
O  14.92400 2.37100 31.49500
C  15.98100 0.13400 31.81100
C  17.06200 0.74700 32.67200
O  18.17800 0.99400 32.34000
O  16.52300 1.12500 33.82100
C  17.28900 1.91900 34.80700
H  20.03200 -5.26600 30.25200
H  18.62900 -4.35800 24.01500
H  14.76000 0.55400 25.73400
H  18.12800 -1.68200 32.74800
H  18.39800 -4.67000 32.41500
H  20.22500 -2.68300 33.32900
H  20.82300 -3.10500 31.70100
H  20.55300 -4.26200 33.04200
H  16.34200 -4.13700 33.47500
H  15.46100 -2.66100 32.96800
H  15.81100 -3.03500 35.35900
H  16.15000 -1.45000 34.67700
H  20.37000 -8.05000 27.99200
H  20.62000 -7.04900 29.40800
H  21.73500 -6.92100 27.97300
H  22.05200 -7.19400 25.49300
H  21.31700 -8.09200 24.23100
H  20.61600 -8.30900 25.86300
H  16.29600 -3.19600 22.85900
H  15.86200 -0.34300 23.54000
H  18.75200 -1.64900 23.21200
H  17.60300 -1.05500 21.97300
H  18.23500 -2.61300 21.80400
H  13.83600 -1.43200 22.67900
H  13.47200 -1.04500 24.30800
H  12.82700 -3.14900 24.72700
H  14.42600 -3.72500 24.36300
H  13.34000 -3.64300 23.09600
H  14.43900 2.79600 27.10200
H  13.62200 2.75300 28.69300
H  13.11300 1.72200 27.45200
H  15.23200 -0.40400 32.39200
H  18.36400 1.99000 34.64300
H  17.28200 1.37200 35.74900
H  17.01800 2.97500 34.79400
Mg -6.18100 26.04300 25.97800
C  -4.78700 27.51300 28.73100
C  -7.81100 23.83800 27.96600
C  -7.65400 24.80000 23.23500
C  -4.17800 28.10100 23.89300
N  -6.17800 25.67100 28.14300
C  -5.67600 26.45700 29.08500
C  -6.06500 26.03700 30.50600
C  -6.88700 24.70700 30.18100
C  -7.00700 24.74800 28.64700
C  -6.27000 23.39500 30.60400
C  -6.77000 27.05700 31.41300
C  -6.56600 26.90100 32.91500
H  -6.07500 25.62300 33.56600
N  -7.50500 24.48600 25.62300
C  -8.06500 23.72500 26.56500
C  -9.10300 22.96200 25.97600
C  -8.98200 23.07400 24.54900
C  -8.06500 24.19700 24.38800
C  -9.95700 22.03500 26.89400
C  -9.65300 22.31600 23.48500
O  -9.64300 22.67500 22.30500
C  -10.50600 21.06600 23.90500
N  -5.71000 26.15300 23.83500
C  -6.59000 25.64000 22.88100
C  -6.49600 26.27400 21.50500
C  -5.49100 27.41600 21.78700
C  -5.09000 27.23800 23.24200
C  -6.19200 25.37400 20.27900
C  -6.06600 28.83400 21.46400
C  -6.50700 29.06500 19.99800
N  -4.74800 27.47900 26.20200
C  -4.02400 28.23700 25.27800
C  -3.19900 29.18300 26.04700
C  -3.51900 28.92200 27.42400
C  -4.39500 27.86100 27.45400
C  -2.32800 30.26900 25.54400
C  -3.09600 29.38700 28.74700
O  -2.41900 30.34900 29.06400
C  -3.95000 28.42300 29.71800
C  -3.01800 27.65400 30.61400
O  -1.97500 27.08200 30.24100
O  -3.43200 27.73200 31.89100
C  -2.50800 27.10100 32.79900
H  -8.39600 23.28200 28.70200
H  -8.02500 24.45200 22.26900
H  -3.60800 28.81200 23.29200
H  -5.09800 25.69800 30.87900
H  -7.88800 24.65300 30.60800
H  -7.05300 22.65800 30.78100
H  -5.66800 23.45800 31.51000
H  -5.70300 22.90300 29.81300
H  -7.84600 26.91300 31.31700
H  -6.50100 28.04600 31.03900
H  -7.46800 27.12600 33.48500
H  -5.94200 27.74200 33.21800
H  -10.84400 21.70400 26.35400
H  -10.39800 22.56500 27.73800
H  -9.45000 21.16300 27.30800
H  -10.44800 20.37500 23.06400
H  -11.53900 21.31300 24.15100
H  -10.10500 20.40500 24.67300
H  -7.50000 26.65800 21.32300
H  -4.54700 27.32000 21.24900
H  -6.29300 24.29300 20.37500
H  -5.12300 25.33500 20.07000
H  -6.71100 25.77200 19.40800
H  -5.27600 29.57700 21.57800
H  -6.86700 29.09500 22.15500
H  -7.53600 29.38300 19.83200
H  -6.27800 28.20100 19.37400
H  -5.88600 29.88200 19.63100
H  -2.95100 31.16100 25.47700
H  -1.77600 29.86700 24.69400
H  -1.65400 30.53700 26.35700
H  -4.44700 29.16600 30.34200
H  -2.16500 26.16300 32.36300
H  -3.08000 26.94100 33.71300
H  -1.70000 27.80900 32.98400

