158

Mg 48.11400 44.62500 43.63300
C  44.66400 44.06100 43.21200
C  48.62700 41.39000 42.54700
C  51.42100 45.27800 43.62400
C  47.36700 48.06000 43.39700
N  46.74800 43.02400 42.92200
C  45.38800 42.93200 42.91000
C  44.84600 41.57000 42.66300
C  46.17600 40.66700 42.65900
C  47.31400 41.74000 42.71600
C  46.29400 39.63500 43.81300
C  44.06200 41.34700 41.35300
C  44.47200 42.19900 40.21800
H  44.15700 41.50400 38.90300
N  49.80000 43.41000 43.31600
C  49.79900 42.10100 42.84600
C  51.16900 41.73300 42.72700
C  52.02600 42.77300 43.11300
C  51.09400 43.88900 43.43700
C  51.50200 40.34200 42.33800
C  53.53500 42.74600 43.18800
O  54.15100 41.77500 42.79300
C  54.36300 43.92400 43.73600
N  49.24400 46.44300 43.43200
C  50.55700 46.41700 43.66400
C  51.12200 47.79400 43.70800
C  49.89400 48.71600 43.33300
C  48.76700 47.69100 43.40000
C  51.85200 48.08700 45.09600
C  50.01300 49.44400 41.95800
C  50.31400 50.92200 41.99900
N  46.35500 45.86900 43.62100
C  46.23500 47.23300 43.57400
C  44.75500 47.54300 43.53900
C  44.14100 46.29000 43.36600
C  45.17300 45.33500 43.44000
C  44.00200 48.92600 43.45700
C  42.81800 45.61000 43.16000
O  41.70900 46.16300 43.14200
C  43.13100 44.13300 43.13600
C  42.33900 43.43300 44.27700
O  41.38900 42.66100 44.10600
O  42.68500 43.73200 45.60500
C  41.90000 43.26700 46.75800
H  48.71600 40.36200 42.19000
H  52.49700 45.39600 43.47800
H  47.05100 49.09900 43.50800
H  44.15600 41.18500 43.41400
H  46.36800 40.22600 41.68100
H  45.34800 39.49400 44.33500
H  46.99300 39.94600 44.58900
H  46.50400 38.70500 43.28500
H  43.04400 41.61000 41.64000
H  44.00500 40.26300 41.25800
H  45.55700 42.27900 40.28900
H  44.06800 43.20500 40.33500
H  52.04800 40.21700 41.40300
H  50.66500 39.65800 42.19700
H  52.17600 39.92700 43.08600
H  54.46300 44.67300 42.95100
H  55.36200 43.57300 43.99400
H  53.96300 44.49000 44.57800
H  51.86900 47.87400 42.91900
H  49.74200 49.51800 44.05500
H  51.57700 47.36400 45.86500
H  51.57500 49.09000 45.42300
H  52.93900 48.06400 45.02100
H  49.05400 49.36600 41.44500
H  50.79500 48.97000 41.36400
H  51.16300 51.16200 41.35900
H  50.49500 51.16100 43.04700
H  49.39500 51.49900 41.89800
H  43.89300 49.37900 42.47200
H  44.65900 49.60500 44.00100
H  43.05000 48.91200 43.98800
H  42.78500 43.69200 42.20100
H  41.92000 42.18800 46.91100
H  40.86500 43.60700 46.72200
H  42.44100 43.66500 47.61600
Mg -10.02600 40.48400 40.95000
C  -9.32800 37.09300 40.06100
C  -7.03900 41.27800 39.66200
C  -11.16200 43.57500 41.07900
C  -13.24200 39.36800 42.00400
N  -8.44700 39.31600 39.92200
C  -8.28300 37.97100 39.72100
C  -6.88800 37.52900 39.27800
C  -6.07900 38.88400 39.35200
C  -7.25400 39.90900 39.63300
C  -4.99300 39.08500 40.47500
C  -6.92300 36.83900 37.85600
C  -5.86000 35.76300 37.65000
H  -4.83900 35.92000 36.54100
N  -9.15100 42.20500 40.51700
C  -7.92000 42.38500 39.90800
C  -7.77000 43.77900 39.60400
C  -8.92300 44.49000 40.04900
C  -9.80500 43.43900 40.62300
C  -6.50100 44.31700 38.87900
C  -9.09800 46.03600 39.97400
O  -8.18000 46.79400 39.49800
C  -10.27900 46.60900 40.66800
N  -11.93100 41.32200 41.62200
C  -12.10300 42.68500 41.59800
C  -13.53700 43.10500 41.85300
C  -14.15000 41.73600 42.35100
C  -13.04300 40.73300 41.96500
C  -13.80800 44.36000 42.73900
C  -15.50900 41.35600 41.57300
C  -16.49900 40.49900 42.45700
N  -11.10600 38.60400 40.99700
C  -12.39200 38.36200 41.50300
C  -12.67100 36.85500 41.48000
C  -11.47500 36.33600 40.91800
C  -10.62100 37.42800 40.57200
C  -13.85400 36.05100 41.83600
C  -10.74400 35.09400 40.60200
O  -10.95500 33.89200 40.79800
C  -9.44500 35.57400 39.90200
C  -8.39500 34.82400 40.62900
O  -8.08500 34.90000 41.78700
O  -7.95200 33.95000 39.68100
C  -7.06500 32.96700 40.23800
H  -6.06200 41.63700 39.33000
H  -11.62300 44.55500 40.94300
H  -14.21000 38.92400 42.24900
H  -6.47000 36.84300 40.01500
H  -5.57900 39.16400 38.42500
H  -5.38900 39.80800 41.18800
H  -4.00500 39.31600 40.07800
H  -4.80200 38.16200 41.02300
H  -6.84400 37.68300 37.17000
H  -7.84400 36.38600 37.48800
H  -6.38200 34.82000 37.48500
H  -5.29500 35.70900 38.58000
H  -5.94100 44.92000 39.59300
H  -6.83300 44.93300 38.04300
H  -5.84800 43.51200 38.54100
H  -10.38500 46.11400 41.63300
H  -11.17900 46.59400 40.05400
H  -10.02400 47.64900 40.87300
H  -13.88000 43.36100 40.85100
H  -14.18000 41.68900 43.44000
H  -12.85400 44.70200 43.14200
H  -14.46300 44.06200 43.55700
H  -14.16000 45.27000 42.25200
H  -15.33000 40.78100 40.66400
H  -16.02700 42.29400 41.37100
H  -17.43100 41.02600 42.66200
H  -16.06900 40.40400 43.45400
H  -16.64900 39.46800 42.13600
H  -13.59400 35.00000 41.71100
H  -14.58000 36.37000 41.08800
H  -14.40400 36.18800 42.76700
H  -9.42900 35.34800 38.83600
H  -6.08200 33.41300 40.39000
H  -6.90800 32.22400 39.45700
H  -7.55500 32.35200 40.99300

