158

Mg -0.83300 17.74300 27.19500
C  -1.37400 15.62400 29.65100
C  -1.74100 20.38200 29.24900
C  -0.77700 20.13600 24.51600
C  -0.72200 15.26600 24.86700
N  -1.36100 17.99500 29.22300
C  -1.44800 16.95900 30.08100
C  -1.67100 17.35800 31.57600
C  -1.95100 18.86900 31.39100
C  -1.66300 19.13200 29.87000
C  -3.40800 19.25800 31.86700
C  -0.42000 17.22300 32.53900
C  -0.88400 17.00100 33.98600
H  0.14800 17.21200 35.14100
N  -1.12700 19.91500 26.98400
C  -1.42600 20.78500 27.97100
C  -1.49200 22.17300 27.48000
C  -1.19400 22.14600 26.09800
C  -0.98700 20.68600 25.78700
C  -1.82100 23.39800 28.30400
C  -1.08700 23.29300 25.05700
O  -0.87100 23.13100 23.88300
C  -1.08100 24.75400 25.57400
N  -0.74000 17.80500 25.02300
C  -0.64900 18.82100 24.14100
C  -0.43400 18.30600 22.70500
C  -0.11000 16.75000 22.94300
C  -0.57000 16.56200 24.35900
C  -1.59900 18.47900 21.71700
C  1.32200 16.26700 22.80800
C  2.38800 16.76500 23.90000
N  -0.92200 15.83400 27.17600
C  -0.89200 14.85200 26.20500
C  -1.10500 13.52500 26.81200
C  -1.27000 13.82400 28.14700
C  -1.12100 15.22700 28.31900
C  -1.22100 12.12700 26.10400
C  -1.45400 13.16400 29.41000
O  -1.49000 12.00100 29.74500
C  -1.57200 14.33900 30.40800
C  -0.35600 14.23500 31.33600
O  0.79200 14.30300 31.00300
O  -0.77600 13.88400 32.59500
C  0.25400 13.70400 33.63200
H  -1.95800 21.19400 29.94500
H  -0.60900 20.77600 23.64800
H  -0.60300 14.52600 24.07300
H  -2.54400 16.78100 31.88100
H  -1.23200 19.36900 32.03900
H  -3.94000 19.84300 31.11700
H  -3.18700 19.70900 32.83400
H  -4.04300 18.38400 32.01600
H  0.32400 18.01700 32.59600
H  0.20900 16.36500 32.30300
H  -1.18900 15.95600 34.04100
H  -1.74600 17.60300 34.27500
H  -2.17800 23.11700 29.29400
H  -2.60200 23.99300 27.82900
H  -0.93100 24.00700 28.46200
H  -1.93600 25.11700 26.14500
H  -0.93000 25.32200 24.65600
H  -0.19200 24.80800 26.20300
H  0.43300 18.83100 22.30500
H  -0.70800 16.06800 22.33900
H  -2.48200 18.70900 22.31300
H  -1.89700 17.58200 21.17300
H  -1.37500 19.31000 21.04800
H  1.59600 16.73100 21.86000
H  1.22000 15.19100 22.66700
H  2.77100 15.89800 24.43900
H  1.97000 17.45600 24.63200
H  3.14000 17.26500 23.28900
H  -0.78800 11.91600 25.12600
H  -2.29200 11.94300 26.01300
H  -0.84000 11.38800 26.80900
H  -2.44300 14.38700 31.06300
H  0.82500 12.79700 33.43000
H  -0.28300 13.62800 34.57700
H  0.88900 14.59000 33.65500
Mg 4.83600 54.68400 40.34300
C  4.34600 51.19100 40.58600
C  8.18200 54.01600 39.53600
C  5.14700 57.81200 39.36100
C  1.36500 55.15100 40.92100
N  6.10500 52.74800 39.85900
C  5.68800 51.45500 40.12100
C  6.85000 50.44500 39.89400
C  8.06500 51.38300 39.98600
C  7.46400 52.82200 39.74900
C  8.72500 51.33000 41.35500
C  6.67300 49.55600 38.57000
C  6.02000 50.24700 37.40100
H  6.92600 51.11000 36.51700
N  6.43000 55.80300 39.59200
C  7.76100 55.38200 39.41800
C  8.64900 56.47900 39.04900
C  7.71700 57.66500 39.04100
C  6.34400 57.10000 39.24500
C  10.14500 56.39800 38.70400
C  8.14900 59.06300 38.83900
O  9.34500 59.31300 38.82300
C  7.23900 60.14200 38.83200
N  3.46200 56.21000 40.12000
C  3.86700 57.43900 39.74600
C  2.78600 58.51300 39.97200
C  1.52800 57.67100 40.45600
C  2.17900 56.22400 40.47200
C  3.15300 59.67400 40.95800
C  0.32400 57.76900 39.50600
C  -1.12000 58.05400 40.02300
N  3.15200 53.45600 40.58400
C  1.83800 53.81000 40.90500
C  1.10800 52.67600 41.40400
C  2.07700 51.66000 41.33000
C  3.25000 52.18200 40.71200
C  -0.33600 52.50000 41.86700
C  2.40500 50.24400 41.64700
O  1.81800 49.35900 42.21000
C  3.77900 49.88300 41.06900
C  3.70300 48.81800 40.02600
O  3.33700 49.00700 38.92900
O  4.15500 47.61100 40.53800
C  4.09500 46.51600 39.55900
H  9.27000 53.95100 39.47000
H  5.11000 58.86200 39.06500
H  0.34000 55.34500 41.24400
H  6.83700 49.72300 40.71000
H  8.77200 51.15300 39.18900
H  9.81000 51.37900 41.25900
H  8.52100 50.37300 41.83500
H  8.40900 52.16600 41.97800
H  6.17400 48.62400 38.83400
H  7.70100 49.30700 38.30400
H  5.29200 50.91400 37.86300
H  5.56800 49.43300 36.83400
H  10.31100 55.54100 38.05200
H  10.74900 56.19500 39.58900
H  10.52500 57.23400 38.11700
H  7.78300 61.07000 38.65100
H  6.70100 60.15300 39.77900
H  6.60900 60.04000 37.94800
H  2.77100 59.02600 39.01100
H  1.25400 57.91100 41.48400
H  2.57300 59.72600 41.87900
H  3.00700 60.60500 40.41100
H  4.17400 59.46700 41.28000
H  0.20700 56.95100 38.79500
H  0.62800 58.70900 39.04500
H  -1.00300 59.09200 40.33400
H  -1.42400 57.43100 40.86400
H  -1.93000 58.02400 39.29400
H  -0.73500 51.49900 41.70900
H  -1.02200 53.19600 41.38500
H  -0.33600 52.89400 42.88400
H  4.31600 49.45300 41.91500
H  3.01700 46.35600 39.52100
H  4.54700 45.63200 40.01100
H  4.41300 46.68900 38.53100

