158

Mg 43.56300 4.29500 47.44400
C  41.32400 7.02100 47.08800
C  40.70800 2.27900 47.35700
C  45.52000 1.50400 47.22400
C  46.22700 6.34800 47.08200
N  41.31400 4.67100 47.28900
C  40.61700 5.85800 47.18400
C  39.05900 5.71300 47.32100
C  38.94500 4.22000 47.70600
C  40.39300 3.64800 47.45000
C  38.21200 3.83700 49.08500
C  38.21100 6.09700 46.04700
C  38.77700 5.62900 44.67300
H  39.14900 6.63100 43.55100
N  43.14200 2.17200 47.41700
C  41.93400 1.60100 47.23200
C  42.11200 0.19400 47.05500
C  43.50100 -0.14300 47.22800
C  44.10700 1.18000 47.24200
C  40.99900 -0.76700 46.84300
C  44.15500 -1.57900 47.32300
O  43.46500 -2.55800 47.31100
C  45.62600 -1.74900 47.48100
N  45.60700 3.94300 47.22200
C  46.19700 2.75300 47.23900
C  47.74600 2.81300 47.31700
C  47.91800 4.37200 47.24000
C  46.50300 4.95000 47.12300
C  48.41300 2.00100 48.48400
C  48.83200 4.94100 46.12900
C  50.12900 5.40400 46.63100
N  43.78100 6.31600 47.19000
C  44.92900 7.09600 47.09400
C  44.61600 8.52400 47.00400
C  43.25100 8.56100 47.05200
C  42.73900 7.19600 47.15400
C  45.61100 9.64300 46.84700
C  42.10400 9.49000 46.96500
O  42.04000 10.70400 47.03400
C  40.78100 8.50000 47.01900
C  40.00400 8.73500 48.21000
O  40.46000 8.60700 49.34400
O  38.70300 9.13400 47.84000
C  37.88900 9.57300 49.01600
H  39.82500 1.64400 47.44700
H  46.23800 0.69700 47.06200
H  47.06500 7.04300 46.99400
H  38.77700 6.36900 48.14400
H  38.34500 3.60900 47.03100
H  37.57000 4.70500 49.23300
H  38.90600 3.57900 49.88500
H  37.64600 2.91000 48.99500
H  38.19500 7.18600 46.02400
H  37.19400 5.77500 46.27200
H  38.00200 4.99400 44.24400
H  39.60600 4.93800 44.82500
H  40.74100 -1.24100 47.79000
H  41.38400 -1.61300 46.27300
H  40.21600 -0.22000 46.31700
H  46.06300 -1.09300 48.23300
H  46.00200 -1.70700 46.45800
H  45.75700 -2.78200 47.80400
H  48.13500 2.44200 46.36900
H  48.15700 4.77600 48.22400
H  47.84500 1.08300 48.63500
H  48.50900 2.55700 49.41700
H  49.35800 1.60700 48.10900
H  48.32400 5.78900 45.66900
H  49.03600 4.21100 45.34500
H  50.87800 5.53500 45.85000
H  50.62100 4.78900 47.38400
H  49.86400 6.39700 46.99500
H  46.50700 9.30800 46.32400
H  45.95200 10.13300 47.75900
H  45.23600 10.39400 46.15100
H  40.17400 8.74800 46.14800
H  38.41000 10.47600 49.33500
H  37.78700 8.93900 49.89700
H  36.87900 9.72800 48.63800
Mg 8.89200 48.61000 25.48100
C  7.05100 48.56200 28.49200
C  11.60100 49.88000 27.35900
C  10.67400 48.86700 22.62300
C  6.02000 47.98200 23.76900
N  9.35900 49.04400 27.75600
C  8.41400 48.94300 28.76900
C  8.90100 49.45800 30.07300
C  10.29500 50.10400 29.62300
C  10.50100 49.68400 28.13400
C  10.51700 51.62700 29.90300
C  8.86200 48.61200 31.35800
C  9.87000 48.91400 32.54700
H  9.24800 48.75600 33.97600
N  10.94400 49.15100 25.06800
C  11.91900 49.53700 26.00300
C  13.20100 49.55300 25.25600
C  12.92700 49.26700 23.87000
C  11.44800 49.08600 23.77800
C  14.52800 49.91700 25.90400
C  13.88600 49.33400 22.69000
O  13.49900 49.15100 21.53100
C  15.44000 49.61700 22.75900
N  8.39100 48.50600 23.46700
C  9.31900 48.46000 22.52700
C  8.69700 48.25500 21.14900
C  7.25800 47.75400 21.51700
C  7.16800 48.09900 22.99200
C  8.74800 49.48200 20.18700
C  6.85900 46.20800 21.28600
C  6.60000 45.92100 19.79100
N  7.01400 48.28700 26.00600
C  5.90700 48.04100 25.17300
C  4.71300 47.84300 25.90900
C  5.13200 48.05800 27.24000
C  6.53700 48.30400 27.23600
C  3.26800 47.62600 25.34600
C  4.70700 48.14400 28.60300
O  3.59200 48.08500 29.03600
C  5.93600 48.46100 29.49000
C  6.00400 47.24000 30.31100
O  6.84300 46.32700 30.23300
O  5.02800 47.15600 31.21900
C  5.27200 46.26600 32.40200
H  12.49700 50.18600 27.90300
H  11.19100 48.90600 21.66300
H  5.05300 47.80700 23.29200
H  8.26100 50.29600 30.35000
H  11.13100 49.57300 30.07800
H  11.56200 51.87000 30.09800
H  9.86200 52.04600 30.66700
H  10.43400 52.17600 28.96500
H  9.19000 47.62900 31.02000
H  7.85300 48.44300 31.73300
H  10.05800 49.97800 32.39700
H  10.80500 48.36000 32.46600
H  14.63200 49.67200 26.96100
H  14.88400 50.91100 25.63000
H  15.27500 49.24400 25.48400
H  15.78000 49.99800 21.79600
H  15.97100 48.71700 23.06800
H  15.56500 50.40200 23.50500
H  9.20200 47.40000 20.70000
H  6.57800 48.39100 20.95200
H  9.31300 49.32300 19.26800
H  9.27400 50.29300 20.69100
H  7.74700 49.85200 19.96200
H  5.94600 46.01900 21.85000
H  7.67800 45.52300 21.50300
H  6.62500 46.84600 19.21400
H  5.65300 45.39800 19.66200
H  7.43500 45.30400 19.46000
H  2.59700 47.88000 26.16700
H  3.04500 46.68900 24.83600
H  2.96200 48.43000 24.67700
H  5.70100 49.32600 30.11100
H  4.35300 46.11100 32.96600
H  6.02500 46.69500 33.06300
H  5.65600 45.29100 32.10000

