158

Mg 47.73400 15.12200 28.03800
C  45.56100 14.86800 30.79600
C  49.78700 16.89800 30.10100
C  49.62700 16.02200 25.43400
C  45.39700 13.46000 26.10800
N  47.53500 15.95500 30.11500
C  46.65800 15.62700 31.05600
C  47.06200 16.18800 32.43300
C  48.27400 17.07200 32.09800
C  48.60900 16.58900 30.67300
C  47.99600 18.61800 32.06100
C  47.40900 15.06400 33.45300
C  46.76500 15.35300 34.85200
H  47.84600 15.90800 35.82800
N  49.51000 16.17900 27.80000
C  50.24400 16.80800 28.72700
C  51.52300 17.16200 28.21400
C  51.47000 17.00500 26.83000
C  50.16700 16.35500 26.62300
C  52.61900 17.62400 29.13600
C  52.53500 17.25900 25.76300
O  52.38400 16.94000 24.61600
C  53.86200 17.76000 26.13500
N  47.51800 14.79900 25.99800
C  48.42300 15.21100 25.15800
C  48.20400 14.44700 23.78600
C  46.81000 13.77300 23.96900
C  46.53300 14.07900 25.45900
C  48.38300 15.40400 22.45500
C  46.81200 12.19900 23.63500
C  47.74900 11.36300 24.47100
N  45.79300 14.39000 28.30500
C  45.04000 13.65400 27.49100
C  44.01400 13.02700 28.28200
C  44.09200 13.53000 29.57100
C  45.19900 14.42000 29.52700
C  42.98400 12.06200 27.84500
C  43.52600 13.44900 30.89400
O  42.66000 12.72400 31.34700
C  44.45200 14.47700 31.78100
C  43.70000 15.76600 32.14800
O  43.43200 16.65800 31.33200
O  43.52900 15.83700 33.48800
C  42.83000 16.98200 34.07200
H  50.41900 17.46400 30.78900
H  50.26700 16.22600 24.57300
H  44.73600 12.77600 25.57300
H  46.17900 16.78900 32.65100
H  49.04800 16.80900 32.82000
H  47.78300 18.99900 31.06200
H  48.86800 19.06000 32.54400
H  47.09100 18.94500 32.57300
H  48.48300 14.92400 33.57300
H  47.19700 14.11700 32.95700
H  46.47500 14.35600 35.18200
H  45.93800 16.06300 34.81800
H  53.42700 18.01000 28.51600
H  52.93500 16.72400 29.66400
H  52.26000 18.39000 29.82300
H  53.86400 18.74200 26.60900
H  54.42100 17.82100 25.20100
H  54.49000 17.21600 26.84000
H  49.00800 13.71200 23.78700
H  46.02400 14.21400 23.35600
H  49.06900 14.86600 21.80100
H  48.74800 16.37900 22.77800
H  47.41700 15.43600 21.95200
H  47.13200 12.25500 22.59500
H  45.77400 11.87600 23.55500
H  48.58600 10.99900 23.87400
H  47.23800 10.47500 24.84300
H  48.13800 11.79900 25.39100
H  43.12200 11.45700 26.94900
H  42.02500 12.55600 27.68200
H  42.82100 11.31600 28.62200
H  44.87700 14.11200 32.71600
H  43.48000 17.54100 34.74600
H  41.93500 16.67300 34.61200
H  42.59200 17.76100 33.34800
Mg 35.55500 49.65700 25.65200
C  35.41100 47.95700 28.80500
C  34.31400 52.52700 27.34900
C  35.20700 51.04500 22.72500
C  36.27000 46.56200 24.20200
N  34.94600 50.16100 27.85800
C  34.99100 49.32700 28.94700
C  34.85900 50.12500 30.25600
C  34.34000 51.61000 29.81900
C  34.48500 51.45500 28.27800
C  32.88600 52.05500 30.28000
C  36.24400 50.19800 31.02300
C  36.21800 49.66600 32.48600
H  35.78600 50.68400 33.53900
N  34.82100 51.49300 25.06900
C  34.38100 52.54000 25.88500
C  34.07500 53.64100 24.99800
C  34.39300 53.27100 23.68600
C  34.87100 51.87200 23.81300
C  33.51700 55.01500 25.45500
C  34.30700 54.06000 22.34000
O  34.56300 53.54000 21.23400
C  34.10800 55.45400 22.49400
N  35.57900 48.81500 23.70400
C  35.51500 49.67200 22.66100
C  35.94300 48.96100 21.35600
C  36.27800 47.57500 21.94800
C  36.07800 47.67400 23.37500
C  34.81300 49.12600 20.29600
C  37.49300 46.85400 21.43800
C  38.81800 46.99700 22.18700
N  36.00600 47.75400 26.39500
C  36.17600 46.60900 25.64400
C  36.33200 45.50800 26.53600
C  36.09500 46.02400 27.84100
C  35.81200 47.34400 27.62200
C  36.58100 44.15300 26.16500
C  35.83500 45.56500 29.13100
O  35.80700 44.42000 29.59100
C  35.38400 46.92400 29.89400
C  34.15500 46.84600 30.64800
O  32.99000 46.99900 30.17300
O  34.43900 46.57800 32.00500
C  33.28200 46.51100 32.91600
H  34.03800 53.46300 27.83900
H  35.34000 51.60100 21.79500
H  36.37100 45.65400 23.60300
H  34.06100 49.81200 30.92800
H  35.06300 52.36800 30.12100
H  32.27200 52.29100 29.41100
H  32.85600 52.96600 30.87700
H  32.39500 51.28900 30.87900
H  36.73400 51.17200 31.04000
H  37.05800 49.64900 30.55000
H  37.16200 49.24300 32.82800
H  35.45900 48.88800 32.56800
H  32.54900 55.35000 25.08200
H  34.29100 55.77700 25.37100
H  33.43800 55.02600 26.54200
H  33.10000 55.68500 22.84000
H  34.14900 55.93500 21.51700
H  34.93800 55.85000 23.07900
H  36.77700 49.55700 20.98500
H  35.44400 46.92800 21.67800
H  33.80800 49.34000 20.65900
H  34.77500 48.22600 19.68200
H  35.04300 49.92900 19.59700
H  37.73300 47.29300 20.47000
H  37.15400 45.85600 21.16200
H  38.58800 47.55700 23.09300
H  39.50600 47.57300 21.56800
H  39.21600 46.01900 22.45600
H  35.83800 43.84500 25.43000
H  36.64000 43.48500 27.02500
H  37.50200 44.19600 25.58400
H  36.29500 47.09100 30.47000
H  32.23900 46.54100 32.60200
H  33.34600 47.34200 33.61900
H  33.46600 45.56700 33.42900

