158

Mg 5.79000 53.64000 40.65400
C  4.90000 50.26900 40.64500
C  9.08700 52.46000 39.95200
C  6.69000 56.86000 39.79500
C  2.51800 54.52000 40.86500
N  6.81600 51.60500 40.39500
C  6.23700 50.35600 40.32800
C  7.19300 49.26100 39.80000
C  8.57500 49.97500 40.08800
C  8.15700 51.43600 40.18600
C  9.24300 49.57200 41.39400
C  6.93200 48.85200 38.33000
C  6.91400 49.94200 37.26700
H  5.89400 49.87500 36.19800
N  7.62400 54.55600 40.06400
C  8.86000 53.88100 39.92900
C  9.79200 54.88300 39.59800
C  9.17600 56.10800 39.48000
C  7.77800 55.93100 39.77700
C  11.31900 54.53900 39.51800
C  9.93100 57.36400 39.21900
O  11.07800 57.33500 38.79500
C  9.29900 58.77300 39.39200
N  4.77600 55.39900 40.28300
C  5.33600 56.62100 40.07600
C  4.29500 57.80800 40.16700
C  2.94600 57.00100 40.41500
C  3.41400 55.53200 40.50700
C  4.72600 58.79500 41.39200
C  1.87200 57.41300 39.26800
C  1.83200 56.58300 38.00900
N  4.04200 52.66900 41.11300
C  2.71700 53.07600 41.07300
C  1.80600 52.03300 41.41800
C  2.60100 50.87100 41.35600
C  3.96700 51.32100 41.07300
C  0.34900 52.26800 41.85500
C  2.64800 49.43400 41.44300
O  1.82000 48.68500 41.75900
C  4.08500 48.98600 40.95700
C  3.92200 48.11400 39.78400
O  3.54600 48.48400 38.66700
O  4.40700 46.83600 40.02100
C  4.29600 45.86500 38.93200
H  10.08800 52.07200 39.75400
H  7.00700 57.90200 39.88000
H  1.47700 54.76900 41.08200
H  7.12000 48.43300 40.50500
H  9.20200 49.77000 39.22100
H  8.90300 48.60000 41.75200
H  8.93200 50.27400 42.16800
H  10.30700 49.55000 41.16100
H  5.97000 48.35800 38.19300
H  7.69500 48.10700 38.10400
H  7.91200 49.91100 36.83000
H  6.79400 50.88500 37.80000
H  11.75500 53.74000 40.11700
H  11.98500 55.31300 39.90000
H  11.67900 54.34900 38.50700
H  9.99500 59.55500 39.08800
H  8.97000 59.04700 40.39400
H  8.50000 58.80700 38.65100
H  4.24700 58.41100 39.26000
H  2.44700 57.34000 41.32400
H  3.85200 58.92800 42.03000
H  5.10900 59.73500 40.99600
H  5.57700 58.47300 41.99300
H  1.93400 58.43900 38.90500
H  0.90000 57.21300 39.71900
H  2.56300 55.77700 37.94900
H  1.94100 57.13400 37.07600
H  0.90700 56.00800 38.06200
H  -0.14400 53.02200 41.24200
H  0.36700 52.76700 42.82300
H  -0.10800 51.27900 41.90000
H  4.58600 48.42500 41.74600
H  5.25400 45.34700 38.87000
H  3.87900 46.33000 38.03900
H  3.49100 45.19900 39.24200
Mg 1.16800 42.72600 25.68900
C  2.35700 42.75700 28.97500
C  -1.82400 41.43000 26.90300
C  0.10100 42.65200 22.49900
C  4.38900 43.42200 24.54700
N  0.36800 42.14400 27.70700
C  1.04800 42.33500 28.90300
C  0.17000 42.07200 30.14200
C  -1.15300 41.55700 29.43500
C  -0.89400 41.72100 27.95100
C  -1.55400 40.12900 29.80000
C  -0.03300 43.38900 31.03400
C  0.58000 43.45800 32.44600
H  -0.36200 43.06600 33.60800
N  -0.53500 42.06000 24.85600
C  -1.68400 41.59500 25.47500
C  -2.72600 41.32400 24.53200
C  -2.17000 41.66800 23.22000
C  -0.78000 42.13600 23.48200
C  -4.08400 40.83700 25.02600
C  -3.00400 41.63900 21.89500
O  -2.52100 42.24600 20.89600
C  -4.28400 40.95600 21.71700
N  2.09900 43.08100 23.84500
C  1.36200 43.09100 22.65600
C  2.26900 43.40000 21.50600
C  3.60600 43.92500 22.13700
C  3.36200 43.47700 23.56500
C  2.40100 42.20100 20.53200
C  4.05400 45.35200 21.99700
C  3.96400 45.88300 20.52800
N  2.89400 43.10500 26.50100
C  4.18200 43.25100 25.89600
C  5.19100 43.39400 26.85700
C  4.52500 43.12800 28.03400
C  3.13700 43.08900 27.82300
C  6.61800 43.79500 26.57200
C  4.79000 43.00100 29.39300
O  5.82700 42.88200 29.96300
C  3.37900 42.90200 30.11100
C  3.43000 41.75700 31.05400
O  2.86900 40.65500 30.93800
O  4.18200 42.10000 32.16300
C  4.26800 41.09500 33.26000
H  -2.72800 40.93900 27.26800
H  -0.39400 42.55700 21.53000
H  5.37300 43.68200 24.15300
H  0.59600 41.34600 30.83400
H  -2.00100 42.20000 29.67400
H  -1.70800 39.47700 28.94000
H  -2.56800 40.21800 30.18800
H  -0.92900 39.63600 30.54500
H  -1.10300 43.57000 31.13400
H  0.24700 44.27300 30.46200
H  0.95900 44.46500 32.62500
H  1.43300 42.78700 32.34200
H  -4.25300 41.18100 26.04600
H  -4.20800 39.75600 25.09300
H  -4.89600 41.16100 24.37500
H  -4.17100 40.31800 20.84100
H  -5.09800 41.65800 21.53500
H  -4.47200 40.24500 22.52200
H  1.72900 44.22300 21.03700
H  4.42400 43.28100 21.81300
H  1.41900 41.82000 20.25200
H  2.91300 41.37700 21.02900
H  2.83600 42.51500 19.58300
H  5.12800 45.37900 22.18300
H  3.32500 45.98400 22.50400
H  3.27400 46.69800 20.30900
H  3.74600 45.08400 19.81900
H  4.97400 46.10800 20.18400
H  6.98300 43.27200 25.68800
H  7.31600 43.59200 27.38500
H  6.62500 44.87500 26.42700
H  3.28800 43.80100 30.72000
H  5.33500 41.06100 33.47700
H  3.85700 40.11500 33.01600
H  3.82500 41.44800 34.19200

