158

Mg 2.12300 -0.88300 44.21400
C  5.58400 -0.35000 43.65000
C  1.51400 1.93600 42.26400
C  -1.11900 -1.82900 43.97900
C  2.93900 -4.16000 45.37700
N  3.47200 0.58100 42.98900
C  4.81800 0.58600 43.00400
C  5.34000 1.74500 42.18800
C  4.01700 2.54100 41.87700
C  2.92700 1.70900 42.44600
C  3.91700 3.97400 42.40800
C  6.03000 1.23300 40.90500
C  7.19100 2.08100 40.37300
H  6.73900 2.93600 39.23900
N  0.45000 0.00200 43.35800
C  0.40900 1.14600 42.66100
C  -0.99100 1.51200 42.48800
C  -1.82700 0.46100 42.92100
C  -0.85100 -0.53600 43.45000
C  -1.31400 2.96500 42.00200
C  -3.39800 0.51400 43.08500
O  -3.98200 1.52700 42.80400
C  -4.16800 -0.58500 43.66100
N  1.07900 -2.66200 44.75900
C  -0.28500 -2.75700 44.66600
C  -0.82300 -4.14500 45.13500
C  0.47600 -4.82100 45.57800
C  1.56400 -3.85200 45.18200
C  -1.88500 -4.04200 46.29500
C  0.65600 -6.22000 44.89000
C  1.28300 -7.32200 45.81600
N  3.92900 -1.96500 44.54700
C  4.05500 -3.24400 45.04000
C  5.49500 -3.50600 45.25100
C  6.14200 -2.34900 44.73800
C  5.10700 -1.48200 44.32800
C  5.95300 -4.73000 46.01200
C  7.42000 -1.72600 44.51400
O  8.51900 -2.18700 44.79200
C  7.10200 -0.33500 43.83500
C  7.73400 0.79100 44.67400
O  7.22500 1.20800 45.70300
O  8.80100 1.31500 44.03600
C  9.48700 2.41300 44.70300
H  1.37700 2.85600 41.69100
H  -2.13300 -2.23400 43.95500
H  3.00000 -5.21000 45.67300
H  5.92700 2.46800 42.75400
H  3.85600 2.69400 40.81000
H  3.86100 3.78200 43.47900
H  3.06500 4.54200 42.03200
H  4.80600 4.50900 42.07400
H  5.31800 1.08300 40.09300
H  6.48100 0.28800 41.20900
H  7.95200 1.37500 40.03900
H  7.54700 2.76400 41.14400
H  -2.35500 3.07200 41.69600
H  -0.71700 3.16300 41.11200
H  -1.07600 3.62800 42.83400
H  -5.16300 -0.27700 43.98100
H  -3.71800 -0.83800 44.62100
H  -4.16000 -1.40100 42.93800
H  -1.41200 -4.64600 44.36700
H  0.51900 -4.89100 46.66500
H  -1.74600 -4.82800 47.03700
H  -2.84000 -4.31900 45.84800
H  -2.04900 -3.04000 46.69300
H  1.31000 -6.01500 44.04300
H  -0.32400 -6.57000 44.56600
H  1.61900 -6.88500 46.75600
H  2.19500 -7.73700 45.38800
H  0.42100 -7.97600 45.95500
H  5.27300 -5.06100 46.79600
H  7.00800 -4.60500 46.25500
H  5.93300 -5.62600 45.39100
H  7.60900 -0.26100 42.87300
H  10.37600 2.63900 44.11500
H  9.73300 2.11800 45.72300
H  8.86900 3.30100 44.83100
Mg 0.42600 7.59000 25.81300
C  1.42400 9.63700 28.57700
C  0.31300 4.93900 28.04500
C  0.05700 5.60500 23.16800
C  0.93500 10.33600 23.77400
N  0.90700 7.32100 28.03400
C  1.19000 8.29800 28.94600
C  1.21400 7.83700 30.35200
C  1.14300 6.22400 30.08800
C  0.62800 6.12600 28.65300
C  2.46900 5.42600 30.39200
C  -0.01200 8.45200 31.15300
C  0.29000 9.02200 32.55700
H  1.30200 8.25900 33.40400
N  0.08700 5.51500 25.62900
C  0.04600 4.59200 26.66400
C  -0.29600 3.27900 26.09800
C  -0.33800 3.43800 24.67100
C  -0.01500 4.86500 24.40100
C  -0.36600 2.07900 26.99400
C  -0.49700 2.39100 23.49000
O  -0.46500 2.70200 22.32800
C  -0.76400 0.91800 23.88200
N  0.48500 7.89700 23.79600
C  0.13700 6.97600 22.88200
C  0.05100 7.55900 21.46200
C  0.32600 9.04700 21.69100
C  0.62700 9.14300 23.19000
C  0.94800 6.91700 20.47600
C  -0.73600 10.18000 21.20200
C  -0.22800 11.23900 20.18800
N  1.09800 9.56200 26.01300
C  1.16900 10.60100 25.12200
C  1.51400 11.92200 25.78300
C  1.57900 11.48400 27.12300
C  1.33800 10.13300 27.25800
C  1.67000 13.33800 25.18400
C  1.90400 11.98300 28.42400
O  2.26000 13.14400 28.71200
C  1.76400 10.83000 29.43400
C  2.93800 10.71800 30.34800
O  3.97500 10.13000 30.18300
O  2.63900 11.55000 31.37800
C  3.79100 11.74200 32.33800
H  0.19300 4.13400 28.77400
H  -0.06500 5.06800 22.22500
H  0.94600 11.17300 23.07300
H  2.16000 8.07200 30.84000
H  0.42600 5.91100 30.84800
H  2.72600 4.76900 29.56200
H  2.23900 4.69200 31.16500
H  3.27400 6.06900 30.75000
H  -0.78200 7.68800 31.25400
H  -0.56900 9.11700 30.49300
H  -0.68100 8.91700 33.04200
H  0.62900 10.05700 32.51400
H  -1.37000 1.85400 27.35500
H  0.26900 2.37100 27.83000
H  0.07300 1.26400 26.41800
H  -0.86700 0.37600 22.94200
H  -1.72000 0.90100 24.40500
H  0.12900 0.57200 24.40400
H  -0.93800 7.32800 21.06500
H  1.27800 9.28200 21.21500
H  1.89900 6.56200 20.87400
H  1.32000 7.56900 19.68500
H  0.36500 6.21300 19.88200
H  -1.01800 10.89100 21.97800
H  -1.55400 9.58300 20.79800
H  -0.49000 10.82200 19.21600
H  0.85800 11.17200 20.25500
H  -0.44700 12.26300 20.49200
H  1.54200 13.41500 24.10400
H  2.64600 13.74600 25.44800
H  0.89900 13.98100 25.60800
H  0.89400 11.12700 30.02100
H  4.69400 11.39700 31.83400
H  3.68500 11.12600 33.23100
H  3.91900 12.79400 32.59200

