158

Mg 2.10500 -1.28000 44.05100
C  5.37200 -0.08600 43.63400
C  0.96300 1.49900 42.25300
C  -0.91800 -2.72200 43.52900
C  3.27200 -4.23700 45.14100
N  3.07200 0.40400 42.90200
C  4.40300 0.81900 43.03700
C  4.66100 2.14400 42.29600
C  3.24800 2.64500 42.01600
C  2.33400 1.43400 42.33100
C  2.90900 3.95900 42.84800
C  5.55100 2.00700 41.09000
C  5.31100 0.81000 40.10100
H  5.77900 0.88500 38.68200
N  0.20100 -0.63600 43.23800
C  -0.04400 0.54200 42.56500
C  -1.47300 0.69100 42.36700
C  -2.05300 -0.56000 42.66300
C  -0.90700 -1.37700 43.14900
C  -2.06000 2.00100 41.82700
C  -3.47000 -0.91200 42.40200
O  -4.21500 -0.00400 42.02500
C  -4.03500 -2.26600 42.56700
N  1.31000 -3.24000 44.25200
C  0.01900 -3.57100 44.09500
C  -0.38800 -4.92900 44.66100
C  0.92900 -5.34100 45.32100
C  1.94600 -4.22800 44.88800
C  -1.64800 -4.84900 45.61200
C  1.33500 -6.73000 44.93100
C  1.67000 -7.67100 46.11400
N  3.87400 -2.01500 44.51800
C  4.29100 -3.23100 45.02500
C  5.66800 -3.28700 45.29100
C  6.13400 -2.12000 44.69600
C  5.05500 -1.32000 44.30300
C  6.47500 -4.38300 45.98200
C  7.36100 -1.35500 44.35300
O  8.49600 -1.65000 44.49800
C  6.82900 0.03100 43.72200
C  7.23400 0.99300 44.67800
O  7.23800 0.88300 45.90600
O  7.36300 2.15900 43.95800
C  7.39800 3.46800 44.70700
H  0.62900 2.47800 41.90200
H  -1.86900 -3.21600 43.31800
H  3.61500 -5.17000 45.59300
H  5.10100 2.77100 43.07100
H  3.11800 2.95200 40.97800
H  3.79200 4.51600 43.16300
H  2.39000 3.74500 43.78200
H  2.21700 4.56200 42.26000
H  6.58500 2.01000 41.43500
H  5.27600 2.91500 40.55400
H  4.24500 0.61600 40.22000
H  5.92100 -0.03500 40.41700
H  -2.19400 1.98500 40.74500
H  -1.37000 2.84400 41.81000
H  -3.06200 2.23100 42.19100
H  -5.12000 -2.18800 42.50400
H  -3.77600 -2.51300 43.59600
H  -3.58400 -2.92800 41.82800
H  -0.48300 -5.62500 43.82800
H  0.97000 -5.35400 46.41000
H  -2.36600 -4.12200 45.23300
H  -1.33300 -4.49600 46.59400
H  -2.19800 -5.78600 45.71000
H  2.26200 -6.61500 44.36800
H  0.57500 -7.19300 44.30200
H  2.74900 -7.79100 46.22100
H  1.14000 -8.59300 45.87800
H  1.29100 -7.31100 47.07000
H  7.28800 -3.90400 46.52700
H  6.93000 -5.08000 45.27800
H  5.82000 -4.94600 46.64800
H  7.38700 0.16400 42.79500
H  7.97600 3.39200 45.62700
H  6.41600 3.91400 44.86900
H  7.90500 4.08200 43.96200
Mg 48.69500 36.10300 27.34700
C  46.84200 34.18800 29.42800
C  48.96100 38.47000 29.86800
C  50.30900 38.09700 25.08200
C  48.38200 33.61100 24.94300
N  48.08300 36.21500 29.51800
C  47.36700 35.29500 30.16200
C  47.37600 35.58300 31.66800
C  47.73500 37.10100 31.67300
C  48.33900 37.29400 30.27700
C  46.56600 38.07700 31.93000
C  48.41800 34.62900 32.32700
C  48.40500 34.42200 33.84200
H  47.54500 35.18800 34.84700
N  49.48800 38.08400 27.47300
C  49.47000 38.86900 28.60200
C  50.35900 40.06400 28.37400
C  50.59700 39.97800 26.93600
C  50.11900 38.68900 26.40400
C  50.81100 41.07700 29.43900
C  51.35800 41.06400 26.09400
O  51.70400 40.89500 24.91100
C  51.66300 42.30800 26.79400
N  49.08300 35.96600 25.30300
C  49.79000 36.87600 24.58300
C  50.27000 36.33200 23.27100
C  49.82600 34.80900 23.27300
C  49.08100 34.74200 24.58500
C  49.79500 37.20100 22.03400
C  50.99800 33.82200 22.94600
C  51.18300 33.40300 21.50700
N  47.88300 34.20300 27.14300
C  47.79400 33.34300 26.14700
C  46.98800 32.19700 26.44000
C  46.56000 32.48200 27.76600
C  47.13400 33.73800 28.12200
C  46.61000 31.04300 25.69300
C  45.71100 32.01000 28.80100
O  45.13300 30.94300 28.83700
C  45.78400 33.13700 29.91600
C  46.06400 32.37900 31.09800
O  46.85300 31.41700 31.31400
O  45.24800 32.90600 32.15000
C  45.10600 32.10100 33.39300
H  49.21900 39.10700 30.71700
H  50.90300 38.61700 24.32700
H  48.29700 32.83600 24.17900
H  46.36100 35.33500 31.98000
H  48.50100 37.26200 32.43100
H  46.72300 38.83200 32.70000
H  45.60400 37.69200 32.26800
H  46.47500 38.55600 30.95500
H  49.40300 35.00900 32.05700
H  48.44200 33.65100 31.84500
H  49.38500 34.31900 34.30700
H  48.00800 33.41300 33.95100
H  51.86200 41.35600 29.37100
H  50.59700 40.77500 30.46500
H  50.27400 42.02000 29.34300
H  50.79300 42.61400 27.37600
H  51.88100 43.06500 26.04000
H  52.42900 42.04300 27.52200
H  51.35900 36.31700 23.32700
H  49.03200 34.63400 22.54800
H  49.32600 36.56600 21.28200
H  50.62400 37.77500 21.61900
H  49.03800 37.92400 22.33800
H  50.90100 32.85800 23.44600
H  51.91300 34.24000 23.36500
H  51.38900 32.33300 21.50100
H  52.10200 33.88400 21.17300
H  50.26500 33.53100 20.93300
H  45.84300 31.35000 24.98300
H  46.15600 30.36600 26.41600
H  47.44000 30.47400 25.27300
H  44.75100 33.48300 29.92300
H  45.54600 31.11000 33.28400
H  44.06500 31.82200 33.55500
H  45.54400 32.61900 34.24600

