158

Mg 6.03300 52.81100 40.79400
C  6.14000 49.32500 40.26600
C  9.15700 53.09100 39.53100
C  5.50500 56.24900 40.57700
C  2.63500 52.46400 41.86600
N  7.37900 51.35700 39.92800
C  7.30500 49.95600 39.81000
C  8.63300 49.28200 39.27100
C  9.59500 50.53400 39.36000
C  8.70200 51.73300 39.59300
C  10.69100 50.45300 40.39900
C  8.52800 48.78000 37.77500
C  7.87100 49.51900 36.62900
H  6.69400 48.80300 35.87000
N  7.16100 54.49500 40.09500
C  8.48900 54.33000 39.76600
C  9.01500 55.67200 39.56100
C  7.93200 56.55600 39.67100
C  6.73800 55.79000 40.06000
C  10.49700 55.99800 39.39200
C  8.10100 58.07900 39.41300
O  9.28200 58.48700 39.22900
C  6.92400 59.03200 39.32300
N  4.30700 54.17100 41.11600
C  4.45900 55.51200 41.05200
C  3.17100 56.18300 41.65100
C  2.26000 54.99800 41.94800
C  3.04700 53.79700 41.60500
C  3.34900 56.99000 42.99000
C  0.86000 55.09900 41.22100
C  -0.30500 55.45200 42.21200
N  4.69600 51.22500 41.08000
C  3.37600 51.22200 41.55300
C  2.93200 49.80700 41.70100
C  4.05800 49.05100 41.30400
C  5.06800 49.92800 40.89600
C  1.61500 49.27600 42.11700
C  4.44000 47.71300 41.07300
O  3.82100 46.68700 41.24500
C  5.83800 47.81100 40.44900
C  5.83700 47.04400 39.11800
O  5.20900 47.40200 38.13900
O  6.56100 45.81300 39.26700
C  6.28900 44.88800 38.11300
H  10.21200 53.14900 39.25900
H  5.48200 57.34000 40.60500
H  1.66700 52.29900 42.34400
H  8.92100 48.46800 39.93500
H  10.11000 50.70000 38.41400
H  10.85100 51.38700 40.93800
H  11.59600 50.25800 39.82500
H  10.60200 49.56800 41.02900
H  8.03300 47.81600 37.88600
H  9.59100 48.71100 37.54600
H  8.67400 49.84100 35.96600
H  7.53100 50.47600 37.02500
H  10.65000 56.57300 38.47900
H  10.95400 55.01100 39.32600
H  10.99400 56.41800 40.26700
H  7.19700 59.86800 38.68000
H  6.49500 59.20600 40.30900
H  6.28500 58.40600 38.69800
H  2.76200 56.81700 40.86400
H  2.12000 54.93000 43.02700
H  4.18800 56.58300 43.55500
H  2.48700 57.01500 43.65600
H  3.61000 58.01600 42.72900
H  0.55700 54.18500 40.71100
H  0.94600 55.91400 40.50200
H  -0.67400 54.43400 42.33800
H  -1.06700 56.10600 41.78800
H  0.05300 55.83100 43.16900
H  0.92300 50.09600 42.30900
H  1.63000 48.84100 43.11600
H  1.06600 48.59500 41.46700
H  6.53400 47.33200 41.13800
H  6.59700 45.41600 37.21000
H  5.21800 44.71800 38.00700
H  6.88500 44.02300 38.40300
Mg 0.79500 42.10000 26.45200
C  2.28100 42.23600 29.50200
C  -2.23100 41.43700 28.11000
C  -0.68600 41.68000 23.46500
C  3.86300 42.70400 24.94500
N  0.15400 41.83000 28.59800
C  0.89100 42.04200 29.68000
C  0.05200 42.02100 30.92600
C  -1.39400 41.61300 30.56700
C  -1.16400 41.62000 29.01300
C  -1.96900 40.31200 31.26500
C  0.14000 43.39300 31.79500
C  0.07500 43.38300 33.35100
H  -0.35400 42.01200 34.09500
N  -1.09200 41.42300 25.92900
C  -2.18900 41.28900 26.68300
C  -3.27700 40.82400 25.87400
C  -2.90500 41.01000 24.52900
C  -1.50500 41.42800 24.58400
C  -4.63000 40.36000 26.42400
C  -3.79400 40.80600 23.22800
O  -3.36600 40.86700 22.08700
C  -5.23800 40.37200 23.41300
N  1.45700 42.29800 24.50400
C  0.69500 41.98700 23.43600
C  1.32800 42.16500 22.09900
C  2.74700 42.49700 22.51300
C  2.73500 42.62000 24.07900
C  1.24200 40.90500 21.16200
C  3.44700 43.62200 21.76700
C  3.29500 43.63300 20.20700
N  2.72900 42.44300 27.05900
C  3.93600 42.71000 26.35600
C  5.06400 42.77800 27.21400
C  4.41400 42.53200 28.50900
C  3.03200 42.39000 28.32000
C  6.47900 42.86500 26.88700
C  4.71000 42.34900 29.91600
O  5.77200 42.29500 30.51400
C  3.29700 42.27000 30.66900
C  3.37900 41.06600 31.48500
O  3.16100 39.94000 31.13700
O  3.90400 41.36200 32.78700
C  4.17800 40.25300 33.74200
H  -3.22900 41.29100 28.53000
H  -1.24900 41.56800 22.53700
H  4.82400 42.96100 24.49300
H  0.53200 41.17300 31.41400
H  -2.06500 42.45700 30.72900
H  -2.93600 40.61200 31.67000
H  -1.34800 39.96000 32.08900
H  -2.25000 39.62800 30.46500
H  -0.69600 43.98400 31.42100
H  1.09000 43.86600 31.54200
H  -0.69800 44.12500 33.55000
H  1.05200 43.71600 33.70400
H  -5.06000 39.43600 26.03700
H  -5.31100 41.20900 26.36100
H  -4.57300 40.20400 27.50100
H  -5.69900 41.06200 24.12000
H  -5.32900 39.31300 23.65500
H  -5.84100 40.51100 22.51500
H  1.04600 43.13000 21.67800
H  3.43200 41.69600 22.23500
H  0.68500 41.26200 20.29500
H  0.59700 40.21200 21.70200
H  2.16200 40.36600 20.93500
H  4.50100 43.58000 22.04100
H  2.93200 44.46200 22.23100
H  3.08000 44.64600 19.87000
H  2.42300 43.04000 19.93000
H  4.15000 43.24600 19.65400
H  6.86600 41.85100 26.78900
H  7.03300 43.32100 27.70800
H  6.59600 43.41900 25.95600
H  3.18800 43.14900 31.30600
H  5.25600 40.13200 33.84700
H  3.59300 39.35700 33.53200
H  3.72500 40.73400 34.60900

