158

Mg 1.58500 7.94900 27.58800
C  2.10800 10.02100 30.32900
C  2.01600 5.24200 29.91500
C  1.25300 5.84400 25.07200
C  1.62700 10.58700 25.41900
N  1.94700 7.68700 29.83000
C  1.88000 8.76100 30.70900
C  1.67500 8.25000 32.11900
C  2.19600 6.77900 32.01600
C  1.96400 6.50800 30.48900
C  3.47500 6.19900 32.63000
C  0.26800 8.36300 32.54100
C  -0.12100 8.43100 34.11400
H  1.14400 8.20500 35.09200
N  1.49000 5.83800 27.50000
C  1.77200 4.89500 28.53300
C  1.73800 3.57400 27.87900
C  1.37900 3.67800 26.50500
C  1.33200 5.14200 26.28500
C  2.00000 2.26000 28.61000
C  1.23700 2.57900 25.43900
O  0.95800 2.90100 24.26600
C  1.32500 1.05100 25.75400
N  1.37100 8.17400 25.62400
C  1.29600 7.20200 24.72900
C  1.01400 7.64100 23.29200
C  0.86800 9.21100 23.54400
C  1.24800 9.35200 24.93700
C  2.21400 7.46900 22.27300
C  -0.45600 9.86300 23.00600
C  -0.44400 11.13900 22.24000
N  1.96300 9.93300 27.77000
C  1.96200 10.90000 26.76500
C  2.14600 12.16000 27.39100
C  2.24200 11.90100 28.75900
C  2.05200 10.54000 28.92800
C  2.12800 13.54500 26.68000
C  2.48700 12.48000 30.10600
O  2.78100 13.60300 30.46600
C  2.33600 11.34300 31.16000
C  3.54300 11.26300 32.02200
O  4.65700 11.13700 31.54800
O  3.35500 11.48900 33.42300
C  4.57200 11.68500 34.21400
H  1.94600 4.44700 30.66000
H  1.12500 5.24000 24.17100
H  1.46400 11.45800 24.78000
H  2.31500 8.79800 32.81100
H  1.51400 6.08500 32.50800
H  4.03100 6.98800 33.13500
H  4.20700 5.90000 31.87900
H  3.33700 5.27200 33.18800
H  -0.34200 7.57300 32.10200
H  -0.16300 9.20800 32.00400
H  -0.88500 7.65900 34.20300
H  -0.66400 9.36100 34.27800
H  1.18700 1.61900 28.27000
H  1.90300 2.31200 29.69400
H  2.89600 1.74400 28.26600
H  1.38000 0.43300 24.85900
H  0.43800 0.70500 26.28600
H  2.16900 0.81900 26.40300
H  0.11400 7.13700 22.94000
H  1.59900 9.78900 22.97700
H  1.82100 7.04800 21.34700
H  2.86500 6.72100 22.72600
H  2.81600 8.37000 22.15300
H  -1.10700 10.17000 23.82500
H  -1.05600 9.12900 22.46800
H  -0.83400 10.80300 21.27900
H  0.57400 11.41900 21.97000
H  -1.01700 11.99700 22.59200
H  3.02300 13.82900 26.12800
H  1.88200 14.26500 27.46100
H  1.22100 13.41000 26.09000
H  1.52300 11.56500 31.85200
H  4.53300 12.51700 34.91800
H  5.40800 12.02700 33.60500
H  4.77400 10.73500 34.70800
Mg 26.86200 50.38100 26.73900
C  25.08000 51.85100 29.29800
C  28.97900 49.03500 28.94700
C  28.50200 48.97900 24.11800
C  24.51900 51.83300 24.48400
N  26.94200 50.33400 28.79900
C  26.05500 50.93800 29.69300
C  26.39100 50.66000 31.22600
C  27.80500 49.97000 31.01800
C  27.90000 49.75100 29.50000
C  29.07500 50.65200 31.73600
C  25.30600 49.64500 31.83100
C  24.73100 49.86200 33.30600
H  25.40600 50.78300 34.24400
N  28.70200 49.31900 26.58000
C  29.36000 48.78500 27.60700
C  30.49200 48.05400 27.10900
C  30.34600 47.91400 25.73200
C  29.12900 48.70300 25.42200
C  31.47200 47.45000 28.11700
C  31.26500 47.25300 24.72400
O  31.29000 47.51200 23.58400
C  32.29300 46.30700 25.28800
N  26.74400 50.65000 24.53100
C  27.46500 49.76200 23.73000
C  26.90100 49.78300 22.26600
C  25.55400 50.60100 22.45500
C  25.57900 51.06400 23.94200
C  27.85000 50.47200 21.30400
C  24.13500 49.91700 22.10900
C  23.06100 50.84400 21.45900
N  25.20100 51.65100 26.79200
C  24.29600 52.14600 25.79600
C  23.27600 52.93700 26.40100
C  23.57500 52.78700 27.77500
C  24.74200 52.10900 27.93600
C  22.22100 53.71300 25.71100
C  23.04000 53.21900 29.06500
O  22.01100 53.78300 29.34800
C  23.99100 52.53600 30.14500
C  24.56700 53.57000 31.09000
O  25.53000 54.26200 30.92500
O  23.68600 53.67600 32.15000
C  23.91600 54.87800 32.96900
H  29.56800 48.58600 29.75000
H  29.03200 48.46400 23.31300
H  23.71200 52.16900 23.82900
H  26.51200 51.60400 31.75700
H  27.79700 48.92700 31.33400
H  28.81600 51.65200 32.08600
H  29.99800 50.67500 31.15600
H  29.28300 50.01200 32.59300
H  25.71700 48.63600 31.87300
H  24.40600 49.62900 31.21700
H  24.52600 48.89300 33.76200
H  23.75100 50.29000 33.09700
H  32.50800 47.44000 27.77800
H  31.05700 46.46600 28.33300
H  31.50800 47.99100 29.06200
H  31.75600 45.58200 25.90000
H  33.11800 46.72500 25.86400
H  32.75800 45.79000 24.44800
H  26.74600 48.76100 21.91900
H  25.62200 51.49000 21.82900
H  27.47500 51.43100 20.94700
H  28.13700 49.81100 20.48700
H  28.74100 50.69100 21.89400
H  23.78000 49.58900 23.08600
H  24.27900 49.03500 21.48500
H  22.89900 50.60300 20.40800
H  23.34000 51.88400 21.63000
H  22.15700 50.55100 21.99300
H  21.36800 53.82600 26.38000
H  21.84200 53.34600 24.75700
H  22.62000 54.70200 25.48500
H  23.36200 51.89000 30.75800
H  24.56600 54.70400 33.82600
H  22.94300 55.19100 33.34800
H  24.30700 55.69700 32.36500

