158

Mg 8.92100 3.35100 27.86000
C  10.59900 1.86900 30.63000
C  6.96500 5.05800 29.94100
C  7.42900 4.51800 25.12700
C  10.62100 1.00000 25.79300
N  8.97500 3.56400 30.07000
C  9.73700 2.90300 30.97700
C  9.24900 3.25200 32.38800
C  7.93400 4.12200 32.16300
C  7.93600 4.22100 30.66500
C  6.66100 3.55200 32.83600
C  10.38900 4.02800 33.14400
C  10.89900 3.36400 34.38700
H  11.43400 4.38700 35.45400
N  7.42000 4.58600 27.62000
C  6.78600 5.29300 28.59400
C  5.94900 6.34900 28.01600
C  6.00600 6.17700 26.63500
C  6.98700 5.01900 26.40600
C  4.99400 7.22800 28.84700
C  5.21000 6.88700 25.53500
O  5.38800 6.66800 24.37100
C  4.15600 7.95400 25.96200
N  8.75300 2.48700 25.79000
C  8.19700 3.33900 24.84700
C  8.45600 2.81200 23.41600
C  9.64900 1.85900 23.61100
C  9.67600 1.76900 25.15800
C  7.25000 2.06400 22.83600
C  10.98300 2.32900 23.06900
C  11.40800 1.52300 21.80100
N  10.34800 1.81800 28.12200
C  10.84700 0.91900 27.23000
C  11.75600 -0.08300 27.84800
C  11.69800 0.25200 29.20000
C  10.85900 1.42900 29.34500
C  12.55300 -1.15900 27.20800
C  12.14300 -0.02800 30.48600
O  12.85300 -0.91500 30.91300
C  11.51500 1.01200 31.47400
C  10.70200 0.26700 32.47300
O  9.59700 -0.13100 32.40200
O  11.49200 0.20500 33.58900
C  10.88800 -0.27900 34.81100
H  6.43200 5.72100 30.62600
H  6.97500 5.07800 24.30700
H  11.20500 0.31500 25.17500
H  9.02600 2.30200 32.87400
H  8.01100 5.15800 32.49300
H  6.12400 4.32300 33.38800
H  6.89400 2.77100 33.56000
H  5.94000 3.33300 32.04800
H  9.97100 4.95400 33.53900
H  11.13800 4.33500 32.41400
H  11.76700 2.76900 34.10200
H  10.08400 2.81300 34.85700
H  4.06500 6.66600 28.75400
H  4.89900 8.28800 28.61300
H  5.35500 7.40200 29.86100
H  3.90700 8.64700 25.15800
H  4.54400 8.62000 26.73300
H  3.32500 7.45200 26.45700
H  8.58800 3.71500 22.82100
H  9.34600 0.97200 23.05400
H  6.35500 2.35900 23.38400
H  7.39100 0.98600 22.76100
H  7.12300 2.48700 21.83900
H  11.76300 2.25900 23.82700
H  10.95300 3.35500 22.70200
H  10.63300 1.00700 21.23400
H  12.11000 0.78800 22.19300
H  12.04500 2.08100 21.11400
H  13.31900 -0.88800 26.48200
H  11.84100 -1.90400 26.85100
H  13.12000 -1.61400 28.02100
H  12.19700 1.72000 31.94500
H  9.86900 -0.63400 34.65700
H  10.75000 0.56800 35.48400
H  11.61200 -0.93700 35.29100
Mg 36.13200 49.89200 24.89800
C  36.56600 48.09800 27.83800
C  34.51300 52.28500 26.79400
C  35.37100 51.51600 22.03400
C  37.30100 47.13700 23.13900
N  35.64900 50.10500 27.08300
C  36.09400 49.36000 28.09000
C  35.71900 49.91900 29.50800
C  34.98100 51.27300 29.10500
C  35.04200 51.27700 27.53200
C  33.61600 51.48400 29.74100
C  36.98100 50.22200 30.46500
C  36.88300 49.77300 31.93600
H  35.62000 50.11700 32.75200
N  35.31200 51.72500 24.48200
C  34.61900 52.54100 25.40600
C  34.18700 53.77100 24.76000
C  34.42000 53.61000 23.35700
C  35.06100 52.18800 23.23700
C  33.72900 54.91500 25.52300
C  34.26600 54.53100 22.14400
O  34.62700 54.23500 21.02700
C  33.54800 55.84400 22.43400
N  36.27100 49.35900 22.88500
C  35.93400 50.23200 21.84600
C  36.07100 49.55500 20.47300
C  36.97900 48.23700 20.81700
C  36.82200 48.20500 22.33600
C  34.76400 49.40400 19.72700
C  38.50700 48.28200 20.48200
C  39.31300 49.49000 20.99800
N  36.80200 47.94400 25.33600
C  37.22500 46.95400 24.51100
C  37.64000 45.80200 25.31800
C  37.37400 46.21100 26.65300
C  36.86900 47.55100 26.60800
C  37.95800 44.39000 24.74300
C  37.37000 45.79600 28.02000
O  37.72000 44.74700 28.54600
C  36.92300 46.96400 28.84000
C  35.78400 46.58600 29.64900
O  34.66000 46.31500 29.28900
O  36.27600 46.56000 30.97200
C  35.18000 46.25900 31.92500
H  33.95600 53.04500 27.34600
H  35.01500 51.89900 21.07600
H  37.86000 46.39400 22.56500
H  34.97000 49.28300 29.98100
H  35.56000 52.14700 29.40400
H  32.85600 51.82200 29.03700
H  33.82900 52.29900 30.43200
H  33.24900 50.59000 30.24600
H  37.23000 51.27700 30.34700
H  37.79100 49.68500 29.97200
H  37.68000 50.25200 32.50600
H  37.03600 48.69500 31.89600
H  33.46600 54.73300 26.56500
H  32.82100 55.34700 25.10100
H  34.56600 55.61200 25.54000
H  33.66400 56.45800 21.54100
H  33.91700 56.51800 23.20700
H  32.49900 55.54800 22.45400
H  36.67700 50.17500 19.81100
H  36.57700 47.29900 20.43300
H  33.98800 49.68900 20.43800
H  34.62700 48.36000 19.44500
H  34.64700 50.03900 18.84900
H  38.57000 48.36600 19.39700
H  39.12200 47.44800 20.82000
H  38.72600 50.08300 21.70000
H  39.42000 50.18700 20.16700
H  40.24800 49.22900 21.49400
H  38.97000 44.04500 24.95400
H  37.83900 44.40300 23.66000
H  37.22600 43.67600 25.11800
H  37.81200 47.32500 29.35800
H  34.91500 45.20400 31.85200
H  34.29100 46.83200 31.66200
H  35.46900 46.50900 32.94500

