158

Mg 47.00200 17.52400 28.50800
C  45.33800 16.81600 31.55100
C  49.59800 18.83900 30.31600
C  48.29400 18.32500 25.64800
C  44.25800 16.06600 26.82900
N  47.37900 17.91100 30.74200
C  46.56100 17.60000 31.76400
C  47.22300 17.96600 33.05700
C  48.42700 18.86000 32.56300
C  48.44800 18.54600 31.12000
C  48.35400 20.42200 32.78100
C  47.58100 16.77900 34.01400
C  47.27600 16.85000 35.52700
H  46.96700 18.13900 36.18300
N  48.82900 18.43800 28.06300
C  49.84200 18.75700 28.92100
C  50.99600 18.95300 28.14700
C  50.58700 19.02800 26.78700
C  49.17400 18.60200 26.75500
C  52.32600 19.24300 28.77300
C  51.44000 19.37300 25.54900
O  51.02700 19.28300 24.36100
C  52.83200 19.86400 25.73100
N  46.40500 17.20600 26.48000
C  47.10800 17.69500 25.45100
C  46.44600 17.38000 24.09000
C  45.18500 16.54700 24.46600
C  45.28100 16.53700 25.98800
C  46.17200 18.47300 23.06300
C  45.16400 15.09200 23.83100
C  44.69600 14.98400 22.37200
N  45.14600 16.72200 29.01500
C  44.18200 16.02900 28.21700
C  43.12600 15.48000 29.00400
C  43.54700 15.81700 30.31100
C  44.81300 16.48600 30.27200
C  42.02800 14.58100 28.60900
C  43.25800 15.59200 31.77000
O  42.29800 14.95300 32.32300
C  44.37100 16.35400 32.57200
C  43.66900 17.45400 33.33800
O  43.68100 18.64700 33.06600
O  43.16300 16.94600 34.50000
C  42.66400 17.99600 35.45300
H  50.43300 19.25100 30.88600
H  48.76400 18.63600 24.71300
H  43.45800 15.74400 26.15900
H  46.48900 18.58900 33.56800
H  49.29800 18.42000 33.04800
H  47.92300 20.87300 31.88700
H  49.33400 20.75100 33.12700
H  47.63900 20.49900 33.60000
H  48.64500 16.58400 33.87800
H  47.01200 15.93600 33.62200
H  48.14900 16.37100 35.97000
H  46.45100 16.20200 35.82100
H  52.20700 19.11300 29.84900
H  52.58600 20.29200 28.62900
H  53.07400 18.52400 28.43900
H  52.86000 20.77500 26.32800
H  53.13800 20.28700 24.77400
H  53.57200 19.10100 25.97500
H  47.12800 16.71800 23.55900
H  44.24100 16.97000 24.12300
H  46.40100 17.95600 22.13100
H  46.74900 19.38000 23.24400
H  45.09800 18.65700 23.07500
H  44.63100 14.37500 24.45600
H  46.13400 14.64100 24.03800
H  45.45900 14.43400 21.82000
H  44.59900 15.98900 21.96200
H  43.70900 14.55700 22.19500
H  41.92300 13.82200 29.38400
H  42.32300 14.22700 27.62100
H  41.11700 15.17500 28.54100
H  44.83100 15.78700 33.38100
H  42.54200 17.48500 36.40800
H  41.80100 18.58900 35.15200
H  43.45100 18.73200 35.61900
Mg 9.53000 47.52100 25.49400
C  7.34900 47.77300 28.22400
C  12.01600 48.83100 27.45000
C  11.63200 47.40700 22.84600
C  6.80600 46.79200 23.40900
N  9.57200 48.25100 27.60400
C  8.65200 48.16300 28.60000
C  9.21000 48.79700 29.88100
C  10.65700 49.39400 29.51200
C  10.77300 48.77200 28.09000
C  10.68500 50.95300 29.63100
C  9.40100 47.67300 31.02700
C  8.60300 47.87100 32.33400
H  8.84700 46.76700 33.47200
N  11.58200 47.90900 25.25600
C  12.41300 48.47700 26.16100
C  13.80800 48.45200 25.60500
C  13.69700 48.00300 24.22900
C  12.26800 47.69400 24.08000
C  15.02800 48.98800 26.35500
C  14.79000 47.66200 23.23000
O  14.56600 47.21300 22.12400
C  16.23700 47.80800 23.71800
N  9.16800 47.40500 23.33500
C  10.25100 47.20800 22.56200
C  9.78400 46.82700 21.16400
C  8.27300 46.52900 21.30300
C  8.06800 46.84700 22.77900
C  10.27000 47.67200 19.94100
C  7.90200 45.03700 20.90500
C  8.10100 43.84100 21.87900
N  7.47500 47.33300 25.69200
C  6.51300 47.02000 24.78100
C  5.23000 46.93900 25.48300
C  5.56700 47.14300 26.85300
C  6.93800 47.46400 26.93700
C  3.86300 46.79500 24.93400
C  5.00400 47.11100 28.13400
O  3.86900 46.77800 28.49700
C  6.14000 47.58100 29.12100
C  6.20600 46.50400 30.14600
O  6.95300 45.56400 30.10000
O  5.24600 46.73200 31.14500
C  4.86800 45.51800 31.88700
H  12.72400 49.43700 28.02000
H  12.34900 47.37000 22.02300
H  5.97900 46.45400 22.78100
H  8.54200 49.55400 30.29000
H  11.49700 49.06300 30.12200
H  9.91800 51.39900 30.26400
H  10.45000 51.26500 28.61300
H  11.64900 51.37000 29.92300
H  10.42800 47.64000 31.39000
H  9.14300 46.72500 30.55600
H  7.54100 47.71500 32.14400
H  8.71000 48.90500 32.66300
H  14.68600 49.15400 27.37700
H  15.36600 49.92100 25.90300
H  15.81800 48.23800 26.35500
H  16.99400 47.79300 22.93400
H  16.29900 46.99500 24.44200
H  16.48700 48.70900 24.27900
H  10.15700 45.80600 21.08200
H  7.65700 47.23700 20.74800
H  9.42800 48.18600 19.47800
H  10.70100 46.98400 19.21300
H  11.02800 48.35400 20.32800
H  8.29700 44.87900 19.90200
H  6.83100 45.07300 20.70600
H  8.50500 44.25100 22.80400
H  8.73400 43.05500 21.46600
H  7.07800 43.46600 21.91300
H  3.75400 47.25100 23.95000
H  3.13100 47.02900 25.70700
H  3.60200 45.74300 24.82300
H  5.85400 48.55600 29.51400
H  3.78300 45.42000 31.84800
H  5.22300 45.86100 32.85900
H  5.35800 44.56800 31.67600

