158

Mg 34.91400 2.95600 29.50700
C  33.02800 4.23900 32.18300
C  37.52500 2.59200 31.55400
C  36.79900 2.14900 26.75600
C  32.12700 3.60600 27.42800
N  35.32400 3.51200 31.60000
C  34.40600 3.94300 32.50000
C  34.99700 3.95600 33.90700
C  36.50900 3.75000 33.64100
C  36.51400 3.28900 32.16500
C  37.37000 4.96600 34.02000
C  34.34600 2.92100 34.82400
C  34.11000 3.28100 36.34300
H  34.69500 4.62700 36.98400
N  36.86300 2.37100 29.21800
C  37.70500 2.16800 30.25800
C  38.79000 1.34900 29.72100
C  38.58800 1.15200 28.31300
C  37.36800 1.94100 28.04600
C  39.89700 0.73700 30.67700
C  39.39000 0.42200 27.30000
O  38.99800 0.32100 26.19500
C  40.58900 -0.27500 27.58700
N  34.56700 2.89400 27.45900
C  35.46100 2.57100 26.50700
C  34.89900 2.83200 25.11000
C  33.44100 3.01000 25.33200
C  33.36200 3.12500 26.86800
C  35.70200 3.98600 24.30700
C  32.54200 1.88600 24.74400
C  32.53000 0.56100 25.56700
N  32.90900 3.65700 29.69700
C  31.92500 3.85700 28.81500
C  30.68600 4.28500 29.54300
C  31.13300 4.46200 30.87100
C  32.42900 4.05200 30.86500
C  29.29600 4.51400 28.93300
C  30.72500 4.84400 32.22300
O  29.59500 5.01400 32.66700
C  31.93700 4.70600 33.12800
C  32.20500 6.00800 33.82200
O  33.05100 6.81600 33.36100
O  31.39500 6.22700 34.92800
C  31.47300 7.62800 35.46000
H  38.43800 2.47100 32.14100
H  37.35100 1.84700 25.86300
H  31.32400 3.92500 26.76000
H  34.86300 4.99800 34.20000
H  36.92300 2.90600 34.19300
H  37.72000 5.44900 33.10800
H  38.22100 4.70700 34.65000
H  36.66500 5.69600 34.41800
H  34.96000 2.02300 34.89400
H  33.43900 2.50500 34.38500
H  34.54300 2.47100 36.92900
H  33.03400 3.24000 36.51700
H  39.78500 -0.34600 30.71800
H  39.89600 1.19100 31.66800
H  40.82000 0.98100 30.15100
H  41.12500 -0.32900 26.64000
H  40.36200 -1.27900 27.94600
H  41.11800 0.36700 28.29200
H  35.08600 1.92100 24.54200
H  33.09700 3.96900 24.94500
H  36.65700 4.23500 24.76900
H  35.16600 4.93000 24.20800
H  35.81500 3.53700 23.32000
H  32.80300 1.84300 23.68600
H  31.51400 2.24600 24.72100
H  33.36200 0.58300 26.27000
H  32.65900 -0.23900 24.83800
H  31.55400 0.54400 26.05300
H  28.56000 4.60600 29.73100
H  29.21600 3.54900 28.43300
H  29.34600 5.23900 28.12100
H  31.77400 4.02600 33.96400
H  32.37000 7.75600 36.06700
H  30.58400 7.90500 36.02500
H  31.45600 8.30800 34.60800
Mg -11.37400 38.39000 41.96700
C  -9.17700 35.69400 41.25400
C  -9.07100 40.49000 40.28000
C  -13.60600 40.77500 42.24500
C  -13.58000 36.07500 43.37000
N  -9.46900 38.08100 40.69900
C  -8.79500 36.89100 40.56700
C  -7.56600 37.05300 39.63900
C  -7.49600 38.60100 39.36900
C  -8.66600 39.12900 40.23000
C  -6.14900 39.28900 39.52500
C  -7.73800 36.14800 38.33400
C  -6.53600 35.29600 38.02700
H  -5.41200 35.91400 37.11000
N  -11.33500 40.42400 41.41700
C  -10.32900 41.07300 40.72800
C  -10.70700 42.46000 40.63900
C  -11.95300 42.62800 41.27600
C  -12.35400 41.24900 41.68300
C  -9.77300 43.51900 40.18100
C  -12.67800 43.90200 41.47000
O  -12.09200 44.88600 41.06200
C  -14.12400 44.06200 42.14200
N  -13.38200 38.33000 42.57100
C  -14.04800 39.54100 42.67600
C  -15.47400 39.38200 43.24100
C  -15.40900 37.90000 43.67200
C  -14.06700 37.35900 43.11900
C  -15.93900 40.46300 44.37000
C  -16.69400 37.13700 43.33500
C  -17.21800 36.21400 44.43700
N  -11.44000 36.28200 42.25600
C  -12.33800 35.51900 42.98300
C  -11.82200 34.17300 43.24500
C  -10.55300 34.28800 42.58300
C  -10.38600 35.50900 41.91700
C  -12.49300 33.12200 44.12500
C  -9.34600 33.45900 42.36800
O  -9.06900 32.28400 42.53900
C  -8.40600 34.41500 41.39500
C  -7.01700 34.67300 41.88800
O  -6.02100 34.12800 41.44000
O  -6.98500 35.70400 42.79100
C  -5.71000 36.08300 43.30200
H  -8.39600 41.18100 39.77100
H  -14.38700 41.53900 42.26100
H  -14.35200 35.50000 43.88500
H  -6.64600 36.78700 40.16000
H  -7.66500 38.79300 38.31000
H  -6.31700 40.05800 40.27800
H  -5.83000 39.71900 38.57500
H  -5.39000 38.59200 39.88000
H  -7.86900 36.88800 37.54500
H  -8.58100 35.45900 38.38300
H  -6.88300 34.33500 37.64700
H  -5.95100 35.09600 38.92400
H  -9.76600 43.72300 39.11100
H  -8.79100 43.13500 40.45900
H  -9.77800 44.43200 40.77600
H  -14.20400 43.60000 43.12600
H  -14.85500 43.61700 41.46700
H  -14.31700 45.13300 42.20600
H  -16.14100 39.54500 42.39400
H  -15.40100 37.91000 44.76200
H  -15.32500 41.36200 44.33200
H  -15.77200 39.92100 45.30000
H  -16.98200 40.77700 44.43100
H  -16.58800 36.51300 42.44800
H  -17.45100 37.86800 43.05200
H  -18.18700 36.59700 44.75600
H  -16.43000 35.95600 45.14500
H  -17.52400 35.26300 44.00200
H  -12.97500 32.40800 43.45800
H  -13.24600 33.43700 44.84700
H  -11.73700 32.45200 44.53400
H  -8.32100 33.95400 40.41100
H  -5.44500 37.10100 43.01700
H  -4.85600 35.49200 42.97300
H  -5.81400 36.01800 44.38600

