158

Mg 49.24300 35.31900 28.48700
C  47.00500 33.80900 30.67900
C  49.30700 38.05900 30.52900
C  51.19700 36.76200 26.17100
C  48.47400 32.86500 26.03300
N  48.35100 35.85500 30.46800
C  47.54800 34.97900 31.18100
C  47.31300 35.58500 32.62000
C  47.86900 37.07400 32.45400
C  48.55300 36.96700 31.06400
C  46.82300 38.20400 32.47900
C  48.06400 34.60800 33.66500
C  49.55900 34.93600 34.05700
H  49.95900 35.64300 35.38600
N  50.18900 37.12900 28.46100
C  50.03800 38.18100 29.33000
C  50.95900 39.25400 28.93300
C  51.64800 38.82700 27.76900
C  50.99300 37.50700 27.40500
C  51.19600 40.49900 29.81600
C  52.75600 39.47500 26.94900
O  53.21400 38.91400 25.96800
C  53.43000 40.78500 27.45200
N  49.76800 34.89000 26.42000
C  50.67100 35.58100 25.65400
C  51.08500 34.84500 24.40100
C  49.96700 33.80900 24.30000
C  49.30400 33.82100 25.67700
C  51.12200 35.86900 23.18900
C  50.57200 32.44700 23.77500
C  49.84800 31.81400 22.62300
N  48.03900 33.58000 28.39100
C  47.85300 32.69700 27.30200
C  46.99800 31.67100 27.79100
C  46.53900 32.10200 29.03400
C  47.23900 33.25300 29.41100
C  46.54800 30.38300 27.12100
C  45.59300 31.79000 30.12300
O  44.83700 30.83100 30.25000
C  45.90400 32.90600 31.26500
C  46.31000 32.16800 32.48800
O  46.87900 31.05000 32.55800
O  45.54600 32.66300 33.53000
C  45.79100 32.10200 34.87300
H  49.36900 38.90700 31.21400
H  51.83200 37.27200 25.44300
H  48.36400 32.04300 25.32200
H  46.23500 35.61500 32.77800
H  48.60300 37.29600 33.22900
H  47.25900 39.09300 32.93400
H  46.03800 37.83400 33.13900
H  46.44000 38.40200 31.47800
H  48.14000 33.55600 33.39100
H  47.47800 34.61600 34.58400
H  50.06600 35.67500 33.43700
H  50.23700 34.09100 33.93100
H  52.27300 40.66400 29.84500
H  50.98600 40.21400 30.84700
H  50.53700 41.32200 29.54100
H  52.74000 41.53500 27.83700
H  53.91100 41.22900 26.58000
H  54.28600 40.59700 28.10000
H  52.07300 34.47200 24.67100
H  49.17500 34.11500 23.61600
H  50.56700 36.80000 23.30300
H  50.65200 35.50900 22.27400
H  52.15100 36.16500 22.98700
H  50.64000 31.72400 24.58800
H  51.54900 32.73800 23.39100
H  48.81100 32.12400 22.50000
H  49.80400 30.74000 22.80300
H  50.42700 31.96000 21.71100
H  46.40900 30.59000 26.06000
H  45.63200 29.98900 27.56100
H  47.31800 29.61200 27.13500
H  45.02300 33.48200 31.54600
H  45.85100 32.93300 35.57500
H  46.73300 31.55300 34.84800
H  44.96600 31.45100 35.16100
Mg 36.19600 48.95300 26.18400
C  36.86700 46.66500 28.84900
C  34.54000 50.87600 28.37000
C  35.29800 50.86700 23.62500
C  37.34200 46.55300 23.99000
N  35.90000 48.81900 28.35400
C  36.40500 47.94400 29.21300
C  36.05900 48.33400 30.63200
C  35.18500 49.51200 30.42000
C  35.13600 49.72700 28.92700
C  33.67100 49.39300 30.90300
C  37.37900 48.70100 31.36200
C  37.27700 48.79000 32.92000
H  35.94500 48.76200 33.56600
N  35.26400 50.70200 26.02300
C  34.58300 51.37500 27.00700
C  34.10100 52.66800 26.52800
C  34.44300 52.72900 25.11000
C  35.00600 51.42800 24.85300
C  33.55500 53.78600 27.44800
C  34.18400 53.86000 24.06600
O  34.53900 53.80400 22.85700
C  33.47600 55.14800 24.45300
N  36.27300 48.71900 24.11800
C  35.86000 49.60500 23.23100
C  36.00700 49.23700 21.74200
C  36.68200 47.84500 21.87400
C  36.83300 47.73300 23.44000
C  34.63100 49.20200 20.97000
C  37.92700 47.63800 20.95300
C  39.41300 47.94400 21.51700
N  36.94900 46.92800 26.35800
C  37.40100 46.14800 25.35000
C  37.90100 44.86200 25.91400
C  37.71800 44.96200 27.36100
C  37.14100 46.26200 27.56200
C  38.51800 43.85100 25.00700
C  37.76300 44.31700 28.65000
O  38.20800 43.21800 29.04900
C  37.34000 45.51800 29.62600
C  36.23900 44.85000 30.45600
O  35.09300 44.73200 30.02100
O  36.72900 44.52400 31.72900
C  35.63500 44.24200 32.63000
H  33.87100 51.44200 29.02200
H  35.02500 51.48700 22.76800
H  37.71000 45.90000 23.19600
H  35.58900 47.54200 31.21600
H  35.60800 50.38600 30.91600
H  32.97100 49.79200 30.16900
H  33.58400 49.94400 31.83900
H  33.51900 48.32400 31.05000
H  37.73000 49.66500 30.99300
H  38.09400 47.95700 31.01200
H  37.94100 49.61000 33.19000
H  37.90100 47.92500 33.14300
H  33.90400 54.76400 27.11700
H  33.97500 53.59900 28.43700
H  32.49400 53.86500 27.68400
H  32.52700 54.75000 24.81400
H  33.23400 55.73700 23.56800
H  34.13300 55.57900 25.20800
H  36.65900 49.93100 21.21100
H  36.04100 47.00700 21.59900
H  34.66300 49.99900 20.22700
H  33.73400 49.49900 21.51300
H  34.43300 48.27700 20.42800
H  37.73100 48.10200 19.98600
H  38.04000 46.56500 20.79700
H  39.85100 48.57200 20.74100
H  39.95300 47.05800 21.85400
H  39.29700 48.62100 22.36300
H  38.93600 44.17800 24.05500
H  37.69000 43.18500 24.76300
H  39.29000 43.40100 25.63100
H  38.17700 45.82900 30.25200
H  35.07800 45.16200 32.81100
H  36.12700 43.86800 33.52800
H  35.03700 43.41400 32.24900

