158

Mg 47.27600 15.81100 28.08300
C  45.20700 15.75800 31.04400
C  49.53500 17.73700 29.71800
C  48.78700 16.34700 25.14100
C  44.57300 14.38800 26.38500
N  47.29100 16.66800 30.15800
C  46.47600 16.43100 31.18600
C  47.11200 16.97100 32.55400
C  48.43300 17.65300 32.04400
C  48.46900 17.27000 30.55800
C  48.54100 19.18400 32.22200
C  47.28100 15.79900 33.54500
C  46.95900 16.06200 35.01100
H  47.17300 17.52200 35.47300
N  49.03700 16.76100 27.51800
C  49.79700 17.55100 28.33000
C  50.94500 18.03000 27.61800
C  50.78200 17.63000 26.23800
C  49.47600 16.88900 26.27900
C  52.06800 18.78200 28.27400
C  51.62700 17.88300 25.01800
O  51.32500 17.41300 23.99700
C  52.90800 18.65200 25.12500
N  46.64600 15.67100 26.04900
C  47.54200 15.75900 25.04000
C  46.97600 15.23400 23.74600
C  45.79400 14.27000 24.24400
C  45.65100 14.85100 25.65400
C  46.52100 16.30100 22.66200
C  46.16300 12.74500 24.21100
C  45.79600 11.99700 22.90300
N  45.28500 15.30700 28.56300
C  44.34600 14.65100 27.73600
C  43.10500 14.40200 28.56200
C  43.45700 14.78500 29.89700
C  44.70400 15.40200 29.81500
C  41.82200 13.83800 28.04600
C  42.90400 14.90800 31.25500
O  41.76800 14.64300 31.63800
C  44.10900 15.43700 32.10100
C  43.66700 16.70700 32.74100
O  43.70500 17.82200 32.23900
O  43.33600 16.44200 34.05400
C  42.87600 17.57700 34.85700
H  50.10200 18.44500 30.32600
H  49.26500 16.37000 24.15900
H  43.86800 13.74400 25.85600
H  46.36000 17.69500 32.86800
H  49.33500 17.22500 32.48300
H  47.63600 19.42500 32.78000
H  48.47200 19.59800 31.21600
H  49.45500 19.49100 32.73200
H  48.34600 15.57600 33.60200
H  46.68500 14.95400 33.19900
H  47.59200 15.36500 35.56000
H  45.91200 15.76100 34.99800
H  51.95800 18.93800 29.34700
H  52.19500 19.75200 27.79200
H  52.98500 18.22600 28.07900
H  52.80900 19.39700 25.91400
H  53.05200 19.17800 24.18100
H  53.67800 17.94900 25.44100
H  47.69400 14.59000 23.23800
H  44.85300 14.42400 23.71700
H  46.62800 17.30500 23.07200
H  45.51500 16.17500 22.26200
H  47.23400 16.11900 21.85800
H  45.68500 12.31700 25.09300
H  47.24600 12.62800 24.22300
H  45.22700 11.15100 23.28900
H  46.59200 11.65900 22.24000
H  45.16900 12.57300 22.22200
H  41.47400 13.00800 28.66100
H  41.85800 13.47600 27.01800
H  41.05900 14.61200 28.13200
H  44.37800 14.63400 32.78800
H  41.82200 17.83000 34.75100
H  43.40400 18.52200 34.73000
H  43.10700 17.40700 35.90900
Mg 0.86600 43.18000 26.12600
C  2.75500 43.10600 29.08900
C  -1.67900 41.67000 27.79300
C  -0.49400 42.68000 23.11300
C  3.90800 44.27200 24.45600
N  0.54700 42.50300 28.22000
C  1.38100 42.73900 29.26000
C  0.57300 42.65000 30.61400
C  -0.79900 41.98300 30.26600
C  -0.62500 42.05200 28.69700
C  -1.08900 40.60100 30.89300
C  0.43400 44.03200 31.49400
C  1.17700 44.11100 32.78600
H  1.21400 42.92200 33.79100
N  -0.87100 42.50900 25.57000
C  -1.79300 41.87700 26.37500
C  -2.90900 41.45700 25.57800
C  -2.64900 41.83600 24.24500
C  -1.28000 42.33900 24.24600
C  -4.00800 40.58900 26.14400
C  -3.43100 41.55700 23.03400
O  -2.98900 41.70900 21.88600
C  -4.82900 40.96500 22.97100
N  1.53700 43.56400 24.09200
C  0.75100 43.21600 23.04700
C  1.54000 43.40000 21.79400
C  2.88900 44.14800 22.19200
C  2.78900 44.00600 23.70600
C  1.68600 42.05300 20.89400
C  3.11300 45.59800 21.75900
C  2.00900 46.61500 22.11900
N  2.92800 43.48600 26.66200
C  4.02800 43.94700 25.83800
C  5.19900 44.10600 26.62100
C  4.76300 43.78700 27.91700
C  3.34300 43.44600 27.89400
C  6.50400 44.59900 26.19800
C  5.21600 43.66300 29.26400
O  6.31400 43.73900 29.73900
C  3.91400 43.27000 30.09100
C  4.33300 42.10400 30.94800
O  4.10000 40.87400 30.73500
O  4.94300 42.64700 32.04100
C  5.59100 41.70800 33.00000
H  -2.45600 41.13300 28.34100
H  -0.90900 42.35900 22.15600
H  4.79900 44.57400 23.90200
H  1.00600 41.90200 31.27700
H  -1.57300 42.69300 30.55900
H  -1.86600 40.86000 31.61300
H  -0.25700 40.25700 31.50900
H  -1.42600 39.78700 30.25100
H  -0.58400 44.17500 31.85700
H  0.82100 44.90500 30.96800
H  0.89000 45.02500 33.30500
H  2.23800 44.12900 32.53400
H  -3.64000 39.57700 26.31500
H  -4.89400 40.52500 25.51200
H  -4.24700 40.88700 27.16500
H  -5.55300 41.53000 23.55700
H  -4.78500 39.96000 23.39000
H  -5.29100 40.91700 21.98500
H  0.95500 44.09100 21.18600
H  3.72400 43.50100 21.92200
H  2.67800 41.82700 20.50300
H  1.06200 42.22100 20.01600
H  1.26800 41.18800 21.40800
H  3.26900 45.57600 20.68100
H  4.03100 45.93200 22.24200
H  2.32500 47.51200 22.65200
H  1.28300 46.15200 22.78700
H  1.58500 46.92400 21.16300
H  7.22700 43.78700 26.11800
H  6.94300 45.16100 27.02300
H  6.51500 45.17900 25.27600
H  3.70400 44.10800 30.75500
H  6.65900 41.90400 33.09800
H  5.58300 40.66200 32.69300
H  4.98700 41.80100 33.90300

