158

Mg 49.55500 45.74900 41.86800
C  46.20100 46.26300 41.11900
C  49.42000 42.75800 40.56300
C  52.96800 45.62100 42.32100
C  49.75800 49.22000 42.76900
N  48.09000 44.80000 40.67100
C  46.79500 45.15900 40.48500
C  45.97300 44.07300 39.72300
C  46.93900 42.84400 39.85200
C  48.20600 43.46300 40.48800
C  46.30000 41.70200 40.64600
C  45.59100 44.57100 38.31800
C  44.20100 44.25400 37.66400
H  44.13200 43.21000 36.64300
N  50.97700 44.35100 41.51000
C  50.70600 43.12300 40.99500
C  52.00900 42.31600 40.84000
C  53.05600 43.07000 41.47100
C  52.38600 44.41700 41.86100
C  52.13400 41.04300 40.14900
C  54.46600 42.61600 41.61100
O  54.80300 41.48200 41.21900
C  55.52000 43.48300 42.23500
N  51.14100 47.28600 42.36400
C  52.44000 46.89000 42.58200
C  53.29600 48.06800 43.05800
C  52.27900 49.28900 42.99900
C  50.97300 48.58100 42.67100
C  54.01500 47.95000 44.44200
C  52.61600 50.49600 42.16400
C  51.92400 51.88900 42.61400
N  48.29500 47.39700 42.02400
C  48.48800 48.72200 42.53700
C  47.18400 49.31200 42.66000
C  46.27300 48.37900 42.21800
C  46.98100 47.23500 41.76800
C  46.87300 50.71300 43.12000
C  44.84600 48.05300 42.01100
O  43.87100 48.62900 42.50000
C  44.76200 46.76300 41.18000
C  43.76000 45.76700 41.79600
O  42.86200 45.17800 41.16600
O  43.88900 45.78500 43.20200
C  42.88200 44.91600 43.81200
H  49.20700 41.76300 40.16600
H  54.05700 45.66000 42.39000
H  49.65800 50.25200 43.11100
H  45.07400 43.94300 40.32600
H  47.19900 42.50800 38.84800
H  46.41100 41.69500 41.73100
H  46.62500 40.74800 40.23100
H  45.21300 41.77700 40.65300
H  46.29700 44.20100 37.57400
H  45.78700 45.64200 38.26300
H  43.68400 45.18600 37.43700
H  43.62800 43.85100 38.49900
H  52.90600 40.99700 39.38000
H  51.20100 40.75300 39.66500
H  52.36800 40.25400 40.86300
H  55.12800 43.95500 43.13600
H  55.93800 44.18500 41.51300
H  56.29100 42.77200 42.53100
H  54.10400 48.16000 42.33300
H  52.10200 49.61700 44.02400
H  53.76600 48.82800 45.03700
H  55.09400 47.84000 44.33300
H  53.74900 47.01100 44.92800
H  52.29800 50.23500 41.15500
H  53.68400 50.71100 42.11700
H  52.70600 52.64700 42.65700
H  51.53500 51.76200 43.62400
H  51.13800 52.21200 41.93200
H  47.17400 51.54600 42.48400
H  47.41400 50.81500 44.06100
H  45.80300 50.68200 43.32400
H  44.31900 47.13300 40.25500
H  42.99800 43.93300 43.35500
H  41.88300 45.27200 43.56000
H  43.14600 44.85000 44.86700
Mg -9.84000 17.47600 40.77100
C  -6.39200 17.04800 41.02200
C  -9.30200 20.96600 40.38700
C  -13.01100 17.67700 39.89600
C  -10.15900 13.84800 40.74200
N  -8.10300 18.82300 40.62900
C  -6.75800 18.42900 40.75600
C  -5.79400 19.61200 40.64400
C  -6.80800 20.75100 41.01000
C  -8.18500 20.19200 40.64400
C  -6.74600 21.33700 42.37900
C  -5.12200 19.86400 39.19000
C  -3.67200 19.44600 39.10800
H  -3.04600 18.42300 38.17800
N  -10.98900 19.08900 40.10800
C  -10.58300 20.43100 40.00700
C  -11.77700 21.18200 39.69600
C  -12.83600 20.30800 39.66800
C  -12.30200 18.95800 39.94300
C  -11.59100 22.63800 39.26400
C  -14.23400 20.73600 39.45900
O  -14.58200 21.91800 39.19900
C  -15.35100 19.67500 39.54700
N  -11.35100 15.90900 40.50400
C  -12.60700 16.33700 40.15300
C  -13.60200 15.14900 40.25500
C  -12.66800 13.88400 40.18100
C  -11.30900 14.55900 40.54200
C  -14.63600 15.29100 41.37200
C  -12.72800 13.18500 38.79100
C  -12.46600 11.62100 38.82200
N  -8.61400 15.79500 40.84300
C  -8.84100 14.41800 40.93200
C  -7.63400 13.68000 41.03300
C  -6.64900 14.68700 41.10900
C  -7.27700 15.97300 40.93900
C  -7.44200 12.19900 40.95300
C  -5.19800 14.89400 41.30200
O  -4.32100 14.09800 41.54200
C  -4.99600 16.47200 41.25000
C  -4.42900 17.02700 42.46800
O  -3.24100 17.37300 42.52900
O  -5.36600 17.12100 43.46200
C  -4.98800 18.11100 44.54300
H  -9.09500 22.03800 40.34600
H  -14.03200 17.54800 39.53000
H  -10.19000 12.75800 40.70100
H  -5.09800 19.52300 41.47700
H  -6.61900 21.64400 40.41500
H  -7.70500 21.48900 42.87600
H  -6.18900 22.27200 42.31100
H  -6.16700 20.73300 43.07700
H  -5.40100 20.86800 38.87100
H  -5.79600 19.32400 38.52500
H  -3.40800 19.17500 40.13100
H  -3.14000 20.37400 38.90100
H  -12.21700 22.78300 38.38400
H  -10.51500 22.57900 39.10100
H  -11.72700 23.51900 39.89200
H  -15.33500 18.90800 38.77300
H  -16.15700 20.39300 39.39000
H  -15.30400 19.27100 40.55800
H  -14.07900 15.21300 39.27700
H  -12.90200 13.20700 41.00200
H  -14.34700 14.54600 42.11400
H  -15.57900 14.91700 40.97300
H  -14.75600 16.33300 41.66700
H  -12.02300 13.70900 38.14500
H  -13.72100 13.13900 38.34400
H  -11.68200 11.51400 38.07200
H  -13.31300 11.01200 38.50600
H  -12.15100 11.37600 39.83600
H  -8.11400 11.73100 41.67200
H  -6.40500 11.91900 41.14000
H  -7.60200 11.86700 39.92700
H  -4.48000 16.59700 40.29800
H  -5.71200 18.92600 44.55600
H  -4.03500 18.63000 44.44800
H  -5.13000 17.67000 45.53000

