158

Mg 1.73900 -1.58300 42.81100
C  5.30700 -0.92200 42.53100
C  1.25100 1.10100 40.85600
C  -1.38100 -2.65500 42.40700
C  2.62000 -4.77100 43.89700
N  3.12600 -0.04600 41.79500
C  4.56400 0.06600 41.85900
C  4.99400 1.36300 41.20200
C  3.66900 2.06500 40.67700
C  2.62300 1.00100 41.14000
C  3.43500 3.48900 41.15600
C  6.11800 1.15900 40.14800
C  6.18500 -0.06800 39.20400
H  5.54500 -0.00700 37.80500
N  0.12400 -0.79800 41.98200
C  0.12000 0.35400 41.22200
C  -1.22900 0.62700 40.74200
C  -2.05200 -0.37300 41.40700
C  -1.11800 -1.32300 41.95600
C  -1.57100 1.84200 39.93700
C  -3.56400 -0.37300 41.39000
O  -4.16000 0.58400 40.93800
C  -4.43600 -1.37900 41.91900
N  0.73200 -3.47600 43.14400
C  -0.56700 -3.63300 42.96300
C  -1.07600 -4.93400 43.43400
C  0.16100 -5.60300 43.99200
C  1.29000 -4.55300 43.66000
C  -2.40800 -4.89000 44.31000
C  0.45000 -6.96700 43.40900
C  0.46600 -8.11100 44.47100
N  3.53800 -2.62000 43.28400
C  3.69400 -3.91500 43.68700
C  5.09300 -4.23200 43.97300
C  5.78700 -3.01500 43.53000
C  4.74400 -2.14500 43.03100
C  5.76100 -5.58600 44.35000
C  7.12100 -2.45100 43.26900
O  8.20500 -2.90900 43.32000
C  6.82900 -1.04900 42.61500
C  7.49900 0.01600 43.36500
O  8.23600 0.88000 42.84500
O  7.13100 -0.04000 44.66700
C  7.84200 0.95000 45.53300
H  1.09100 1.96400 40.20700
H  -2.43900 -2.91900 42.35100
H  2.83400 -5.76400 44.29700
H  5.49800 1.96600 41.95700
H  3.63100 2.02100 39.58900
H  3.46300 4.07400 40.23600
H  4.23300 3.80700 41.82700
H  2.47300 3.43300 41.66400
H  7.10100 1.33800 40.58300
H  5.93900 1.90500 39.37400
H  5.82800 -0.97900 39.68500
H  7.23300 -0.22500 38.94600
H  -2.44800 1.55300 39.35700
H  -0.85700 2.10400 39.15500
H  -1.72500 2.69400 40.59900
H  -5.44600 -1.02300 42.12200
H  -3.99300 -1.35400 42.91500
H  -4.51900 -2.28600 41.32100
H  -1.21300 -5.43600 42.47700
H  0.06100 -5.83100 45.05300
H  -3.21300 -5.53100 43.95100
H  -2.73700 -3.85100 44.31500
H  -2.17600 -5.13200 45.34700
H  1.44900 -6.94700 42.97400
H  -0.23300 -7.27500 42.61600
H  -0.12400 -8.95000 44.10200
H  0.17400 -7.85100 45.48900
H  1.52000 -8.38700 44.51000
H  6.33100 -5.38700 45.25800
H  6.33200 -5.85400 43.46100
H  4.98100 -6.25300 44.71700
H  7.31800 -1.03500 41.64100
H  7.79100 0.56700 46.55200
H  7.36500 1.92000 45.39300
H  8.91900 0.86000 45.39200
Mg 48.17400 35.13300 27.56800
C  46.22400 33.27900 29.82900
C  48.54400 37.50200 29.99900
C  49.71700 36.95600 25.21800
C  47.00600 32.94500 25.01600
N  47.48700 35.28900 29.61400
C  46.82200 34.36300 30.36300
C  46.94600 34.59700 31.83100
C  47.31900 36.14500 31.89800
C  47.85600 36.35700 30.40400
C  46.12100 37.13300 32.30000
C  48.06900 33.66500 32.35100
C  48.07800 33.38400 33.85000
H  47.20300 34.29900 34.79900
N  49.08800 36.95500 27.64800
C  49.17700 37.76600 28.75200
C  50.20400 38.76900 28.46000
C  50.63000 38.66000 27.10300
C  49.90200 37.44500 26.62700
C  50.67600 39.82600 29.55900
C  51.57600 39.46300 26.26500
O  51.79100 39.07300 25.09500
C  52.21100 40.66800 26.83800
N  48.24700 35.03500 25.36300
C  49.05200 35.90600 24.70600
C  48.96400 35.61500 23.21900
C  48.41900 34.10700 23.13000
C  47.83100 33.99400 24.59000
C  48.01800 36.58700 22.42700
C  49.39200 32.94300 22.75800
C  50.45400 32.43000 23.64000
N  46.99900 33.42700 27.36400
C  46.57800 32.65300 26.30200
C  45.56400 31.70400 26.67900
C  45.26300 31.99700 28.04700
C  46.24400 32.93800 28.43200
C  44.94500 30.65600 25.73500
C  44.43100 31.63400 29.26500
O  43.53400 30.83800 29.46600
C  45.13400 32.51600 30.48600
C  45.70200 31.34700 31.33700
O  46.45900 30.50000 30.84500
O  45.18200 31.35000 32.58000
C  45.74200 30.39000 33.51600
H  48.79500 38.10900 30.87100
H  50.07800 37.56000 24.38300
H  46.64400 32.20000 24.30500
H  46.06400 34.39000 32.43700
H  48.20300 36.29800 32.51700
H  46.29900 37.68100 33.22500
H  45.14000 36.66400 32.37900
H  46.05200 37.87400 31.50400
H  49.07600 34.03300 32.15500
H  47.84600 32.73400 31.82900
H  49.09700 33.46600 34.22800
H  47.72700 32.36700 34.02600
H  51.66000 39.53400 29.92500
H  49.96800 39.91800 30.38200
H  50.83900 40.78200 29.06100
H  53.02100 40.39700 27.51400
H  51.46500 41.30200 27.31700
H  52.72200 41.32600 26.13500
H  49.94500 35.55500 22.74800
H  47.57500 33.87500 22.48100
H  47.33400 36.95100 23.19400
H  47.59000 36.14600 21.52700
H  48.61400 37.44400 22.11300
H  49.83200 33.21900 21.80100
H  48.90800 32.01700 22.44600
H  51.29500 32.09700 23.03300
H  50.12500 31.56000 24.20800
H  50.72800 33.15200 24.41000
H  44.20800 29.99200 26.18600
H  45.65800 29.95100 25.30600
H  44.44700 31.24600 24.96500
H  44.38900 33.06300 31.06400
H  46.75400 30.11900 33.21600
H  45.05200 29.55300 33.62100
H  45.77900 30.96600 34.44000

