158

Mg 44.02300 4.28600 46.65800
C  42.04900 7.27900 47.01400
C  41.15100 2.59400 46.14900
C  45.76600 1.65400 45.56100
C  46.93200 6.13000 46.55500
N  41.89400 4.97600 46.37400
C  41.28200 6.14900 46.72100
C  39.73400 6.09400 46.80300
C  39.54400 4.47300 46.81000
C  40.93600 3.97600 46.45700
C  39.09900 3.85000 48.18600
C  39.06100 6.88800 45.59200
C  39.92200 6.99800 44.26600
H  39.21900 6.87600 42.89100
N  43.46600 2.23100 46.16300
C  42.25600 1.72800 45.98400
C  42.25100 0.30400 45.62800
C  43.66900 0.04400 45.48000
C  44.40300 1.31600 45.67300
C  41.05000 -0.59900 45.48000
C  44.27600 -1.25200 45.06800
O  43.59900 -2.27800 44.94800
C  45.69100 -1.47000 44.94000
N  45.99500 3.95700 46.07300
C  46.44800 2.72400 45.85100
C  47.98800 2.62900 45.86800
C  48.38400 4.05200 46.17200
C  47.01000 4.76400 46.35500
C  48.54000 1.59500 46.90300
C  49.22700 4.71100 44.96500
C  50.73600 4.73500 44.94900
N  44.49600 6.26200 46.85200
C  45.72500 6.86800 46.76300
C  45.47900 8.31300 46.98900
C  44.05500 8.50100 47.14900
C  43.48800 7.21500 46.96500
C  46.48400 9.41200 46.81400
C  43.04800 9.46100 47.42200
O  43.11600 10.71200 47.58900
C  41.67900 8.70000 47.28900
C  40.92300 8.85800 48.59200
O  40.85700 8.00800 49.53200
O  40.15500 9.93300 48.55400
C  39.12400 9.87100 49.55400
H  40.23700 1.99700 46.14900
H  46.39100 0.87500 45.11900
H  47.82800 6.75500 46.53200
H  39.32900 6.50600 47.72800
H  38.85000 4.06300 46.07600
H  39.93300 3.37600 48.70300
H  38.34600 3.08500 47.99600
H  38.61000 4.63300 48.76500
H  38.80700 7.91700 45.84400
H  38.16300 6.29900 45.40500
H  40.61900 6.16600 44.36600
H  40.34000 7.98200 44.47700
H  40.75400 -0.88200 46.49100
H  41.33500 -1.31300 44.70800
H  40.19000 -0.10800 45.02400
H  46.33000 -1.22700 45.78900
H  46.04600 -0.91600 44.07000
H  45.95700 -2.50600 44.73000
H  48.34300 2.29700 44.89200
H  48.98100 4.15400 47.07800
H  49.41300 2.11100 47.30300
H  48.89700 0.65400 46.48500
H  47.85800 1.60200 47.75300
H  48.86400 5.71900 44.76700
H  48.94500 4.19000 44.05000
H  51.11400 3.88800 45.52200
H  51.13000 5.58300 45.50900
H  51.18600 4.71300 43.95600
H  46.06900 10.42000 46.81100
H  46.95100 9.35000 45.83100
H  47.22200 9.30400 47.60900
H  41.11000 9.16400 46.48400
H  38.39900 10.65500 49.33200
H  39.51400 9.89800 50.57100
H  38.51400 8.98000 49.41000
Mg 41.00500 8.56600 29.92000
C  42.92900 9.75500 32.53300
C  38.76000 7.36000 31.85500
C  39.40400 7.41200 26.99400
C  43.65600 9.74900 27.66900
N  41.00000 8.36000 32.02000
C  41.75700 9.04400 32.96800
C  41.07300 8.98600 34.30000
C  39.78100 8.11200 34.05900
C  39.82000 7.89100 32.57200
C  39.70300 6.77700 34.82300
C  40.66900 10.44900 34.75900
C  40.32400 10.62900 36.23200
H  41.12000 11.57800 37.07300
N  39.31600 7.47200 29.52500
C  38.49000 7.06800 30.55600
C  37.43000 6.27600 29.95700
C  37.64700 6.27500 28.49900
C  38.83900 7.03600 28.29500
C  36.40300 5.58200 30.80300
C  36.86200 5.54600 27.42300
O  36.93400 5.75200 26.18500
C  35.86000 4.50900 27.82300
N  41.49500 8.58100 27.71300
C  40.62700 8.13600 26.73000
C  41.03100 8.31900 25.31700
C  42.35700 9.08900 25.53900
C  42.50800 9.22900 27.09900
C  41.27800 6.99800 24.49700
C  42.44300 10.47800 24.81500
C  41.65500 11.65900 25.47700
N  43.03600 9.38200 30.04900
C  43.92300 9.90600 29.08700
C  45.03000 10.51500 29.81100
C  44.61900 10.49900 31.13600
C  43.43000 9.75100 31.27600
C  46.24000 11.02200 29.11500
C  44.96000 10.99500 32.48000
O  45.93800 11.57400 32.84200
C  43.78700 10.56900 33.45400
C  44.42400 9.69000 34.56200
O  45.16400 8.71800 34.43300
O  44.14600 10.24400 35.75400
C  44.37400 9.38800 36.88800
H  37.97400 6.94800 32.49100
H  38.91400 7.17900 26.04600
H  44.35800 10.21500 26.97500
H  41.71600 8.47700 35.01800
H  38.87700 8.67800 34.28300
H  38.92700 6.86000 35.58400
H  40.57200 6.57100 35.44800
H  39.70000 5.90600 34.16800
H  39.77700 10.78100 34.22800
H  41.52400 11.11200 34.62400
H  40.35500 9.66300 36.73600
H  39.30600 11.01600 36.28700
H  35.37800 5.78900 30.49500
H  36.53800 5.87300 31.84500
H  36.66000 4.52300 30.83000
H  34.97700 5.02900 28.19600
H  36.30000 3.92500 28.63100
H  35.62500 3.90800 26.94500
H  40.22100 8.82700 24.79400
H  43.18400 8.46900 25.19200
H  41.52100 6.18100 25.17600
H  41.99200 7.25000 23.71200
H  40.36500 6.78300 23.94200
H  42.09800 10.25700 23.80500
H  43.48900 10.77200 24.73000
H  42.28400 12.46000 25.86500
H  41.06800 11.30600 26.32500
H  41.04900 12.20100 24.75100
H  46.46900 10.46400 28.20700
H  47.00600 10.77800 29.85200
H  46.26300 12.05900 28.78100
H  43.34900 11.53500 33.70500
H  44.19300 8.32800 36.71100
H  43.76800 9.71000 37.73500
H  45.43300 9.53900 37.09700

