158

Mg 54.25100 23.20000 44.33100
C  51.98900 25.77400 43.43400
C  51.73700 20.85600 43.54700
C  56.59200 20.90400 44.40300
C  56.64200 25.72100 44.81100
N  52.08200 23.23100 43.47500
C  51.49900 24.44900 43.25300
C  50.10400 24.09800 42.60300
C  49.82100 22.60100 43.05100
C  51.26700 22.21200 43.37700
C  48.90500 22.31100 44.22800
C  50.09600 24.26400 41.05700
C  48.81300 24.88500 40.44400
H  48.31800 24.11300 39.14500
N  54.21500 21.20700 43.93500
C  53.07000 20.42200 43.73100
C  53.51000 19.01900 43.86100
C  54.91800 19.04100 44.04800
C  55.31800 20.44600 44.10600
C  52.60500 17.84600 43.56700
C  55.76400 17.81100 44.15400
O  55.22200 16.70400 44.05500
C  57.26700 17.81700 44.60800
N  56.43000 23.32900 44.28900
C  57.05000 22.21300 44.56400
C  58.53000 22.50600 44.72300
C  58.55200 24.05900 44.92000
C  57.17300 24.43500 44.65600
C  59.18700 21.71100 45.88500
C  59.64200 24.75900 44.03200
C  60.57800 25.71500 44.84900
N  54.36100 25.31200 44.28900
C  55.32200 26.20600 44.61600
C  54.82400 27.58700 44.55700
C  53.48500 27.47400 44.14700
C  53.28100 26.07300 43.91300
C  55.58000 28.79300 44.94100
C  52.27300 28.17300 43.84700
O  52.03400 29.37600 43.84900
C  51.27100 27.14500 43.22700
C  51.20400 27.55600 41.78300
O  52.14100 27.34500 40.99700
O  50.02300 28.12500 41.48700
C  49.74400 28.56200 40.13500
H  50.94000 20.12700 43.38300
H  57.50000 20.29700 44.42300
H  57.32800 26.48100 45.19100
H  49.36200 24.78400 43.01300
H  49.52400 21.95700 42.22300
H  48.31000 21.41800 44.03800
H  48.21400 23.15100 44.29800
H  49.49500 22.24900 45.14200
H  50.27400 23.30900 40.56200
H  50.96100 24.91300 40.91800
H  48.98900 25.91500 40.13600
H  47.98900 24.96700 41.15200
H  52.76600 16.88600 44.05700
H  52.68100 17.58600 42.51100
H  51.61000 18.18700 43.85300
H  57.81000 18.32300 43.80900
H  57.70200 16.82100 44.52200
H  57.36900 18.28000 45.58900
H  58.98500 22.22900 43.77200
H  58.71700 24.22900 45.98400
H  59.45900 20.71200 45.54500
H  58.40000 21.55000 46.62200
H  60.02000 22.21400 46.37600
H  59.13400 25.33800 43.26100
H  60.25800 23.93900 43.66400
H  60.41000 26.77700 44.66600
H  61.62000 25.44200 44.68200
H  60.39400 25.57900 45.91500
H  56.50100 28.99500 44.39500
H  55.70900 28.76100 46.02300
H  54.90100 29.62300 44.74700
H  50.28100 27.17700 43.68200
H  48.89400 28.02800 39.71000
H  50.59000 28.66400 39.45500
H  49.28700 29.55000 40.19000
Mg 35.79800 49.26300 25.91500
C  35.91300 47.37300 28.68900
C  34.93100 52.15200 27.83500
C  35.40600 51.16800 23.15300
C  36.62400 46.48200 23.98300
N  35.24700 49.61700 28.01200
C  35.51700 48.74200 29.00000
C  35.32100 49.28300 30.39100
C  34.77400 50.77700 30.06100
C  34.98100 50.91000 28.51000
C  33.34200 51.05700 30.46700
C  36.65200 49.24700 31.22700
C  36.72300 48.58600 32.56400
H  36.91600 49.58500 33.77900
N  35.36000 51.38600 25.57700
C  35.08900 52.35100 26.46200
C  35.01100 53.62100 25.84500
C  35.08700 53.40500 24.44900
C  35.24300 51.96800 24.33600
C  34.68400 54.93100 26.51900
C  35.08500 54.41200 23.26400
O  35.22900 54.02600 22.14300
C  34.84500 55.90500 23.47100
N  35.94800 48.86600 23.86800
C  35.63800 49.83400 22.95100
C  35.85700 49.16500 21.49800
C  36.41500 47.77800 21.81400
C  36.34000 47.71000 23.30600
C  34.54500 49.16500 20.62100
C  37.92000 47.61700 21.39300
C  38.20200 46.20200 20.67200
N  36.04900 47.25300 26.21000
C  36.42400 46.27600 25.37800
C  36.70900 45.11800 26.16400
C  36.43000 45.48800 27.46000
C  36.09100 46.78300 27.44800
C  37.21000 43.81700 25.76100
C  36.53700 44.99900 28.77000
O  36.93100 43.96900 29.28400
C  36.19900 46.20400 29.67500
C  35.05500 45.76100 30.56400
O  33.84100 45.73400 30.18300
O  35.49300 45.52400 31.89100
C  34.53600 45.17600 32.96400
H  34.90000 53.01900 28.49700
H  35.23300 51.67400 22.20100
H  36.91400 45.66700 23.31600
H  34.59000 48.78200 31.02600
H  35.31000 51.64000 30.45500
H  33.34300 51.48900 31.46800
H  32.71600 50.17000 30.36800
H  32.94900 51.87000 29.85600
H  36.94300 50.28200 31.41000
H  37.37700 48.84900 30.51700
H  37.46200 47.79700 32.42100
H  35.86000 47.93800 32.71600
H  33.88300 55.40900 25.95500
H  35.51400 55.63700 26.52600
H  34.25900 54.85300 27.52000
H  35.62700 56.41400 24.03500
H  33.87300 55.97800 23.95800
H  34.73900 56.48100 22.55100
H  36.59600 49.83200 21.05600
H  35.80700 47.01100 21.33500
H  33.80300 49.84700 21.03500
H  34.31600 48.15100 20.29400
H  34.82200 49.77400 19.76000
H  38.62000 47.75200 22.21800
H  38.20200 48.36500 20.65200
H  39.19400 45.90500 21.01100
H  38.25000 46.25700 19.58400
H  37.51600 45.43600 21.03300
H  38.02500 44.09800 25.09400
H  36.46800 43.24900 25.20000
H  37.77800 43.31600 26.54500
H  37.07900 46.45200 30.26800
H  33.48500 45.30000 32.70600
H  34.80700 45.80100 33.81500
H  34.76200 44.12000 33.11400

