158

Mg 17.08700 0.36300 27.25400
C  15.95400 2.30100 30.05100
C  18.77000 -1.62400 29.50100
C  18.75200 -0.84300 24.59000
C  15.50000 2.63400 25.15000
N  17.42700 0.44900 29.54300
C  16.73400 1.17400 30.48300
C  17.01100 0.75000 31.92200
C  17.86100 -0.56600 31.67800
C  18.04300 -0.63800 30.14700
C  19.25900 -0.51800 32.38600
C  15.79500 0.45400 32.84600
C  15.59800 1.22300 34.15500
H  16.84700 1.69200 34.94700
N  18.48200 -1.15900 27.08300
C  19.06500 -1.80800 28.12400
C  19.92100 -2.81500 27.56100
C  19.90900 -2.63700 26.11000
C  19.00800 -1.51800 25.86000
C  20.61700 -3.89400 28.41500
C  20.68100 -3.43700 25.07100
O  20.49700 -3.25100 23.87700
C  21.72400 -4.52900 25.44600
N  16.96500 0.72300 25.13300
C  17.77700 0.13900 24.27800
C  17.59200 0.78700 22.82500
C  16.43300 1.75500 22.99300
C  16.23700 1.68600 24.49700
C  18.93100 1.39800 22.30500
C  15.24800 1.49200 22.07900
C  15.62800 1.41700 20.64600
N  15.96000 2.04100 27.43000
C  15.35100 2.84600 26.56500
C  14.66600 3.85400 27.20600
C  14.92500 3.74800 28.57800
C  15.67400 2.57300 28.69500
C  13.76300 4.83500 26.55800
C  14.74500 4.47000 29.89800
O  14.23700 5.53100 30.26000
C  15.30900 3.47700 30.88200
C  16.38700 4.19000 31.64600
O  17.57600 4.24300 31.27000
O  15.85400 4.74200 32.80900
C  16.65100 5.49900 33.72200
H  19.21200 -2.25300 30.27700
H  19.13300 -1.29800 23.67300
H  14.98000 3.43000 24.61300
H  17.65900 1.57700 32.21100
H  17.41200 -1.50700 31.99700
H  19.40500 -1.33200 33.09500
H  19.31400 0.28000 33.12700
H  20.12600 -0.44500 31.72900
H  15.63500 -0.60600 33.04600
H  14.90200 0.74200 32.29300
H  14.94900 0.59100 34.76000
H  15.00200 2.11000 33.94000
H  20.58200 -4.90400 28.00600
H  20.11400 -4.10800 29.35800
H  21.62900 -3.60000 28.69300
H  22.15700 -4.82100 24.48900
H  21.28200 -5.31900 26.05300
H  22.41400 -3.89600 26.00500
H  17.30500 0.03300 22.09200
H  16.72800 2.77300 22.74100
H  18.77200 2.18400 21.56700
H  19.46500 0.61800 21.76200
H  19.60500 1.60900 23.13500
H  14.51500 2.28600 22.22500
H  14.82400 0.54100 22.40200
H  16.66300 1.25700 20.34500
H  15.22800 2.36300 20.28100
H  15.10500 0.57400 20.19400
H  12.95500 5.06200 27.25500
H  13.21600 4.38700 25.72900
H  14.30900 5.72600 26.24900
H  14.47800 3.32100 31.57000
H  16.42100 6.55500 33.57800
H  17.72200 5.30400 33.76700
H  16.12800 5.33900 34.66500
Mg -5.52300 25.87100 25.61800
C  -4.61200 27.27900 28.62500
C  -7.16800 23.47200 27.40300
C  -5.76400 24.21200 22.78800
C  -3.16000 28.13500 24.19900
N  -5.75800 25.36000 27.79000
C  -5.38300 26.12700 28.80800
C  -5.78700 25.57700 30.23400
C  -6.44900 24.22300 29.79300
C  -6.43300 24.30300 28.26000
C  -5.69500 22.92200 30.28200
C  -6.77300 26.51400 31.13600
C  -6.80300 26.17800 32.69000
H  -5.90400 24.98900 33.29200
N  -6.53300 24.20600 25.16300
C  -7.22800 23.38800 25.94900
C  -7.92400 22.43400 25.18500
C  -7.55500 22.61200 23.85000
C  -6.60000 23.75600 23.86000
C  -8.89600 21.50100 25.73000
C  -8.02200 21.85100 22.59100
O  -7.54800 22.20000 21.50900
C  -9.14900 20.81200 22.69000
N  -4.64300 26.22000 23.76300
C  -4.88300 25.37400 22.70500
C  -3.95100 25.70200 21.49200
C  -3.55800 27.18200 21.89700
C  -3.69100 27.12200 23.42000
C  -2.72300 24.73900 21.33200
C  -4.43300 28.25700 21.34100
C  -3.70700 29.46700 20.53100
N  -4.26700 27.48400 26.21500
C  -3.39900 28.27600 25.51200
C  -2.85700 29.27600 26.36800
C  -3.33700 28.87300 27.64900
C  -4.16800 27.78800 27.44900
C  -1.82800 30.33900 26.04600
C  -3.22500 29.18400 29.04600
O  -2.68700 30.19600 29.58800
C  -4.03000 28.19400 29.71800
C  -3.10800 27.59000 30.70000
O  -2.26400 26.73600 30.42500
O  -3.24200 28.13600 31.99700
C  -2.23200 27.76000 33.06100
H  -7.74700 22.74200 27.97200
H  -5.84700 23.59600 21.89000
H  -2.39400 28.80200 23.79700
H  -4.87800 25.37300 30.80100
H  -7.42900 24.12200 30.26000
H  -4.84600 23.06900 30.95000
H  -5.28300 22.44800 29.39100
H  -6.41000 22.28300 30.80000
H  -7.72900 26.21900 30.70300
H  -6.65200 27.57200 30.90300
H  -7.85500 26.18600 32.97600
H  -6.39200 27.03200 33.22800
H  -8.70600 20.46900 25.43500
H  -9.90000 21.80800 25.43800
H  -8.81900 21.36800 26.80900
H  -9.46200 20.53300 21.68400
H  -9.91500 21.45300 23.12500
H  -8.96700 19.89800 23.25600
H  -4.50700 25.74300 20.55600
H  -2.49000 27.26200 21.69400
H  -1.85300 25.31100 21.01100
H  -2.90900 24.03200 20.52400
H  -2.50700 24.10200 22.18900
H  -4.97400 28.78000 22.13000
H  -5.25000 27.94900 20.69000
H  -3.97100 29.40600 19.47600
H  -2.66100 29.31000 20.79800
H  -4.04900 30.44100 20.88200
H  -2.36600 31.28000 26.16700
H  -1.40100 30.25000 25.04800
H  -1.15800 30.28300 26.90400
H  -4.82400 28.67100 30.29200
H  -1.25800 27.59600 32.60000
H  -2.64400 26.79200 33.34600
H  -2.25500 28.53600 33.82700

