158

Mg 0.81800 8.88200 26.71900
C  1.26700 10.91500 29.41600
C  0.55200 6.13500 28.98800
C  0.74700 6.75100 24.06000
C  1.09600 11.58100 24.59400
N  0.85400 8.58600 28.97800
C  1.08200 9.58900 29.84200
C  1.11400 9.08200 31.30700
C  1.13700 7.50700 31.14100
C  0.78100 7.37800 29.64200
C  2.45400 6.78000 31.43600
C  -0.01100 9.63800 32.23500
C  -0.28400 8.88500 33.61800
H  0.86800 8.42500 34.46100
N  0.61000 6.80600 26.54900
C  0.47700 5.90200 27.57500
C  0.22100 4.57800 26.98800
C  0.47100 4.61300 25.57400
C  0.57400 6.10800 25.35500
C  -0.00100 3.33500 27.82100
C  0.45900 3.45100 24.57500
O  0.54600 3.74300 23.42100
C  0.22400 1.99300 25.01300
N  0.79600 9.16300 24.63800
C  0.82300 8.14500 23.76800
C  0.92600 8.77700 22.33700
C  0.53400 10.18200 22.56400
C  0.83300 10.31200 23.98900
C  2.37300 8.56100 21.74400
C  -0.97900 10.44900 22.26700
C  -1.36800 11.35700 21.10100
N  1.23400 10.84800 26.89900
C  1.27500 11.85400 26.01300
C  1.69200 13.09600 26.67100
C  1.54400 12.76100 27.99300
C  1.34900 11.39300 28.06000
C  1.84200 14.43000 25.96300
C  1.73100 13.33000 29.30400
O  1.93700 14.46100 29.59600
C  1.45900 12.12100 30.24300
C  2.53400 11.96700 31.22400
O  3.67900 11.67500 30.94300
O  2.04500 12.25200 32.46300
C  2.93800 12.06500 33.63300
H  0.59200 5.25200 29.63000
H  0.60900 6.20500 23.12500
H  1.06300 12.41500 23.89100
H  2.10400 9.39000 31.64500
H  0.35500 7.00700 31.71100
H  3.30700 7.37400 31.76300
H  2.88100 6.53600 30.46400
H  2.27000 5.96900 32.14100
H  -0.89800 9.41900 31.64000
H  0.22000 10.66400 32.52100
H  -1.08300 8.15000 33.51500
H  -0.84500 9.67300 34.12100
H  -0.95700 2.91600 27.50500
H  -0.23900 3.57400 28.85800
H  0.85500 2.66000 27.83900
H  0.54600 1.24400 24.29000
H  -0.81300 1.88600 25.33200
H  0.93700 1.75000 25.80100
H  0.28500 8.26400 21.62000
H  1.27200 10.74900 21.99800
H  2.23500 8.06500 20.78300
H  3.00400 7.92600 22.36600
H  2.92600 9.48600 21.58100
H  -1.30200 11.09500 23.08300
H  -1.61200 9.56200 22.29100
H  -0.57900 11.46500 20.35700
H  -1.74700 12.31000 21.47200
H  -2.21000 10.81800 20.66600
H  2.40900 14.35500 25.03500
H  2.19800 15.10600 26.74000
H  0.84600 14.77400 25.68500
H  0.56000 12.36500 30.80900
H  3.57400 12.94000 33.76600
H  3.47100 11.11400 33.60800
H  2.31200 12.16100 34.52000
Mg 8.09600 4.18200 27.60800
C  9.40800 2.50400 30.37700
C  6.37500 6.20300 29.77600
C  6.87300 5.66400 24.95000
C  9.57800 1.61100 25.57600
N  7.72000 4.16600 29.76300
C  8.51500 3.55600 30.71600
C  8.30300 4.07400 32.14800
C  7.24900 5.22100 31.94800
C  7.03300 5.16000 30.42600
C  6.01400 5.26000 32.82900
C  9.65400 4.57600 32.88000
C  9.45500 5.36800 34.21500
H  10.32800 4.92200 35.41400
N  6.80500 5.72400 27.40000
C  6.20300 6.45900 28.41000
C  5.39000 7.46800 27.75500
C  5.61100 7.35400 26.33700
C  6.41100 6.19300 26.16500
C  4.47200 8.42200 28.51000
C  5.06300 8.25800 25.21800
O  5.32700 7.99200 24.04600
C  4.38000 9.61000 25.47200
N  8.02400 3.61200 25.51900
C  7.58100 4.51600 24.58000
C  7.99400 4.10500 23.20200
C  8.82400 2.83000 23.46700
C  8.89000 2.69300 24.99500
C  6.70100 3.78400 22.39500
C  10.24100 2.95000 22.76200
C  10.96100 1.56100 22.56700
N  9.19300 2.44500 27.84100
C  9.74700 1.54200 26.98300
C  10.49300 0.50600 27.67400
C  10.41500 0.92500 29.06200
C  9.63400 2.01800 29.10800
C  11.27900 -0.66100 27.08400
C  10.89800 0.58600 30.42400
O  11.79000 -0.20400 30.76000
C  10.25900 1.73900 31.36100
C  9.52800 1.04600 32.52100
O  8.43100 0.40100 32.64800
O  10.49500 1.09400 33.53700
C  10.18000 0.23500 34.71800
H  5.84800 6.92400 30.40400
H  6.69000 6.20300 24.01700
H  10.13400 0.93800 24.91800
H  7.82700 3.26700 32.70500
H  7.83900 6.13500 32.02200
H  5.77300 6.10000 33.48200
H  6.06600 4.49700 33.60600
H  5.07000 5.28200 32.28400
H  10.27800 5.22300 32.26500
H  10.34400 3.73600 32.96700
H  8.42700 5.40500 34.57800
H  9.69200 6.41700 34.04200
H  4.80800 9.45200 28.38400
H  4.36300 8.13500 29.55600
H  3.46600 8.40100 28.09100
H  3.80900 9.91300 24.59500
H  5.16200 10.26400 25.85800
H  3.62600 9.44700 26.24200
H  8.66200 4.82100 22.72400
H  8.33000 1.92000 23.12800
H  6.57100 4.47000 21.55800
H  5.86500 4.00500 23.05900
H  6.79400 2.76900 22.01100
H  10.88700 3.61800 23.33200
H  10.12700 3.49500 21.82500
H  11.43600 1.52000 21.58600
H  10.25100 0.74800 22.71300
H  11.71400 1.34600 23.32600
H  11.87800 -0.35000 26.22800
H  10.60800 -1.44500 26.73200
H  11.78800 -1.20400 27.88000
H  11.15200 2.30600 31.62300
H  9.21500 -0.26900 34.77700
H  10.19600 0.95900 35.53200
H  11.10400 -0.27500 34.99200

