158

Mg 17.65000 -1.26900 28.10000
C  16.56200 0.47000 30.88700
C  19.34100 -3.49500 30.00600
C  18.95300 -2.51600 25.34900
C  15.81800 1.03300 26.13000
N  17.96200 -1.34600 30.21100
C  17.44300 -0.56300 31.20700
C  17.79300 -1.01700 32.64700
C  18.77500 -2.19300 32.27100
C  18.67100 -2.40500 30.76600
C  20.27300 -2.02200 32.80800
C  16.68700 -1.38500 33.68200
C  16.76500 -1.06900 35.14600
H  18.16500 -0.73900 35.69200
N  18.93700 -2.91300 27.65700
C  19.49700 -3.74700 28.62100
C  20.29000 -4.70000 27.91400
C  20.28200 -4.41700 26.53900
C  19.35200 -3.22000 26.42700
C  21.28000 -5.69200 28.54000
C  20.96100 -5.11100 25.31600
O  20.88500 -4.69200 24.19100
C  21.81600 -6.30700 25.46100
N  17.45100 -0.78900 26.03100
C  18.00400 -1.55200 25.10500
C  17.58400 -1.08800 23.69200
C  16.45700 -0.07000 23.97500
C  16.54800 0.06200 25.46400
C  18.83000 -0.52300 22.97600
C  15.15400 -0.46500 23.24300
C  14.44400 0.70400 22.50900
N  16.52400 0.56300 28.40600
C  15.89700 1.40400 27.46000
C  15.17800 2.39300 28.16800
C  15.36900 2.05600 29.57600
C  16.20900 0.92400 29.62500
C  14.34200 3.47800 27.63200
C  15.12800 2.37900 30.95700
O  14.37400 3.25800 31.38200
C  15.83000 1.41400 31.86800
C  16.84100 2.17600 32.73500
O  17.95200 2.40100 32.39900
O  16.23500 2.47600 33.89300
C  16.95300 3.33300 34.74300
H  20.00500 -4.13000 30.59600
H  19.33600 -2.96000 24.42700
H  15.10900 1.54600 25.47800
H  18.39800 -0.17400 32.98000
H  18.40100 -3.11100 32.72400
H  20.42700 -1.05900 33.29500
H  20.94600 -1.83300 31.97100
H  20.63800 -2.96000 33.22600
H  16.45200 -2.44800 33.62900
H  15.82000 -0.86400 33.27700
H  16.35500 -1.93000 35.67400
H  16.18700 -0.15700 35.28800
H  21.01600 -6.72900 28.33600
H  21.28700 -5.63400 29.62900
H  22.33400 -5.57800 28.28700
H  21.34100 -7.01000 26.14500
H  22.74000 -5.97800 25.93600
H  21.90500 -6.74800 24.46800
H  17.32200 -1.88600 22.99700
H  16.84600 0.91000 23.70000
H  19.72300 -0.76900 23.55100
H  18.82200 0.56600 23.01400
H  18.82900 -0.92000 21.96100
H  14.46400 -0.86000 23.98700
H  15.31200 -1.23100 22.48300
H  13.96800 0.47800 21.55500
H  15.25000 1.38200 22.22800
H  13.67500 1.24300 23.06100
H  13.28900 3.23300 27.49700
H  14.69900 3.93800 26.71100
H  14.32400 4.29800 28.35000
H  15.08500 0.93100 32.50000
H  18.01400 3.09300 34.67500
H  16.63900 3.38900 35.78600
H  16.72100 4.34500 34.41200
Mg 7.42000 53.59500 41.78500
C  6.75300 50.02000 41.61900
C  10.67600 52.84100 40.92600
C  7.92200 56.85700 41.15700
C  4.04500 54.09000 42.23500
N  8.48600 51.68900 41.31200
C  8.08500 50.35000 41.36100
C  9.24700 49.45600 41.18900
C  10.54400 50.32900 41.23200
C  9.84500 51.71000 41.18000
C  11.45100 50.14600 42.44300
C  9.23200 48.41800 39.91500
C  9.37700 48.94200 38.47400
H  8.31300 48.56000 37.44700
N  8.99000 54.69600 40.96500
C  10.22500 54.24300 40.74500
C  11.10300 55.32800 40.39000
C  10.41100 56.50300 40.46300
C  9.02700 56.06300 40.92500
C  12.51300 55.15000 39.89900
C  10.99900 57.82000 40.15000
O  12.07800 58.00200 39.59700
C  10.11600 59.04200 40.24800
N  6.12700 55.19200 41.54300
C  6.62800 56.44800 41.53100
C  5.51700 57.47900 41.75600
C  4.27700 56.60500 41.91600
C  4.81700 55.21000 41.92200
C  5.78400 58.38800 42.99500
C  3.24200 56.83900 40.84000
C  1.77300 56.61900 41.30200
N  5.69800 52.33000 42.07200
C  4.38300 52.68800 42.21700
C  3.56200 51.45100 42.34000
C  4.47600 50.38900 42.15600
C  5.74300 50.99800 41.90300
C  2.10100 51.38500 42.59500
C  4.61900 48.93200 42.08400
O  3.78700 48.09000 42.23800
C  6.07200 48.63300 41.66500
C  5.89500 48.15700 40.32900
O  5.74100 48.81800 39.33100
O  5.85700 46.80000 40.45400
C  5.44500 46.02400 39.34700
H  11.75600 52.68300 40.96000
H  7.99300 57.94600 41.12700
H  3.02900 54.36400 42.52500
H  9.25100 48.81000 42.06700
H  11.11500 50.01700 40.35800
H  11.16000 49.29700 43.06100
H  11.41100 51.02300 43.09000
H  12.45000 50.01000 42.02900
H  8.71900 47.45600 39.90200
H  10.21100 47.97600 40.10300
H  10.32800 48.72000 37.98900
H  9.25900 50.02100 38.56900
H  12.68100 55.60600 38.92400
H  12.89500 54.13000 39.84200
H  13.26700 55.62600 40.52600
H  9.11500 58.97400 39.82000
H  10.49600 59.87500 39.65700
H  10.07400 59.44500 41.25900
H  5.55600 58.05500 40.83100
H  3.90400 56.73500 42.93200
H  6.55800 57.93400 43.61400
H  4.88800 58.56600 43.58900
H  6.18000 59.33600 42.63000
H  3.37000 56.06900 40.07900
H  3.11600 57.86200 40.48600
H  1.76700 56.57100 42.39100
H  1.33600 55.74000 40.82800
H  1.22000 57.44800 40.86000
H  1.83700 52.42700 42.77500
H  1.87900 50.81600 43.49700
H  1.52700 50.84200 41.84300
H  6.48800 47.88000 42.33400
H  6.33900 45.56900 38.92200
H  4.99500 46.62300 38.55500
H  4.73800 45.28800 39.73000

