158

Mg 47.86400 25.00700 28.57100
C  48.75400 26.97200 31.19500
C  46.87400 22.55800 30.83400
C  47.02900 23.02600 25.99600
C  49.09100 27.39600 26.26900
N  47.60100 24.84100 30.74600
C  48.01200 25.83300 31.61300
C  47.71300 25.46900 33.07700
C  47.30900 23.97000 32.93500
C  47.26000 23.74800 31.37800
C  48.19100 22.97300 33.62800
C  46.66200 26.39700 33.76100
C  47.11900 27.10600 35.04500
H  46.05600 27.62200 35.96700
N  47.10900 23.00400 28.44600
C  46.68800 22.18100 29.46800
C  46.21800 20.89300 28.96200
C  46.37100 21.05400 27.52100
C  46.91900 22.39500 27.24800
C  45.63400 19.78300 29.83200
C  46.09200 19.97200 26.49900
O  46.34400 20.08700 25.28700
C  45.46200 18.69300 26.98000
N  48.25900 25.08700 26.33900
C  47.62600 24.20000 25.51800
C  47.47500 24.74500 24.10300
C  48.25000 26.13800 24.15700
C  48.58900 26.20500 25.66100
C  47.93200 23.83800 23.01000
C  47.51800 27.35000 23.56000
C  48.12700 27.99900 22.31600
N  48.85500 26.74400 28.65600
C  49.26500 27.59900 27.68100
C  49.91100 28.70700 28.32400
C  49.58300 28.58600 29.71000
C  49.01700 27.35200 29.85700
C  50.62300 29.95400 27.72200
C  49.71600 29.22000 30.98700
O  50.22600 30.31400 31.29000
C  49.33400 28.13700 32.02600
C  50.53100 27.75300 32.93900
O  51.57000 27.27000 32.51900
O  50.24600 27.99400 34.22500
C  51.24000 27.52100 35.24700
H  46.47500 21.74300 31.44200
H  46.54900 22.40400 25.23700
H  49.39000 28.17500 25.56500
H  48.68500 25.59300 33.55500
H  46.33800 23.83200 33.41100
H  47.70200 22.54600 34.50300
H  49.14400 23.39200 33.95000
H  48.41000 22.15900 32.93700
H  45.76900 25.86000 34.08100
H  46.30800 27.14700 33.05400
H  47.72100 27.95500 34.72100
H  47.72600 26.39100 35.59900
H  46.22600 18.88400 29.65700
H  44.63600 19.62000 29.42400
H  45.44500 19.95700 30.89100
H  45.39100 17.94800 26.18700
H  44.48600 18.99000 27.36500
H  46.06900 18.20200 27.74000
H  46.40600 24.93500 24.00200
H  49.20800 26.01400 23.65100
H  47.00800 23.55100 22.50700
H  48.44400 22.99700 23.47700
H  48.72400 24.17400 22.34100
H  47.30600 28.07700 24.34400
H  46.50800 27.02200 23.31500
H  49.19100 27.81400 22.16900
H  47.96500 29.07700 22.32400
H  47.55500 27.63400 21.46300
H  51.41300 29.61200 27.05300
H  51.00900 30.55500 28.54500
H  49.85900 30.37300 27.06600
H  48.53100 28.70200 32.50000
H  50.82100 26.61300 35.68100
H  51.17700 28.23400 36.06800
H  52.27700 27.33900 34.96400
Mg 1.43800 43.05200 25.18100
C  2.91200 43.12800 28.40500
C  -1.47100 42.03000 26.55100
C  0.09100 42.70500 22.01000
C  4.52600 43.87700 23.83600
N  0.83500 42.69800 27.28000
C  1.53600 42.78900 28.44600
C  0.58600 42.40900 29.67400
C  -0.75100 41.87600 28.95000
C  -0.45400 42.17800 27.50900
C  -1.09700 40.36700 29.07500
C  0.44500 43.66500 30.57100
C  0.88500 43.54600 31.98100
H  0.29000 42.28600 32.71100
N  -0.38800 42.52000 24.42100
C  -1.46100 42.09100 25.17200
C  -2.55800 41.80700 24.30500
C  -2.12100 42.00900 22.98400
C  -0.78300 42.42600 23.10700
C  -3.95500 41.43100 24.79500
C  -2.84500 41.89300 21.60900
O  -2.34900 42.08900 20.50100
C  -4.36500 41.47300 21.57700
N  2.19200 43.49700 23.23900
C  1.45700 43.15500 22.10300
C  2.33800 43.18400 20.84200
C  3.56800 43.85100 21.45200
C  3.43600 43.83200 22.94800
C  2.76000 41.76000 20.35500
C  3.89400 45.22600 20.80700
C  2.72600 46.23800 20.81000
N  3.38300 43.46800 25.91300
C  4.56900 43.74500 25.21500
C  5.65100 43.70900 26.21500
C  5.04700 43.53400 27.46800
C  3.67200 43.42200 27.26000
C  7.03700 44.23700 26.05400
C  5.28200 43.46200 28.90700
O  6.30800 43.48600 29.51100
C  3.92000 43.25000 29.57600
C  4.12800 42.04100 30.35600
O  4.17900 40.92600 29.87500
O  4.01800 42.33000 31.68800
C  4.11100 41.06700 32.59400
H  -2.40500 41.72600 27.02700
H  -0.18400 42.49700 20.97300
H  5.42500 44.12200 23.26600
H  1.01100 41.62800 30.30400
H  -1.58900 42.51500 29.22800
H  -0.56700 39.79200 29.83400
H  -0.93300 39.97400 28.07200
H  -2.16700 40.24900 29.25100
H  -0.50200 44.19800 30.48300
H  1.15300 44.40400 30.19800
H  0.51800 44.38500 32.57300
H  1.96800 43.46600 32.06700
H  -4.60500 42.29300 24.94100
H  -3.87000 40.95400 25.77200
H  -4.38800 40.69800 24.11400
H  -4.39200 40.47500 22.01300
H  -4.74000 41.39400 20.55600
H  -4.87800 42.24000 22.15700
H  1.83100 43.79500 20.09500
H  4.48100 43.33200 21.16100
H  1.83500 41.24200 20.10300
H  3.21500 41.18900 21.16500
H  3.38200 42.00500 19.49400
H  4.16100 44.93300 19.79200
H  4.77300 45.63000 21.30900
H  2.34600 46.46600 19.81400
H  2.90200 47.16400 21.35600
H  1.86000 45.79300 21.29900
H  7.73100 43.44700 25.76900
H  7.32000 44.70900 26.99500
H  6.84500 45.03800 25.34000
H  3.67300 44.13800 30.15900
H  3.40700 40.32900 32.21000
H  3.98800 41.24200 33.66300
H  5.04500 40.52900 32.43300

