158

Mg 24.61500 -7.39100 48.21800
C  27.16100 -5.30600 47.05700
C  22.77000 -6.50000 45.56900
C  22.42100 -9.93300 48.92400
C  26.95800 -8.99500 50.22900
N  24.94000 -5.89700 46.58000
C  26.10600 -5.28700 46.15500
C  25.89900 -4.40600 44.99600
C  24.38900 -4.63900 44.60700
C  23.95000 -5.72400 45.64700
C  23.59100 -3.26100 44.56100
C  26.86400 -4.69000 43.80400
C  27.30200 -3.41700 43.02100
H  26.55000 -3.13400 41.67100
N  22.78200 -8.03900 47.45900
C  22.19700 -7.54500 46.28500
C  20.87200 -8.04500 46.07200
C  20.69300 -9.13400 47.04400
C  21.98800 -9.07200 47.90400
C  20.04400 -7.79100 44.81600
C  19.51400 -10.01300 47.26300
O  18.67800 -10.12600 46.36200
C  19.35900 -10.89600 48.44600
N  24.62800 -9.11100 49.45600
C  23.64700 -10.00100 49.56400
C  23.87500 -11.11400 50.59200
C  25.35100 -10.82300 51.01700
C  25.63000 -9.52900 50.24500
C  22.79700 -11.08000 51.77000
C  26.33500 -12.05700 50.75500
C  27.09100 -12.03900 49.40700
N  26.58900 -7.10700 48.73900
C  27.42300 -7.87900 49.53000
C  28.73200 -7.29800 49.51800
C  28.61900 -6.22700 48.59900
C  27.33900 -6.20900 48.13700
C  29.87700 -7.73100 50.33300
C  29.30200 -5.14400 48.08100
O  30.42200 -4.66700 48.27300
C  28.46700 -4.52000 47.00500
C  28.22900 -3.04500 47.20700
O  27.96100 -2.49700 48.21300
O  28.52700 -2.37700 46.01300
C  28.28200 -0.99200 45.87000
H  22.19400 -6.13700 44.71600
H  21.60600 -10.62300 49.15000
H  27.80100 -9.52000 50.68200
H  26.03300 -3.36900 45.30600
H  24.38600 -4.98200 43.57200
H  23.32900 -2.99600 43.53600
H  24.14200 -2.47600 45.07900
H  22.73000 -3.41000 45.21400
H  26.40200 -5.45000 43.17300
H  27.80000 -5.09500 44.19000
H  28.39100 -3.37600 43.01300
H  27.00600 -2.54000 43.59700
H  20.11500 -8.60800 44.09800
H  20.16000 -6.76800 44.45800
H  19.00800 -7.91500 45.13100
H  20.03400 -11.74700 48.34800
H  18.34300 -11.29000 48.42500
H  19.53900 -10.35200 49.37300
H  23.85100 -12.00200 49.96000
H  25.32100 -10.63900 52.09100
H  23.25000 -10.89500 52.74500
H  22.14100 -11.95000 51.80100
H  22.24800 -10.17300 51.52000
H  25.74200 -12.97200 50.77400
H  27.08200 -12.10300 51.54800
H  26.94200 -13.05700 49.04500
H  28.16100 -11.90100 49.56200
H  26.63800 -11.35400 48.69100
H  29.71600 -7.32800 51.33300
H  30.86400 -7.35300 50.06700
H  29.82400 -8.82000 50.32600
H  28.99800 -4.70300 46.07100
H  29.10700 -0.43600 46.31500
H  27.28100 -0.78500 46.24900
H  28.27300 -0.79400 44.79900
Mg 41.47600 41.29700 26.56900
C  40.82300 43.71400 29.11700
C  42.31800 39.27000 29.16700
C  42.46300 39.13700 24.26400
C  40.97900 43.73300 24.15800
N  41.69000 41.51500 28.85100
C  41.24800 42.53100 29.68600
C  41.60200 42.22000 31.15400
C  42.05300 40.76500 31.12000
C  41.98200 40.51400 29.59600
C  43.48100 40.53700 31.84100
C  40.32300 42.32000 32.09200
C  40.22200 41.53600 33.47700
H  39.46700 42.18100 34.66900
N  42.31000 39.47500 26.63400
C  42.51300 38.80000 27.83400
C  42.97900 37.44500 27.52500
C  43.07100 37.39100 26.13700
C  42.64000 38.69100 25.63600
C  43.39800 36.36100 28.61100
C  43.63200 36.24500 25.23000
O  43.71500 36.31300 23.98800
C  44.15200 35.07900 25.91500
N  41.86500 41.43600 24.49300
C  42.17300 40.35400 23.67600
C  42.06200 40.67600 22.14700
C  41.36400 42.07700 22.21900
C  41.44800 42.44600 23.71300
C  43.45800 40.65300 21.42000
C  39.86500 42.08600 21.86900
C  38.84000 41.11100 22.58300
N  41.08600 43.28000 26.56600
C  40.85600 44.10900 25.52800
C  40.65300 45.49800 26.04300
C  40.52600 45.32400 27.43600
C  40.78600 43.97200 27.72100
C  40.47600 46.80300 25.31900
C  40.14100 46.02000 28.64700
O  39.86100 47.18400 28.86700
C  40.38400 44.96400 29.74500
C  41.26600 45.43400 30.83400
O  42.48800 45.50500 30.85200
O  40.47000 45.90700 31.82800
C  41.15900 46.67900 32.96900
H  42.49200 38.59700 30.00900
H  43.01000 38.51000 23.55700
H  40.95400 44.50100 23.38200
H  42.37900 42.91300 31.47800
H  41.30400 40.17400 31.64600
H  44.26900 40.49700 31.08900
H  43.49300 39.75600 32.60100
H  43.71600 41.40100 32.46300
H  39.56000 41.93900 31.41400
H  40.14200 43.38100 32.26600
H  41.23600 41.27600 33.77800
H  39.71900 40.61500 33.17900
H  43.28700 36.78300 29.61000
H  44.44100 36.06100 28.51000
H  42.80400 35.44800 28.57400
H  44.86800 35.42800 26.65900
H  44.71000 34.46500 25.20800
H  43.31700 34.60300 26.42800
H  41.45800 39.94200 21.61400
H  41.88800 42.83500 21.63700
H  44.30900 40.34700 22.02900
H  43.64800 41.67800 21.10300
H  43.28000 39.90800 20.64400
H  39.85400 41.80700 20.81600
H  39.39300 43.06700 21.93300
H  37.79700 41.39500 22.72700
H  39.28100 40.62500 23.45300
H  38.78200 40.26600 21.89600
H  39.51800 47.27900 25.52800
H  40.49000 46.72300 24.23200
H  41.32600 47.42800 25.59100
H  39.37800 44.87200 30.15400
H  42.21000 46.93000 32.82900
H  41.13300 45.95200 33.78100
H  40.57700 47.55500 33.25400

