158

Mg -2.72600 16.99300 26.15900
C  -3.17200 14.88700 28.85600
C  -2.99500 19.67400 28.31100
C  -2.40000 19.03600 23.47500
C  -2.52600 14.31900 23.97200
N  -3.09900 17.19000 28.28700
C  -3.24200 16.17000 29.23500
C  -3.27900 16.79600 30.65900
C  -3.57800 18.31100 30.37900
C  -3.12000 18.42500 28.91200
C  -5.03900 18.65700 30.66000
C  -2.03200 16.36400 31.62100
C  -1.68100 17.28800 32.77600
H  -1.04800 16.67200 34.06800
N  -2.66900 19.07600 25.96400
C  -2.75600 20.05000 26.97200
C  -2.85200 21.34400 26.31600
C  -2.49200 21.13800 24.95300
C  -2.49400 19.68500 24.74600
C  -3.06200 22.57800 27.21200
C  -2.19200 22.23000 23.95100
O  -1.70800 21.92400 22.87600
C  -2.38600 23.71300 24.34600
N  -2.48500 16.64800 24.07400
C  -2.41200 17.72000 23.20900
C  -2.37700 17.23700 21.72300
C  -2.55300 15.72800 21.86300
C  -2.38600 15.49900 23.39500
C  -3.34800 17.99200 20.83100
C  -1.82300 14.82700 20.83800
C  -2.74800 14.35100 19.64100
N  -2.85100 14.96800 26.29600
C  -2.69600 14.01900 25.34800
C  -2.87100 12.73900 25.95400
C  -3.07000 13.01300 27.32400
C  -3.02300 14.39200 27.47200
C  -2.68300 11.45100 25.24600
C  -3.24800 12.34400 28.59200
O  -3.38600 11.16600 28.81500
C  -3.34700 13.57700 29.65300
C  -2.22400 13.33900 30.64500
O  -1.04900 13.59600 30.50100
O  -2.76400 12.76500 31.76500
C  -1.86100 12.53600 32.95600
H  -2.90600 20.41400 29.10900
H  -2.44400 19.71500 22.62200
H  -2.58500 13.43500 23.33400
H  -4.08400 16.20300 31.09400
H  -2.92000 18.90300 31.01600
H  -5.56400 17.86200 31.18900
H  -5.50100 18.82300 29.68700
H  -5.26100 19.59600 31.16700
H  -1.07900 16.26500 31.10000
H  -2.33700 15.43100 32.09400
H  -2.67300 17.62100 33.08200
H  -1.11600 18.13600 32.39000
H  -2.15700 23.16700 27.36200
H  -3.43900 22.34100 28.20700
H  -3.79000 23.25000 26.76000
H  -2.37400 24.27700 23.41300
H  -1.53300 24.08600 24.91200
H  -3.30300 24.01900 24.85100
H  -1.36600 17.42000 21.35900
H  -3.60700 15.56700 21.63500
H  -3.98900 18.76300 21.26200
H  -3.83300 17.27700 20.16600
H  -2.82000 18.67500 20.16700
H  -1.26000 14.03400 21.33200
H  -1.06700 15.33500 20.24000
H  -2.54600 15.05700 18.83600
H  -3.76900 14.41700 20.01700
H  -2.53500 13.32800 19.33100
H  -3.34100 11.34200 24.38400
H  -2.87300 10.62700 25.93300
H  -1.62400 11.50700 24.99500
H  -4.35300 13.62900 30.06900
H  -1.37700 11.56700 32.83000
H  -2.40800 12.41500 33.89100
H  -1.01500 13.22200 32.97400
Mg 17.13400 51.17200 26.18400
C  19.07000 50.22700 28.82700
C  14.70100 52.20600 28.45200
C  15.24200 52.12800 23.53300
C  19.73100 50.52900 23.91800
N  16.86000 51.10300 28.43400
C  17.88000 50.79400 29.27000
C  17.55100 51.27400 30.75300
C  16.00300 51.49700 30.63500
C  15.82500 51.57500 29.08500
C  15.18100 50.40000 31.33100
C  18.43700 52.37500 31.48500
C  18.72900 52.12800 32.98600
H  17.74100 51.38300 33.84100
N  15.20400 51.92500 26.04500
C  14.40700 52.47000 27.09500
C  13.28800 53.18400 26.54500
C  13.38100 53.14800 25.13300
C  14.70000 52.46000 24.89900
C  12.27700 53.85700 27.48100
C  12.48700 53.78800 24.05200
O  12.62600 53.54600 22.88000
C  11.37400 54.64500 24.42000
N  17.39700 51.19700 23.97600
C  16.46700 51.59400 23.09500
C  16.93000 51.55200 21.65300
C  18.50600 51.35600 21.91500
C  18.60600 51.01900 23.38000
C  16.22700 50.52100 20.73300
C  19.46600 52.40700 21.43100
C  19.57800 53.67900 22.38600
N  18.97200 50.34700 26.24400
C  19.93700 50.18000 25.30900
C  21.07800 49.70400 25.95200
C  20.76400 49.65300 27.32900
C  19.44200 50.10400 27.45800
C  22.40600 49.40200 25.34100
C  21.31800 49.40700 28.63700
O  22.42600 49.06800 28.96500
C  20.21600 49.67300 29.64300
C  19.81000 48.43300 30.39100
O  19.02200 47.56900 30.04900
O  20.39000 48.62000 31.66400
C  20.07000 47.59100 32.71800
H  14.08700 52.61500 29.25800
H  14.68400 52.54200 22.69100
H  20.58800 50.32800 23.27100
H  17.75900 50.41400 31.39000
H  15.70900 52.48800 30.98200
H  15.78700 49.69200 31.89600
H  14.71100 49.78800 30.56100
H  14.47800 50.83100 32.04300
H  17.99300 53.36700 31.55800
H  19.41600 52.40100 31.00600
H  18.73000 53.15600 33.35000
H  19.75300 51.75700 32.94400
H  11.51500 54.46100 26.98800
H  12.89000 54.44000 28.16800
H  11.77200 53.27300 28.25000
H  10.52000 54.15300 24.88500
H  10.88900 55.19200 23.61200
H  11.62500 55.48200 25.07200
H  16.77700 52.54300 21.22700
H  18.83200 50.41200 21.47700
H  15.16600 50.76800 20.77100
H  16.47400 49.55200 21.16700
H  16.64400 50.58300 19.72800
H  19.07900 52.70100 20.45500
H  20.40600 51.86900 21.30500
H  18.72400 53.79900 23.05200
H  19.49300 54.58900 21.79300
H  20.48200 53.54800 22.98200
H  22.52300 48.46600 24.79400
H  23.16000 49.41000 26.12700
H  22.68700 50.12400 24.57400
H  20.61600 50.52700 30.18900
H  19.47500 46.75900 32.34100
H  19.47400 48.13600 33.45000
H  20.95000 47.21000 33.23600

