158

Mg 17.52600 -1.25100 28.22500
C  16.19000 0.94400 30.70300
C  19.42300 -2.74500 30.55900
C  19.04500 -2.88600 25.65200
C  15.90100 0.79800 25.83500
N  17.74500 -0.87600 30.35400
C  17.02800 -0.08900 31.20500
C  17.34800 -0.28000 32.73100
C  18.46000 -1.43000 32.57800
C  18.52300 -1.74300 31.07600
C  19.88200 -1.10900 33.14300
C  16.12500 -0.74800 33.53000
C  16.00900 -0.42700 34.98500
H  17.07000 0.48200 35.72500
N  18.99500 -2.64800 28.14000
C  19.63200 -3.20600 29.23200
C  20.25900 -4.40700 28.83600
C  20.31000 -4.38600 27.38100
C  19.44600 -3.28700 26.96700
C  20.68000 -5.46500 29.83800
C  20.97000 -5.33700 26.39500
O  20.94500 -5.25600 25.14200
C  21.89800 -6.48500 26.99900
N  17.39700 -1.14100 26.00600
C  18.19300 -1.87200 25.18000
C  18.07100 -1.42300 23.68700
C  17.01300 -0.25200 23.81900
C  16.72700 -0.20600 25.36300
C  19.40000 -1.10000 22.86700
C  15.73100 -0.40700 22.98700
C  14.54600 -1.28200 23.50400
N  16.17100 0.38300 28.19000
C  15.64200 1.12300 27.16300
C  14.91500 2.26600 27.66800
C  15.14600 2.21800 29.08100
C  15.91600 1.11100 29.32500
C  14.09800 3.28900 26.74200
C  14.82900 2.87000 30.33800
O  14.03800 3.81300 30.54100
C  15.57300 2.11700 31.48800
C  16.53200 2.98600 32.20500
O  17.79400 2.97500 32.10300
O  15.83900 3.73500 33.11500
C  16.59800 4.66500 33.92500
H  19.95600 -3.14300 31.42500
H  19.55600 -3.40600 24.83800
H  15.43500 1.45000 25.09200
H  17.78100 0.59600 33.21300
H  18.22700 -2.30300 33.18600
H  19.88900 -0.07200 33.47700
H  20.74200 -1.35700 32.52000
H  20.07700 -1.63500 34.07800
H  16.09900 -1.83600 33.58900
H  15.22700 -0.28600 33.11900
H  15.87500 -1.31500 35.60300
H  15.08400 0.13200 35.13000
H  21.76400 -5.57400 29.78600
H  20.19600 -6.38900 29.52300
H  20.38600 -5.37200 30.88300
H  22.25300 -7.06000 26.14400
H  21.24200 -7.16000 27.54800
H  22.66000 -6.02800 27.63100
H  17.51300 -2.22500 23.20500
H  17.50000 0.66200 23.47800
H  19.26500 -0.13500 22.37900
H  19.55700 -1.82000 22.06300
H  20.15700 -0.99400 23.64500
H  15.97600 -0.89700 22.04500
H  15.47200 0.59100 22.63600
H  13.83900 -0.62700 24.01300
H  14.92600 -1.99700 24.23400
H  14.18700 -1.85900 22.65200
H  14.75300 3.77500 26.01800
H  13.81700 4.00500 27.51400
H  13.24500 2.78600 26.28700
H  14.80100 1.73100 32.15400
H  16.84300 4.20700 34.88300
H  15.85900 5.43000 34.16100
H  17.52200 5.02100 33.46900
Mg -11.25100 38.46100 42.09700
C  -9.33300 35.87900 40.58400
C  -9.39900 40.86400 40.68100
C  -13.72300 40.68900 42.89200
C  -13.51300 35.77700 43.12100
N  -9.55300 38.34300 40.80400
C  -8.93800 37.24600 40.30300
C  -7.67000 37.61800 39.55000
C  -7.63300 39.17400 39.64300
C  -8.96300 39.52000 40.38800
C  -6.37300 39.75300 40.35800
C  -7.65800 36.99400 38.11900
C  -6.34800 36.21900 37.75500
H  -5.44800 36.81000 36.67300
N  -11.43500 40.57400 41.92000
C  -10.56200 41.35700 41.25000
C  -11.08700 42.70700 41.34500
C  -12.38600 42.65600 41.84200
C  -12.55600 41.25300 42.25400
C  -10.37500 43.86900 40.66500
C  -13.35700 43.78400 41.99500
O  -13.03500 44.90100 41.61900
C  -14.64000 43.74400 42.86200
N  -13.32900 38.21200 42.77200
C  -14.05000 39.37900 43.17300
C  -15.38000 38.91400 43.71000
C  -15.25200 37.38000 43.76500
C  -13.99300 37.09100 43.10500
C  -15.86600 39.62400 45.04700
C  -16.52000 36.63400 43.23200
C  -17.31600 35.90300 44.32800
N  -11.35000 36.31500 41.98000
C  -12.29400 35.40600 42.48200
C  -11.76800 33.97700 42.29500
C  -10.65900 34.16500 41.53100
C  -10.42700 35.58400 41.36200
C  -12.34400 32.62100 42.68700
C  -9.57400 33.40300 40.91700
O  -9.29900 32.22200 40.93500
C  -8.63200 34.55300 40.29800
C  -7.41300 34.50300 41.23100
O  -7.33200 34.79600 42.43300
O  -6.48900 33.86300 40.46800
C  -5.23800 33.33500 41.04700
H  -8.74400 41.65800 40.31800
H  -14.51400 41.38900 43.17000
H  -14.14500 35.03400 43.61200
H  -6.81800 37.31400 40.15700
H  -7.56800 39.66400 38.67100
H  -6.34400 40.83500 40.22500
H  -5.48000 39.34600 39.88300
H  -6.41100 39.50800 41.41900
H  -7.84800 37.76900 37.37800
H  -8.56700 36.39700 38.04300
H  -6.53800 35.16400 37.55400
H  -5.64900 36.12400 38.58600
H  -10.51500 44.74000 41.30400
H  -10.87400 44.12000 39.72900
H  -9.31800 43.63100 40.54800
H  -15.45500 43.21500 42.36800
H  -14.95200 44.78800 42.89700
H  -14.44600 43.40100 43.87900
H  -16.00800 39.20300 42.86700
H  -15.16600 37.12600 44.82100
H  -16.73800 40.23100 44.80400
H  -15.09300 40.27800 45.45200
H  -16.18500 38.88500 45.78200
H  -16.00300 35.99300 42.51800
H  -17.16500 37.39300 42.78900
H  -17.78300 36.56600 45.05600
H  -16.67900 35.22900 44.90100
H  -18.05500 35.25300 43.86000
H  -12.46100 32.66800 43.76900
H  -11.78600 31.78600 42.26300
H  -13.32700 32.45200 42.24600
H  -8.28600 34.39700 39.27700
H  -4.37100 33.33900 40.38600
H  -5.40200 32.32400 41.41900
H  -5.10000 33.96700 41.92400

