158

Mg 46.22600 44.23300 43.51400
C  42.97200 43.42600 43.54000
C  47.13200 40.99700 42.64100
C  49.35300 45.38000 42.50500
C  45.43500 47.62800 44.16200
N  45.13300 42.48000 43.02200
C  43.82600 42.30600 43.17100
C  43.39500 40.91900 42.80200
C  44.71600 40.11800 42.86400
C  45.78800 41.27200 42.85800
C  44.91000 39.07300 44.07600
C  42.39000 40.82400 41.54800
C  42.76100 41.83700 40.39700
H  42.30800 41.61900 38.95200
N  47.97500 43.31200 42.78800
C  48.13700 42.02100 42.55400
C  49.48900 41.75300 42.03200
C  50.19300 42.96900 42.12800
C  49.17200 44.01100 42.44500
C  49.96900 40.35200 41.56400
C  51.69100 43.20200 41.96900
O  52.49800 42.31600 41.77600
C  52.38300 44.54500 41.97400
N  47.19500 46.30200 43.15600
C  48.49200 46.45200 42.79200
C  48.93600 47.97400 42.77900
C  47.74800 48.70700 43.50100
C  46.76200 47.48100 43.70500
C  50.29100 48.20900 43.47100
C  47.16800 50.02700 42.77500
C  47.13200 51.35600 43.54500
N  44.54900 45.34600 43.94700
C  44.34000 46.66200 44.17500
C  42.89200 46.89600 44.43300
C  42.34500 45.61600 44.19300
C  43.37600 44.72100 43.88000
C  42.29000 48.27000 44.67600
C  41.16000 44.88300 44.14800
O  40.01300 45.28500 44.32400
C  41.44500 43.35900 43.74400
C  41.02800 42.57700 44.93000
O  40.23600 41.59600 44.87400
O  41.74500 42.95000 46.07800
C  41.20300 42.46700 47.34300
H  47.36400 39.93900 42.50200
H  50.27700 45.54800 41.94600
H  45.18700 48.67400 44.35300
H  42.76300 40.61000 43.63600
H  44.86300 39.52200 41.96400
H  45.73500 39.29500 44.75200
H  45.04500 38.07400 43.66300
H  43.93000 38.98700 44.54500
H  41.32600 40.73000 41.76500
H  42.45900 39.86100 41.04200
H  43.83800 41.98100 40.48500
H  42.18600 42.74100 40.59600
H  49.95800 39.67900 42.42100
H  50.98300 40.51600 41.19700
H  49.35500 40.04300 40.71900
H  52.01700 45.14500 42.80700
H  52.08200 45.11400 41.09500
H  53.47200 44.49800 42.01000
H  48.82300 48.18400 41.71600
H  48.16200 48.97100 44.47500
H  50.57800 47.34100 44.06300
H  50.37700 49.18200 43.95500
H  51.14300 48.20900 42.79100
H  46.14200 49.85500 42.44900
H  47.80600 50.24200 41.91800
H  47.50900 52.16100 42.91400
H  47.75400 51.26300 44.43600
H  46.11200 51.66800 43.77000
H  42.16300 48.74300 43.70200
H  42.84800 49.00600 45.25500
H  41.30700 48.10900 45.11800
H  40.93700 43.02000 42.84100
H  41.85900 42.83300 48.13300
H  41.09300 41.38200 47.33600
H  40.20900 42.85800 47.56100
Mg -2.39500 34.82100 26.45600
C  -3.41100 32.89800 29.35600
C  -1.26600 37.29800 28.54700
C  -2.36900 36.95100 23.83000
C  -4.27500 32.62600 24.46400
N  -2.41700 35.11200 28.70900
C  -2.79100 34.19500 29.66800
C  -2.36800 34.72000 31.14700
C  -1.71900 36.07600 30.78700
C  -1.71900 36.11800 29.25200
C  -2.29600 37.34100 31.47400
C  -1.44400 33.73200 32.02400
C  -1.97800 33.32600 33.44400
H  -0.97900 33.29200 34.51900
N  -1.75300 36.80400 26.23700
C  -1.35100 37.64700 27.20100
C  -0.76300 38.90200 26.56300
C  -1.20200 38.71100 25.14500
C  -1.87900 37.43500 24.99200
C  0.01900 39.99300 27.32400
C  -1.06000 39.74400 24.07600
O  -1.60200 39.75500 23.01200
C  -0.13400 40.87600 24.25300
N  -3.32200 34.90100 24.37700
C  -3.01200 35.81300 23.52500
C  -3.40000 35.38400 22.10900
C  -3.81400 33.83900 22.33400
C  -3.82700 33.75000 23.83200
C  -4.40000 36.36000 21.47200
C  -2.98500 32.86900 21.41500
C  -1.58100 32.49500 22.04400
N  -3.55900 33.05300 26.75100
C  -4.18100 32.23300 25.84100
C  -4.68600 31.07300 26.57400
C  -4.41400 31.32700 27.91400
C  -3.77900 32.56700 27.98200
C  -5.57600 30.03700 26.09900
C  -4.59600 30.87700 29.25900
O  -5.14100 29.87300 29.72100
C  -3.97800 31.89600 30.27800
C  -5.06200 32.34900 31.27700
O  -6.11900 32.96500 30.97700
O  -4.81100 31.88600 32.51100
C  -5.84200 31.97700 33.54100
H  -0.77800 38.08100 29.13200
H  -2.37000 37.53400 22.90700
H  -4.83500 31.90500 23.86500
H  -3.22000 34.88200 31.80700
H  -0.68100 36.17000 31.10800
H  -2.84600 37.02600 32.36100
H  -3.09900 37.90600 31.00100
H  -1.55200 38.07400 31.78300
H  -0.44600 34.15700 32.13300
H  -1.17300 32.83000 31.47500
H  -2.31900 32.29200 33.48000
H  -2.89000 33.89000 33.63900
H  -0.60600 40.88200 27.40800
H  0.98100 40.31400 26.92300
H  0.26500 39.68500 28.34000
H  -0.56600 41.54700 24.99500
H  0.07800 41.45200 23.35200
H  0.85000 40.49600 24.52700
H  -2.53200 35.37800 21.45000
H  -4.85900 33.73300 22.04200
H  -5.09900 35.78900 20.86100
H  -3.88800 37.00200 20.75500
H  -4.98100 36.83800 22.26000
H  -2.80300 33.43900 20.50400
H  -3.51300 31.92700 21.26400
H  -0.87200 33.18600 21.58600
H  -1.33500 31.49900 21.67700
H  -1.49000 32.69800 23.11100
H  -5.30400 29.82800 25.06400
H  -6.60400 30.39300 26.16800
H  -5.54200 29.06900 26.59800
H  -3.04300 31.50700 30.68000
H  -5.63100 31.24500 34.32000
H  -6.83400 31.78800 33.13200
H  -5.81000 32.94000 34.04900

