158

Mg 0.61000 7.74800 27.53800
C  1.33900 9.86900 30.10300
C  0.34000 5.20500 29.56000
C  -0.00800 5.97300 24.72400
C  1.04900 10.61300 25.29900
N  0.92300 7.62100 29.56100
C  1.18600 8.57900 30.51600
C  1.01700 8.05500 31.88700
C  1.17200 6.51000 31.63100
C  0.76500 6.40700 30.15500
C  2.61700 5.93000 31.83700
C  -0.42500 8.41400 32.37200
C  -0.42900 9.00500 33.76700
H  0.64100 8.66900 34.90000
N  0.34500 5.80000 27.21300
C  0.26900 4.85200 28.18300
C  0.13700 3.58100 27.62300
C  0.21700 3.72200 26.20900
C  0.16500 5.22000 25.99500
C  0.01500 2.36700 28.44400
C  0.34900 2.64100 25.05500
O  0.30400 3.00100 23.89300
C  0.32400 1.17400 25.42500
N  0.45600 8.27200 25.31300
C  0.06700 7.35400 24.43000
C  -0.13800 7.85200 23.01300
C  0.08100 9.43300 23.25800
C  0.55300 9.47100 24.70500
C  0.76300 7.40700 21.75000
C  -1.12300 10.42400 22.90600
C  -1.24400 10.90200 21.51700
N  1.05400 9.87600 27.56200
C  1.21300 10.87100 26.64700
C  1.52400 12.10700 27.32800
C  1.54300 11.77700 28.67800
C  1.24500 10.39200 28.84000
C  1.68400 13.47300 26.77600
C  1.73500 12.33500 29.96500
O  2.13800 13.46900 30.26800
C  1.64400 11.07400 30.99900
C  2.96700 10.90600 31.71900
O  4.01700 10.39100 31.32400
O  2.82100 11.60700 32.85700
C  3.77500 11.47400 33.93500
H  0.30200 4.38300 30.27800
H  -0.22200 5.37500 23.83600
H  1.15200 11.45300 24.60900
H  1.74000 8.49800 32.57100
H  0.46900 5.97500 32.26900
H  3.05700 5.75400 30.85500
H  2.48500 4.95200 32.29900
H  3.26400 6.60100 32.40100
H  -1.13800 7.59400 32.46300
H  -0.93800 8.99100 31.60300
H  -1.41800 8.89300 34.21100
H  -0.38000 10.06100 33.49900
H  -0.79300 1.67800 28.20000
H  -0.37400 2.60100 29.43500
H  0.92400 1.76800 28.49500
H  -0.56800 0.88500 25.98100
H  1.18800 0.98400 26.06300
H  0.47900 0.49500 24.58700
H  -1.19800 7.62600 22.89500
H  0.85100 9.86300 22.61700
H  1.15500 8.15900 21.06400
H  0.23200 6.68000 21.13600
H  1.72200 6.95700 22.00700
H  -0.95600 11.29900 23.53400
H  -2.04700 9.93200 23.20900
H  -2.14800 10.58400 20.99900
H  -0.44200 10.62100 20.83400
H  -1.29200 11.98400 21.64400
H  1.66700 13.51100 25.68700
H  2.61100 13.92200 27.13400
H  0.80600 14.00100 27.14800
H  0.79800 11.23800 31.66700
H  4.17100 12.47000 34.13400
H  4.59700 10.81700 33.65100
H  3.40300 10.93800 34.80800
Mg 45.15600 4.82700 46.90400
C  42.57900 7.46300 46.55400
C  42.46900 2.57100 46.56600
C  47.37000 2.43300 46.34300
C  47.55900 7.31500 46.75400
N  42.78100 4.98700 46.41300
C  41.98100 6.16800 46.44300
C  40.52500 5.74100 46.15200
C  40.54200 4.31100 46.70300
C  42.04200 3.88900 46.51200
C  40.04800 4.05900 48.13900
C  40.03400 5.77700 44.67700
C  41.03800 5.87100 43.54600
H  40.65100 6.43400 42.12300
N  45.00100 2.76600 46.61500
C  43.79000 2.06400 46.56300
C  44.10100 0.63700 46.36900
C  45.51200 0.57900 46.14600
C  46.04100 1.92200 46.43600
C  43.19700 -0.50000 46.34400
C  46.35900 -0.63600 45.67800
O  45.81400 -1.69700 45.32900
C  47.85200 -0.60700 45.59100
N  47.10700 4.83900 46.70800
C  47.87600 3.72100 46.56400
C  49.36000 4.02400 46.72200
C  49.35100 5.60300 46.64700
C  47.93500 5.97500 46.63300
C  49.91800 3.44100 48.08500
C  50.20200 6.07600 45.40100
C  49.63500 5.83700 44.01800
N  45.12000 6.90500 46.72700
C  46.18000 7.79700 46.68800
C  45.65900 9.18100 46.73200
C  44.29200 9.03500 46.71200
C  43.98600 7.65400 46.69500
C  46.55800 10.39100 46.48000
C  43.08800 9.78300 46.78400
O  42.97100 11.02500 46.78500
C  41.80400 8.76200 46.72200
C  41.06300 8.72100 48.01900
O  41.06600 7.82400 48.83600
O  40.41800 9.93700 48.25800
C  39.47800 10.01800 49.35900
H  41.71800 1.77800 46.55900
H  48.16000 1.67900 46.33300
H  48.35900 8.02400 46.97300
H  39.89600 6.37700 46.77500
H  39.97900 3.69800 46.00000
H  40.82300 3.48700 48.65000
H  39.10400 3.53300 47.99600
H  39.84200 4.98600 48.67500
H  39.46500 6.70600 44.71300
H  39.29400 5.02900 44.39300
H  41.35800 4.86200 43.28500
H  41.86400 6.47700 43.92000
H  43.53800 -1.30100 46.99900
H  43.21400 -0.96700 45.35900
H  42.15200 -0.18900 46.32500
H  48.19900 -1.59500 45.28900
H  48.07000 -0.39900 46.63800
H  48.32200 0.15800 44.97300
H  49.86900 3.54700 45.88500
H  49.92600 5.94900 47.50600
H  49.22300 2.69800 48.47700
H  50.04000 4.23700 48.81900
H  50.90500 3.02900 47.87500
H  51.17100 5.58800 45.50400
H  50.32000 7.15200 45.52900
H  50.28300 5.12400 43.51000
H  49.71400 6.82500 43.56600
H  48.60200 5.51700 44.15900
H  46.27900 11.01900 47.32600
H  46.20900 10.87700 45.56900
H  47.59600 10.06100 46.44900
H  41.15300 8.96600 45.87100
H  39.96500 10.13300 50.32800
H  38.95500 9.09900 49.62900
H  38.85800 10.89300 49.16800

