158

Mg 8.60500 4.16500 28.03400
C  10.00200 2.46900 30.76500
C  6.87600 6.10400 30.20500
C  7.37800 5.67800 25.45100
C  10.16400 1.66900 26.01300
N  8.40900 4.17400 30.29100
C  9.15700 3.47300 31.24100
C  8.81800 3.94500 32.63300
C  7.76600 5.06000 32.38300
C  7.68700 5.14200 30.89600
C  6.35500 4.87600 33.09900
C  10.14400 4.43500 33.30700
C  9.87700 5.17700 34.61900
H  10.60200 4.82800 35.91400
N  7.32200 5.73100 27.80600
C  6.72600 6.40700 28.84500
C  5.81200 7.40800 28.24700
C  5.95800 7.32300 26.83600
C  6.91300 6.18500 26.64500
C  4.85600 8.34500 28.99800
C  5.38800 8.26700 25.75200
O  5.71200 8.15300 24.59100
C  4.44400 9.45800 26.08700
N  8.65300 3.63000 26.02900
C  8.20500 4.57300 25.15300
C  8.46400 4.11000 23.70300
C  9.29100 2.80900 23.83800
C  9.40800 2.67200 25.37800
C  7.09000 3.90300 22.85900
C  10.64700 2.66200 22.99900
C  11.05700 1.19800 22.61300
N  9.76200 2.48000 28.27500
C  10.33300 1.53500 27.35700
C  11.20800 0.63700 27.98800
C  11.10200 0.97700 29.35700
C  10.19100 2.02200 29.44700
C  12.02500 -0.50900 27.25400
C  11.63200 0.61100 30.59000
O  12.35400 -0.36600 30.82600
C  10.96600 1.58500 31.60200
C  10.24300 0.73600 32.62200
O  9.11600 0.26800 32.41400
O  10.93800 0.71200 33.84500
C  10.23900 0.07200 34.99400
H  6.24100 6.75700 30.80700
H  6.94200 6.17000 24.58000
H  10.63800 0.93400 25.35900
H  8.44000 3.09800 33.20600
H  8.18900 6.03700 32.61900
H  5.53900 4.81000 32.37900
H  6.32200 5.77900 33.71000
H  6.43500 3.97800 33.71100
H  10.58900 5.03700 32.51400
H  10.80800 3.64500 33.65900
H  8.80200 5.16700 34.79600
H  10.02100 6.24800 34.47700
H  5.10000 9.40500 28.91800
H  4.81500 7.86800 29.97700
H  3.90400 8.21400 28.48300
H  4.04600 10.03000 25.24900
H  5.02400 10.05400 26.79100
H  3.61600 9.11700 26.71000
H  9.11000 4.87700 23.27700
H  8.48300 2.12300 23.58400
H  6.17100 3.72000 23.41500
H  7.28100 3.19200 22.05500
H  6.91800 4.83000 22.31200
H  11.40300 3.18700 23.58300
H  10.44100 3.12400 22.03400
H  11.92900 0.92300 23.20500
H  11.37100 1.13100 21.57100
H  10.31600 0.41100 22.75200
H  12.29500 -1.18100 28.06900
H  12.85400 -0.15300 26.64300
H  11.36400 -0.91100 26.48600
H  11.72800 2.16400 32.12300
H  9.57900 -0.75800 34.74100
H  9.79000 0.82700 35.63900
H  11.01800 -0.43500 35.56500
Mg -9.63400 38.69200 40.78100
C  -8.85900 35.40900 40.09000
C  -6.53600 39.69100 39.75200
C  -10.77700 41.84200 40.76400
C  -12.85400 37.57100 41.68400
N  -7.89300 37.66000 39.96900
C  -7.88000 36.29400 39.67600
C  -6.48300 35.95000 39.11500
C  -5.62500 37.29700 39.27300
C  -6.71300 38.29800 39.70900
C  -4.60100 37.19900 40.44700
C  -6.69500 35.49300 37.64000
C  -7.31900 36.42900 36.61000
H  -8.28600 35.87600 35.54500
N  -8.77500 40.55400 40.33900
C  -7.49100 40.76000 39.98300
C  -7.26900 42.16300 39.77300
C  -8.45400 42.85300 39.99900
C  -9.41000 41.75700 40.41600
C  -5.88500 42.77600 39.51200
C  -8.75500 44.33200 39.90900
O  -7.91300 45.13200 39.48700
C  -10.16900 44.90300 40.13000
N  -11.48700 39.55200 41.17400
C  -11.70100 40.92600 41.15200
C  -13.17700 41.29700 41.50800
C  -13.82300 39.90800 41.91900
C  -12.65000 38.93100 41.58500
C  -13.46300 42.48100 42.48300
C  -15.21200 39.57000 41.22600
C  -16.21600 38.83400 42.09200
N  -10.64100 36.87100 40.97800
C  -11.92000 36.52600 41.37900
C  -12.12400 35.21000 41.38700
C  -10.92600 34.65300 40.85200
C  -10.10500 35.73900 40.58700
C  -13.45900 34.57500 41.51100
C  -10.24400 33.40700 40.48500
O  -10.61000 32.25800 40.53400
C  -8.88000 33.88600 39.95600
C  -7.86500 33.10300 40.79000
O  -7.92900 32.78000 41.99000
O  -6.83300 32.69100 39.89600
C  -5.74900 31.81400 40.39100
H  -5.56400 39.94300 39.32300
H  -11.23400 42.82300 40.90400
H  -13.81800 37.12300 41.93200
H  -6.04200 35.12500 39.67500
H  -5.17500 37.68200 38.35800
H  -3.65100 37.54600 40.04100
H  -4.42000 36.19400 40.82800
H  -4.85300 37.79400 41.32500
H  -7.29500 34.58300 37.67000
H  -5.69500 35.22700 37.29800
H  -6.44500 36.88600 36.14700
H  -7.75700 37.21500 37.22600
H  -5.69600 43.37600 38.62100
H  -5.16300 41.96000 39.50400
H  -5.67700 43.44000 40.35100
H  -10.60600 44.68300 41.10400
H  -10.75900 44.74500 39.22700
H  -9.93200 45.96400 40.05300
H  -13.70600 41.45800 40.56900
H  -13.89900 39.79400 43.00100
H  -12.54600 43.02300 42.71300
H  -13.82600 42.02700 43.40500
H  -14.22700 43.20400 42.19700
H  -15.04700 38.88700 40.39300
H  -15.63500 40.44200 40.72700
H  -17.10900 39.45600 42.03200
H  -15.95900 38.79300 43.15000
H  -16.48800 37.83800 41.74200
H  -14.00500 34.71400 40.57800
H  -14.10200 34.94700 42.30800
H  -13.30700 33.51300 41.70100
H  -8.89900 33.50200 38.93600
H  -4.74100 32.17700 40.19100
H  -5.70500 30.84600 39.89200
H  -5.94200 31.62400 41.44600

