158

Mg 26.75400 50.50800 26.85200
C  24.97300 51.76800 29.65500
C  29.38900 49.79900 28.97300
C  28.78700 50.04500 24.13800
C  24.37000 51.96400 24.82400
N  27.03700 50.50900 29.05100
C  26.11700 51.01200 29.97400
C  26.63200 50.71200 31.36700
C  28.14800 50.49500 31.07500
C  28.22900 50.26900 29.60100
C  29.11700 51.65500 31.57600
C  25.86000 49.42800 31.84100
C  25.22100 49.49800 33.26200
H  25.97100 50.21300 34.38400
N  28.72600 49.75300 26.60800
C  29.64700 49.53200 27.61800
C  30.85700 49.08200 27.03800
C  30.79600 49.23700 25.60200
C  29.40900 49.71900 25.37100
C  31.98100 48.50900 27.84800
C  31.90600 49.00500 24.57600
O  31.73100 49.40500 23.41100
C  33.21700 48.43600 24.87800
N  26.59300 50.93500 24.86900
C  27.51500 50.55500 23.89400
C  26.88100 50.73900 22.49000
C  25.45100 51.24500 22.71900
C  25.44200 51.40700 24.24900
C  27.68600 51.71000 21.51000
C  24.34000 50.28900 22.23800
C  24.34000 48.77600 22.75700
N  24.97500 51.59000 27.09000
C  24.12900 52.20300 26.20500
C  23.08900 52.90200 26.84600
C  23.34600 52.74600 28.21500
C  24.56800 51.99100 28.31400
C  21.96200 53.60800 26.08300
C  22.85800 53.00000 29.59200
O  21.86000 53.67700 29.90000
C  23.92800 52.43600 30.59300
C  24.49100 53.47500 31.50900
O  25.58400 53.99200 31.34900
O  23.59400 53.94300 32.37200
C  24.11200 55.07700 33.14500
H  30.23100 49.61900 29.64400
H  29.33400 49.98800 23.19400
H  23.56500 52.32100 24.17800
H  26.46200 51.53800 32.05700
H  28.51200 49.57300 31.52800
H  29.87400 51.25900 32.25300
H  28.65200 52.44300 32.16900
H  29.60700 52.24300 30.80000
H  26.48100 48.53300 31.87600
H  25.01400 49.15400 31.21100
H  25.05600 48.43300 33.42600
H  24.25100 49.96500 33.09200
H  32.86800 49.14100 27.81800
H  32.15600 47.50500 27.46000
H  31.70400 48.45700 28.90100
H  33.78300 48.92300 25.67200
H  33.94200 48.55000 24.07200
H  32.98600 47.41800 25.19200
H  26.89200 49.74100 22.05300
H  25.45000 52.19700 22.18900
H  28.46300 52.21200 22.08700
H  27.11700 52.42400 20.91300
H  28.22900 51.17400 20.73200
H  24.42900 50.25400 21.15300
H  23.45000 50.91200 22.32500
H  23.36200 48.52200 23.16600
H  25.13300 48.57400 23.47700
H  24.57700 48.09300 21.94100
H  22.28200 54.08200 25.15500
H  21.52700 54.45100 26.62000
H  21.18000 52.87000 25.90900
H  23.58900 51.66400 31.28300
H  24.45700 55.96200 32.61000
H  24.91700 54.73300 33.79400
H  23.31900 55.41100 33.81500
Mg -12.07500 37.34000 42.90400
C  -9.65900 34.92200 41.78000
C  -10.30000 39.77000 41.37400
C  -14.85700 39.27400 43.05300
C  -14.08300 34.55600 44.03800
N  -10.16500 37.30300 41.77200
C  -9.29000 36.25400 41.41800
C  -8.12700 36.72400 40.58500
C  -8.24700 38.25600 40.84300
C  -9.65000 38.51800 41.43200
C  -7.20100 38.71600 41.94500
C  -8.24000 36.34100 39.01400
C  -7.19600 35.36100 38.47600
H  -6.07500 35.74100 37.53600
N  -12.44700 39.22600 42.48500
C  -11.53200 40.10100 41.88500
C  -12.12000 41.40600 41.81900
C  -13.43300 41.37100 42.38300
C  -13.65900 39.84300 42.68500
C  -11.41400 42.66400 41.25900
C  -14.28100 42.56200 42.54500
O  -13.98500 43.69300 42.11600
C  -15.62500 42.49100 43.20800
N  -14.18900 36.92700 43.39200
C  -15.10700 37.95400 43.46400
C  -16.46100 37.56000 44.06700
C  -16.21800 36.03100 44.38000
C  -14.77300 35.84300 43.92500
C  -17.01600 38.37700 45.25900
C  -17.30000 35.16500 43.61400
C  -17.63600 33.75500 44.20600
N  -11.90200 35.18800 42.92600
C  -12.75800 34.25300 43.56600
C  -12.01800 32.96400 43.65700
C  -10.80800 33.18200 42.92000
C  -10.80000 34.54600 42.47400
C  -12.38800 31.71300 44.40000
C  -9.61900 32.57900 42.40700
O  -9.11900 31.44100 42.56000
C  -8.83300 33.69500 41.69100
C  -7.54800 33.84600 42.36800
O  -6.55500 33.31900 41.96000
O  -7.60500 34.55500 43.57600
C  -6.37300 34.69300 44.35400
H  -9.64300 40.50700 40.90800
H  -15.75900 39.85400 43.25900
H  -14.75400 33.80300 44.45700
H  -7.25500 36.33200 41.10800
H  -8.32200 38.87200 39.94600
H  -6.75800 39.69800 41.77700
H  -6.44000 37.93500 41.96800
H  -7.77500 38.82000 42.86500
H  -8.24200 37.21100 38.35700
H  -9.26700 35.99500 38.89700
H  -7.87800 34.72400 37.91200
H  -6.83700 34.72600 39.28500
H  -10.33500 42.61300 41.40700
H  -11.66900 43.55500 41.83300
H  -11.79400 42.86500 40.25700
H  -16.06500 43.48200 43.09700
H  -15.61000 42.42200 44.29600
H  -16.28800 41.77900 42.71500
H  -17.18000 37.71600 43.26200
H  -16.34700 35.79200 45.43600
H  -16.19300 38.99700 45.61500
H  -17.27800 37.64000 46.01700
H  -17.86200 39.05900 45.17300
H  -17.05400 35.16000 42.55200
H  -18.16900 35.76700 43.87800
H  -17.42800 33.09600 43.36200
H  -18.72400 33.69600 44.23900
H  -17.11100 33.55600 45.14000
H  -11.88200 31.57100 45.35500
H  -12.23200 30.88200 43.71200
H  -13.44700 31.90900 44.57100
H  -8.76300 33.28500 40.68300
H  -6.66000 34.82100 45.39700
H  -5.80200 35.56600 44.04000
H  -5.79300 33.77600 44.25100

