158

Mg 35.47600 2.45000 29.19700
C  33.55800 3.80800 31.94700
C  38.20500 2.48200 31.15800
C  37.21500 1.77500 26.44700
C  32.56300 2.99900 27.22500
N  35.80600 3.10600 31.32900
C  34.85400 3.38900 32.27900
C  35.56700 3.41500 33.67200
C  37.09500 3.15200 33.38500
C  37.05400 2.91400 31.82000
C  38.14200 4.19700 33.77000
C  34.88800 2.59700 34.87200
C  35.66500 1.63400 35.78500
H  36.65300 2.19300 36.76300
N  37.48400 1.97500 28.91100
C  38.45300 2.03100 29.81300
C  39.67100 1.52100 29.24600
C  39.46000 1.32500 27.83600
C  38.00600 1.71300 27.65900
C  40.85500 1.25500 30.06200
C  40.27000 1.01000 26.66300
O  39.95100 0.99700 25.50100
C  41.66500 0.67900 26.96400
N  34.95900 2.43000 27.16000
C  35.81000 1.99700 26.24500
C  35.19100 1.90300 24.89100
C  33.68600 2.00000 25.16400
C  33.72300 2.48400 26.61700
C  35.76300 2.87900 23.86700
C  32.93900 0.62100 25.12700
C  32.99100 -0.36700 23.90800
N  33.41100 3.16000 29.50700
C  32.44800 3.42300 28.57600
C  31.25100 3.97700 29.27900
C  31.71000 4.13800 30.67000
C  32.99600 3.61900 30.73100
C  29.83700 4.33600 28.74100
C  31.26500 4.43100 31.96000
O  30.17000 4.77700 32.28800
C  32.42800 4.17300 32.88900
C  32.66000 5.39300 33.73000
O  33.44900 6.26200 33.53600
O  31.71500 5.39900 34.75100
C  31.58400 6.70400 35.40200
H  39.09000 2.32100 31.77800
H  37.66000 1.49000 25.49200
H  31.71700 3.04900 26.53600
H  35.57800 4.44700 34.02500
H  37.52900 2.28700 33.88500
H  38.51900 4.80400 32.94700
H  39.04200 3.66000 34.07100
H  37.76900 4.79400 34.60200
H  34.17800 1.97400 34.32700
H  34.21300 3.16700 35.51000
H  36.09300 0.84000 35.17300
H  34.94400 1.06400 36.37200
H  41.00600 0.17800 30.13200
H  40.76900 1.58200 31.09800
H  41.74800 1.71400 29.63600
H  41.79800 -0.10200 27.71300
H  42.21100 1.59600 27.18500
H  42.05200 0.24100 26.04400
H  35.40400 0.90700 24.50300
H  33.18200 2.81300 24.64000
H  36.74800 3.25200 24.14800
H  35.22600 3.82300 23.76500
H  35.99100 2.40900 22.91000
H  31.96000 1.06700 24.95300
H  33.10100 0.09900 26.07000
H  31.98900 -0.76500 23.74400
H  33.66700 -1.18600 24.15400
H  33.45400 0.15400 23.07100
H  29.28400 3.44500 28.44400
H  30.02200 4.94500 27.85700
H  29.21900 4.79000 29.51600
H  32.23400 3.27300 33.47300
H  31.12400 7.30100 34.61500
H  32.45500 7.10200 35.92300
H  30.86800 6.67500 36.22300
Mg -5.79400 24.93500 26.11000
C  -4.52000 26.66900 28.91200
C  -7.40300 22.89200 28.21000
C  -7.02000 23.37500 23.39300
C  -3.79300 26.92200 24.00100
N  -6.01900 24.85800 28.36300
C  -5.43100 25.67000 29.30500
C  -5.79600 25.20000 30.70800
C  -6.42300 23.81300 30.41900
C  -6.60200 23.80100 28.87800
C  -5.64100 22.59200 31.07800
C  -6.79400 26.20900 31.35000
C  -6.85600 26.36100 32.90200
H  -6.19700 25.29600 33.79600
N  -7.07100 23.47100 25.84400
C  -7.69700 22.73200 26.88200
C  -8.64700 21.81500 26.28500
C  -8.57900 21.96500 24.88600
C  -7.48000 22.92500 24.67100
C  -9.49600 20.88500 27.11500
C  -9.31400 21.27400 23.80500
O  -9.02500 21.42600 22.64500
C  -10.46000 20.35400 24.14700
N  -5.59400 25.25600 24.02500
C  -6.09500 24.42600 23.13600
C  -5.90400 24.87600 21.63100
C  -4.93900 26.11600 21.92400
C  -4.82200 26.18400 23.41400
C  -5.26400 23.74500 20.69700
C  -5.38600 27.45100 21.31400
C  -4.60800 27.91400 20.01700
N  -4.40300 26.45000 26.35400
C  -3.60900 27.14100 25.41000
C  -2.60500 27.92800 26.19600
C  -2.97300 27.81300 27.48900
C  -4.02600 26.91700 27.55300
C  -1.60000 28.88000 25.58000
C  -2.70400 28.37800 28.87100
O  -1.87400 29.21900 29.28400
C  -3.64000 27.55300 29.81900
C  -2.82100 26.67900 30.69300
O  -2.38200 25.59500 30.36300
O  -2.70200 27.24600 31.91900
C  -1.99000 26.32600 32.87200
H  -7.92200 22.23800 28.91400
H  -7.26000 22.80700 22.49200
H  -3.14200 27.59000 23.43300
H  -4.96900 25.22800 31.41700
H  -7.44700 23.79700 30.79100
H  -6.32700 22.13100 31.78900
H  -4.76700 22.91400 31.64500
H  -5.53400 21.86300 30.27500
H  -7.79300 26.03000 30.95200
H  -6.48800 27.18200 30.96300
H  -7.90000 26.49200 33.18300
H  -6.34700 27.29300 33.14900
H  -9.35400 19.93700 26.59600
H  -10.56000 21.12300 27.12200
H  -9.18000 20.70100 28.14200
H  -11.03000 19.96100 23.30400
H  -11.12500 20.77400 24.90100
H  -9.98900 19.40700 24.41100
H  -6.93500 25.19300 21.47400
H  -3.92400 25.84800 21.62800
H  -4.30800 24.08300 20.29800
H  -6.04200 23.48100 19.98100
H  -5.11600 22.84200 21.28900
H  -5.24300 28.20100 22.09200
H  -6.46000 27.52200 21.13900
H  -3.87300 27.12000 19.88600
H  -4.04400 28.80500 20.29500
H  -5.29300 28.05000 19.18000
H  -0.68600 28.80200 26.16900
H  -1.96500 29.89200 25.75500
H  -1.42600 28.71200 24.51800
H  -4.20500 28.26300 30.42200
H  -1.13800 25.77400 32.47600
H  -2.76800 25.70400 33.31300
H  -1.52600 27.02300 33.57000

