158

Mg 41.63100 8.93700 30.14500
C  43.50100 10.09100 32.81400
C  39.17700 7.93700 32.33200
C  39.96000 7.92900 27.44800
C  44.43400 9.48800 28.06500
N  41.34200 9.02900 32.33400
C  42.26600 9.50900 33.23900
C  41.71100 9.49600 34.70200
C  40.31300 8.51600 34.51900
C  40.25100 8.48000 32.96400
C  40.48400 7.08100 35.05400
C  41.49300 10.91600 35.26000
C  42.19400 11.29800 36.60300
H  41.41200 12.04000 37.70700
N  39.84300 8.00000 29.94600
C  38.91400 7.73700 30.93300
C  37.71600 7.25100 30.30800
C  37.95100 7.28100 28.88800
C  39.30300 7.78000 28.72300
C  36.58700 6.67500 31.07500
C  36.91600 7.07200 27.76200
O  37.22900 7.17800 26.54600
C  35.55900 6.73500 28.08800
N  42.12400 8.76800 28.07900
C  41.24400 8.36400 27.13300
C  41.81900 8.49600 25.66600
C  43.29300 8.92000 25.92600
C  43.37000 8.94100 27.45400
C  41.66000 7.21500 24.83400
C  43.76300 10.15800 25.14000
C  43.19700 11.50200 25.53900
N  43.53800 9.71600 30.34900
C  44.48600 9.98900 29.38000
C  45.59100 10.61500 30.05300
C  45.18700 10.74000 31.39000
C  44.03700 10.13500 31.50200
C  46.89500 10.88400 29.43500
C  45.69300 11.13100 32.67900
O  46.78900 11.55500 32.96800
C  44.57700 10.75800 33.72500
C  45.11500 9.76700 34.75400
O  45.28500 8.55300 34.59100
O  45.36200 10.47900 35.83600
C  46.13200 9.73700 36.90900
H  38.32700 7.63700 32.94800
H  39.33700 7.67400 26.58800
H  45.31700 9.68800 27.45400
H  42.41100 8.95000 35.33400
H  39.52000 9.01700 35.07400
H  41.51400 6.99100 35.40000
H  40.37300 6.29300 34.30900
H  39.80800 6.82800 35.87100
H  40.43800 10.88800 35.53200
H  41.57800 11.68100 34.48800
H  42.99400 12.00200 36.37600
H  42.70500 10.40600 36.96400
H  35.74400 7.36400 31.03300
H  36.81700 6.41900 32.10900
H  36.27700 5.71700 30.65700
H  34.96400 6.92000 27.19400
H  35.20600 7.44500 28.83700
H  35.56400 5.69300 28.40700
H  41.30000 9.30900 25.15800
H  43.99100 8.11600 25.69100
H  41.44100 6.32100 25.41600
H  42.51100 7.02700 24.17900
H  40.76300 7.29200 24.21800
H  43.50700 9.97900 24.09600
H  44.84500 10.10500 25.26000
H  42.38200 11.46100 26.26100
H  42.85200 11.93900 24.60200
H  43.96700 12.05800 26.07500
H  47.04600 11.90700 29.09000
H  46.89700 10.41900 28.44900
H  47.68800 10.49900 30.07700
H  44.25700 11.67500 34.21900
H  46.80900 8.94800 36.58100
H  45.43000 9.32500 37.63400
H  46.81300 10.38200 37.46400
Mg 9.73900 47.68000 25.73800
C  7.69000 48.34600 28.47200
C  12.41500 48.53100 27.71000
C  11.82600 46.87400 23.11400
C  6.96500 47.68900 23.65900
N  9.99900 48.06600 27.90700
C  9.04300 48.34900 28.79700
C  9.66500 48.57400 30.22700
C  11.08000 49.13400 29.77700
C  11.17100 48.56600 28.35900
C  11.21800 50.68200 29.70800
C  9.75200 47.22000 30.96300
C  10.31000 47.24400 32.39200
H  9.39100 46.64400 33.53000
N  11.80500 47.63500 25.44300
C  12.80200 48.04600 26.40600
C  14.15100 47.91600 25.81800
C  13.93900 47.46400 24.47000
C  12.49500 47.25700 24.33900
C  15.42200 48.32500 26.57700
C  14.98400 47.20800 23.31800
O  14.69600 46.88300 22.15500
C  16.48300 47.05900 23.72600
N  9.45500 47.27800 23.71100
C  10.40800 46.95200 22.75700
C  9.81100 46.42300 21.46600
C  8.30500 46.90000 21.68500
C  8.22000 47.30800 23.11000
C  10.51300 47.00900 20.18500
C  7.29400 45.87500 21.07700
C  6.15900 46.47400 20.21000
N  7.78500 47.92700 25.92100
C  6.71200 47.95900 25.02100
C  5.45300 48.16900 25.65400
C  5.76000 48.34200 27.02300
C  7.21100 48.20800 27.16800
C  4.10400 48.34800 25.03900
C  5.25700 48.68000 28.34800
O  4.12800 48.87600 28.57400
C  6.48500 48.66400 29.36000
C  6.02300 47.66700 30.36800
O  5.87700 46.47200 30.27500
O  5.92100 48.30200 31.55400
C  5.22300 47.57400 32.57700
H  13.25000 49.04500 28.18900
H  12.42800 46.32700 22.38600
H  6.03400 47.80600 23.10200
H  9.07300 49.24800 30.84500
H  11.84500 48.80500 30.48100
H  10.24400 51.15400 29.83900
H  11.62200 50.96700 28.73700
H  11.90700 51.10100 30.44100
H  10.30000 46.47500 30.38600
H  8.71800 46.88000 31.01400
H  10.55800 48.27800 32.63200
H  11.27100 46.73200 32.39600
H  15.25100 48.16500 27.64200
H  15.81500 49.32900 26.41700
H  16.24700 47.61800 26.48700
H  17.15500 46.93700 22.87600
H  16.53300 46.10800 24.25500
H  16.76400 47.90800 24.34900
H  9.92900 45.34700 21.34100
H  8.03500 47.79600 21.12600
H  10.99900 47.96100 20.39900
H  9.77100 47.21500 19.41400
H  11.19200 46.29400 19.72100
H  6.70800 45.38700 21.85600
H  7.81000 45.04800 20.58900
H  6.47200 47.37400 19.67900
H  5.28300 46.90700 20.69200
H  5.82000 45.73400 19.48400
H  3.92300 47.37600 24.57900
H  4.02100 49.21200 24.37900
H  3.37800 48.38000 25.85100
H  6.66600 49.58500 29.91500
H  5.96800 46.88400 32.97200
H  4.31900 47.10200 32.19300
H  4.82300 48.26300 33.32100

