158

Mg 41.55100 9.45800 29.69400
C  43.27300 10.87700 32.39100
C  39.09300 8.53200 31.85900
C  40.07400 8.10100 27.08000
C  44.33900 10.16000 27.65300
N  41.32700 9.61800 31.91900
C  42.08200 10.26400 32.81700
C  41.42600 10.34300 34.14800
C  40.32600 9.25000 34.08200
C  40.21100 9.09400 32.51700
C  40.59300 7.91300 34.87700
C  40.83800 11.73200 34.59000
C  40.21100 11.83900 36.05000
H  40.85800 12.68100 37.20800
N  39.77700 8.46600 29.50100
C  38.81500 8.29400 30.44300
C  37.54000 7.82900 29.87200
C  37.92900 7.51600 28.54100
C  39.25300 8.07900 28.32900
C  36.28200 7.53400 30.68900
C  37.05200 6.95100 27.42600
O  37.40900 6.88800 26.23300
C  35.60900 6.60900 27.71700
N  42.24700 8.92100 27.57700
C  41.39500 8.38800 26.75500
C  41.92500 8.61100 25.28300
C  43.27600 9.30100 25.50500
C  43.25000 9.51300 27.05600
C  42.05500 7.30200 24.42800
C  43.48700 10.67800 24.78600
C  42.65000 11.96700 25.18000
N  43.42500 10.31600 29.93800
C  44.41200 10.56100 28.99600
C  45.55200 11.23500 29.65700
C  45.10100 11.46500 30.95500
C  43.76500 10.86300 31.10300
C  46.80000 11.76000 28.88900
C  45.42300 12.10700 32.24100
O  46.40300 12.79400 32.54500
C  44.23200 11.68900 33.22800
C  44.93300 10.93500 34.37400
O  45.58700 9.93300 34.31800
O  44.70800 11.62100 35.53600
C  45.01600 10.98400 36.76500
H  38.24300 8.43300 32.53700
H  39.55200 7.75400 26.18500
H  45.18600 10.46400 27.03500
H  42.06600 10.01100 34.96500
H  39.36000 9.59000 34.45500
H  40.33100 7.00400 34.33600
H  40.01600 8.02700 35.79400
H  41.62800 7.91800 35.22000
H  40.14200 11.98100 33.78900
H  41.72300 12.36700 34.55000
H  40.16300 10.86100 36.52900
H  39.20900 12.24400 35.90500
H  36.42600 7.81500 31.73300
H  36.19600 6.44800 30.68100
H  35.45800 8.05300 30.20000
H  34.91700 7.39600 28.01800
H  35.64900 5.81500 28.46200
H  35.15200 6.13000 26.85100
H  41.30700 9.42600 24.90800
H  44.18300 8.75000 25.25600
H  42.94900 6.80900 24.81000
H  42.19500 7.61300 23.39300
H  41.20900 6.70300 24.76400
H  43.27200 10.50500 23.73200
H  44.54100 10.91300 24.93200
H  43.45700 12.67500 25.37000
H  42.10700 11.82000 26.11300
H  41.97100 12.33100 24.41000
H  46.86200 11.22900 27.94000
H  47.71700 11.50900 29.42300
H  46.67200 12.83900 28.80400
H  43.89600 12.66700 33.57200
H  45.59100 10.06400 36.65900
H  44.09800 10.69500 37.27600
H  45.53200 11.73700 37.36100
Mg 1.26800 42.71800 26.20600
C  2.69500 42.65800 29.33200
C  -1.59700 41.48700 27.63100
C  -0.00300 42.48700 23.14500
C  4.54800 43.33900 24.84800
N  0.60600 42.20500 28.24300
C  1.28900 42.54400 29.40000
C  0.45000 42.39300 30.64800
C  -0.91700 41.92700 30.07700
C  -0.64100 41.78600 28.54200
C  -1.62500 40.59100 30.63800
C  0.50300 43.69400 31.50900
C  0.75800 43.55200 33.07800
H  0.36200 42.22200 33.67000
N  -0.62100 42.06900 25.46600
C  -1.64200 41.55200 26.19000
C  -2.66600 41.14100 25.33100
C  -2.14600 41.20100 23.98800
C  -0.91500 41.98600 24.14800
C  -3.94800 40.51000 25.89200
C  -2.69500 40.68600 22.68400
O  -2.12600 40.92000 21.67100
C  -3.97000 39.88400 22.54300
N  2.20200 43.06200 24.31700
C  1.34900 42.90800 23.24700
C  2.16500 43.15300 21.97300
C  3.48900 43.72700 22.50800
C  3.50500 43.30100 23.98000
C  2.26800 41.88000 21.07500
C  3.65900 45.21300 22.28000
C  2.39800 46.08200 22.50000
N  3.18300 42.97000 26.88600
C  4.43200 43.27200 26.27200
C  5.43300 43.33300 27.27300
C  4.80400 43.04400 28.45500
C  3.43600 42.88700 28.19400
C  6.89900 43.46100 27.06600
C  5.04100 43.07300 29.84800
O  6.07300 43.18900 30.46200
C  3.65900 42.79900 30.54800
C  3.94700 41.53300 31.28400
O  4.18100 40.45500 30.74600
O  4.09000 41.83400 32.54700
C  4.44900 40.73400 33.44800
H  -2.52200 41.13700 28.09500
H  -0.28900 42.20000 22.13100
H  5.57800 43.54300 24.54700
H  0.90800 41.55200 31.16700
H  -1.67700 42.70200 30.17300
H  -1.63000 39.75200 29.94300
H  -2.62300 40.80900 31.02000
H  -0.96900 40.22400 31.42700
H  -0.39700 44.26700 31.28600
H  1.31200 44.30200 31.10300
H  0.13800 44.30000 33.57200
H  1.81700 43.66200 33.31000
H  -3.99500 39.44600 25.66000
H  -4.78200 41.11600 25.53900
H  -4.06300 40.73500 26.95200
H  -4.21000 39.38300 23.48100
H  -3.89100 39.22000 21.68100
H  -4.87300 40.48500 22.43500
H  1.64300 43.86400 21.33200
H  4.33200 43.20200 22.05900
H  1.77900 40.97300 21.43000
H  3.32000 41.64700 20.91000
H  1.77800 42.17300 20.14600
H  3.97300 45.28300 21.23900
H  4.53200 45.60200 22.80400
H  1.50800 45.55400 22.84300
H  2.02800 46.56500 21.59500
H  2.68000 46.78300 23.28500
H  7.19800 43.84700 26.09100
H  7.34700 42.51400 27.36800
H  7.20200 44.18200 27.82500
H  3.43700 43.67400 31.15800
H  4.12600 41.01300 34.45200
H  5.53400 40.69600 33.53700
H  4.14200 39.72200 33.18700

