158

Mg 24.69000 -5.22700 46.18300
C  26.63400 -2.80200 44.58200
C  22.05000 -4.55500 44.23600
C  23.42000 -8.27300 46.97200
C  27.72700 -6.32400 47.79800
N  24.51400 -3.95600 44.50600
C  25.35400 -2.98200 44.06300
C  24.67000 -2.03400 42.96500
C  23.14400 -2.44200 43.16700
C  23.21400 -3.71100 43.99500
C  22.30000 -1.27300 43.68500
C  25.27500 -2.49400 41.63400
C  25.68500 -1.29700 40.72900
H  25.13300 -1.26200 39.27900
N  22.91300 -6.15800 45.81500
C  21.92000 -5.72400 45.02300
C  20.78500 -6.58900 45.05600
C  21.18300 -7.66300 45.81600
C  22.56700 -7.40700 46.29200
C  19.55000 -6.30900 44.26600
C  20.28000 -8.75300 46.29100
O  19.13900 -8.81000 45.84300
C  20.67200 -9.92300 47.24700
N  25.39900 -7.02600 47.45000
C  24.71700 -8.14400 47.44900
C  25.49900 -9.27500 48.12100
C  26.89700 -8.69100 48.48900
C  26.67200 -7.24500 47.87400
C  24.83100 -10.02000 49.32200
C  28.21600 -9.43900 47.87500
C  28.20700 -10.98800 47.86500
N  26.69200 -4.57500 46.37100
C  27.77400 -5.11600 47.04300
C  28.96800 -4.25600 46.81100
C  28.55800 -3.34800 45.83000
C  27.18400 -3.59100 45.53800
C  30.28100 -4.33300 47.44400
C  28.98600 -2.36500 45.00100
O  30.09600 -1.95100 44.83100
C  27.79200 -1.87900 44.12600
C  27.45100 -0.47500 44.34100
O  27.03600 -0.11900 45.43700
O  27.79100 0.30100 43.25200
C  27.88400 1.74400 43.40100
H  21.19400 -4.28100 43.61700
H  23.17000 -9.33400 47.02500
H  28.66200 -6.68600 48.23000
H  24.76700 -0.99600 43.28400
H  22.67300 -2.73600 42.23000
H  22.87300 -0.44700 44.10700
H  21.56100 -1.48700 44.45700
H  21.63100 -0.96700 42.88100
H  24.55400 -3.10300 41.08900
H  26.18900 -3.02900 41.89400
H  26.77100 -1.20700 40.74500
H  25.21000 -0.40000 41.12700
H  19.01400 -7.23100 44.04100
H  19.74800 -5.72500 43.36700
H  18.73700 -5.84800 44.82600
H  19.75600 -10.49100 47.41100
H  21.03300 -9.54700 48.20500
H  21.38800 -10.65100 46.86500
H  25.68700 -9.94700 47.28400
H  26.97000 -8.52200 49.56300
H  24.87900 -11.07200 49.04100
H  23.79900 -9.67900 49.41300
H  25.32300 -9.93500 50.29100
H  29.07300 -9.15600 48.48500
H  28.38800 -9.20300 46.82500
H  28.78400 -11.49700 48.63700
H  28.66300 -11.29600 46.92400
H  27.15600 -11.26400 47.95600
H  30.79400 -5.24400 47.13600
H  30.25400 -4.47100 48.52500
H  30.88400 -3.44900 47.23300
H  28.01700 -1.92100 43.06100
H  27.86900 2.05100 44.44700
H  27.06600 2.26900 42.90900
H  28.85200 2.08700 43.03500
Mg -12.41400 16.80100 41.06600
C  -9.39600 15.23000 40.49500
C  -10.97400 19.78500 40.36400
C  -15.54900 18.19900 40.61100
C  -13.91800 13.66100 41.18400
N  -10.43900 17.38500 40.42900
C  -9.31800 16.64900 40.31900
C  -8.07500 17.46400 39.94800
C  -8.59500 18.91200 40.01800
C  -10.07700 18.67100 40.35700
C  -7.89100 19.78200 41.10600
C  -7.42300 16.98400 38.57900
C  -5.93000 17.32900 38.43500
H  -5.39100 17.59700 37.04600
N  -13.12100 18.70500 40.74100
C  -12.33500 19.80500 40.45200
C  -13.22000 20.97000 40.44000
C  -14.51600 20.52800 40.39900
C  -14.45500 19.06400 40.64500
C  -12.75300 22.40300 40.22200
C  -15.76300 21.48100 40.29500
O  -15.77600 22.63300 39.98600
C  -17.04800 20.97300 40.69000
N  -14.41300 16.01200 40.87800
C  -15.54800 16.81300 40.68100
C  -16.83300 15.94800 40.55400
C  -16.33700 14.54200 40.85400
C  -14.78600 14.67300 40.98700
C  -18.01700 16.39500 41.43400
C  -16.81300 13.38000 39.87700
C  -18.06400 12.51300 40.24900
N  -11.80300 14.86500 41.03800
C  -12.49200 13.67000 41.06300
C  -11.57800 12.49700 41.16700
C  -10.36900 13.14700 40.90600
C  -10.56100 14.54800 40.72500
C  -11.89500 11.07600 41.44300
C  -8.93200 12.83700 40.91100
O  -8.33300 11.82100 41.21900
C  -8.29400 14.19700 40.47500
C  -7.12000 14.40300 41.42600
O  -7.23700 14.94000 42.50800
O  -6.00000 13.99400 40.83600
C  -4.87000 14.06300 41.68200
H  -10.41100 20.70500 40.19200
H  -16.47400 18.68300 40.29000
H  -14.25000 12.63400 41.35500
H  -7.33100 17.25400 40.71600
H  -8.73200 19.31700 39.01600
H  -6.97300 19.32000 41.46900
H  -8.54600 19.85700 41.97400
H  -7.73100 20.77400 40.68300
H  -7.85900 17.42500 37.68200
H  -7.63500 15.91600 38.54100
H  -5.14100 16.66200 38.78200
H  -5.81600 18.26500 38.98200
H  -12.88100 22.59300 39.15700
H  -11.72500 22.58000 40.53800
H  -13.41600 22.99200 40.85700
H  -17.49000 20.25700 39.99800
H  -17.67500 21.85700 40.81000
H  -16.85900 20.52900 41.66800
H  -17.18700 16.00500 39.52400
H  -16.48400 14.43300 41.92800
H  -18.05700 15.90400 42.40700
H  -18.98000 16.22800 40.95100
H  -18.03100 17.48000 41.52800
H  -15.93400 12.73900 39.81000
H  -17.03300 13.82000 38.90400
H  -18.27700 12.63500 41.31100
H  -17.84700 11.53100 39.82900
H  -18.88600 12.83200 39.60900
H  -10.99400 10.59600 41.82300
H  -11.95500 10.69800 40.42300
H  -12.90500 10.88800 41.80800
H  -7.88500 14.01500 39.48100
H  -4.75800 15.03800 42.15800
H  -3.98300 13.88600 41.07400
H  -4.65500 13.24300 42.36700

