158

Mg 42.18400 41.75800 25.93300
C  41.47700 44.11400 28.47100
C  43.21900 39.62600 28.55900
C  43.04700 39.53200 23.69700
C  41.77800 44.22200 23.59200
N  42.25300 41.88200 28.24400
C  41.71300 42.89700 29.02900
C  41.78100 42.49500 30.53000
C  42.39200 41.10700 30.51300
C  42.74000 40.88400 29.03100
C  43.51800 40.87400 31.43800
C  40.41700 42.55700 31.39200
C  40.54100 43.22500 32.78300
H  40.02100 42.44800 34.00100
N  42.95500 39.87100 26.08100
C  43.25400 39.15600 27.22500
C  43.56900 37.85600 26.83800
C  43.46600 37.75200 25.44500
C  43.20400 39.09300 24.99700
C  44.12000 36.85800 27.84000
C  43.70600 36.55300 24.55100
O  43.91400 36.64900 23.30100
C  43.72200 35.10600 25.18000
N  42.45900 41.88700 23.89400
C  42.74100 40.76800 23.14600
C  42.86800 41.19800 21.67500
C  42.10100 42.53100 21.65600
C  42.07400 42.92400 23.14000
C  44.30800 41.25700 21.10500
C  40.68500 42.63400 21.12800
C  39.48600 42.29500 22.02500
N  41.50800 43.72800 25.90700
C  41.54000 44.62600 24.88400
C  41.26900 45.97400 25.33700
C  41.10500 45.79100 26.73600
C  41.33100 44.40700 27.08100
C  41.11700 47.13400 24.54500
C  40.77200 46.43000 27.97600
O  40.42900 47.61300 28.13800
C  40.98300 45.37700 29.16600
C  42.02000 45.90500 30.10800
O  43.20900 46.00100 29.89800
O  41.36500 46.33400 31.28000
C  42.31800 46.98500 32.27200
H  43.46000 39.00300 29.42300
H  43.31800 38.79000 22.94300
H  41.56300 44.96600 22.82100
H  42.46200 43.22300 30.97100
H  41.57600 40.42100 30.73700
H  43.62700 41.62000 32.22500
H  44.49500 40.82100 30.95800
H  43.27800 39.89900 31.86300
H  40.09000 41.54000 31.60700
H  39.64300 43.10100 30.85100
H  39.88700 44.09700 32.79100
H  41.53900 43.59300 33.02200
H  43.52300 35.94600 27.87600
H  44.25400 37.32000 28.81800
H  45.08800 36.54400 27.44900
H  43.58300 34.45400 24.31800
H  42.89100 34.98800 25.87600
H  44.63900 34.82000 25.69600
H  42.29700 40.51000 21.05200
H  42.63600 43.34500 21.16600
H  44.95800 40.77400 21.83500
H  44.68700 42.27000 20.97100
H  44.40100 40.63200 20.21600
H  40.57200 41.97100 20.27000
H  40.52600 43.68400 20.88300
H  39.78200 41.93900 23.01200
H  38.92800 41.51400 21.50900
H  38.84000 43.16900 22.10000
H  40.57500 46.79800 23.66100
H  42.15500 47.35200 24.29400
H  40.57000 47.88300 25.11800
H  40.11100 45.10100 29.75900
H  42.66200 46.16200 32.89800
H  41.67400 47.55600 32.94100
H  43.12700 47.52900 31.78500
Mg 9.34800 47.80600 26.46400
C  7.29500 48.16900 29.12500
C  11.99900 49.02100 28.32400
C  11.42300 47.34700 23.74400
C  6.68700 47.47800 24.29800
N  9.60400 48.49900 28.53900
C  8.60000 48.47800 29.49600
C  9.17800 48.91600 30.85000
C  10.56300 49.53000 30.43700
C  10.80600 48.96800 29.01100
C  10.65500 51.08500 30.41400
C  9.38100 47.79300 31.93900
C  8.62500 48.02000 33.29400
H  8.58800 46.84900 34.26000
N  11.43400 48.08400 26.12100
C  12.37600 48.61900 27.03100
C  13.70200 48.60700 26.46300
C  13.47100 48.07700 25.10100
C  12.04500 47.83200 24.93200
C  14.99600 48.94100 27.33500
C  14.60800 47.88800 24.10200
O  14.41100 47.29000 22.99100
C  15.98500 48.14900 24.54900
N  9.10200 47.56400 24.29500
C  10.11200 47.18100 23.44700
C  9.56300 47.07200 22.02400
C  8.00200 47.12900 22.19200
C  7.92300 47.39900 23.72000
C  10.07500 48.22000 21.13900
C  7.33200 45.79400 21.73400
C  6.48900 45.88100 20.45900
N  7.36900 47.75200 26.63500
C  6.40900 47.59900 25.72400
C  5.14900 47.51800 26.38000
C  5.43400 47.84400 27.73800
C  6.81100 47.98700 27.84100
C  3.87200 47.38200 25.76400
C  4.82200 48.11100 28.99200
O  3.65700 48.16500 29.21400
C  6.02400 48.21600 30.02900
C  5.94200 47.01700 30.94700
O  6.20900 45.85700 30.63900
O  5.40600 47.43800 32.13100
C  5.10900 46.39500 33.14900
H  12.80500 49.51100 28.87400
H  12.04700 47.12400 22.87600
H  5.78000 47.19600 23.75800
H  8.45500 49.66700 31.16900
H  11.40700 49.06400 30.94500
H  11.05700 51.50900 29.49500
H  11.35200 51.49500 31.14600
H  9.73400 51.65200 30.54900
H  10.43500 47.58300 32.11500
H  9.10600 46.84600 31.47400
H  7.62100 48.32800 33.00400
H  9.07600 48.86500 33.81400
H  14.74300 48.93100 28.39500
H  15.37300 49.90200 26.98600
H  15.80900 48.23700 27.15600
H  16.65500 47.85900 23.73900
H  16.08700 47.28000 25.20000
H  16.28700 49.08300 25.02200
H  9.88800 46.18900 21.47300
H  7.47500 47.94600 21.69900
H  10.71000 48.89900 21.70800
H  9.26700 48.82900 20.73400
H  10.65300 47.83700 20.29700
H  6.67100 45.51100 22.55300
H  8.10600 45.02700 21.69400
H  5.61600 45.24800 20.61900
H  7.17200 45.54300 19.67900
H  6.15200 46.87900 20.17900
H  3.12300 47.83000 26.41700
H  3.58100 46.33600 25.66700
H  3.82900 47.83300 24.77200
H  6.04500 49.13700 30.61200
H  5.03700 45.39300 32.72700
H  4.22000 46.73400 33.68100
H  5.83200 46.35400 33.96400

