158

Mg 35.74300 1.99900 30.51800
C  33.02700 3.09900 32.62100
C  37.77900 2.27000 33.01600
C  38.22100 1.25500 28.29300
C  33.50600 2.15800 27.74200
N  35.43300 2.73500 32.57000
C  34.28200 2.93000 33.27800
C  34.58100 3.07700 34.80100
C  36.13500 2.99700 34.77500
C  36.48000 2.66900 33.37000
C  36.94000 4.18400 35.30700
C  33.84900 1.95000 35.61800
C  33.69400 2.12800 37.09200
H  34.39000 3.33900 37.75400
N  37.77400 1.73000 30.64000
C  38.46000 1.80600 31.82300
C  39.72200 1.30200 31.63800
C  39.82800 0.94700 30.25300
C  38.56700 1.31100 29.64400
C  40.69500 1.17100 32.83300
C  41.04200 0.35200 29.54100
O  41.00200 0.08200 28.36000
C  42.33000 -0.04200 30.22600
N  35.80400 1.72500 28.33800
C  36.99000 1.42700 27.69000
C  36.82400 1.45900 26.15800
C  35.24200 1.66300 25.99800
C  34.80900 1.73800 27.46500
C  37.58300 2.65300 25.42700
C  34.51700 0.55800 25.11700
C  34.08700 -0.73500 25.88900
N  33.68600 2.40100 30.14700
C  32.94000 2.47800 29.03700
C  31.61700 2.95000 29.35400
C  31.59900 3.14400 30.69200
C  32.90200 2.90900 31.16400
C  30.55600 3.17700 28.26600
C  30.75500 3.62300 31.81400
O  29.59600 3.91900 31.87900
C  31.63800 3.61400 33.14700
C  31.68300 4.89500 33.78900
O  31.79700 5.94500 33.20700
O  31.35400 4.68900 35.09100
C  31.55200 5.91100 36.03900
H  38.44400 2.24500 33.88200
H  39.00500 0.93400 27.60400
H  32.97600 2.40800 26.82000
H  34.18500 4.06000 35.05500
H  36.39600 2.10800 35.35000
H  37.73200 3.76500 35.92800
H  36.30900 4.79700 35.95100
H  37.20700 4.86700 34.50000
H  34.45100 1.07200 35.38300
H  32.88500 1.81700 35.12700
H  33.87900 1.29300 37.76800
H  32.65800 2.43700 37.23200
H  41.47500 0.41700 32.73200
H  40.06100 1.03000 33.70800
H  41.24900 2.11000 32.85600
H  42.05800 -0.80600 30.95400
H  42.97800 0.77100 30.55300
H  43.04000 -0.52600 29.55600
H  37.00500 0.47100 25.73400
H  34.93700 2.63900 25.61900
H  38.35200 2.17900 24.81800
H  38.02900 3.38100 26.10500
H  37.02800 3.27900 24.72900
H  35.10600 0.29400 24.23900
H  33.63200 0.91100 24.58900
H  34.45300 -0.73400 26.91600
H  34.51600 -1.63400 25.44600
H  33.01500 -0.92800 25.92400
H  29.60900 3.54600 28.66100
H  30.38900 2.16400 27.90200
H  30.84400 3.91000 27.51200
H  31.35600 2.88300 33.90500
H  31.68000 5.50300 37.04200
H  30.58900 6.42200 36.00700
H  32.40700 6.50300 35.71300
Mg 49.45800 46.00400 42.34900
C  46.02300 46.54000 41.49800
C  49.13400 42.91100 41.01400
C  52.60300 45.74600 42.69700
C  49.63200 49.43900 43.20700
N  47.83100 44.89100 41.22400
C  46.48000 45.28000 41.03400
C  45.66800 44.12900 40.45100
C  46.71800 42.94400 40.40800
C  47.96700 43.58000 40.97800
C  46.31700 41.73400 41.21400
C  45.13100 44.55600 39.05600
C  43.60700 44.26900 38.68600
H  43.47800 43.36000 37.41900
N  50.74600 44.43500 42.02500
C  50.40700 43.24100 41.42800
C  51.65900 42.37200 41.48100
C  52.70100 43.15700 42.05400
C  52.03600 44.50000 42.28400
C  51.65900 40.91700 41.12500
C  54.12300 42.82900 42.09900
O  54.52600 41.79200 41.60100
C  55.19500 43.77100 42.66300
N  50.91700 47.52500 42.77900
C  52.18600 47.05500 42.87400
C  53.16100 48.24800 43.19200
C  52.14300 49.42400 43.61500
C  50.85200 48.80800 43.11600
C  54.09400 47.86100 44.39300
C  52.41200 50.85800 42.97500
C  52.57800 51.99800 44.06100
N  48.12000 47.75900 42.32000
C  48.33300 49.04000 42.72000
C  47.05100 49.76100 42.70300
C  46.10500 48.84000 42.25200
C  46.78200 47.59600 42.03500
C  47.02000 51.22700 43.27700
C  44.66500 48.61700 41.94500
O  43.66500 49.34100 42.04300
C  44.60600 47.19700 41.23300
C  43.43600 46.48000 41.82000
O  42.39900 46.27700 41.25000
O  43.75000 45.99400 43.04700
C  42.59400 45.43800 43.74600
H  49.11300 41.86600 40.69900
H  53.64000 45.54300 42.97300
H  49.66500 50.49400 43.48500
H  44.82800 43.75300 41.03600
H  46.91400 42.56400 39.40600
H  45.29400 41.71600 41.58800
H  47.02600 41.67500 42.04000
H  46.36400 40.88900 40.52700
H  45.58200 43.97600 38.25000
H  45.47400 45.56100 38.80800
H  43.04000 45.18100 38.50100
H  43.23300 43.72900 39.55600
H  52.31600 40.80200 40.26300
H  50.65000 40.57700 40.89000
H  52.07500 40.29100 41.91500
H  54.88200 44.23600 43.59800
H  55.62200 44.35900 41.85100
H  56.11500 43.20700 42.81200
H  53.80100 48.40800 42.32400
H  52.12200 49.51100 44.70100
H  53.80600 46.89900 44.81500
H  54.09900 48.63300 45.16300
H  55.08500 47.95100 43.94900
H  51.51200 51.11300 42.41500
H  53.23800 50.76100 42.27100
H  53.56700 52.43100 43.91200
H  52.48100 51.65300 45.09000
H  51.77100 52.72800 43.99200
H  47.72500 51.77800 42.65500
H  47.34400 51.24900 44.31800
H  46.03000 51.67300 43.17700
H  44.46000 47.38600 40.17000
H  42.87400 45.47100 44.79900
H  42.50100 44.41100 43.39200
H  41.70000 46.04200 43.59100

