158

Mg -1.31700 17.35000 26.76900
C  -1.99800 15.15000 29.41400
C  -2.03900 19.94400 29.02000
C  -1.23100 19.55000 24.18200
C  -1.33400 14.63700 24.65000
N  -2.00100 17.50300 28.98400
C  -2.18700 16.49800 29.79700
C  -2.51000 16.92000 31.27100
C  -2.66500 18.46400 31.06500
C  -2.20700 18.66600 29.56600
C  -4.01200 19.13700 31.47000
C  -1.53200 16.53500 32.44200
C  -1.50900 17.26200 33.77200
H  -0.27800 17.04500 34.60700
N  -1.52000 19.42900 26.60600
C  -1.79600 20.34900 27.64300
C  -1.77500 21.66500 27.14000
C  -1.64900 21.57300 25.74200
C  -1.43200 20.15300 25.44800
C  -2.05600 22.82800 28.03900
C  -1.75600 22.65300 24.67200
O  -1.74900 22.48400 23.47200
C  -1.91000 24.07200 25.09500
N  -1.39900 17.17700 24.79100
C  -1.22600 18.16800 23.87500
C  -0.88800 17.65400 22.42900
C  -0.73700 16.16900 22.75800
C  -1.17900 15.97400 24.18600
C  -1.98700 18.05600 21.44100
C  0.60200 15.55600 22.46100
C  1.76500 16.19700 23.26400
N  -1.54900 15.30900 26.97700
C  -1.54400 14.33700 26.03700
C  -1.81700 13.06500 26.53300
C  -1.88000 13.29200 27.93900
C  -1.73200 14.70900 28.11200
C  -1.96200 11.75700 25.71300
C  -2.14200 12.65100 29.18000
O  -2.26900 11.47100 29.51700
C  -2.24000 13.83600 30.20200
C  -1.19000 13.53400 31.16400
O  -0.08900 13.93300 31.10100
O  -1.85100 12.95600 32.21200
C  -0.99300 12.66500 33.37200
H  -2.23500 20.72100 29.76200
H  -1.14400 20.16200 23.28100
H  -1.35900 13.87400 23.87000
H  -3.42400 16.36000 31.46900
H  -1.84700 19.01100 31.53400
H  -4.70000 18.30300 31.60900
H  -4.34300 19.73700 30.62200
H  -3.92100 19.86300 32.27800
H  -0.55900 16.42800 31.96300
H  -1.76500 15.51100 32.73600
H  -2.36300 16.94100 34.36900
H  -1.58200 18.34800 33.72000
H  -3.11900 22.99900 27.87300
H  -1.48000 23.71500 27.77400
H  -1.93500 22.67800 29.11200
H  -1.09100 24.36300 25.75200
H  -2.89900 24.17100 25.54300
H  -1.72600 24.73500 24.25000
H  0.04000 18.10900 22.08300
H  -1.45200 15.65700 22.11400
H  -2.72100 18.79300 21.76500
H  -2.49000 17.12100 21.19200
H  -1.45300 18.59000 20.65500
H  0.71300 15.67700 21.38300
H  0.60000 14.48400 22.65900
H  1.43500 16.79700 24.11200
H  2.22200 16.77400 22.46100
H  2.47500 15.41900 23.54500
H  -0.94900 11.53100 25.37700
H  -2.60300 11.79000 24.83200
H  -2.36200 11.03200 26.42100
H  -3.20900 13.91400 30.69500
H  -0.55800 11.66700 33.33100
H  -1.64100 12.75100 34.24400
H  -0.18900 13.39000 33.49600
Mg 8.70200 4.00600 27.91900
C  9.89600 2.30800 30.90900
C  6.69000 5.81400 30.09700
C  7.39800 5.32300 25.32800
C  10.58800 1.63200 26.08100
N  8.19400 3.75400 30.26100
C  8.93300 3.21200 31.25500
C  8.53500 3.73500 32.70000
C  7.35200 4.70400 32.27400
C  7.46200 4.81800 30.73600
C  5.98900 4.24100 32.76100
C  9.73600 4.46700 33.40000
C  10.19400 3.80100 34.73800
H  10.67600 4.71100 35.83000
N  7.36300 5.49800 27.70900
C  6.61700 6.12200 28.72500
C  5.77600 7.18700 28.11800
C  6.19300 7.24700 26.72200
C  7.02800 5.99000 26.52000
C  4.89100 8.00200 28.93900
C  5.74200 8.21000 25.54600
O  5.95800 8.03700 24.32900
C  4.93200 9.37800 25.88900
N  8.85100 3.41600 25.98500
C  8.18900 4.19400 25.02300
C  8.46600 3.62500 23.65600
C  9.63700 2.57000 23.91200
C  9.76600 2.57100 25.42600
C  7.16600 3.19900 22.90900
C  11.00300 2.87400 23.16000
C  11.70800 1.59500 22.66600
N  10.05600 2.31500 28.34400
C  10.68800 1.45800 27.44500
C  11.51700 0.53800 28.20100
C  11.20100 0.87700 29.55200
C  10.31800 1.94200 29.59300
C  12.56200 -0.50400 27.80200
C  11.74500 0.63800 30.90800
O  12.75700 0.00800 31.26500
C  10.77500 1.48700 31.84900
C  9.90400 0.66400 32.61300
O  9.14300 -0.22600 32.16400
O  10.22700 0.86100 33.97100
C  9.07500 0.29900 34.84800
H  5.96900 6.34000 30.72600
H  6.96000 5.83400 24.46800
H  11.20400 0.94400 25.49900
H  8.23800 2.93800 33.38200
H  7.51300 5.75100 32.52800
H  5.95000 3.16100 32.90400
H  5.25900 4.44200 31.97700
H  5.78900 4.82200 33.66100
H  9.60900 5.53000 33.60500
H  10.65800 4.34600 32.83200
H  11.11400 3.24200 34.56800
H  9.44500 3.12700 35.15300
H  4.02200 7.37400 29.13700
H  4.63600 8.95600 28.47900
H  5.29900 8.32600 29.89700
H  5.58500 10.11700 26.35400
H  4.11200 8.96400 26.47400
H  4.44100 9.82100 25.02200
H  8.85500 4.39200 22.98600
H  9.29400 1.57000 23.64400
H  6.24200 3.56100 23.36100
H  7.10900 2.16100 22.58400
H  7.23000 3.67300 21.92900
H  11.71000 3.39500 23.80600
H  10.85200 3.54600 22.31500
H  12.14800 1.75200 21.68100
H  10.98900 0.77700 22.63000
H  12.38200 1.17100 23.41000
H  12.01300 -1.41900 27.58100
H  13.36100 -0.61000 28.53600
H  13.01500 -0.16500 26.86900
H  11.36600 2.11400 32.51700
H  9.39800 -0.70600 35.11900
H  8.08700 0.28700 34.38800
H  8.99600 0.75800 35.83300

