158

Mg 24.16900 -7.64000 47.09400
C  26.82800 -5.67700 46.25600
C  22.35700 -6.49100 44.48600
C  21.80600 -9.87400 47.80800
C  26.43500 -9.52500 49.28500
N  24.61600 -6.29800 45.56100
C  25.65000 -5.41100 45.46800
C  25.53700 -4.49500 44.22800
C  23.98500 -4.64700 43.87100
C  23.66400 -5.99600 44.66700
C  23.08300 -3.40800 44.12300
C  26.47900 -4.75700 43.00900
C  27.23300 -3.46300 42.53600
H  26.99500 -3.05500 41.10800
N  22.34200 -8.03000 46.30700
C  21.76500 -7.45900 45.21900
C  20.40300 -7.82100 45.14100
C  20.19600 -8.77400 46.17000
C  21.50200 -8.97300 46.82100
C  19.46200 -7.20900 44.10800
C  18.91800 -9.53800 46.42500
O  17.87600 -9.34900 45.73300
C  18.67800 -10.51300 47.62800
N  24.16100 -9.55000 48.28200
C  23.01500 -10.27900 48.37100
C  23.22000 -11.46500 49.38000
C  24.62900 -11.20800 49.96000
C  25.13600 -10.04600 49.13900
C  22.12300 -11.72300 50.40200
C  25.55900 -12.44600 49.99000
C  26.33000 -12.71200 51.36500
N  26.26500 -7.63900 47.74100
C  26.99100 -8.40000 48.56500
C  28.29300 -7.79100 48.68100
C  28.29100 -6.71900 47.81900
C  27.02700 -6.70100 47.24000
C  29.34600 -8.37400 49.55500
C  29.00500 -5.57100 47.25800
O  30.10600 -5.14600 47.47000
C  28.09600 -4.89900 46.14600
C  27.78900 -3.51900 46.55400
O  27.36200 -3.12600 47.63100
O  28.05100 -2.75500 45.52000
C  27.76000 -1.31300 45.55000
H  21.81800 -5.92900 43.72000
H  21.00700 -10.53800 48.14500
H  27.13500 -10.14800 49.84700
H  25.80500 -3.50600 44.59900
H  23.86100 -4.69600 42.78900
H  23.75500 -2.64300 44.51300
H  22.25700 -3.72500 44.75900
H  22.60100 -3.05900 43.20900
H  25.87100 -5.28500 42.27600
H  27.13900 -5.57100 43.30800
H  28.30600 -3.59200 42.68000
H  26.98100 -2.57300 43.11100
H  19.40600 -7.94200 43.30300
H  19.86400 -6.25600 43.76400
H  18.52300 -7.15300 44.65700
H  19.04700 -10.18500 48.60000
H  19.27100 -11.39600 47.38800
H  17.62700 -10.79800 47.58400
H  23.37500 -12.36100 48.78000
H  24.54600 -10.77800 50.95800
H  22.38100 -11.34400 51.39100
H  21.89800 -12.78700 50.47000
H  21.21600 -11.20800 50.08500
H  26.32600 -12.20900 49.25200
H  25.06100 -13.34700 49.63200
H  26.44400 -13.77100 51.59700
H  25.75500 -12.32300 52.20600
H  27.30900 -12.23500 51.35000
H  30.32300 -7.89000 49.52800
H  29.44700 -9.41500 49.25100
H  28.76100 -8.22600 50.46300
H  28.59600 -4.99800 45.18300
H  27.98200 -0.84700 44.59100
H  28.20800 -0.86900 46.43900
H  26.68700 -1.15400 45.44100
Mg 48.09100 45.07100 42.81600
C  44.68900 44.77100 42.84600
C  48.40100 41.80300 42.32300
C  51.43400 45.46900 42.69900
C  47.76900 48.58800 42.92500
N  46.72300 43.46000 42.62000
C  45.34800 43.53100 42.64100
C  44.68200 42.22900 42.55100
C  45.87200 41.22700 42.31500
C  47.10500 42.21900 42.49600
C  45.75600 39.92300 43.24300
C  43.57000 41.95000 41.56200
C  43.89800 42.15700 40.12600
H  44.24700 41.01600 39.20400
N  49.71500 43.84500 42.49100
C  49.64600 42.54700 42.40400
C  50.93600 41.96900 42.35200
C  51.88200 43.00800 42.38300
C  51.03600 44.18300 42.47900
C  51.18100 40.51400 42.02400
C  53.39800 42.85900 42.20500
O  53.98000 41.78200 42.37700
C  54.34300 44.05100 41.98500
N  49.43500 46.81200 42.54600
C  50.78000 46.67100 42.72200
C  51.41000 48.04500 42.88200
C  50.21600 49.04300 42.66800
C  49.04500 48.08500 42.73400
C  52.20800 48.24400 44.32600
C  50.34400 49.78600 41.33900
C  50.92600 51.16500 41.36500
N  46.56600 46.46200 42.74200
C  46.60500 47.77800 42.99000
C  45.26200 48.29800 43.18300
C  44.41000 47.19000 43.00900
C  45.27200 46.08600 42.89100
C  44.90000 49.77300 43.43600
C  43.05100 46.64000 43.11000
O  41.97500 47.22700 43.31900
C  43.22300 45.09000 42.91800
C  42.50900 44.38600 44.08400
O  41.71200 43.48400 43.86100
O  42.71400 45.00600 45.30500
C  42.07100 44.39700 46.45700
H  48.44100 40.73300 42.11000
H  52.48600 45.75000 42.61700
H  47.71200 49.65900 43.12900
H  44.15400 41.99000 43.47400
H  46.02800 40.92300 41.28000
H  44.76800 39.78400 43.68000
H  46.45500 39.81200 44.07200
H  45.81300 39.07400 42.56200
H  42.65300 42.51700 41.72600
H  43.19500 40.93700 41.70600
H  44.74800 42.83800 40.07700
H  43.15400 42.72600 39.56800
H  52.01000 40.24200 42.67700
H  51.50300 40.32100 41.00000
H  50.32800 39.92200 42.35500
H  53.91600 44.61600 41.15700
H  55.33000 43.68400 41.70100
H  54.44100 44.72700 42.83500
H  52.16900 48.06900 42.09900
H  50.20900 49.70400 43.53500
H  52.13800 47.29400 44.85600
H  51.70200 48.87300 45.05800
H  53.24400 48.54600 44.17600
H  49.32800 49.79300 40.94400
H  50.96000 49.15900 40.69500
H  50.15700 51.93500 41.29800
H  51.78800 51.21200 40.70000
H  51.55600 51.37100 42.23000
H  44.72500 50.16500 42.43400
H  45.63400 50.40600 43.93300
H  44.02000 49.72600 44.07800
H  42.73200 44.84300 41.97600
H  41.11900 44.92100 46.53900
H  42.73200 44.68300 47.27500
H  42.00600 43.30900 46.49000

