158

Mg 0.86800 7.20600 25.41500
C  1.55400 8.90100 28.38000
C  1.15500 4.27000 27.20800
C  0.40300 5.47100 22.63500
C  1.11100 10.24000 23.68000
N  1.07100 6.67200 27.60500
C  1.29700 7.56700 28.55000
C  1.36100 6.82800 29.87500
C  1.55000 5.28900 29.47000
C  1.26000 5.38400 27.97100
C  2.78900 4.59200 29.97800
C  0.10300 7.07200 30.72100
C  0.44400 7.49800 32.20600
H  1.73700 6.97700 32.85900
N  0.78100 5.12800 24.96700
C  0.95200 4.06900 25.81000
C  0.86400 2.84800 25.07200
C  0.68500 3.25700 23.71600
C  0.67000 4.68600 23.69400
C  1.12800 1.53600 25.73400
C  0.56500 2.33600 22.46200
O  0.49000 2.79800 21.30900
C  0.47800 0.89900 22.63100
N  0.86400 7.75600 23.44000
C  0.39900 6.89000 22.51400
C  0.10700 7.60600 21.21100
C  0.34900 9.09700 21.49700
C  0.78000 9.08500 22.98600
C  0.97400 6.95300 20.09900
C  -0.87700 10.04000 21.38700
C  -0.79200 11.24700 20.37600
N  1.39200 9.19100 25.90400
C  1.40000 10.31600 25.12800
C  1.57900 11.49900 25.93900
C  1.66300 10.98900 27.24500
C  1.63100 9.52600 27.15900
C  1.53000 12.91600 25.27200
C  1.84100 11.35200 28.67600
O  2.01900 12.43600 29.21700
C  1.83700 9.95500 29.42900
C  3.15300 9.82100 30.12900
O  4.20200 9.43100 29.60400
O  3.12800 10.49000 31.40200
C  4.43500 10.67800 32.14000
H  1.37400 3.39300 27.82100
H  0.07000 4.96100 21.72900
H  1.11400 11.20100 23.16100
H  2.23600 7.29500 30.32900
H  0.74100 4.69000 29.88900
H  3.43600 5.30100 30.49400
H  3.38600 4.19200 29.15800
H  2.51000 3.80100 30.67400
H  -0.49000 6.15900 30.78200
H  -0.60000 7.75300 30.24100
H  -0.44600 7.24300 32.78200
H  0.48900 8.58200 32.31100
H  2.05500 1.15800 25.30300
H  0.34200 0.84900 25.42100
H  1.02600 1.54900 26.81900
H  1.48800 0.52500 22.79600
H  0.05000 0.33500 21.80200
H  -0.25200 0.81600 23.43600
H  -0.97200 7.54100 21.07500
H  1.18600 9.39100 20.86300
H  1.14100 7.64800 19.27600
H  0.45500 6.06400 19.74000
H  1.97000 6.70100 20.46200
H  -1.07200 10.50000 22.35700
H  -1.77600 9.48000 21.13000
H  -0.92000 12.16800 20.94400
H  -1.45700 11.14600 19.51900
H  0.21000 11.34200 19.95700
H  1.33400 13.54800 26.13800
H  0.71400 13.07500 24.56600
H  2.41400 13.28700 24.75300
H  1.03000 10.06300 30.15300
H  5.22000 10.77900 31.39100
H  4.82900 9.87900 32.76900
H  4.29700 11.59500 32.71300
Mg -1.91000 34.13100 26.58900
C  -3.28600 31.83900 28.87900
C  -0.69500 35.93500 29.14500
C  -0.91900 36.29700 24.37700
C  -3.65700 32.27700 24.08900
N  -1.89700 33.80200 28.80800
C  -2.50000 32.84500 29.50900
C  -2.31600 33.14700 30.99300
C  -1.75300 34.59700 31.07100
C  -1.40200 34.80800 29.60000
C  -2.62700 35.70800 31.66700
C  -1.55200 32.04100 31.77100
C  -2.19600 31.63900 33.13200
H  -1.21800 31.71000 34.28500
N  -0.86300 35.90800 26.74500
C  -0.42900 36.46000 27.86500
C  0.34700 37.68400 27.46800
C  0.31500 37.76400 26.03200
C  -0.55900 36.65000 25.67000
C  1.01800 38.53600 28.52000
C  0.91100 38.84300 25.12600
O  0.71100 38.76400 23.89500
C  1.69600 39.95400 25.73200
N  -2.36300 34.31700 24.57400
C  -1.69400 35.26600 23.87100
C  -1.62300 34.93200 22.35200
C  -2.51700 33.64200 22.26100
C  -2.85600 33.33100 23.69200
C  -2.36900 36.09700 21.53900
C  -1.83000 32.50000 21.41500
C  -0.42600 32.15500 21.71300
N  -3.30400 32.49300 26.43100
C  -3.85100 31.85700 25.33700
C  -4.68500 30.72000 25.81800
C  -4.52600 30.78000 27.20400
C  -3.60100 31.74100 27.48800
C  -5.57100 29.86300 24.97500
C  -4.86100 30.06400 28.42800
O  -5.57200 29.06200 28.58600
C  -3.96000 30.63500 29.53900
C  -4.91900 31.07700 30.59300
O  -5.40600 32.22400 30.67100
O  -5.11300 30.12900 31.50400
C  -5.75700 30.58900 32.74300
H  -0.32700 36.50400 30.00200
H  -0.52300 36.94300 23.59100
H  -4.01600 31.66500 23.25900
H  -3.32600 33.17400 31.40100
H  -0.86500 34.46000 31.68900
H  -2.34300 36.10000 32.64400
H  -3.60800 35.24000 31.75500
H  -2.65500 36.51400 30.93300
H  -0.54900 32.45400 31.88100
H  -1.33800 31.15100 31.17800
H  -2.42200 30.57800 33.02100
H  -3.08500 32.24700 33.29700
H  0.93000 38.14000 29.53200
H  0.54000 39.51500 28.53500
H  2.05900 38.73800 28.26800
H  1.02600 40.33900 26.50100
H  1.89000 40.73300 24.99500
H  2.64100 39.58900 26.13600
H  -0.61800 34.79400 21.95400
H  -3.53100 33.76800 21.88300
H  -3.11500 35.76000 20.82100
H  -1.61300 36.77600 21.14500
H  -2.95100 36.64900 22.27700
H  -1.85600 32.86000 20.38700
H  -2.39500 31.56800 21.44200
H  -0.17600 32.39200 22.74700
H  0.35600 32.49100 21.03100
H  -0.32700 31.07400 21.61200
H  -5.84200 30.48400 24.12100
H  -6.48400 29.56500 25.49100
H  -5.02600 28.96800 24.67600
H  -3.19300 30.02400 30.01600
H  -6.67900 31.16700 32.69100
H  -5.01700 31.19700 33.26400
H  -6.05700 29.67300 33.25200

