158

Mg 34.81800 3.16500 29.72500
C  32.80500 4.63700 32.22600
C  37.20900 2.71300 32.12400
C  36.88000 2.23000 27.27700
C  32.41400 4.18000 27.38800
N  35.02500 3.70600 31.90100
C  34.00000 4.21800 32.69300
C  34.40700 4.15200 34.17700
C  35.97300 3.80000 34.13600
C  36.09300 3.30500 32.62600
C  36.92900 5.02800 34.36800
C  33.55600 3.21700 35.07900
C  33.11200 3.87100 36.45800
H  33.87200 5.10500 36.95600
N  36.73500 2.52700 29.66500
C  37.57700 2.35900 30.79900
C  38.87500 1.91600 30.39400
C  38.84600 1.83900 28.94700
C  37.44400 2.20200 28.57600
C  39.95100 1.72600 31.37200
C  39.92300 1.31400 27.96500
O  39.74400 1.34600 26.73100
C  41.21300 0.71800 28.50900
N  34.54700 2.98900 27.57700
C  35.56300 2.56900 26.74200
C  35.10100 2.68700 25.24000
C  33.72500 3.27100 25.36800
C  33.51900 3.45000 26.87300
C  36.22000 3.58900 24.55200
C  32.56800 2.54600 24.64100
C  31.87500 1.32000 25.35800
N  32.97100 4.15600 29.69800
C  32.10000 4.47800 28.64600
C  30.84400 5.00900 29.22300
C  31.06200 5.08800 30.66400
C  32.40300 4.61300 30.87000
C  29.69600 5.38000 28.40000
C  30.48600 5.38200 31.93200
O  29.32600 5.68300 32.15400
C  31.66800 5.22100 32.97300
C  31.95200 6.50500 33.64000
O  32.75500 7.35900 33.27600
O  31.12400 6.50000 34.74600
C  31.10300 7.77700 35.45200
H  37.99600 2.58200 32.87000
H  37.58000 1.99300 26.47300
H  31.69700 4.53800 26.64600
H  34.37900 5.20700 34.44700
H  36.29400 3.04100 34.85000
H  36.38100 5.77800 34.93700
H  37.14800 5.43600 33.38100
H  37.88000 4.79100 34.84400
H  34.07500 2.30000 35.36300
H  32.66400 2.77000 34.64000
H  33.07900 3.07600 37.20300
H  32.09300 4.21800 36.28700
H  40.67500 0.97100 31.06500
H  39.53100 1.36400 32.31100
H  40.45000 2.68200 31.52700
H  41.80600 0.19800 27.75700
H  41.03800 -0.06400 29.24700
H  41.79400 1.53100 28.94500
H  35.15200 1.65100 24.90700
H  33.81800 4.23300 24.86200
H  35.81700 4.39100 23.93400
H  36.78500 2.90800 23.91600
H  36.93400 4.02200 25.25300
H  32.88800 2.08200 23.70800
H  31.81400 3.29300 24.39300
H  32.68700 0.59500 25.41900
H  31.12200 0.92100 24.67800
H  31.46600 1.35200 26.36700
H  29.70900 4.83300 27.45700
H  29.79800 6.40500 28.04300
H  28.74600 5.21800 28.90800
H  31.33400 4.50100 33.72000
H  30.53100 8.54600 34.93300
H  32.12300 8.14200 35.56700
H  30.69600 7.62600 36.45200
Mg 8.90600 47.88100 26.43700
C  6.88500 47.73200 29.22700
C  11.52000 49.01200 28.39300
C  10.85100 48.02900 23.71600
C  6.06400 47.06300 24.50700
N  9.08200 48.34400 28.56000
C  8.14200 48.13100 29.52500
C  8.72300 48.49000 30.89300
C  10.11000 49.16300 30.55000
C  10.27200 48.83500 29.09500
C  10.26500 50.64900 30.84400
C  8.73600 47.14300 31.67500
C  9.79000 46.94700 32.80000
H  9.23200 46.42500 34.08400
N  10.93900 48.36000 26.08900
C  11.87300 48.71000 27.03300
C  13.17700 48.73500 26.44300
C  12.98700 48.60900 25.04700
C  11.51500 48.36600 24.89100
C  14.42500 49.17700 27.24400
C  13.97600 48.48500 23.93400
O  13.62400 48.48200 22.76400
C  15.42900 48.38700 24.31500
N  8.46000 47.63300 24.36100
C  9.49900 47.70700 23.47800
C  8.94700 47.24700 22.04100
C  7.50500 46.78000 22.33000
C  7.29600 47.11500 23.82700
C  8.97000 48.28300 20.82100
C  7.28400 45.27700 22.08100
C  7.92300 44.08500 22.92700
N  6.82100 47.59300 26.78200
C  5.76700 47.29800 25.89300
C  4.54700 47.03300 26.57700
C  4.92600 47.26200 27.94000
C  6.33700 47.47600 27.99000
C  3.22800 46.57100 25.94800
C  4.48900 47.30300 29.34100
O  3.37200 47.27200 29.88300
C  5.77200 47.39900 30.17900
C  5.89400 46.04300 30.74000
O  6.38300 45.04500 30.26100
O  5.50700 45.99100 32.03900
C  5.73800 44.75600 32.81900
H  12.35600 49.35900 29.00400
H  11.39500 48.00300 22.77000
H  5.18500 46.63600 24.02000
H  8.06300 49.15500 31.44800
H  11.00500 48.67800 30.93900
H  10.91500 50.95100 31.66500
H  9.29100 51.01200 31.17300
H  10.63500 51.27100 30.02900
H  8.88900 46.34000 30.95500
H  7.74200 47.00900 32.10100
H  10.20400 47.92500 33.04400
H  10.59200 46.31700 32.41500
H  14.98400 48.25600 27.41100
H  14.22000 49.67000 28.19400
H  15.08800 49.78800 26.63100
H  15.85000 49.33100 24.66300
H  16.03800 48.13900 23.44600
H  15.55800 47.55200 25.00400
H  9.51500 46.37800 21.71200
H  6.71800 47.40500 21.91000
H  8.01300 48.52800 20.36000
H  9.53200 47.89000 19.97500
H  9.51800 49.15900 21.16800
H  7.34600 44.96500 21.03800
H  6.23800 45.32300 22.38400
H  7.47200 44.07500 23.91900
H  8.98700 44.15400 23.15400
H  7.97000 43.26700 22.20800
H  2.94300 47.19000 25.09700
H  2.41300 46.76800 26.64500
H  3.26100 45.53500 25.60900
H  5.69100 48.05200 31.04800
H  6.79700 44.78000 33.07700
H  5.38700 43.78800 32.46300
H  5.28200 44.77700 33.81000

