158

Mg -2.31500 17.48900 26.70100
C  -2.58600 15.46600 29.48000
C  -2.84400 20.17500 28.71100
C  -2.34300 19.52100 23.90800
C  -2.71900 14.78300 24.63900
N  -2.69200 17.72000 28.91500
C  -2.71500 16.78400 29.88900
C  -3.17200 17.30900 31.25300
C  -3.52100 18.83700 30.87500
C  -3.01400 18.98900 29.45600
C  -5.07400 19.13500 31.18200
C  -2.10300 17.29500 32.38900
C  -2.58100 16.47000 33.62400
H  -1.46300 16.31100 34.68600
N  -2.29400 19.56500 26.34500
C  -2.52800 20.49800 27.32600
C  -2.35900 21.81800 26.77100
C  -2.08200 21.64300 25.34600
C  -2.18200 20.22700 25.15000
C  -2.43000 23.12600 27.57200
C  -1.69700 22.60100 24.24600
O  -1.33200 22.29400 23.12400
C  -1.74800 24.10700 24.54400
N  -2.73600 17.24400 24.43300
C  -2.56300 18.16100 23.53800
C  -2.56200 17.54200 22.09300
C  -2.66000 16.01200 22.39700
C  -2.62600 15.97500 23.94600
C  -3.60400 18.15500 21.10300
C  -1.58700 15.19500 21.54600
C  -0.32700 14.82200 22.32600
N  -2.55600 15.62100 26.90800
C  -2.71500 14.57500 26.01400
C  -2.77000 13.29600 26.68900
C  -2.69300 13.55700 28.01000
C  -2.57000 14.97100 28.15900
C  -2.83700 11.91500 26.11200
C  -2.62300 12.98600 29.31500
O  -2.54100 11.80300 29.70200
C  -2.58400 14.22200 30.34600
C  -1.41100 13.99000 31.12000
O  -0.30200 14.51700 31.03200
O  -1.76000 13.20900 32.15000
C  -0.67300 12.80600 33.05800
H  -3.26700 21.08800 29.13400
H  -2.29800 20.19200 23.04800
H  -2.64900 13.99600 23.88500
H  -4.08700 16.79300 31.54500
H  -2.84200 19.48600 31.42700
H  -5.25200 20.04200 31.76100
H  -5.58600 18.35100 31.73900
H  -5.58300 19.31500 30.23500
H  -1.94700 18.28200 32.82400
H  -1.07900 17.04400 32.11500
H  -2.86200 15.47300 33.28300
H  -3.45000 16.94600 34.07800
H  -3.20800 23.77100 27.16300
H  -1.47100 23.64300 27.55100
H  -2.69300 22.93400 28.61300
H  -2.82300 24.28900 24.56300
H  -1.08400 24.58200 23.82200
H  -1.19800 24.26500 25.47200
H  -1.56200 17.75900 21.71600
H  -3.68500 15.80900 22.08800
H  -4.04200 19.03900 21.56600
H  -4.33600 17.36800 20.92400
H  -3.06100 18.33600 20.17500
H  -1.28800 15.78600 20.68100
H  -2.12500 14.31100 21.20400
H  -0.39500 15.30800 23.29900
H  0.53000 15.10000 21.71200
H  -0.38200 13.74600 22.49000
H  -1.97400 11.30100 26.37100
H  -3.04300 12.01200 25.04600
H  -3.59400 11.35600 26.66100
H  -3.33800 14.20500 31.13200
H  0.29500 12.89800 32.56500
H  -0.71300 11.77700 33.41500
H  -0.84100 13.47100 33.90500
Mg 41.06500 9.19600 29.50200
C  42.76900 10.19700 32.35200
C  38.62500 8.07900 31.52000
C  39.47400 8.09700 26.73600
C  43.63500 10.42700 27.48000
N  40.91000 8.90300 31.70500
C  41.54900 9.63300 32.69800
C  40.90100 9.63400 34.06900
C  39.69700 8.62800 33.81900
C  39.75800 8.49600 32.25900
C  39.82300 7.25400 34.61300
C  40.44400 11.03000 34.47700
C  40.34800 11.11400 35.96800
H  41.16500 12.21000 36.65500
N  39.37600 8.09000 29.18800
C  38.36500 7.84000 30.11000
C  37.18400 7.31700 29.43600
C  37.43600 7.40400 28.08400
C  38.81300 7.82700 27.92900
C  35.83500 6.89100 30.10500
C  36.48000 7.22400 26.93100
O  36.75900 7.48900 25.76300
C  35.09000 6.72900 27.16300
N  41.54700 9.09900 27.35300
C  40.76100 8.55100 26.48900
C  41.29200 8.75700 25.05000
C  42.44700 9.76200 25.31600
C  42.57100 9.74600 26.81200
C  41.58900 7.38400 24.31600
C  42.18600 11.20000 24.77500
C  41.03300 12.03000 25.34500
N  42.89900 9.95200 29.79200
C  43.82800 10.46900 28.87100
C  44.96700 11.00800 29.57100
C  44.61700 10.98800 30.92500
C  43.31800 10.37500 31.03600
C  46.25400 11.64100 29.12500
C  45.05600 11.34700 32.25900
O  46.12500 11.85000 32.65500
C  43.80200 10.94100 33.25600
C  44.33300 9.99000 34.27500
O  44.75700 8.85800 34.09400
O  44.47600 10.75300 35.41900
C  45.17200 10.14800 36.56200
H  37.68800 7.95000 32.06400
H  39.01700 7.83000 25.78100
H  44.38400 10.89900 26.84000
H  41.65000 9.22500 34.74700
H  38.75500 9.07700 34.13400
H  40.81200 7.15600 35.06200
H  39.68600 6.38100 33.97500
H  39.03000 7.23700 35.36000
H  39.49100 11.26400 34.00300
H  41.16300 11.75600 34.09600
H  40.48600 10.12600 36.40800
H  39.31200 11.38200 36.17700
H  35.93700 6.74700 31.18000
H  35.65400 5.89600 29.69800
H  35.06800 7.63000 29.87700
H  35.00700 5.87500 27.83400
H  34.58200 6.71200 26.19800
H  34.77200 7.60300 27.73200
H  40.51800 9.15800 24.39600
H  43.36400 9.44700 24.81700
H  42.50100 7.48400 23.72700
H  40.72900 7.13200 23.69600
H  41.75700 6.67100 25.12300
H  41.95900 11.13100 23.71100
H  43.15700 11.68900 24.84700
H  40.48600 12.52600 24.54300
H  41.40300 12.78500 26.03900
H  40.24500 11.49900 25.87900
H  46.39200 12.53000 29.74000
H  46.08700 11.92300 28.08500
H  47.08600 11.03600 29.48400
H  43.42800 11.85700 33.71200
H  44.58500 10.08600 37.47800
H  46.07400 10.75100 36.66600
H  45.49100 9.12400 36.36900

