158

Mg 52.45000 24.42700 45.67200
C  49.85500 26.59700 44.79700
C  50.78800 21.73000 44.62000
C  55.38900 22.62000 45.99500
C  54.48100 27.31300 46.26500
N  50.57000 24.20400 44.76100
C  49.60100 25.18300 44.51800
C  48.19600 24.54500 44.38100
C  48.52400 23.02000 44.50100
C  50.05700 22.97100 44.61100
C  47.91500 22.34800 45.80800
C  47.43800 24.87100 43.03500
C  48.14200 24.68500 41.70000
H  47.50400 23.73600 40.74300
N  52.95000 22.40500 45.44100
C  52.16000 21.46700 44.97700
C  52.86500 20.15500 45.04900
C  54.11200 20.32000 45.68700
C  54.19400 21.82800 45.77200
C  52.22700 18.85000 44.41600
C  55.05600 19.24300 46.06900
O  54.82600 18.08100 45.78600
C  56.30900 19.55200 46.92100
N  54.63300 24.87800 45.97700
C  55.64000 23.97300 46.05400
C  56.99200 24.55100 46.42500
C  56.72300 26.08600 46.29500
C  55.18100 26.13000 46.25000
C  57.53900 24.01400 47.73600
C  57.33200 26.70100 44.92500
C  57.96000 28.10800 45.18300
N  52.20700 26.55000 45.77500
C  53.07400 27.58100 46.04700
C  52.44300 28.85700 45.99800
C  51.15100 28.49500 45.49100
C  51.09500 27.05800 45.37900
C  53.03500 30.12100 46.34100
C  49.89800 29.09600 45.00300
O  49.45500 30.24600 44.97700
C  48.98800 27.85000 44.44500
C  48.74900 28.03400 43.03100
O  49.40800 27.56300 42.08200
O  47.58300 28.74800 42.88800
C  47.06700 28.95300 41.51800
H  50.20200 20.82500 44.44600
H  56.22800 21.94400 46.17400
H  55.02100 28.25400 46.38800
H  47.47500 24.89000 45.12100
H  48.26700 22.45900 43.60200
H  47.88300 21.26800 45.66300
H  46.92200 22.71100 46.07400
H  48.65800 22.41500 46.60300
H  47.06500 25.89500 43.02000
H  46.57800 24.20200 43.05500
H  49.17100 24.34000 41.80600
H  48.04200 25.65800 41.22000
H  51.37500 19.01000 43.75500
H  51.94700 18.16200 45.21300
H  53.01900 18.40300 43.81500
H  56.69700 18.59200 47.26200
H  55.87600 20.15200 47.72100
H  56.95500 20.07500 46.21500
H  57.71000 24.18600 45.69100
H  57.12700 26.70300 47.09900
H  57.36700 22.95200 47.91300
H  56.99700 24.51500 48.53800
H  58.59600 24.25400 47.84900
H  56.62000 26.85900 44.11500
H  58.09200 26.04500 44.50200
H  59.00400 28.19400 44.87900
H  57.82900 28.47000 46.20300
H  57.58700 28.78900 44.41800
H  52.53800 30.89600 45.75800
H  54.11400 30.18000 46.19600
H  52.96700 30.26400 47.42000
H  48.04000 27.75100 44.97300
H  46.94700 28.02200 40.96500
H  47.80500 29.58100 41.02000
H  46.18400 29.58100 41.63900
Mg 30.05100 59.18700 41.24200
C  26.90800 57.99900 40.18300
C  31.58600 56.54900 39.57100
C  32.95600 60.94500 41.28100
C  28.34000 62.12700 42.30600
N  29.27800 57.58200 40.02000
C  27.99100 57.19300 39.73000
C  27.91600 55.89200 38.93500
C  29.38100 55.27100 39.09800
C  30.19800 56.56300 39.58800
C  29.47500 54.04700 40.07500
C  27.43900 56.14300 37.47400
C  26.73100 54.94300 36.76700
H  26.69200 54.82800 35.22500
N  32.00600 58.73300 40.73800
C  32.43300 57.58800 40.05600
C  33.89300 57.65600 39.83800
C  34.36400 58.90100 40.34800
C  33.11700 59.60900 40.87800
C  34.69800 56.56900 39.14100
C  35.79000 59.43400 40.29900
O  36.66600 58.79900 39.70600
C  36.18300 60.78100 40.90700
N  30.59200 61.27900 41.59500
C  31.87600 61.78400 41.48400
C  31.94300 63.25200 42.05800
C  30.48300 63.39000 42.69200
C  29.72000 62.25200 42.15500
C  33.05000 63.29100 43.13100
C  29.79000 64.74500 42.28300
C  28.78700 65.34800 43.25500
N  28.03000 60.01400 41.25700
C  27.53400 61.10100 41.79200
C  26.13100 61.16700 41.66000
C  25.74500 59.89800 41.03600
C  27.01000 59.19400 40.87600
C  25.12000 62.24900 42.09400
C  24.75000 58.97200 40.54100
O  23.49200 59.14500 40.44600
C  25.43600 57.66900 40.04000
C  25.11800 56.47400 40.81100
O  25.26400 56.34600 42.02300
O  24.56200 55.50100 39.96400
C  24.14900 54.25300 40.66500
H  32.02500 55.64800 39.13900
H  33.84300 61.58100 41.26200
H  27.79200 62.93400 42.79700
H  27.18000 55.23100 39.39400
H  29.77300 54.94800 38.13300
H  29.81700 54.38400 41.05400
H  30.11000 53.23400 39.72300
H  28.53000 53.52900 40.23900
H  28.29700 56.35700 36.83700
H  26.71700 56.95600 37.39900
H  25.70000 54.78300 37.08400
H  27.24100 54.00300 36.98000
H  35.15800 56.95000 38.23000
H  34.03400 55.76800 38.81400
H  35.39000 56.18600 39.89100
H  35.79600 61.63800 40.35700
H  37.26800 60.83800 41.00000
H  35.87100 60.77400 41.95200
H  32.11400 63.83000 41.15000
H  30.54900 63.32300 43.77800
H  32.65700 63.61400 44.09600
H  33.75900 64.06600 42.84200
H  33.48600 62.31300 43.33500
H  29.23300 64.48300 41.38300
H  30.49600 65.46700 41.87200
H  29.17400 66.35900 43.37800
H  28.76200 64.82100 44.20900
H  27.84400 65.30800 42.70900
H  25.05700 62.17500 43.18000
H  24.14100 62.19000 41.61700
H  25.61700 63.19600 41.88400
H  25.04100 57.65500 39.02400
H  24.46800 54.10100 41.69600
H  24.69900 53.44200 40.18700
H  23.08200 54.05900 40.76900

