158

Mg 47.76600 25.04300 28.44100
C  49.01300 27.21300 30.99200
C  46.96500 22.83500 30.81600
C  47.65400 22.86000 26.09500
C  49.04700 27.51900 26.12800
N  47.88200 25.16200 30.63100
C  48.21400 26.19000 31.47300
C  47.90000 25.88700 32.89800
C  47.44500 24.37700 32.79000
C  47.39400 24.06500 31.33300
C  48.21400 23.45300 33.73800
C  46.99800 27.02400 33.55000
C  46.09500 26.72100 34.74700
H  46.04500 27.74800 35.90900
N  47.32100 23.07800 28.44000
C  46.95900 22.31300 29.53600
C  46.54800 20.97600 29.19900
C  46.86200 20.93400 27.80000
C  47.28600 22.28600 27.37300
C  45.98000 19.87800 30.12200
C  46.77100 19.73000 26.81900
O  47.17100 19.87100 25.65300
C  46.20200 18.33300 27.35100
N  48.24700 25.13200 26.38900
C  48.08700 24.09300 25.62000
C  48.31900 24.47200 24.13500
C  48.49800 25.98500 24.15300
C  48.55500 26.26900 25.63000
C  49.66500 23.78400 23.57500
C  47.33900 26.76600 23.30700
C  47.74200 27.35100 22.00200
N  48.81500 26.98300 28.49000
C  49.19700 27.85800 27.50600
C  49.96300 28.96700 28.05200
C  49.86600 28.85900 29.41700
C  49.23600 27.54300 29.61700
C  50.43400 30.12100 27.22600
C  50.07100 29.47700 30.77400
O  50.68500 30.47800 31.14300
C  49.47400 28.42700 31.78900
C  50.54400 28.17100 32.75100
O  51.42600 27.38500 32.48000
O  50.30600 28.72700 34.00400
C  51.27700 28.33000 35.05400
H  46.63800 22.12500 31.57900
H  47.56500 22.17500 25.24900
H  49.33800 28.30200 25.42600
H  48.86100 26.05700 33.38300
H  46.39300 24.42500 33.07000
H  48.93500 23.98700 34.35600
H  48.76700 22.69200 33.18700
H  47.47600 22.94100 34.35600
H  46.27200 27.16200 32.74800
H  47.66500 27.84900 33.80100
H  46.43500 25.73600 35.06900
H  45.08100 26.50200 34.41000
H  44.98400 19.67800 29.72700
H  45.83200 20.34200 31.09700
H  46.58600 18.97500 30.19300
H  45.26500 18.42700 27.89900
H  46.97600 18.03700 28.05900
H  46.13300 17.62100 26.52900
H  47.52100 24.04700 23.52600
H  49.48100 26.25400 23.76500
H  50.53200 24.44200 23.63200
H  49.64400 23.46500 22.53300
H  49.85900 22.91800 24.20700
H  47.11900 27.62600 23.93900
H  46.44800 26.13900 23.31900
H  47.13100 26.95600 21.19100
H  48.75200 27.05700 21.71600
H  47.69400 28.43900 21.97100
H  50.83600 29.77000 26.27500
H  51.09500 30.77400 27.79500
H  49.62900 30.83300 27.04600
H  48.65000 28.95300 32.27100
H  52.26100 28.79800 35.07100
H  51.37400 27.24900 34.95800
H  50.88700 28.73400 35.98900
Mg 26.56000 49.52700 25.83000
C  24.47000 50.79300 28.36000
C  28.74100 48.49200 28.10700
C  28.65800 49.02300 23.23900
C  24.42400 51.01800 23.50000
N  26.51600 49.50300 28.10300
C  25.59200 50.12400 28.97300
C  26.05100 50.03100 30.41700
C  27.49100 49.36700 30.21900
C  27.57100 49.05000 28.72400
C  28.61500 50.27300 30.79100
C  25.06800 49.21900 31.30400
C  24.77500 49.81600 32.68200
H  25.94400 50.40000 33.49100
N  28.42200 48.81200 25.69500
C  29.13300 48.33000 26.77800
C  30.37300 47.91700 26.22400
C  30.44500 48.17000 24.82300
C  29.13300 48.63800 24.47900
C  31.48600 47.36400 27.12100
C  31.58100 48.10900 23.82200
O  31.51000 48.54000 22.71400
C  32.86800 47.59800 24.28400
N  26.58600 50.10900 23.68800
C  27.49800 49.65300 22.85300
C  27.09600 49.89600 21.35700
C  25.61900 50.32700 21.49800
C  25.56900 50.51800 22.94600
C  28.03900 50.87200 20.54900
C  24.46900 49.39600 21.00000
C  23.21000 50.05300 20.30800
N  24.70500 50.56700 25.86800
C  24.00600 51.09000 24.87000
C  22.75600 51.71300 25.33900
C  22.94600 51.69900 26.73000
C  24.11600 50.95500 26.98200
C  21.91100 52.61500 24.60400
C  22.40300 52.19900 27.95000
O  21.45900 52.98200 28.07900
C  23.32700 51.64400 29.12700
C  23.91100 52.86500 29.82600
O  24.94200 53.35300 29.61300
O  23.21700 53.05100 30.99500
C  24.03100 53.79000 32.02700
H  29.39200 48.02900 28.85200
H  29.27900 48.92800 22.34500
H  23.63600 51.29300 22.79500
H  26.14800 51.06000 30.76100
H  27.50900 48.39600 30.71300
H  29.29100 50.75500 30.08400
H  29.26600 49.76200 31.50100
H  28.25000 51.11900 31.37200
H  25.29600 48.15400 31.36500
H  24.13000 49.29700 30.75500
H  24.29400 49.07600 33.32100
H  23.96700 50.49800 32.41400
H  31.85600 46.43400 26.68800
H  31.20000 47.12600 28.14500
H  32.32100 48.06400 27.15500
H  32.69300 46.56300 24.57500
H  33.12200 48.10200 25.21700
H  33.62500 47.52600 23.50200
H  27.10600 48.93200 20.84900
H  25.47500 51.27300 20.97500
H  28.81200 51.23600 21.22600
H  27.47100 51.60700 19.97800
H  28.64100 50.22000 19.91700
H  24.19900 48.68500 21.78100
H  25.02100 48.72800 20.33900
H  23.13400 49.90300 19.23100
H  23.13400 51.07100 20.68700
H  22.36200 49.50600 20.71900
H  22.57500 53.41700 24.28000
H  21.31500 53.14600 25.34600
H  21.41400 52.08800 23.79000
H  22.70900 51.01600 29.76900
H  23.62100 53.65500 33.02800
H  23.97900 54.86800 31.87900
H  25.09400 53.55000 32.00500

