158

Mg 42.61100 41.90100 26.30800
C  42.32400 44.21100 28.91000
C  44.03900 39.64200 28.61500
C  43.10800 39.57800 23.82800
C  41.88100 44.27400 23.98600
N  43.13100 41.94500 28.54500
C  42.78500 42.95000 29.37200
C  42.98200 42.48700 30.86100
C  43.67400 41.08200 30.66000
C  43.62600 40.86300 29.14200
C  45.09200 40.86000 31.28100
C  41.51000 42.44700 31.49500
C  41.30900 43.49800 32.67300
H  40.65100 42.88000 34.01900
N  43.39800 39.91500 26.26900
C  43.88200 39.18500 27.30700
C  44.36200 37.85900 26.87400
C  43.94600 37.77600 25.48400
C  43.50800 39.14300 25.15700
C  45.06300 36.78500 27.79700
C  43.90000 36.59900 24.56400
O  43.46900 36.65100 23.39700
C  44.21200 35.21800 25.08700
N  42.74000 42.00200 24.18200
C  42.72900 40.87500 23.39700
C  42.40100 41.20000 21.97700
C  41.79500 42.65100 22.03600
C  42.11100 43.01900 23.50400
C  43.62600 41.18200 21.00200
C  40.20500 42.78800 21.83100
C  39.32900 41.68300 22.43700
N  42.17800 43.82500 26.36600
C  41.95600 44.69700 25.32700
C  41.70300 45.99700 25.87700
C  41.78600 45.87000 27.25800
C  42.14500 44.56600 27.53500
C  41.48900 47.17900 25.19800
C  41.77000 46.57800 28.45700
O  41.55400 47.77300 28.76100
C  42.07400 45.51900 29.62800
C  43.27400 45.92800 30.51100
O  44.40200 45.51300 30.33700
O  42.87200 46.87400 31.43000
C  43.91500 47.27000 32.33400
H  44.42500 38.92500 29.34300
H  43.02600 38.92600 22.95500
H  41.52700 45.05900 23.31300
H  43.69100 43.09200 31.42600
H  43.06700 40.36800 31.21600
H  45.82400 40.42600 30.60000
H  45.04900 40.27200 32.19900
H  45.53100 41.81800 31.56000
H  41.30200 41.43400 31.84000
H  40.77100 42.70500 30.73700
H  40.55700 44.26000 32.47000
H  42.30900 43.89900 32.83800
H  45.29300 37.18700 28.78300
H  46.01400 36.41300 27.41500
H  44.33300 35.98500 27.92200
H  43.47800 34.68000 25.68800
H  45.19300 35.31600 25.55300
H  44.36100 34.56700 24.22500
H  41.67800 40.43400 21.69900
H  42.36300 43.35300 21.42500
H  44.47800 40.77500 21.54700
H  43.90400 42.02700 20.37100
H  43.46900 40.38100 20.27900
H  40.13800 42.65500 20.75200
H  39.76900 43.76200 22.05600
H  38.67700 42.10200 23.20300
H  40.01700 40.96400 22.88000
H  38.68500 41.22400 21.68700
H  41.43100 48.05400 25.84500
H  40.52800 47.08100 24.69300
H  42.33000 47.22300 24.50600
H  41.30000 45.30600 30.36500
H  44.08400 46.36900 32.92400
H  43.44900 48.04500 32.94300
H  44.82200 47.67500 31.88700
Mg 0.80700 43.62000 25.82100
C  2.93100 43.56100 28.67100
C  -1.69000 42.63400 27.89300
C  -1.05000 43.12700 23.07700
C  3.68900 43.95700 23.70400
N  0.66200 43.12500 28.07000
C  1.59600 43.39600 29.05300
C  0.89400 43.30300 30.48500
C  -0.58700 43.05700 30.12400
C  -0.52300 42.90900 28.61400
C  -1.22200 41.76900 30.74200
C  1.18200 44.53800 31.37300
C  0.97800 44.39800 32.94900
H  0.80500 43.04700 33.62100
N  -1.11200 42.94000 25.52200
C  -1.93700 42.54500 26.54200
C  -3.29400 42.24100 25.99700
C  -3.12100 42.33800 24.57800
C  -1.71900 42.78300 24.34900
C  -4.44200 41.84500 26.84700
C  -4.19900 42.14500 23.48300
O  -3.86100 42.16200 22.33900
C  -5.66100 41.86900 23.82500
N  1.26900 43.70300 23.75300
C  0.26200 43.44000 22.84200
C  0.92500 43.40000 21.39700
C  2.35000 43.90500 21.56400
C  2.46800 43.90300 23.13100
C  0.73500 42.14700 20.56800
C  2.56000 45.27200 20.98300
C  1.90000 46.53100 21.77200
N  2.94700 43.79900 26.07100
C  3.87500 43.91000 25.09100
C  5.21100 43.94400 25.81500
C  4.84900 43.72900 27.14800
C  3.48800 43.70500 27.30600
C  6.57800 44.07500 25.21600
C  5.43800 43.44600 28.41900
O  6.62100 43.27000 28.71600
C  4.23600 43.51600 29.48500
C  4.09200 42.34900 30.40800
O  3.34500 41.40800 30.45700
O  5.07800 42.43000 31.36800
C  5.17000 41.42700 32.44200
H  -2.58900 42.35100 28.44500
H  -1.60800 43.01900 22.14400
H  4.57200 43.92900 23.06300
H  1.25100 42.46100 31.08000
H  -1.11100 43.99400 30.31200
H  -2.23000 42.05600 31.04000
H  -0.81500 41.48000 31.71100
H  -1.07200 40.93500 30.05600
H  0.51200 45.36300 31.13100
H  2.23400 44.75300 31.18700
H  0.24500 45.13800 33.27100
H  1.87600 44.83800 33.38100
H  -5.22100 41.39600 26.23000
H  -4.98400 42.66800 27.31300
H  -4.13700 41.09500 27.57700
H  -6.26200 41.93000 22.91800
H  -6.05600 42.67000 24.45000
H  -5.72900 40.85900 24.22800
H  0.32800 44.11300 20.82900
H  2.99100 43.13800 21.12900
H  -0.00800 41.54500 21.09100
H  1.70500 41.66500 20.44900
H  0.55100 42.23900 19.49700
H  2.09100 45.37200 20.00500
H  3.58200 45.57300 20.75300
H  1.98900 46.36900 22.84600
H  0.85400 46.71700 21.53000
H  2.43700 47.45500 21.55600
H  7.18300 44.79200 25.77000
H  6.55800 44.44700 24.19100
H  7.14600 43.15100 25.10900
H  4.41100 44.33600 30.18200
H  4.23600 41.42500 33.00300
H  5.96800 41.79000 33.08900
H  5.39300 40.45400 32.00400

