158

Mg 47.33700 44.88000 44.10600
C  43.93400 44.33300 43.66900
C  47.92900 41.58900 43.05000
C  50.66600 45.72400 43.50000
C  46.63300 48.25900 44.66000
N  46.11100 43.20900 43.37400
C  44.72000 43.21800 43.48000
C  44.17500 41.96300 42.79200
C  45.38200 40.96300 43.13000
C  46.58700 41.93500 43.18400
C  45.22200 40.18400 44.47400
C  43.97600 42.06200 41.24800
C  42.52300 41.92700 40.78200
H  42.29600 41.32300 39.37300
N  49.09000 43.78300 43.49700
C  49.07400 42.45400 43.08200
C  50.40400 42.10500 42.79600
C  51.19100 43.24800 42.95100
C  50.32000 44.32500 43.31600
C  50.72000 40.70400 42.37600
C  52.66100 43.29000 42.68500
O  53.27300 42.27900 42.48900
C  53.47200 44.53400 42.93100
N  48.51200 46.72200 44.05900
C  49.83600 46.80400 43.84100
C  50.36000 48.25900 44.05000
C  49.01700 49.07400 44.41100
C  47.98200 47.93800 44.45000
C  51.57000 48.43800 45.08300
C  48.72900 50.16200 43.29500
C  47.91200 51.33200 43.66500
N  45.62200 46.05500 44.34100
C  45.52700 47.40300 44.53700
C  44.17200 47.75400 44.61600
C  43.44600 46.61400 44.25100
C  44.41200 45.59600 44.07800
C  43.54400 49.05200 44.74600
C  42.24600 46.02200 43.89700
O  41.09600 46.60800 43.76100
C  42.36100 44.50800 43.67100
C  41.64400 43.83500 44.85000
O  40.48000 43.44600 44.87500
O  42.44900 43.73900 45.96500
C  41.83100 43.05300 47.13300
H  48.02500 40.53200 42.79300
H  51.65200 46.05500 43.16500
H  46.25600 49.28100 44.74100
H  43.28600 41.61100 43.31500
H  45.66900 40.26800 42.34100
H  44.17400 39.98600 44.70000
H  45.66200 40.79000 45.26600
H  45.67100 39.19100 44.49500
H  44.61400 41.32600 40.76000
H  44.24200 43.09400 41.02000
H  42.04900 42.90800 40.76100
H  42.03800 41.27300 41.50700
H  50.57300 40.73700 41.29600
H  50.13700 39.94600 42.89900
H  51.74400 40.57300 42.72700
H  54.54300 44.33200 42.91300
H  53.21100 44.81100 43.95300
H  53.23700 45.37600 42.28100
H  50.88900 48.53700 43.13900
H  49.08100 49.40200 45.44800
H  51.39100 49.25100 45.78600
H  52.53000 48.53200 44.57600
H  51.72100 47.54700 45.69200
H  48.11400 49.79900 42.47200
H  49.60200 50.52300 42.75200
H  48.62700 52.15400 43.64300
H  47.62100 51.39300 44.71300
H  47.01200 51.57400 43.09900
H  42.58800 48.92700 44.23700
H  44.19000 49.83100 44.34200
H  43.38500 49.20500 45.81300
H  41.93600 44.17700 42.72400
H  41.75500 41.97200 47.01900
H  40.98200 43.66600 47.43600
H  42.55000 43.12600 47.95000
Mg -2.81200 34.77700 25.73000
C  -3.95000 33.09100 28.78800
C  -1.48500 37.16500 27.90600
C  -2.17500 36.47300 23.03800
C  -4.66700 32.45900 24.00800
N  -2.56600 35.01500 28.14700
C  -3.18900 34.22400 29.14500
C  -2.73300 34.66300 30.50300
C  -2.16100 36.10700 30.19900
C  -1.97900 36.05500 28.67300
C  -3.11500 37.31300 30.67700
C  -1.70600 33.70500 31.24500
C  -2.29000 33.02700 32.62300
H  -1.30000 32.92600 33.79900
N  -1.98800 36.58600 25.52100
C  -1.43700 37.35700 26.51400
C  -0.70400 38.45500 25.85600
C  -0.92700 38.28700 24.41900
C  -1.65500 37.07900 24.26500
C  0.08300 39.52000 26.61400
C  -0.35200 39.08700 23.30900
O  -0.73500 38.96500 22.15900
C  0.68800 40.12100 23.58900
N  -3.53100 34.63200 23.82300
C  -3.12400 35.47100 22.77900
C  -3.50600 34.96200 21.46300
C  -4.31600 33.68100 21.76100
C  -4.10600 33.50900 23.28500
C  -4.35600 35.96300 20.51200
C  -3.84200 32.38100 20.98700
C  -2.69000 31.54500 21.67300
N  -4.00500 33.07600 26.22200
C  -4.57600 32.16000 25.36600
C  -5.15000 31.04200 26.06200
C  -4.85900 31.41300 27.42800
C  -4.29300 32.66300 27.46600
C  -5.79200 29.80900 25.48500
C  -5.07500 30.97700 28.79700
O  -5.59200 29.93700 29.17500
C  -4.49700 32.04500 29.80300
C  -5.65800 32.48600 30.57400
O  -6.67500 33.09000 30.20600
O  -5.38700 32.15600 31.83200
C  -6.35200 32.34600 32.85800
H  -1.06800 37.94900 28.54200
H  -1.79600 36.88600 22.10100
H  -4.87500 31.55500 23.43100
H  -3.63700 34.62100 31.11100
H  -1.21000 36.20600 30.72200
H  -4.04700 36.80600 30.92600
H  -3.14400 38.03000 29.85600
H  -2.66200 37.76900 31.55700
H  -0.74600 34.13400 31.53100
H  -1.46900 32.97200 30.47400
H  -2.84300 32.12000 32.37600
H  -3.01000 33.79900 32.89400
H  -0.43700 40.47500 26.53400
H  1.07400 39.46100 26.16400
H  0.13300 39.27800 27.67600
H  1.17300 40.29100 22.62800
H  1.42800 39.76900 24.30800
H  0.25500 41.09100 23.83400
H  -2.63200 34.68800 20.87300
H  -5.36600 33.83800 21.51600
H  -4.61300 36.84100 21.10400
H  -5.25900 35.48800 20.12800
H  -3.85700 36.32200 19.61200
H  -3.47000 32.76200 20.03600
H  -4.66900 31.71400 20.74400
H  -2.54000 31.71100 22.74000
H  -1.76900 31.80700 21.15300
H  -2.90300 30.49900 21.45300
H  -6.87800 29.89200 25.51800
H  -5.66400 28.85600 25.99800
H  -5.63700 29.68000 24.41400
H  -3.60200 31.73700 30.34300
H  -7.25200 32.89500 32.58300
H  -6.06300 32.69900 33.84800
H  -6.65600 31.32300 33.07900

