158

Mg 47.07600 25.62500 28.56100
C  48.29900 27.65500 31.20800
C  45.80600 23.55800 30.88400
C  46.18000 23.58500 26.07400
C  48.72900 27.78900 26.36600
N  47.07600 25.72000 30.82500
C  47.50600 26.58800 31.65300
C  46.98200 26.33900 33.14300
C  46.37900 24.96900 32.94800
C  46.46000 24.69700 31.42800
C  47.22200 23.83800 33.59600
C  46.02300 27.47100 33.66800
C  46.51100 28.23600 34.89600
H  45.48900 28.34600 36.03800
N  46.05000 23.87800 28.44500
C  45.65300 23.16100 29.54200
C  44.95600 22.01400 29.05400
C  44.98400 21.97200 27.61300
C  45.79600 23.16600 27.32000
C  44.31000 20.95700 29.93600
C  44.31800 21.03400 26.56100
O  44.30100 21.34200 25.38200
C  43.55700 19.83500 27.09000
N  47.21300 25.80800 26.52100
C  46.80400 24.76400 25.62900
C  47.40500 24.91900 24.20100
C  48.04700 26.36500 24.38700
C  47.96700 26.74700 25.80800
C  48.44800 23.86000 23.94700
C  47.46600 27.53900 23.44400
C  48.41900 28.21100 22.41600
N  48.30900 27.46700 28.69000
C  48.84700 28.25200 27.69200
C  49.45900 29.41200 28.31600
C  49.26500 29.20400 29.69000
C  48.64100 27.94700 29.82500
C  50.08500 30.63100 27.62400
C  49.54400 29.74300 30.99800
O  50.15900 30.74200 31.30800
C  48.88000 28.78800 32.01300
C  49.93200 28.35000 33.10300
O  50.58300 27.31200 32.97300
O  49.96800 29.22400 34.19600
C  50.94400 28.86100 35.22800
H  45.33000 22.95500 31.66100
H  46.12100 22.92300 25.20700
H  49.16500 28.49000 25.65100
H  47.78700 26.18300 33.86100
H  45.33700 24.85100 33.24300
H  47.54300 24.08800 34.60700
H  48.09800 23.71400 32.95800
H  46.65400 22.91100 33.67200
H  45.06500 26.99400 33.87700
H  45.89800 28.20500 32.87200
H  46.61100 29.27800 34.59000
H  47.47400 27.91200 35.29000
H  43.25600 20.80100 29.70300
H  44.56400 21.05800 30.99100
H  44.79400 20.00900 29.70100
H  44.20500 19.17300 27.66400
H  43.28800 19.26000 26.20300
H  42.64300 20.23200 27.53100
H  46.58200 24.80200 23.49700
H  49.12300 26.35700 24.21700
H  48.10700 22.94900 23.45500
H  48.85300 23.54700 24.91000
H  49.28000 24.19900 23.33000
H  46.97600 28.28100 24.07300
H  46.65100 27.10100 22.86800
H  48.18700 29.27500 22.46600
H  48.15800 27.77600 21.45100
H  49.48500 28.16900 22.64100
H  49.57000 30.80400 26.67900
H  51.13800 30.36500 27.53200
H  49.92100 31.54100 28.20200
H  48.12100 29.42700 32.46500
H  51.06000 29.65600 35.96500
H  51.93700 28.64800 34.83300
H  50.56500 28.01000 35.79500
Mg 42.70700 42.28300 26.19200
C  41.73100 44.45600 28.75200
C  43.89600 40.21200 28.71800
C  43.83900 40.15600 23.78400
C  42.13000 44.76900 23.86600
N  42.60900 42.22300 28.47800
C  42.19400 43.26200 29.25900
C  42.22600 42.84400 30.75000
C  42.92100 41.46400 30.69800
C  43.12200 41.25400 29.17000
C  44.07900 41.08200 31.75600
C  40.84900 42.87800 31.46900
C  40.89600 43.66800 32.80900
H  40.08600 43.08900 33.92300
N  43.59400 40.43300 26.20800
C  44.13000 39.82600 27.33400
C  44.78600 38.60300 26.87600
C  44.78100 38.53800 25.46100
C  44.05200 39.78200 25.05600
C  45.26300 37.54000 27.90300
C  45.34000 37.47500 24.55600
O  45.24800 37.53400 23.36000
C  46.06700 36.25500 25.18400
N  42.90600 42.41600 24.11400
C  43.27100 41.40700 23.31200
C  43.23000 41.76000 21.85000
C  42.50300 43.18100 21.91600
C  42.49700 43.49300 23.41400
C  44.58100 41.75300 21.13900
C  41.12600 43.11700 21.39100
C  40.23700 41.97100 21.98100
N  42.13100 44.23700 26.26000
C  41.87900 45.07500 25.22200
C  41.45200 46.34100 25.68300
C  41.32200 46.21500 27.12100
C  41.73900 44.86100 27.40300
C  41.33600 47.53300 24.82700
C  41.00900 46.89800 28.42200
O  40.65300 48.05200 28.70300
C  41.38400 45.76500 29.52200
C  42.49900 46.29400 30.31400
O  43.71400 46.10200 30.19600
O  41.95200 47.03600 31.31700
C  42.78100 47.61100 32.30100
H  44.38000 39.63900 29.51100
H  44.14400 39.48000 22.98300
H  41.98800 45.50900 23.07600
H  42.84600 43.64700 31.14700
H  42.17400 40.69500 30.89200
H  43.85100 41.77700 32.56400
H  45.07600 41.14500 31.31800
H  43.97000 40.04700 32.07900
H  40.58000 41.86600 31.77400
H  40.04000 43.25700 30.84400
H  40.52400 44.67400 32.61400
H  41.90600 43.81900 33.19100
H  44.74900 36.63400 27.58100
H  44.94000 37.77600 28.91700
H  46.34600 37.42800 27.96100
H  45.26100 35.77600 25.73900
H  46.79000 36.68600 25.87800
H  46.42900 35.63700 24.36300
H  42.64300 40.95500 21.40800
H  43.05400 43.85800 21.26300
H  45.33900 41.89500 21.90900
H  44.57100 42.54900 20.39500
H  44.77800 40.83400 20.58700
H  41.19800 42.84400 20.33900
H  40.60800 44.07500 21.43100
H  39.96200 41.28600 21.17900
H  39.28000 42.32400 22.36500
H  40.78900 41.37000 22.70300
H  40.43700 47.59500 24.21300
H  42.30100 47.58700 24.32400
H  41.23100 48.40300 25.47500
H  40.50100 45.69000 30.15600
H  43.09400 48.60500 31.98400
H  43.62200 46.97700 32.58000
H  42.19900 47.76200 33.21000

