158

Mg 24.06100 -5.70100 44.83700
C  26.41900 -3.47000 43.59600
C  21.66600 -4.32400 42.85200
C  22.08800 -8.47400 45.31100
C  26.63300 -7.39100 46.44300
N  24.14800 -4.22400 43.30300
C  25.16900 -3.36600 42.95400
C  24.71900 -2.30000 41.92500
C  23.19100 -2.38200 42.12000
C  22.94700 -3.72800 42.82800
C  22.57600 -1.22200 42.91100
C  25.22900 -2.70700 40.50200
C  26.03400 -1.65600 39.68300
H  25.97600 -1.64900 38.13000
N  22.11500 -6.29300 44.21300
C  21.28100 -5.53600 43.48700
C  19.95900 -6.16900 43.44400
C  20.04200 -7.43200 44.11600
C  21.43500 -7.46000 44.58000
C  18.86600 -5.48200 42.68900
C  18.88900 -8.47800 44.37200
O  17.77600 -8.27700 43.93700
C  19.10300 -9.85200 45.10000
N  24.32800 -7.66700 45.63400
C  23.37200 -8.64900 45.70700
C  23.77000 -9.88800 46.50500
C  25.21500 -9.47000 46.99600
C  25.47800 -8.11300 46.25200
C  22.73000 -10.40600 47.59600
C  26.23000 -10.60300 46.58200
C  27.35100 -10.74600 47.65800
N  26.12900 -5.40700 45.17700
C  26.97400 -6.05800 45.97100
C  28.28500 -5.42100 45.94600
C  28.09400 -4.44700 44.99500
C  26.75600 -4.43900 44.59400
C  29.43200 -5.93400 46.77600
C  28.76900 -3.33600 44.18900
O  29.93600 -2.91300 44.18600
C  27.69100 -2.67500 43.30500
C  27.48000 -1.26600 43.54800
O  26.48600 -0.78600 44.09500
O  28.56100 -0.58100 43.03500
C  28.27600 0.82200 43.09100
H  20.95400 -3.72700 42.27800
H  21.43400 -9.34500 45.38300
H  27.38200 -7.90000 47.05400
H  25.14300 -1.33100 42.19100
H  22.70800 -2.31500 41.14500
H  23.35100 -0.51200 43.20000
H  22.00200 -1.48100 43.80100
H  21.99600 -0.65700 42.18100
H  24.36200 -2.89200 39.86800
H  25.76900 -3.65000 40.58400
H  27.08100 -1.78000 39.96200
H  25.71200 -0.67900 40.04200
H  17.96800 -5.79700 43.22000
H  18.71200 -5.71700 41.63600
H  18.90900 -4.39800 42.79800
H  18.20700 -10.47200 45.11800
H  19.38500 -9.65900 46.13600
H  19.88900 -10.45600 44.64600
H  23.85600 -10.59300 45.67800
H  25.32500 -9.23000 48.05400
H  22.46100 -11.43000 47.33700
H  21.79700 -9.85000 47.49900
H  23.24000 -10.26900 48.55000
H  26.74700 -10.36400 45.65300
H  25.67100 -11.53700 46.52400
H  26.98900 -11.32100 48.51000
H  27.62200 -9.78000 48.08400
H  28.25100 -11.12100 47.16900
H  29.86100 -6.82900 46.32600
H  29.07300 -6.30600 47.73600
H  30.15400 -5.12500 46.88400
H  28.00800 -2.80400 42.27000
H  28.25900 1.06500 44.15300
H  27.28000 1.03100 42.70100
H  29.08600 1.36100 42.60000
Mg 27.11500 50.27400 25.46500
C  25.09100 51.45900 28.17200
C  29.25300 49.05600 27.71300
C  29.27600 49.70700 22.93500
C  25.05400 52.12100 23.34700
N  27.13500 50.16000 27.72900
C  26.17000 50.72000 28.64400
C  26.52800 50.24300 30.03200
C  28.03600 49.71800 29.87300
C  28.17800 49.61400 28.32900
C  29.09000 50.70200 30.48300
C  25.50500 49.12000 30.49900
C  25.04700 49.29500 31.98300
H  25.87900 49.99700 33.04300
N  28.99700 49.40300 25.35400
C  29.72200 48.94100 26.39800
C  31.04600 48.49100 25.90500
C  31.04900 48.62800 24.47800
C  29.75800 49.34700 24.20900
C  31.97000 47.76200 26.78800
C  32.08300 48.21000 23.43900
O  31.92000 48.48900 22.26100
C  33.37200 47.44800 23.81600
N  27.22900 50.94000 23.42200
C  28.17200 50.47400 22.52300
C  27.80700 50.74800 21.03700
C  26.39700 51.30000 21.20700
C  26.15400 51.46500 22.75100
C  28.91900 51.64200 20.28500
C  25.32400 50.34600 20.48100
C  24.75700 51.01500 19.25100
N  25.42600 51.52900 25.65300
C  24.67100 52.18100 24.70700
C  23.52000 52.85900 25.32200
C  23.69700 52.64100 26.69800
C  24.84300 51.79300 26.84100
C  22.39700 53.63600 24.55900
C  23.15900 52.95100 27.96800
O  22.06300 53.52600 28.17800
C  23.98800 52.15000 28.94300
C  24.39400 53.01800 30.00400
O  25.36700 53.75100 30.02900
O  23.52600 52.78800 31.06700
C  23.83400 53.39900 32.38900
H  30.02400 48.75600 28.42500
H  29.82500 49.57700 22.00000
H  24.31100 52.49800 22.64100
H  26.50600 51.11700 30.68400
H  28.07400 48.78600 30.43800
H  29.41400 50.30000 31.44200
H  28.66200 51.67200 30.73600
H  29.93500 50.71900 29.79400
H  25.97000 48.14500 30.35000
H  24.59200 49.22700 29.91300
H  24.88100 48.35300 32.50600
H  24.06900 49.77400 31.93400
H  31.74300 47.65000 27.84900
H  32.93000 48.27300 26.71200
H  32.15100 46.77000 26.37400
H  33.08000 46.43000 24.07500
H  33.93900 47.87800 24.64100
H  33.97800 47.27600 22.92600
H  27.76500 49.77300 20.55100
H  26.34500 52.32300 20.83600
H  28.53600 52.65900 20.20200
H  29.18300 51.21600 19.31700
H  29.85600 51.73300 20.83500
H  24.46100 50.28200 21.14500
H  25.57200 49.34700 20.12300
H  25.31300 51.90900 18.96900
H  23.84300 51.43400 19.67400
H  24.55500 50.43200 18.35300
H  22.64300 53.86000 23.52100
H  22.45500 54.57700 25.10600
H  21.50900 53.00700 24.61800
H  23.44100 51.32700 29.40200
H  24.80000 53.04700 32.75100
H  22.99500 53.10700 33.02100
H  23.83700 54.48800 32.34200

