158

Mg 2.51900 -1.96500 44.54900
C  5.62100 -1.04100 43.35800
C  1.04300 0.27700 42.32700
C  -0.37000 -3.34800 45.20000
C  4.18000 -4.59400 46.38500
N  3.24500 -0.66200 42.84300
C  4.57300 -0.32800 42.71400
C  4.76400 0.78700 41.70900
C  3.29200 1.34300 41.56800
C  2.44100 0.31100 42.28400
C  3.04100 2.72300 42.12700
C  5.43200 0.28200 40.42600
C  6.76700 0.90900 40.01000
H  6.75000 1.80600 38.74800
N  0.54700 -1.50100 43.91000
C  0.18100 -0.58300 43.05000
C  -1.27500 -0.54000 43.02200
C  -1.71500 -1.58100 43.85800
C  -0.48000 -2.21100 44.39600
C  -2.05100 0.37300 42.19800
C  -3.09600 -1.89100 44.24900
O  -4.04800 -1.27300 43.77300
C  -3.50200 -2.94500 45.24800
N  2.02900 -3.74300 45.67900
C  0.70700 -4.05700 45.74200
C  0.49200 -5.37200 46.50800
C  1.98900 -5.85300 46.84400
C  2.80700 -4.67700 46.28700
C  -0.41600 -5.22100 47.79500
C  2.31700 -7.27400 46.23000
C  2.05600 -8.54500 47.01600
N  4.47900 -2.62500 44.93200
C  4.97100 -3.70200 45.65900
C  6.45900 -3.63000 45.60100
C  6.74700 -2.57200 44.76400
C  5.48700 -2.06500 44.32200
C  7.37700 -4.68300 46.23300
C  7.77000 -1.76800 44.15900
O  9.02900 -1.80800 44.27900
C  7.00100 -0.68000 43.34500
C  7.40700 0.64700 43.91500
O  6.72900 1.32000 44.66200
O  8.60500 1.03700 43.36100
C  9.10700 2.22300 44.04000
H  0.54300 1.09700 41.80600
H  -1.31400 -3.88100 45.33100
H  4.67900 -5.30500 47.04700
H  5.39600 1.59100 42.08700
H  2.87100 1.46900 40.57000
H  3.89300 3.32500 41.81200
H  3.02800 2.66500 43.21500
H  2.11100 3.05700 41.66600
H  4.82400 0.80200 39.68600
H  5.26800 -0.79500 40.39600
H  7.42400 0.04000 39.97200
H  7.11100 1.59700 40.78300
H  -1.59400 1.35600 42.08400
H  -3.00800 0.61700 42.65900
H  -2.34300 -0.07300 41.24800
H  -2.92900 -2.65000 46.12700
H  -3.35400 -3.98500 44.96100
H  -4.56000 -2.86200 45.49900
H  -0.02400 -5.96600 45.75400
H  2.08400 -6.04000 47.91300
H  -0.72300 -4.18700 47.95600
H  0.10700 -5.44400 48.72600
H  -1.23500 -5.93400 47.88600
H  3.32000 -7.29000 45.80300
H  1.56600 -7.30800 45.44100
H  1.50300 -8.15000 47.86800
H  2.96200 -9.07700 47.30700
H  1.46400 -9.24300 46.42500
H  6.98600 -4.90000 47.22700
H  8.36100 -4.22300 46.14100
H  7.29500 -5.61400 45.67200
H  7.40600 -0.75300 42.33600
H  9.22600 2.08000 45.11400
H  8.58100 3.13500 43.76100
H  10.11600 2.27800 43.63000
Mg -12.26300 15.90400 42.01500
C  -8.98600 15.09000 40.96600
C  -11.97900 18.71100 40.15200
C  -15.31400 16.83200 43.12200
C  -12.73300 12.67200 43.29200
N  -10.69200 16.66000 40.47600
C  -9.35500 16.32100 40.49100
C  -8.44100 17.38300 39.92600
C  -9.46900 18.55900 39.62800
C  -10.83300 17.96700 40.14200
C  -9.08400 19.90400 40.23000
C  -7.65900 16.91300 38.68400
C  -6.09400 17.08300 38.72100
H  -5.33500 17.63900 37.54400
N  -13.51900 17.51400 41.63300
C  -13.20000 18.55500 40.80100
C  -14.28500 19.50400 40.84000
C  -15.27800 18.99000 41.74700
C  -14.74200 17.71000 42.20500
C  -14.33500 20.79100 40.05200
C  -16.57000 19.69800 42.09800
O  -16.81100 20.80700 41.60000
C  -17.72700 18.99000 42.80100
N  -13.79100 14.94900 43.06500
C  -14.96800 15.50900 43.43600
C  -15.89000 14.41400 44.08300
C  -15.16200 13.00600 43.82500
C  -13.80700 13.55600 43.39600
C  -16.14900 14.60400 45.65200
C  -15.85400 12.07400 42.82300
C  -15.51000 10.53400 42.81300
N  -11.16400 14.14200 42.16300
C  -11.48900 12.92600 42.69800
C  -10.25300 12.13500 42.61500
C  -9.23700 12.94900 41.99600
C  -9.86800 14.16100 41.72400
C  -10.21000 10.80900 43.22000
C  -7.80100 12.97700 41.56500
O  -6.89500 12.10100 41.67600
C  -7.60200 14.45000 40.87300
C  -6.58200 15.15700 41.76500
O  -6.89700 15.78100 42.77100
O  -5.30200 14.90000 41.34100
C  -4.18000 15.15800 42.19300
H  -11.87800 19.72600 39.76200
H  -16.34000 17.02800 43.44100
H  -12.85700 11.65500 43.66900
H  -7.70100 17.68000 40.67000
H  -9.67300 18.54900 38.55700
H  -8.16500 19.81000 40.80800
H  -9.88300 20.23900 40.89100
H  -9.01000 20.66300 39.45100
H  -7.95800 17.44800 37.78200
H  -7.88800 15.87100 38.46400
H  -5.63400 16.09600 38.68200
H  -5.86800 17.61700 39.64400
H  -15.31600 21.01600 39.63300
H  -13.69100 20.83900 39.17400
H  -14.18600 21.69400 40.64300
H  -18.62100 19.59100 42.63900
H  -17.67200 19.01100 43.88900
H  -17.87800 17.98100 42.41600
H  -16.83500 14.48100 43.54200
H  -15.14400 12.65900 44.85900
H  -15.86000 13.80600 46.33700
H  -17.21900 14.77700 45.76300
H  -15.69100 15.50500 46.06200
H  -15.84500 12.46100 41.80400
H  -16.91300 12.05400 43.08400
H  -14.57500 10.33900 43.33800
H  -15.37000 10.13500 41.80800
H  -16.37400 10.04000 43.25800
H  -11.13900 10.27600 43.01700
H  -9.92300 10.78500 44.27200
H  -9.34700 10.35300 42.73600
H  -7.09000 14.33000 39.91800
H  -4.37700 15.45500 43.22200
H  -3.62800 15.99000 41.75600
H  -3.50200 14.30600 42.25100

