158

Mg 43.55500 4.33100 47.15000
C  41.87000 7.26400 46.46900
C  40.60600 2.60500 46.23100
C  45.36300 1.51800 46.58800
C  46.53900 6.22100 47.10400
N  41.57700 4.89900 46.15300
C  41.10800 6.18200 46.06900
C  39.60800 6.15500 45.79800
C  39.21200 4.74400 46.31400
C  40.48700 4.01200 46.26300
C  38.56300 4.60900 47.78800
C  39.24300 6.36800 44.30300
C  38.61900 7.75600 43.93900
H  39.35700 8.48400 42.82100
N  43.07800 2.26600 46.69600
C  41.77800 1.81800 46.44800
C  41.81500 0.34100 46.26900
C  43.19000 -0.01800 46.28500
C  43.97500 1.29500 46.51000
C  40.62000 -0.46800 45.94500
C  43.71600 -1.38600 46.17800
O  42.94000 -2.33000 46.11800
C  45.17800 -1.82400 46.25200
N  45.70600 3.89500 46.92000
C  46.19000 2.60400 46.80800
C  47.71600 2.63500 46.89900
C  48.05900 4.13400 47.08400
C  46.68700 4.80100 46.98900
C  48.17900 1.66300 47.99200
C  49.14100 4.68700 46.12500
C  50.39300 5.36600 46.75900
N  44.08500 6.29200 47.02900
C  45.32200 6.95100 47.05600
C  45.12200 8.41000 47.20000
C  43.80200 8.55900 46.94500
C  43.23500 7.24000 46.77900
C  46.11400 9.45000 47.35600
C  42.72900 9.54700 46.77800
O  42.72200 10.76600 47.02700
C  41.43500 8.68900 46.52500
C  40.58200 8.96200 47.71700
O  40.73400 8.45400 48.80800
O  39.68200 9.93600 47.48400
C  38.88300 10.40900 48.65400
H  39.65100 2.07500 46.22400
H  45.99600 0.65700 46.36700
H  47.45600 6.73400 47.40400
H  39.04500 6.93400 46.31200
H  38.61400 4.16300 45.61300
H  38.30800 5.56500 48.24600
H  39.20200 4.02900 48.45400
H  37.64500 4.03800 47.64600
H  38.52300 5.60800 44.00200
H  40.13800 6.18500 43.70800
H  38.82600 8.39700 44.79600
H  37.53700 7.72000 43.81600
H  40.51900 -0.88400 44.94300
H  39.70300 0.10800 46.06800
H  40.56400 -1.25900 46.69300
H  45.62700 -1.31000 45.40200
H  45.27900 -2.90100 46.11900
H  45.57400 -1.50300 47.21500
H  48.11300 2.19800 45.98300
H  48.39800 4.28400 48.11000
H  48.70300 2.19800 48.78400
H  48.79600 0.84300 47.62400
H  47.29300 1.26700 48.48900
H  48.74900 5.42200 45.42300
H  49.48000 3.86000 45.50100
H  51.14600 4.75600 46.26000
H  50.44200 5.37700 47.84800
H  50.45500 6.40700 46.44000
H  45.77300 10.47500 47.20800
H  46.93000 9.10800 46.71900
H  46.45500 9.43000 48.39100
H  40.82800 8.88500 45.64100
H  39.52900 11.03800 49.26700
H  38.49500 9.55800 49.21400
H  37.99200 10.92600 48.29700
Mg 1.97400 41.45500 24.87200
C  2.99500 41.72500 28.26200
C  -0.98100 40.06900 26.03100
C  1.04400 40.84200 21.77300
C  5.11700 42.50800 23.92000
N  1.19400 40.85500 26.92400
C  1.70600 41.28500 28.15100
C  0.62800 41.03500 29.26600
C  -0.52100 40.21900 28.55000
C  -0.04200 40.48700 27.07900
C  -0.68600 38.77400 28.93300
C  0.11500 42.42100 29.89900
C  0.00900 42.35200 31.45700
H  -0.81400 41.17100 32.04000
N  0.25200 40.62200 24.04600
C  -0.89100 40.09500 24.64300
C  -1.83300 39.78600 23.63100
C  -1.27100 40.09800 22.37100
C  0.04500 40.62100 22.65900
C  -3.22800 39.31400 23.92700
C  -1.89600 39.95700 20.91800
O  -1.26900 40.33300 19.90800
C  -3.25200 39.33100 20.72700
N  2.95600 41.43500 23.10500
C  2.34600 41.30100 21.94700
C  3.37700 41.38300 20.79800
C  4.41300 42.32200 21.49900
C  4.19500 42.05300 22.93700
C  3.90500 40.03500 20.29500
C  4.44000 43.81200 21.04300
C  3.81600 44.90700 22.03600
N  3.73600 42.04400 25.84500
C  4.93900 42.54900 25.33900
C  5.82300 42.90500 26.43400
C  5.05600 42.56600 27.57200
C  3.81500 42.03900 27.16500
C  7.21000 43.44600 26.37100
C  5.11500 42.80600 28.97400
O  5.92500 43.35000 29.71200
C  3.77500 42.14700 29.51700
C  4.25200 41.08200 30.33700
O  4.21900 39.90200 30.13600
O  4.74100 41.63900 31.52300
C  4.96600 40.60900 32.52600
H  -1.92500 39.60200 26.31900
H  0.91800 40.73800 20.69300
H  6.02500 42.94000 23.49400
H  1.03900 40.29000 29.94700
H  -1.49400 40.70600 28.60900
H  0.12900 38.52100 29.61000
H  -0.73700 38.05500 28.11500
H  -1.67100 38.69600 29.39400
H  -0.84800 42.68500 29.46000
H  0.92000 43.15300 29.83300
H  -0.40700 43.32300 31.72600
H  0.99200 42.25600 31.91900
H  -3.95400 40.10900 23.75900
H  -3.27800 38.87000 24.92100
H  -3.45300 38.44000 23.31500
H  -3.38400 39.29300 19.64500
H  -4.09000 39.86400 21.17500
H  -3.23100 38.34500 21.19000
H  2.99000 42.00000 19.98700
H  5.42400 41.95200 21.32800
H  3.45700 39.28000 20.94000
H  4.98600 39.92100 20.21600
H  3.53900 39.86100 19.28300
H  3.96500 43.94500 20.07100
H  5.49100 44.07700 20.92600
H  3.43400 44.57900 23.00300
H  2.91400 45.35600 21.62000
H  4.59400 45.64800 22.21900
H  7.32800 44.14900 25.54600
H  7.97300 42.67000 26.32600
H  7.40900 43.94200 27.32100
H  3.32900 42.98600 30.05100
H  4.26400 39.78900 32.37800
H  4.83100 41.07300 33.50300
H  5.98600 40.23600 32.62000

