158

Mg 24.76300 -6.67400 45.86800
C  26.83600 -4.12500 44.32500
C  22.25800 -5.58300 43.82400
C  23.26200 -9.49100 46.41200
C  27.63000 -7.71600 47.59100
N  24.64200 -5.05900 44.22200
C  25.56700 -4.13300 43.75200
C  24.84400 -3.06200 42.86000
C  23.35100 -3.49800 42.90700
C  23.40700 -4.77900 43.72400
C  22.29900 -2.46700 43.50900
C  25.44500 -3.02500 41.47200
C  25.69800 -1.63800 40.76600
H  25.06700 -1.33000 39.38300
N  22.95800 -7.42700 45.35300
C  22.06500 -6.80900 44.50200
C  20.94700 -7.64100 44.27200
C  21.19200 -8.78100 45.05100
C  22.48600 -8.59300 45.64100
C  19.73500 -7.29200 43.51900
C  20.25800 -9.99300 45.13400
O  19.08200 -9.94300 44.70600
C  20.72700 -11.18300 45.74400
N  25.41700 -8.42900 46.75800
C  24.54500 -9.44500 46.97100
C  25.31100 -10.62500 47.66200
C  26.57800 -9.95700 48.22600
C  26.58800 -8.65200 47.47100
C  24.52000 -11.47800 48.68000
C  27.92000 -10.84500 48.09300
C  29.11800 -10.69900 49.10300
N  26.85100 -6.01200 46.09200
C  27.79200 -6.54800 46.78300
C  29.02400 -5.70600 46.61600
C  28.65000 -4.70800 45.64100
C  27.31500 -5.00100 45.31800
C  30.31700 -5.78100 47.38700
C  29.16300 -3.62600 44.87600
O  30.33000 -3.25200 44.72300
C  27.99300 -3.20300 43.92900
C  27.61600 -1.79000 44.25100
O  27.22400 -1.29500 45.34700
O  27.87300 -0.99300 43.14400
C  27.57600 0.47900 43.11100
H  21.42300 -5.18200 43.24600
H  22.87500 -10.47600 46.68400
H  28.49500 -8.10500 48.13200
H  24.96800 -2.05700 43.26400
H  22.96600 -3.74100 41.91700
H  22.66200 -1.46100 43.71500
H  21.84000 -2.73100 44.46200
H  21.50700 -2.47100 42.76000
H  24.82000 -3.48600 40.70800
H  26.33200 -3.65000 41.57600
H  26.76700 -1.62600 40.55400
H  25.39900 -0.77200 41.35700
H  19.01900 -8.09300 43.33600
H  20.03300 -6.79300 42.59700
H  19.14300 -6.56000 44.06900
H  19.90600 -11.88500 45.88800
H  21.05100 -10.82200 46.72000
H  21.53800 -11.63300 45.17100
H  25.54500 -11.23200 46.78700
H  26.46000 -9.76100 49.29100
H  23.46300 -11.21200 48.66600
H  24.85600 -11.19200 49.67700
H  24.57100 -12.55300 48.50800
H  28.36100 -10.64900 47.11600
H  27.57800 -11.88000 48.06400
H  29.46900 -11.60000 49.60600
H  28.93400 -9.98000 49.90200
H  29.98100 -10.26900 48.59500
H  30.90300 -4.92200 47.06000
H  30.81900 -6.70000 47.08300
H  30.11300 -5.73600 48.45600
H  28.17000 -3.39100 42.87000
H  26.96900 0.62900 42.21800
H  28.49200 1.03200 42.90600
H  27.03400 0.74400 44.02000
Mg 35.92800 2.19700 30.30300
C  33.45300 3.22100 32.66900
C  38.27300 2.20800 32.79400
C  38.18800 1.41300 27.94600
C  33.50400 2.70600 27.74500
N  35.85000 2.69900 32.42500
C  34.74700 3.02200 33.18400
C  35.08400 3.13600 34.63500
C  36.64900 3.14200 34.64500
C  36.99400 2.64200 33.20400
C  37.26400 4.53600 35.16400
C  34.53200 1.94300 35.43900
C  33.78200 2.34700 36.72000
H  34.13900 3.70500 37.39800
N  37.94200 1.83200 30.38300
C  38.66300 1.80600 31.51300
C  40.01400 1.38900 31.21300
C  40.04700 1.08800 29.83200
C  38.70600 1.47200 29.27100
C  41.07500 1.05600 32.28400
C  41.20000 0.58400 29.06000
O  40.98700 0.39800 27.80100
C  42.55500 0.20100 29.73200
N  35.89300 2.05000 28.16500
C  36.93200 1.71800 27.44600
C  36.69800 1.79700 25.97200
C  35.15000 1.80900 25.90500
C  34.79500 2.23100 27.36400
C  37.50100 2.99700 25.31100
C  34.49500 0.46700 25.41500
C  33.57400 0.73700 24.19900
N  33.95500 2.89100 30.14600
C  33.09900 2.92700 29.02100
C  31.73700 3.26800 29.51800
C  31.88600 3.45600 30.93000
C  33.19000 3.13000 31.30900
C  30.46400 3.27100 28.71400
C  31.14000 3.83400 32.13700
O  30.00600 4.20400 32.32200
C  32.20600 3.62800 33.30100
C  32.38000 4.98500 33.97200
O  33.08200 5.94000 33.58700
O  31.44300 5.10400 34.91000
C  31.12500 6.42300 35.45100
H  38.98000 2.15700 33.62500
H  38.93400 1.35800 27.15100
H  32.77500 2.77500 26.93500
H  34.68000 4.07600 35.01000
H  37.00700 2.39300 35.35100
H  37.93100 4.89800 34.38200
H  37.76000 4.31300 36.10900
H  36.46900 5.26500 35.31800
H  35.28300 1.19000 35.67600
H  33.87100 1.42800 34.74100
H  33.91500 1.57000 37.47300
H  32.71700 2.23400 36.51600
H  41.12500 -0.03200 32.29600
H  40.66900 1.12600 33.29400
H  42.05900 1.48200 32.08700
H  43.16100 -0.12300 28.88600
H  42.43600 -0.69100 30.34700
H  43.03600 1.09800 30.12200
H  37.09400 0.85400 25.59700
H  34.94200 2.61800 25.20400
H  38.43700 3.19200 25.83500
H  36.87100 3.88600 25.32600
H  37.78800 2.64700 24.31900
H  33.88500 0.09000 26.23600
H  35.30200 -0.23800 25.21300
H  32.59700 0.39400 24.54100
H  33.85100 0.21200 23.28500
H  33.44800 1.80000 23.99200
H  30.46400 2.38500 28.08000
H  30.51200 4.09500 28.00100
H  29.59900 3.22800 29.37600
H  31.82900 2.92600 34.04500
H  32.01000 7.04200 35.59800
H  30.50300 6.32900 36.34000
H  30.61100 6.92300 34.62900

