158

Mg 47.77800 14.94500 28.18800
C  45.79600 15.00700 31.03500
C  49.89500 17.25900 29.82900
C  49.55200 15.08700 25.33800
C  45.63300 12.82500 26.63000
N  47.82300 16.15300 30.14700
C  47.03800 15.74600 31.21100
C  47.41700 16.34900 32.59200
C  48.56900 17.29600 32.14100
C  48.76900 16.93900 30.60400
C  48.42100 18.81500 32.38700
C  47.82900 15.29900 33.69000
C  46.93700 15.19500 34.89800
H  47.37400 15.95000 36.16000
N  49.49500 16.03600 27.67500
C  50.26800 16.86100 28.49500
C  51.47200 17.24300 27.73800
C  51.33700 16.67200 26.42600
C  50.07400 15.91100 26.40500
C  52.54700 18.07000 28.35800
C  52.30100 16.81200 25.15800
O  52.11600 16.26000 24.06000
C  53.61800 17.57500 25.29500
N  47.56100 14.22500 26.21100
C  48.44900 14.34700 25.19900
C  48.01300 13.43400 24.00700
C  46.85300 12.52800 24.51100
C  46.69100 13.21200 25.87800
C  47.79400 14.21600 22.65900
C  47.19500 10.98100 24.47500
C  48.23000 10.37700 25.48400
N  45.93000 14.25900 28.52600
C  45.21000 13.31900 27.84300
C  43.96100 13.08700 28.56500
C  44.17700 13.74700 29.80800
C  45.40500 14.35700 29.76600
C  42.80500 12.26400 28.04700
C  43.51500 13.95100 31.09000
O  42.48600 13.56200 31.58400
C  44.66600 14.68800 31.93900
C  43.98200 15.91200 32.45300
O  44.13500 17.02600 32.01200
O  43.39400 15.59300 33.68000
C  42.78400 16.64600 34.44900
H  50.54600 17.99600 30.30400
H  50.15000 15.01300 24.42700
H  44.94100 12.02600 26.35800
H  46.56400 16.88500 33.00900
H  49.49900 17.11000 32.67800
H  48.09800 19.34200 31.49000
H  49.36800 19.21000 32.75700
H  47.56400 18.99400 33.03700
H  48.87600 15.41300 33.97000
H  47.75300 14.38600 33.10000
H  46.90200 14.16000 35.23700
H  45.88600 15.35600 34.66000
H  53.53100 17.76200 28.00600
H  52.48100 18.00800 29.44500
H  52.38500 19.09900 28.03600
H  53.32900 18.60500 25.50300
H  54.04200 17.44600 24.29900
H  54.36900 17.11000 25.93400
H  48.89600 12.81400 23.85700
H  46.00300 12.68200 23.84700
H  48.08700 15.26100 22.76700
H  46.75800 14.16400 22.32600
H  48.35900 13.86400 21.79600
H  47.66100 10.67800 23.53800
H  46.26100 10.43100 24.59900
H  47.79900 9.44500 25.85100
H  48.48400 11.04400 26.30800
H  49.16900 10.02600 25.05600
H  43.16100 11.24200 27.91200
H  42.41800 12.63400 27.09800
H  41.89900 12.38600 28.64100
H  45.06700 14.10600 32.77000
H  43.28100 16.68700 35.41800
H  41.73200 16.36900 34.52500
H  42.86900 17.65400 34.04400
Mg -11.00200 17.51200 43.13700
C  -7.56000 18.38000 42.99100
C  -11.72000 20.78300 42.55900
C  -14.35000 16.62500 42.85000
C  -10.17300 14.15600 43.18600
N  -9.74000 19.32800 42.72900
C  -8.36200 19.49400 42.77400
C  -7.87600 20.95300 42.74400
C  -9.29000 21.61400 42.98000
C  -10.29500 20.47900 42.71800
C  -9.34500 22.09100 44.45500
C  -7.33300 21.34400 41.25100
C  -5.86000 21.55400 41.20700
H  -5.11600 20.87500 40.08400
N  -12.81400 18.58400 42.87800
C  -12.87500 19.89600 42.71300
C  -14.23100 20.30400 42.80100
C  -15.07900 19.14900 42.80900
C  -14.10000 18.02100 42.91000
C  -14.60400 21.79000 42.81600
C  -16.62100 19.13600 42.77100
O  -17.21000 20.21300 42.57800
C  -17.49800 17.87000 42.81300
N  -12.17100 15.70400 42.99700
C  -13.50500 15.56200 42.98400
C  -13.94700 14.18000 43.40100
C  -12.60600 13.34100 43.06100
C  -11.58900 14.43800 43.06400
C  -14.43900 14.01100 44.92900
C  -12.57900 12.58700 41.73500
C  -12.53500 11.01200 41.80900
N  -9.22700 16.40000 43.17900
C  -8.99100 15.05200 43.23400
C  -7.56000 14.75500 43.15900
C  -6.97900 16.06400 43.19900
C  -8.02100 17.01500 43.12500
C  -6.79900 13.45000 43.22900
C  -5.74000 16.81300 43.27500
O  -4.56600 16.48100 43.31500
C  -6.09700 18.34700 43.22800
C  -5.81900 18.93400 44.48100
O  -6.23000 18.48800 45.57900
O  -5.06200 20.08600 44.34100
C  -4.96300 20.96500 45.61000
H  -11.91300 21.84800 42.70400
H  -15.42700 16.45000 42.80800
H  -9.94900 13.09000 43.27000
H  -7.18500 21.08100 43.57800
H  -9.61000 22.42100 42.32200
H  -8.42300 22.16100 45.03300
H  -10.08100 21.38900 44.84800
H  -9.85600 23.05000 44.53500
H  -7.73700 22.30400 40.93000
H  -7.58900 20.53400 40.56800
H  -5.56200 21.32500 42.23000
H  -5.72900 22.62300 41.04100
H  -14.88300 22.14400 41.82300
H  -13.78400 22.38100 43.22300
H  -15.51800 21.88200 43.40300
H  -17.41400 17.10000 42.04600
H  -18.52000 18.17700 42.59000
H  -17.58500 17.37900 43.78200
H  -14.70600 13.64500 42.83000
H  -12.33900 12.66800 43.87600
H  -14.30300 14.98700 45.39600
H  -13.82800 13.28800 45.46900
H  -15.50700 13.83600 45.06000
H  -11.62900 12.80500 41.24800
H  -13.41900 12.86700 41.09900
H  -13.27100 10.66900 41.08200
H  -12.83300 10.68200 42.80400
H  -11.51800 10.68500 41.59600
H  -6.24800 13.52000 44.16700
H  -6.14100 13.48000 42.36100
H  -7.42500 12.55800 43.26800
H  -5.50200 18.94200 42.53500
H  -4.46800 20.37000 46.37700
H  -5.95300 21.28700 45.93100
H  -4.37800 21.85600 45.38100

