158

Mg 45.37600 5.77900 49.09900
C  43.01200 8.26200 48.21400
C  42.97000 3.51200 48.53100
C  47.80600 3.37300 49.12900
C  47.75800 8.21200 49.38000
N  43.25600 5.90400 48.38900
C  42.44400 6.99500 48.21300
C  40.96100 6.58300 47.94800
C  41.06600 5.04800 48.12400
C  42.52200 4.78900 48.41600
C  40.07200 4.42000 49.22400
C  40.49600 7.01900 46.49300
C  39.07500 7.68800 46.30800
H  38.52400 7.54500 44.87900
N  45.28500 3.61300 48.98200
C  44.22900 2.90000 48.62800
C  44.63200 1.50200 48.62400
C  46.08000 1.41700 48.91900
C  46.48500 2.83900 49.01700
C  43.66600 0.37100 48.37800
C  46.83700 0.12900 49.18700
O  46.27300 -0.95500 49.02800
C  48.29900 0.16000 49.88700
N  47.47600 5.78600 49.39200
C  48.30400 4.67400 49.37000
C  49.79700 5.05300 49.21900
C  49.78300 6.52100 49.56500
C  48.27600 6.90700 49.51900
C  50.79600 4.15200 50.05800
C  50.69100 7.40900 48.67100
C  52.23000 7.28500 48.99700
N  45.42100 7.83700 48.93300
C  46.51200 8.65500 48.97200
C  46.11700 10.08000 48.66400
C  44.65000 9.92700 48.50300
C  44.33800 8.58400 48.54900
C  47.04200 11.28400 48.62900
C  43.45100 10.66500 48.19900
O  43.26700 11.85500 47.87200
C  42.28000 9.52700 48.04900
C  41.27600 9.73800 49.14000
O  41.17000 9.19000 50.17000
O  40.41000 10.62600 48.60600
C  39.10600 10.70000 49.36800
H  42.14500 2.81800 48.35400
H  48.62500 2.66000 49.24400
H  48.55100 8.95600 49.47400
H  40.28700 7.08700 48.64100
H  40.84400 4.60900 47.15100
H  39.34000 5.15400 49.56000
H  40.58600 4.08000 50.12300
H  39.51000 3.61200 48.75500
H  40.46600 6.11700 45.88200
H  41.22100 7.72400 46.08500
H  39.08900 8.74700 46.56600
H  38.50600 7.16100 47.07400
H  42.78900 0.79700 47.89000
H  43.31200 -0.11100 49.28900
H  43.96800 -0.33500 47.60400
H  49.02400 0.56400 49.18100
H  48.58700 -0.86400 50.12500
H  48.26900 0.82900 50.74700
H  49.99000 4.95300 48.15100
H  50.17000 6.62400 50.57800
H  51.58600 4.75600 50.50500
H  51.18200 3.38100 49.39200
H  50.12600 3.66800 50.76800
H  50.57300 8.49200 48.69800
H  50.46800 7.11200 47.64600
H  52.62300 6.64200 48.21000
H  52.54100 6.80500 49.92500
H  52.67400 8.27800 48.92900
H  48.10000 11.02700 48.57700
H  46.92400 12.00600 49.43600
H  46.66800 11.86200 47.78400
H  41.79400 9.53100 47.07400
H  39.34600 11.45800 50.11400
H  38.74200 9.77800 49.82100
H  38.36300 10.96600 48.61600
Mg 17.11200 51.96700 25.81300
C  18.82000 50.45000 28.48400
C  14.82000 53.20600 28.14400
C  15.30400 53.05000 23.28900
C  19.33600 50.39400 23.62200
N  16.89600 51.87800 28.00600
C  17.69600 51.14700 28.87800
C  17.22200 51.36400 30.35100
C  15.80500 51.93500 30.14800
C  15.79600 52.32400 28.65500
C  14.73800 50.93200 30.40200
C  18.23500 52.33200 31.11100
C  18.39600 52.24000 32.63300
H  17.22400 51.68100 33.48800
N  15.35300 53.10300 25.72500
C  14.60100 53.53700 26.79900
C  13.57200 54.43900 26.27200
C  13.66800 54.40900 24.82800
C  14.77700 53.45100 24.53100
C  12.60000 55.15000 27.11700
C  12.82500 55.14800 23.77600
O  13.00100 55.14800 22.55800
C  11.78500 56.07000 24.34700
N  17.26400 51.61600 23.72400
C  16.34400 52.17900 22.87300
C  16.67400 51.90300 21.41000
C  18.14500 51.28300 21.49200
C  18.32500 51.15000 23.05700
C  15.64300 51.17900 20.53600
C  19.21000 52.23700 20.82500
C  20.68600 51.82200 20.69000
N  18.74600 50.69700 25.96700
C  19.50500 50.11100 24.98900
C  20.55100 49.34000 25.61600
C  20.39700 49.47200 27.00300
C  19.24400 50.32300 27.18800
C  21.68600 48.72700 24.91800
C  20.89800 49.13400 28.29400
O  21.87200 48.51600 28.64100
C  19.95500 49.82700 29.29400
C  19.56000 48.76900 30.27500
O  18.89800 47.77300 29.99700
O  19.93000 49.01000 31.55700
C  19.16800 48.16100 32.57100
H  14.07100 53.44400 28.90200
H  14.65600 53.50200 22.53600
H  20.07700 50.00000 22.92400
H  17.18200 50.40200 30.86300
H  15.61900 52.77100 30.82200
H  13.81500 51.50900 30.46400
H  14.79300 50.45400 31.38100
H  14.63400 50.31400 29.51000
H  18.01400 53.37000 30.86300
H  19.18000 52.08500 30.62700
H  18.54100 53.25100 33.01400
H  19.31000 51.67700 32.82400
H  12.49300 56.20700 26.87200
H  12.90400 55.27000 28.15700
H  11.68400 54.56400 27.18800
H  11.11400 55.70600 25.12600
H  11.14700 56.19200 23.47200
H  12.31000 56.99600 24.58100
H  16.80600 52.93500 21.08500
H  18.25100 50.33800 20.95800
H  16.08900 50.65600 19.68900
H  14.95600 51.88700 20.07400
H  15.10200 50.40600 21.08200
H  19.20100 53.10500 21.48400
H  18.81700 52.53100 19.85200
H  21.01100 52.17100 19.71000
H  20.93200 50.78400 20.91600
H  21.23100 52.34700 21.47500
H  22.15500 49.28000 24.10400
H  21.32900 47.71200 24.74400
H  22.42100 48.69200 25.72300
H  20.53500 50.60600 29.78900
H  19.15800 47.07200 32.52400
H  18.14000 48.52300 32.58800
H  19.66500 48.37300 33.51800

