158

Mg -0.55300 6.93800 26.41300
C  0.29000 8.99700 29.07700
C  -0.93800 4.27400 28.53500
C  -0.97700 4.79400 23.75300
C  0.41600 9.45100 24.16200
N  -0.35300 6.62400 28.59400
C  -0.00100 7.66300 29.53000
C  -0.09900 7.16900 30.94000
C  -0.32000 5.58000 30.71600
C  -0.46400 5.43400 29.20800
C  0.75700 4.59100 31.34100
C  -1.14400 7.92400 31.75100
C  -0.96200 8.00700 33.31700
H  0.25500 7.29600 33.94300
N  -0.86600 4.79500 26.13700
C  -0.95300 3.90500 27.19500
C  -1.22000 2.56500 26.67600
C  -1.30600 2.66800 25.29200
C  -1.11500 4.13700 25.01100
C  -1.43800 1.33900 27.59200
C  -1.52200 1.58400 24.19100
O  -1.70200 1.83500 23.00300
C  -1.53600 0.14600 24.47400
N  -0.22400 7.08300 24.22700
C  -0.55900 6.06600 23.37700
C  -0.59500 6.68300 21.95200
C  -0.11000 8.16700 22.08100
C  0.10300 8.23000 23.57800
C  0.16000 5.91500 20.89900
C  -1.15300 9.29500 21.62800
C  -2.45500 9.40600 22.47300
N  0.18000 8.80800 26.56200
C  0.44300 9.74700 25.57100
C  0.58700 11.01700 26.17900
C  0.64000 10.81600 27.58500
C  0.32800 9.42100 27.74300
C  0.73200 12.33000 25.40600
C  0.88600 11.41400 28.84500
O  1.17100 12.55000 29.15700
C  0.51500 10.28800 29.90000
C  1.77900 10.07200 30.76000
O  2.69200 9.28100 30.60200
O  1.71100 10.91100 31.85500
C  2.89000 10.76100 32.73000
H  -1.29000 3.45400 29.16400
H  -1.28400 4.22600 22.87200
H  0.61300 10.21100 23.40300
H  0.87600 7.37800 31.38000
H  -1.33600 5.32300 31.01500
H  1.37600 5.13200 32.05700
H  1.22500 4.05800 30.51400
H  0.11500 3.83200 31.78700
H  -2.08700 7.38800 31.64100
H  -1.46400 8.80800 31.19900
H  -1.87500 7.69000 33.82100
H  -0.89700 9.03200 33.68300
H  -2.17600 0.71800 27.08400
H  -1.83900 1.58100 28.57600
H  -0.49000 0.80300 27.63000
H  -2.49600 -0.06700 24.94400
H  -0.71600 -0.18700 25.11000
H  -1.64700 -0.35700 23.51300
H  -1.65000 6.74700 21.68800
H  0.90600 8.26900 21.69900
H  0.47700 4.93000 21.24400
H  1.03500 6.44900 20.52800
H  -0.47000 5.69300 20.03800
H  -1.43500 8.96000 20.63000
H  -0.62700 10.23600 21.46800
H  -3.26800 8.78300 22.10000
H  -2.87000 10.41100 22.40000
H  -2.32200 9.26700 23.54600
H  -0.10500 12.71600 24.82300
H  1.51700 12.09400 24.68700
H  1.07500 13.01900 26.17600
H  -0.25700 10.59500 30.60500
H  2.59100 10.97900 33.75500
H  3.43200 11.70400 32.65300
H  3.62800 9.95900 32.76400
Mg 25.20400 1.69800 30.05200
C  27.05100 1.80300 33.03800
C  22.32100 1.96000 31.93800
C  23.40900 1.33500 27.21700
C  28.03100 0.66700 28.29700
N  24.75500 1.85200 32.23400
C  25.65400 2.05500 33.18500
C  25.03200 2.30700 34.51000
C  23.46900 2.27200 34.22100
C  23.48700 1.93900 32.71700
C  22.64900 1.43600 35.13900
C  25.51300 3.68200 35.10400
C  26.33700 3.65400 36.38500
H  25.87700 4.56100 37.62700
N  23.18600 1.62000 29.64100
C  22.14600 1.81600 30.53100
C  20.89500 1.83300 29.78700
C  21.23300 1.54900 28.36900
C  22.66700 1.49200 28.34400
C  19.50300 1.92700 30.47000
C  20.25700 1.25200 27.20600
O  20.57500 1.24600 26.03000
C  18.80000 1.06100 27.49800
N  25.64000 1.04600 28.04000
C  24.80700 1.23200 26.99100
C  25.48000 1.15400 25.64800
C  26.97900 0.86500 26.02100
C  26.89400 0.81200 27.50600
C  24.73100 0.28400 24.55900
C  28.01100 1.79800 25.33300
C  28.07300 1.77700 23.80400
N  27.18600 1.38800 30.49200
C  28.16700 0.91400 29.66200
C  29.28600 0.77600 30.50700
C  28.95400 1.11400 31.75700
C  27.61300 1.47100 31.78400
C  30.55900 0.32300 29.88600
C  29.43800 1.32500 33.12800
O  30.59300 1.09100 33.49400
C  28.27000 1.69600 34.10100
C  28.19700 0.51800 35.07800
O  27.68300 -0.57600 34.93100
O  28.94800 0.90500 36.19200
C  29.06800 -0.12400 37.25100
H  21.36200 1.98000 32.45900
H  22.92600 1.36900 26.23900
H  28.96800 0.42200 27.79100
H  25.42500 1.44000 35.04000
H  23.05800 3.28100 34.18500
H  22.50300 0.53600 34.54200
H  21.65300 1.80700 35.38100
H  23.24100 1.11900 35.99800
H  24.71000 4.41200 35.20100
H  26.19500 4.05400 34.34000
H  27.31500 4.06100 36.12600
H  26.35700 2.65600 36.82300
H  19.14400 0.99700 30.90800
H  18.86300 2.48300 29.78400
H  19.61900 2.56000 31.35000
H  18.30500 0.65100 26.61800
H  18.56400 2.11300 27.65800
H  18.46500 0.47900 28.35700
H  25.42300 2.15600 25.22300
H  27.22600 -0.09100 25.55800
H  23.71300 -0.03000 24.79000
H  25.28300 -0.61700 24.29400
H  24.51400 0.88400 23.67600
H  29.05400 1.60800 25.58900
H  27.79600 2.81600 25.65600
H  28.99000 1.28500 23.47900
H  28.07900 2.79700 23.42200
H  27.24200 1.15500 23.47000
H  30.96100 1.18000 29.34500
H  30.53600 -0.48900 29.15800
H  31.26000 0.08300 30.68600
H  28.39100 2.58200 34.72400
H  29.56100 -0.98200 36.79500
H  28.12700 -0.52500 37.63000
H  29.65200 0.27900 38.07900

