158

Mg 16.70000 -1.67400 28.30300
C  15.63300 0.20300 30.96200
C  18.86400 -3.46600 30.39400
C  18.04600 -3.24200 25.66000
C  14.89300 0.34600 26.13800
N  17.13600 -1.60200 30.46300
C  16.59900 -0.78500 31.40900
C  17.16400 -1.05100 32.83600
C  18.32300 -2.16500 32.56900
C  18.14700 -2.42600 31.04400
C  19.78700 -1.76600 32.98600
C  16.10600 -1.52400 33.83200
C  16.44600 -1.36100 35.28800
H  17.52400 -0.33700 35.69100
N  18.26100 -3.14400 28.07500
C  18.97300 -3.80100 29.04000
C  19.72900 -4.90000 28.48100
C  19.51900 -4.84900 27.10200
C  18.62300 -3.67600 26.87400
C  20.50400 -5.88000 29.25400
C  20.05400 -5.72600 25.91100
O  19.61200 -5.71100 24.77600
C  20.94200 -6.75800 26.27800
N  16.45900 -1.45700 26.17900
C  17.16500 -2.21500 25.34200
C  16.81800 -1.81800 23.87500
C  15.73700 -0.69200 23.99700
C  15.72200 -0.58800 25.47800
C  18.00400 -1.42600 22.90200
C  14.35500 -1.24000 23.47900
C  13.58500 -0.26700 22.57700
N  15.47300 -0.10500 28.47900
C  14.80800 0.64000 27.49500
C  14.05000 1.66600 28.17500
C  14.36700 1.58000 29.55700
C  15.21700 0.48200 29.66800
C  13.15600 2.65300 27.46200
C  14.10500 2.14000 30.87700
O  13.40000 3.07500 31.19000
C  14.97300 1.22400 31.87900
C  15.80500 2.13500 32.69400
O  16.95500 2.43800 32.53100
O  15.01600 2.69000 33.70400
C  15.67100 3.60100 34.65300
H  19.61700 -3.91800 31.04200
H  18.50400 -3.61100 24.73900
H  14.29200 1.01900 25.52300
H  17.64400 -0.09100 33.02900
H  18.08400 -3.15200 32.96500
H  19.68100 -0.83600 33.54500
H  20.44900 -1.50800 32.16000
H  20.35500 -2.46400 33.60300
H  15.94500 -2.58200 33.62700
H  15.21900 -0.93600 33.59800
H  16.61000 -2.33500 35.74900
H  15.56900 -1.07400 35.86800
H  20.41900 -5.74900 30.33200
H  21.54600 -5.99600 28.95700
H  20.11800 -6.89800 29.20500
H  21.85500 -6.45900 26.79400
H  21.16100 -7.31600 25.36800
H  20.44600 -7.41500 26.99200
H  16.38700 -2.70600 23.41200
H  16.09700 0.26400 23.61800
H  18.20300 -2.31300 22.30000
H  18.84800 -1.14500 23.53200
H  17.67900 -0.59000 22.28300
H  13.79900 -1.71100 24.28900
H  14.48900 -2.07400 22.79000
H  14.23600 0.57900 22.35600
H  12.72400 0.22200 23.03400
H  13.29000 -0.77900 21.66100
H  12.72300 2.05800 26.65800
H  13.71300 3.58100 27.33500
H  12.41400 2.91600 28.21600
H  14.20800 0.75700 32.50000
H  15.67100 4.61700 34.25800
H  16.65400 3.31100 35.02200
H  15.00000 3.51900 35.50800
Mg 17.16900 51.42800 26.43900
C  19.10900 49.88500 28.94100
C  14.86100 52.04900 28.84200
C  15.45100 52.57800 23.96100
C  19.59600 50.20300 24.11200
N  17.00000 50.84700 28.65100
C  17.97100 50.34300 29.42400
C  17.57200 50.33500 30.95500
C  16.08200 50.84300 30.85000
C  15.98300 51.32300 29.36200
C  15.03300 49.77200 31.18500
C  18.56100 51.26600 31.79400
C  18.84400 51.16600 33.24600
H  17.86900 50.30000 34.09600
N  15.38600 52.28900 26.38400
C  14.55500 52.39900 27.44200
C  13.31100 52.99200 26.97300
C  13.50900 53.33700 25.57800
C  14.85100 52.71200 25.17800
C  12.08900 53.40200 27.82300
C  12.61400 54.14100 24.56000
O  12.86500 54.15900 23.35500
C  11.38000 54.85300 24.93600
N  17.43700 51.31700 24.30700
C  16.54000 51.91700 23.51200
C  17.06000 51.94800 22.10700
C  18.48400 51.38100 22.19700
C  18.56100 50.96000 23.60400
C  16.19300 51.07700 21.14800
C  19.60100 52.36400 21.74900
C  19.80000 53.57500 22.69100
N  18.96900 50.35500 26.47300
C  19.81300 49.91900 25.47500
C  21.00400 49.30500 26.02300
C  20.74100 49.32200 27.36800
C  19.49600 49.95000 27.59200
C  22.18400 48.83400 25.31300
C  21.34800 48.98000 28.67300
O  22.38400 48.35900 28.90800
C  20.27700 49.29400 29.73000
C  19.95500 48.02000 30.46000
O  19.51800 46.98400 29.97800
O  20.47500 48.05500 31.69900
C  19.96500 47.07400 32.70600
H  14.08900 52.35800 29.54900
H  14.97300 53.14800 23.16200
H  20.34000 49.90700 23.37000
H  17.53400 49.32400 31.36000
H  15.91000 51.82200 31.29700
H  14.39600 50.27700 31.91200
H  15.38300 48.90800 31.75000
H  14.44900 49.35100 30.36700
H  18.22000 52.26700 31.52800
H  19.57700 51.28400 31.40000
H  18.73000 52.16700 33.66300
H  19.84200 50.79700 33.48100
H  11.85300 54.46300 27.73800
H  12.33400 53.24900 28.87400
H  11.21700 52.81500 27.53400
H  11.57600 55.72800 25.55600
H  10.74300 54.09300 25.38900
H  10.96100 55.21500 23.99800
H  17.05700 52.93100 21.63700
H  18.65800 50.48700 21.59900
H  15.23700 50.93500 21.65200
H  16.53000 50.04400 21.05400
H  16.06400 51.61900 20.21200
H  19.57200 52.62200 20.69000
H  20.51600 51.77400 21.80600
H  20.80500 53.50900 23.10700
H  19.07400 53.67200 23.49800
H  19.81000 54.50700 22.12400
H  23.01800 49.53400 25.35700
H  21.80800 48.48300 24.35200
H  22.51900 47.88200 25.72500
H  20.81800 49.97100 30.39100
H  20.54600 46.15200 32.72500
H  18.94500 46.76900 32.47200
H  20.05700 47.61200 33.65000

