158

Mg 43.80400 3.33800 47.10700
C  41.83600 6.31100 46.86300
C  40.71300 1.60800 46.83600
C  45.49500 0.80100 46.72100
C  46.69700 5.50200 46.69400
N  41.51200 3.99700 46.97500
C  40.99800 5.28800 46.97500
C  39.46500 5.23100 47.11600
C  39.16800 3.61900 47.30300
C  40.54500 3.02300 47.11200
C  38.57500 3.18700 48.64600
C  38.69000 5.92900 45.95200
C  39.36300 6.09100 44.55800
H  38.78100 5.35700 43.34900
N  43.18300 1.47900 46.64800
C  41.93700 0.91500 46.65600
C  42.12400 -0.49500 46.35100
C  43.49500 -0.74800 46.20400
C  44.14200 0.50900 46.50600
C  40.93200 -1.35000 46.00600
C  43.97100 -2.13000 45.85700
O  43.18200 -3.07800 45.70000
C  45.42500 -2.39300 45.80500
N  45.76000 3.22200 46.80200
C  46.25000 1.99800 46.79200
C  47.76400 1.94900 47.13200
C  48.15600 3.44700 46.53000
C  46.81200 4.12500 46.69600
C  48.02600 1.86700 48.64100
C  48.65400 3.42700 45.00800
C  50.18100 3.58700 44.67500
N  44.26200 5.45500 47.05100
C  45.43900 6.16600 46.75400
C  45.26300 7.54000 46.65100
C  43.84200 7.65300 46.75600
C  43.27800 6.35300 46.91900
C  46.28400 8.56500 46.42600
C  42.73300 8.62800 46.70300
O  42.79800 9.85600 46.51400
C  41.38700 7.76800 46.78500
C  40.74600 8.19100 48.07200
O  41.21700 8.13100 49.16400
O  39.54400 8.86800 47.81600
C  38.76000 9.62000 48.89500
H  39.79400 1.02500 46.75200
H  46.07900 -0.10300 46.90700
H  47.63900 6.04500 46.59300
H  39.21700 5.70800 48.06500
H  38.48800 3.24300 46.54000
H  38.05300 3.95900 49.21200
H  39.37200 2.85400 49.31100
H  37.92100 2.36000 48.37100
H  38.40100 6.95800 46.16300
H  37.77900 5.36200 45.76000
H  40.41500 5.84200 44.70200
H  39.41200 7.15600 44.32900
H  41.22400 -1.79700 45.05600
H  40.04000 -0.78100 45.74100
H  40.76300 -2.08000 46.79700
H  45.97700 -2.41500 46.74500
H  45.74500 -1.46900 45.32300
H  45.72000 -3.31100 45.29500
H  48.26100 1.16500 46.56100
H  48.88200 3.93700 47.17900
H  48.31500 2.85200 49.00700
H  48.74800 1.06400 48.79100
H  47.08700 1.54100 49.08900
H  48.12800 4.31100 44.64800
H  48.26600 2.46500 44.67400
H  50.67600 3.94200 45.57900
H  50.34500 4.42200 43.99400
H  50.64500 2.71900 44.20500
H  47.03000 8.69400 47.21000
H  45.87700 9.56800 46.30300
H  46.87800 8.35200 45.53700
H  40.77400 8.01200 45.91700
H  38.77700 9.05800 49.82900
H  37.80100 9.75400 48.39500
H  39.23100 10.59700 49.00400
Mg 15.89600 52.95900 25.07900
C  17.31100 51.72900 28.04600
C  13.10300 53.83000 26.96900
C  14.44500 53.98400 22.25800
C  18.54600 51.72100 23.22700
N  15.44400 52.95500 27.23400
C  16.13500 52.48200 28.26200
C  15.52500 52.79900 29.59900
C  14.11000 53.22000 29.17900
C  14.17400 53.24700 27.68200
C  12.87900 52.33700 29.60500
C  16.29400 53.84800 30.40100
C  16.52100 53.57200 31.94200
H  15.72700 52.46700 32.63400
N  14.08100 53.86800 24.66400
C  13.00900 54.11000 25.58600
C  11.94500 54.71500 24.82600
C  12.32700 54.80700 23.42100
C  13.61100 54.17700 23.41500
C  10.65100 55.07000 25.52400
C  11.59200 55.34100 22.24900
O  12.09300 55.41600 21.12700
C  10.21700 55.85500 22.36700
N  16.43600 52.88300 23.03200
C  15.69500 53.45100 22.00600
C  16.48200 53.34000 20.61300
C  17.83500 52.87700 21.05800
C  17.60700 52.41800 22.45800
C  15.77200 52.45400 19.48100
C  19.00700 53.95100 20.97300
C  20.13000 53.70200 19.89100
N  17.46300 51.74000 25.45000
C  18.47800 51.35600 24.65500
C  19.35800 50.42500 25.40600
C  18.95400 50.57500 26.77700
C  17.82200 51.37700 26.69900
C  20.62400 49.75300 24.81800
C  19.23500 50.25500 28.15000
O  20.16300 49.56800 28.60700
C  18.28000 51.04100 29.05100
C  17.55300 50.18800 30.02900
O  16.49100 49.56400 29.87000
O  18.50300 49.77700 30.93000
C  18.34700 48.72000 31.89000
H  12.30400 54.13900 27.64600
H  14.03000 54.30200 21.29900
H  19.32600 51.32400 22.57400
H  15.37300 51.84500 30.10500
H  13.89700 54.23100 29.52800
H  12.66000 51.73600 28.72300
H  12.04900 52.86000 30.08100
H  13.21800 51.63900 30.37000
H  15.86100 54.84000 30.27700
H  17.25200 53.83800 29.88100
H  16.21900 54.52500 32.37700
H  17.57700 53.37500 32.12800
H  9.88100 54.75700 24.81900
H  10.60200 56.11100 25.84400
H  10.59500 54.41400 26.39200
H  10.08100 56.57200 23.17700
H  9.43300 55.09700 22.38400
H  10.14100 56.42100 21.43900
H  16.72600 54.26300 20.08600
H  18.03600 52.07300 20.35000
H  16.41000 51.88200 18.80800
H  15.18600 53.10200 18.83000
H  15.07400 51.75600 19.94200
H  19.54000 54.07600 21.91500
H  18.57600 54.94500 20.84500
H  21.09800 53.86200 20.36400
H  20.00300 54.36300 19.03400
H  20.01900 52.64200 19.66200
H  21.34000 50.57400 24.82200
H  20.40600 49.48700 23.78300
H  20.89900 48.90200 25.44100
H  18.91400 51.73800 29.59800
H  19.01600 47.89600 31.64100
H  17.36100 48.25500 31.87000
H  18.45800 49.15400 32.88400

