158

Mg 36.01200 0.76600 29.56200
C  33.76700 1.57900 32.17900
C  38.57300 0.74600 32.02300
C  38.20800 0.65600 27.09200
C  33.44800 1.25500 27.33400
N  36.18100 1.35700 31.90300
C  35.05500 1.46000 32.70200
C  35.53700 1.21400 34.20500
C  37.06100 1.18100 34.10400
C  37.30700 1.02900 32.65900
C  37.82500 2.44900 34.71300
C  34.99400 0.03200 35.07500
C  35.28300 0.02100 36.61600
H  35.80600 1.32800 37.26300
N  38.05000 0.50500 29.56200
C  38.95700 0.55700 30.66000
C  40.27300 0.17700 30.14400
C  40.15700 0.17800 28.74300
C  38.75000 0.52400 28.37200
C  41.48100 0.00800 30.99900
C  41.27000 -0.12600 27.69100
O  41.04700 -0.21000 26.49300
C  42.62900 -0.52900 28.07600
N  35.89500 1.01000 27.62600
C  36.87600 0.88800 26.75800
C  36.52500 0.83900 25.22800
C  34.97200 0.90500 25.30100
C  34.73400 1.06000 26.85700
C  37.17400 1.91000 24.37200
C  34.18700 -0.32200 24.70300
C  34.03500 -1.67300 25.41200
N  33.99700 1.23900 29.68000
C  33.06400 1.49800 28.69800
C  31.78500 1.74500 29.26500
C  32.01300 1.76200 30.60900
C  33.41200 1.52300 30.86900
C  30.52400 1.86900 28.54300
C  31.31200 1.73800 31.89300
O  30.13500 1.75700 32.14100
C  32.46900 1.60300 33.03100
C  32.38000 2.88900 33.78500
O  32.52700 4.05100 33.39500
O  32.17900 2.52100 35.11700
C  32.39600 3.66000 36.03800
H  39.43900 0.50600 32.64400
H  38.80300 0.56500 26.18100
H  32.69100 1.22700 26.54800
H  35.27200 2.14000 34.71500
H  37.43600 0.24400 34.51800
H  37.22200 3.35000 34.59600
H  38.78300 2.50300 34.19600
H  38.18000 2.33800 35.73800
H  35.36700 -0.87000 34.59100
H  33.92500 0.15500 34.89900
H  36.05100 -0.75300 36.61400
H  34.38000 -0.27900 37.14700
H  42.27300 -0.66200 30.66500
H  41.16000 -0.29400 31.99600
H  42.00800 0.93900 31.21000
H  43.03300 0.00600 28.93600
H  43.28500 -0.27300 27.24500
H  42.61700 -1.55700 28.43800
H  36.83300 -0.15900 24.91700
H  34.63900 1.81500 24.80100
H  37.82300 2.48700 25.03100
H  36.47000 2.64000 23.97100
H  37.82200 1.41800 23.64700
H  34.65300 -0.58400 23.75400
H  33.17700 -0.01400 24.43000
H  34.54900 -2.26200 24.65200
H  33.01100 -2.00400 25.58300
H  34.66200 -1.76800 26.29800
H  30.75300 1.54500 27.52800
H  30.00200 2.82500 28.57600
H  29.78600 1.10700 28.79600
H  32.21400 0.72400 33.62300
H  32.32300 3.28700 37.06000
H  31.60200 4.39600 35.91200
H  33.36000 4.16600 35.98000
Mg 44.95300 34.84800 28.13900
C  43.50100 32.59900 30.45700
C  45.17000 37.12200 30.70500
C  46.33900 36.93900 25.97800
C  44.58500 32.46600 25.68800
N  44.53100 34.77100 30.33900
C  43.98700 33.74600 31.10500
C  43.95200 34.09100 32.62600
C  43.78000 35.63100 32.41900
C  44.59900 35.86800 31.12900
C  42.27700 36.06400 32.36900
C  45.31700 33.56400 33.23500
C  45.31900 33.44300 34.78700
H  44.40100 34.28000 35.59500
N  45.64700 36.75200 28.32300
C  45.69700 37.50300 29.48000
C  46.23100 38.80200 29.09700
C  46.76800 38.71400 27.78300
C  46.30300 37.43900 27.27200
C  46.30100 39.89800 30.14600
C  47.50000 39.79300 27.09500
O  48.06900 39.57800 26.01600
C  47.63800 41.27500 27.67500
N  45.24800 34.77100 26.08600
C  45.90100 35.75000 25.38400
C  46.27900 35.27600 24.01300
C  45.47000 33.88200 23.89200
C  45.19300 33.62300 25.33600
C  45.76900 36.31700 22.92700
C  46.27300 32.82900 23.04400
C  45.56000 32.14300 21.90800
N  44.32600 32.90200 28.03200
C  44.10900 32.09500 26.93500
C  43.50700 30.86900 27.37500
C  43.06600 31.09300 28.72500
C  43.69600 32.33900 29.08900
C  43.36700 29.66600 26.65000
C  42.47900 30.44000 29.87200
O  41.97400 29.36900 30.02200
C  42.61200 31.45800 31.05500
C  43.10200 30.74500 32.24400
O  44.11000 30.07900 32.33200
O  42.24900 31.06200 33.34100
C  42.54200 30.28500 34.61500
H  45.18500 37.82200 31.54300
H  46.90700 37.59900 25.31800
H  44.64400 31.68600 24.92600
H  43.02900 33.79100 33.12300
H  44.30600 36.08700 33.25800
H  42.14800 36.91300 31.69700
H  42.09100 36.55400 33.32400
H  41.56700 35.28600 32.08900
H  46.17000 34.18500 32.96200
H  45.52600 32.57300 32.83100
H  46.36400 33.61600 35.04500
H  45.06900 32.38800 34.90200
H  45.98900 40.89000 29.81800
H  47.27800 39.92800 30.62700
H  45.67200 39.68000 31.00900
H  48.18000 41.27400 28.62000
H  46.61300 41.62300 27.79700
H  48.13100 41.93900 26.96500
H  47.33500 35.09300 23.81800
H  44.47800 33.95800 23.44600
H  45.03500 35.84600 22.27400
H  46.55100 36.76500 22.31300
H  45.29600 37.19000 23.37800
H  46.72300 32.06200 23.67500
H  47.15400 33.37400 22.70700
H  45.83700 31.09500 21.79700
H  45.79600 32.58700 20.94100
H  44.48000 32.20600 22.03900
H  44.27300 29.06400 26.58300
H  43.14000 29.94500 25.62100
H  42.58800 28.93100 26.85500
H  41.56500 31.73900 31.16400
H  41.73000 30.07100 35.31000
H  43.16800 30.81500 35.33300
H  43.17800 29.41200 34.46200

