158

Mg 26.51300 50.05900 26.11800
C  24.58400 51.35300 28.73700
C  28.99900 49.42800 28.24500
C  28.31000 48.82700 23.45900
C  24.14000 51.36200 23.88900
N  26.79100 50.62100 28.22300
C  25.81300 50.96000 29.15100
C  26.24300 50.65300 30.61200
C  27.77100 50.32600 30.37900
C  27.88300 50.07700 28.81700
C  28.52400 51.63500 30.75000
C  25.52600 49.42500 31.25300
C  25.23700 49.37300 32.75600
H  26.04500 50.16400 33.71400
N  28.35200 49.27500 25.85100
C  29.24600 49.06700 26.90200
C  30.42300 48.42800 26.45200
C  30.18800 48.11100 25.06000
C  28.96000 48.80300 24.69600
C  31.58300 48.16800 27.38100
C  31.03400 47.38700 24.14300
O  30.82500 47.40300 22.98400
C  32.24400 46.66200 24.55000
N  26.31500 50.15100 23.92200
C  27.06400 49.34000 23.09500
C  26.49800 49.41600 21.65800
C  25.07700 50.02000 21.87000
C  25.15800 50.51000 23.31900
C  27.37400 50.34800 20.74500
C  23.81500 49.19400 21.55500
C  24.00200 47.70300 21.91700
N  24.67900 51.01000 26.21400
C  23.85200 51.50200 25.22300
C  22.76600 52.21200 25.88200
C  22.91600 52.02000 27.23800
C  24.14100 51.43900 27.37000
C  21.69400 52.97200 25.23300
C  22.35200 52.27100 28.53400
O  21.25800 52.77200 28.75500
C  23.35500 51.75200 29.64000
C  23.58100 52.82900 30.56600
O  24.33600 53.74000 30.35400
O  22.76100 52.76800 31.65700
C  23.04100 53.71200 32.73300
H  29.64500 49.07900 29.05300
H  28.69900 48.42000 22.52300
H  23.40800 51.84600 23.23900
H  25.91800 51.51500 31.19500
H  28.08900 49.48300 30.99200
H  28.87700 52.08900 29.82300
H  29.47500 51.49800 31.26500
H  27.91600 52.37200 31.27500
H  26.14600 48.58500 30.93900
H  24.53200 49.24800 30.84200
H  25.46800 48.36200 33.09200
H  24.16700 49.54000 32.87500
H  32.60700 48.12700 27.01200
H  31.31100 47.28300 27.95500
H  31.68100 48.93800 28.14600
H  32.70900 46.13400 23.71700
H  31.84900 45.89200 25.21300
H  32.96700 47.30200 25.05600
H  26.54900 48.45200 21.15100
H  25.01400 50.86200 21.18100
H  26.86300 51.09400 20.13700
H  28.18700 49.86400 20.20300
H  27.91300 50.94800 21.47900
H  23.61800 49.18600 20.48300
H  22.90200 49.61200 21.97800
H  24.21800 47.10500 21.03200
H  23.08800 47.28800 22.34200
H  24.79300 47.62000 22.66200
H  21.58900 52.74500 24.17200
H  21.85700 54.03600 25.40600
H  20.80100 52.62900 25.75500
H  22.95900 50.89300 30.18200
H  22.09400 53.69100 33.27300
H  23.30800 54.73000 32.45300
H  23.88700 53.48400 33.38100
Mg -5.03600 26.00200 26.83100
C  -3.43800 27.53500 29.60800
C  -6.53100 23.74900 29.16800
C  -5.91400 24.04100 24.36400
C  -2.92400 27.81000 24.74400
N  -4.95800 25.76000 29.07300
C  -4.35700 26.57200 29.98800
C  -4.75800 26.14900 31.46800
C  -5.39400 24.79200 31.28000
C  -5.68900 24.80700 29.72300
C  -4.54200 23.58900 31.77300
C  -5.74400 27.22300 31.97200
C  -5.76700 27.39100 33.44800
H  -5.41700 26.23800 34.45000
N  -6.23400 24.27800 26.76700
C  -6.85300 23.56000 27.80000
C  -7.74800 22.55500 27.24300
C  -7.59800 22.64500 25.78000
C  -6.56100 23.67900 25.59400
C  -8.62200 21.70800 28.12700
C  -8.38100 21.98800 24.72500
O  -8.24400 22.24300 23.50600
C  -9.44100 21.00100 25.14100
N  -4.39800 25.81700 24.90300
C  -4.97700 24.92300 24.03500
C  -4.41200 25.19700 22.59000
C  -3.54800 26.51600 22.69100
C  -3.60600 26.70700 24.19700
C  -3.69800 24.01100 22.04100
C  -4.08900 27.65800 21.88100
C  -3.03500 28.38700 20.89100
N  -3.61200 27.50700 27.06700
C  -2.87900 28.20100 26.10300
C  -1.92500 29.13900 26.70500
C  -2.23300 28.90000 28.08700
C  -3.22500 27.91400 28.32000
C  -0.89100 29.94900 26.05600
C  -1.76900 29.29800 29.39700
O  -1.02600 30.16100 29.71700
C  -2.69300 28.53300 30.40500
C  -1.73900 27.84600 31.37700
O  -0.78300 27.15200 31.04600
O  -2.29500 28.02900 32.67500
C  -1.65400 27.56300 33.90100
H  -7.25500 23.24300 29.81000
H  -6.32800 23.36900 23.60800
H  -2.24000 28.40000 24.13100
H  -3.87600 26.02500 32.09600
H  -6.35900 24.80200 31.78800
H  -4.79200 22.73200 31.14700
H  -4.70300 23.35100 32.82400
H  -3.45900 23.71400 31.77200
H  -6.72900 26.93300 31.60600
H  -5.51200 28.16300 31.47100
H  -6.77600 27.70500 33.71700
H  -5.05500 28.17100 33.71800
H  -8.22700 20.70500 28.29000
H  -9.67400 21.60100 27.86100
H  -8.68200 22.16300 29.11500
H  -8.95600 20.08400 25.47500
H  -10.02800 20.78800 24.24700
H  -10.17400 21.46000 25.80500
H  -5.29200 25.38600 21.97500
H  -2.49500 26.27700 22.54300
H  -2.63400 24.23400 22.11900
H  -3.89700 24.02500 20.97000
H  -3.97900 23.09700 22.56500
H  -4.48100 28.45700 22.50900
H  -4.90300 27.30800 21.24600
H  -3.36000 28.29300 19.85500
H  -2.00700 28.02300 20.89700
H  -2.97200 29.46200 21.06100
H  -0.53900 30.80100 26.63800
H  -1.25800 30.18400 25.05700
H  0.04300 29.39800 25.95100
H  -3.36600 29.24400 30.88500
H  -1.00300 26.72700 33.64800
H  -2.47500 27.15400 34.48900
H  -1.21100 28.44100 34.37100

