158

Mg 1.53800 -0.78400 42.69000
C  4.98500 -0.63700 42.05700
C  1.06800 2.11700 41.06200
C  -1.74300 -1.46500 42.74100
C  2.13000 -4.15300 43.72300
N  2.94400 0.64600 41.70500
C  4.27300 0.43300 41.51700
C  4.77300 1.64100 40.70500
C  3.58500 2.63100 40.67300
C  2.41400 1.80700 41.17500
C  3.69800 3.93400 41.51200
C  5.44000 1.22400 39.33100
C  6.58700 2.18400 38.90300
H  6.54100 2.86100 37.60600
N  -0.12800 0.25100 42.12600
C  -0.12000 1.48600 41.50100
C  -1.48500 1.86500 41.25400
C  -2.30400 0.89400 41.87200
C  -1.42300 -0.19100 42.25700
C  -1.87600 3.21000 40.70100
C  -3.75300 1.05900 42.03100
O  -4.31800 2.10500 41.70600
C  -4.58700 0.10200 42.75400
N  0.34700 -2.59500 43.06400
C  -0.95300 -2.52900 43.10000
C  -1.54700 -3.85200 43.64400
C  -0.25900 -4.74000 44.00100
C  0.79800 -3.84400 43.45500
C  -2.71500 -4.03000 44.70400
C  -0.18500 -6.12300 43.28400
C  0.17300 -7.29400 44.22100
N  3.18600 -2.00900 43.20900
C  3.27600 -3.32100 43.55700
C  4.61400 -3.66200 43.88200
C  5.43000 -2.67200 43.24600
C  4.45800 -1.66300 42.84200
C  5.19600 -4.88100 44.53600
C  6.75000 -2.24700 42.88900
O  7.85800 -2.68400 43.09700
C  6.47900 -0.95200 42.02500
C  7.30000 0.20800 42.54800
O  7.45600 0.52600 43.73600
O  7.90500 0.79700 41.50100
C  8.65200 2.01300 41.77700
H  1.03500 3.07500 40.53900
H  -2.77400 -1.81900 42.79800
H  2.41600 -5.06100 44.25700
H  5.48600 2.16700 41.34000
H  3.47200 2.83100 39.60800
H  4.55000 3.94000 42.19200
H  2.83200 3.88700 42.17200
H  3.60200 4.84100 40.91400
H  4.70000 1.09000 38.54200
H  5.90400 0.26000 39.53900
H  7.53100 1.64000 38.89700
H  6.70000 2.94000 39.68000
H  -2.80200 3.30600 40.13400
H  -1.07600 3.63600 40.09700
H  -1.90900 3.78000 41.63000
H  -5.62200 0.43300 42.66600
H  -4.34800 -0.03600 43.80800
H  -4.32600 -0.77300 42.15900
H  -1.86900 -4.29500 42.70200
H  -0.24800 -4.84400 45.08500
H  -3.52100 -4.48400 44.12700
H  -3.10600 -3.05900 45.00800
H  -2.50300 -4.78000 45.46600
H  0.50500 -6.15100 42.44100
H  -1.16000 -6.40200 42.88400
H  0.29100 -6.99800 45.26400
H  1.05800 -7.81200 43.85400
H  -0.63700 -8.01900 44.14000
H  6.21500 -4.66800 44.86000
H  5.11400 -5.67000 43.78900
H  4.54200 -5.05500 45.39100
H  6.84000 -1.29400 41.05500
H  8.27300 2.65900 42.56900
H  8.77100 2.50700 40.81300
H  9.67400 1.72700 42.02200
Mg 47.59000 23.84000 28.34100
C  48.37000 26.05100 30.94200
C  46.67000 21.45400 30.69100
C  47.16400 21.58300 25.82900
C  48.51700 26.14900 26.08400
N  47.42100 23.83400 30.58500
C  47.77000 24.84000 31.45700
C  47.70200 24.34100 32.89200
C  47.25400 22.89100 32.72700
C  47.03300 22.70900 31.24900
C  48.26000 21.87800 33.22500
C  46.79400 25.30700 33.81200
C  47.18200 25.30700 35.36400
H  46.53100 26.39800 36.21300
N  46.88100 21.80300 28.18700
C  46.59700 21.04300 29.31200
C  46.19900 19.74100 28.87200
C  46.37800 19.71300 27.43400
C  46.72500 21.07400 27.08600
C  45.80500 18.56700 29.80400
C  46.22300 18.51700 26.46700
O  46.23300 18.74900 25.25900
C  46.01700 17.08700 26.90900
N  47.75300 23.91700 26.29500
C  47.60400 22.84200 25.45700
C  48.01600 23.12500 24.05000
C  48.17700 24.65700 24.09300
C  48.18000 24.94200 25.58500
C  49.28300 22.23600 23.63600
C  47.06900 25.37900 23.28000
C  45.78500 25.62300 24.02100
N  48.45200 25.65800 28.41800
C  48.74800 26.52800 27.43800
C  49.25900 27.75100 27.95200
C  49.14000 27.55700 29.30700
C  48.59700 26.31400 29.57300
C  49.76100 29.00000 27.21300
C  49.43300 28.26100 30.52800
O  50.08500 29.28000 30.78700
C  48.86300 27.39100 31.68100
C  49.99300 27.20800 32.55400
O  50.97100 26.48800 32.28600
O  49.65000 27.70200 33.78600
C  50.67200 27.55500 34.82900
H  46.32300 20.67700 31.37500
H  47.14500 20.92400 24.95800
H  48.90100 26.84200 25.33200
H  48.72100 24.48300 33.25100
H  46.32600 22.79200 33.29100
H  47.70600 21.04900 33.66300
H  48.99800 22.17600 33.97000
H  48.86200 21.57700 32.36700
H  45.73200 25.06400 33.80000
H  46.92700 26.35000 33.52300
H  48.27100 25.28300 35.41100
H  46.79400 24.31400 35.59000
H  45.70800 17.57600 29.36000
H  44.82500 18.79600 30.22200
H  46.46600 18.49300 30.66800
H  45.11300 16.88800 27.48400
H  46.89500 16.82000 27.49800
H  46.11100 16.35900 26.10300
H  47.18800 22.93500 23.36700
H  49.05700 24.90800 23.50100
H  48.87500 21.38200 23.09500
H  49.73400 21.91100 24.57500
H  50.02300 22.83300 23.10300
H  46.93600 24.81500 22.35700
H  47.43200 26.36000 22.97400
H  45.69300 24.97300 24.89200
H  45.02100 25.28700 23.31900
H  45.65000 26.64200 24.38200
H  50.60600 29.35700 27.80100
H  48.90200 29.66600 27.13000
H  50.09000 28.72700 26.21000
H  48.07100 27.93900 32.19200
H  50.07200 27.35000 35.71600
H  51.02000 28.58700 34.87500
H  51.52600 26.90500 34.63900

