158

Mg 26.66400 50.35100 26.31300
C  24.55600 51.58800 28.76100
C  28.72500 48.99900 28.81200
C  28.90500 49.54400 23.91800
C  24.79200 52.08100 23.83600
N  26.64100 50.25100 28.56000
C  25.65300 50.82600 29.34100
C  25.91700 50.52000 30.84900
C  27.31600 49.88700 30.86100
C  27.60300 49.68000 29.34000
C  28.46800 50.75000 31.47800
C  24.77300 49.67300 31.51300
C  24.22500 50.10600 32.95800
H  25.22500 50.64700 33.88100
N  28.51100 49.31700 26.33200
C  29.18200 48.85300 27.44600
C  30.45400 48.33400 27.06000
C  30.53100 48.36800 25.66800
C  29.32300 49.07400 25.23400
C  31.50200 47.75100 28.12900
C  31.68000 47.92200 24.81500
O  31.64100 48.02300 23.57800
C  32.90300 47.26000 25.42600
N  26.76600 50.63400 24.17300
C  27.76500 50.14100 23.43800
C  27.49400 50.41700 21.89600
C  26.00800 50.94700 21.93300
C  25.83100 51.28300 23.37600
C  28.53500 51.38300 21.19500
C  24.91600 50.01100 21.39500
C  24.06700 50.42700 20.26100
N  24.95300 51.53400 26.29800
C  24.34700 52.19000 25.24800
C  23.25500 52.93300 25.78900
C  23.21700 52.70700 27.15900
C  24.36400 51.87000 27.38800
C  22.27400 53.71200 25.05300
C  22.57700 53.03200 28.36900
O  21.53000 53.66500 28.61900
C  23.39700 52.28600 29.48700
C  23.88900 53.29400 30.40600
O  24.66300 54.22200 30.14400
O  23.04500 53.33100 31.48800
C  23.33100 54.33700 32.45700
H  29.35200 48.56800 29.59500
H  29.76900 49.27700 23.30600
H  23.96000 52.36400 23.18700
H  26.05200 51.39500 31.48500
H  27.23600 48.90800 31.33200
H  28.68700 51.53700 30.75600
H  29.43300 50.24300 31.49700
H  28.26600 50.92300 32.53500
H  25.17000 48.66100 31.59200
H  23.85300 49.68300 30.92900
H  23.77100 49.17000 33.28100
H  23.47200 50.88100 32.81500
H  32.40600 48.34500 27.98800
H  31.79300 46.71500 27.95800
H  31.15200 47.89300 29.15200
H  33.52400 48.01900 25.90000
H  33.55000 46.89200 24.63000
H  32.65200 46.50500 26.17200
H  27.58200 49.42800 21.44600
H  25.91700 51.88400 21.38300
H  28.93100 50.99000 20.25800
H  29.37700 51.53600 21.87000
H  28.07100 52.34100 20.96100
H  24.33400 49.62800 22.23400
H  25.41500 49.11000 21.03900
H  23.01600 50.41300 20.55000
H  24.21700 49.72600 19.44000
H  24.36800 51.38700 19.84300
H  22.24500 53.37600 24.01600
H  22.49600 54.77600 25.13200
H  21.26400 53.64900 25.45800
H  22.75200 51.56500 29.98900
H  22.50400 54.56400 33.12800
H  23.48800 55.26400 31.90600
H  24.15000 53.96700 33.07300
Mg 8.60200 48.62600 25.21200
C  6.79800 48.75000 28.15900
C  11.36800 50.07000 26.94400
C  10.45400 48.23500 22.54000
C  5.73000 47.67700 23.52300
N  8.96100 49.52600 27.26200
C  8.05200 49.36700 28.29400
C  8.65400 50.01100 29.55600
C  9.91700 50.66700 28.98800
C  10.14200 50.07900 27.66000
C  9.79800 52.23400 28.99600
C  8.96200 48.86700 30.62100
C  10.08000 49.07300 31.63700
H  9.87800 48.52200 33.07700
N  10.61200 49.09200 24.80900
C  11.52300 49.70700 25.55300
C  12.81000 49.77900 24.85400
C  12.66300 49.11800 23.61800
C  11.20200 48.73500 23.65800
C  13.98700 50.44500 25.46600
C  13.65300 48.78900 22.56600
O  13.38500 48.16100 21.55600
C  15.09900 49.15900 22.70500
N  8.13600 48.05900 23.36700
C  9.10000 47.86000 22.38400
C  8.53800 47.30300 21.13400
C  7.08500 46.98200 21.49500
C  6.97200 47.60900 22.84900
C  8.84000 48.15900 19.92100
C  6.80800 45.43100 21.60800
C  7.94200 44.54100 22.15400
N  6.66400 48.20700 25.64800
C  5.61300 47.89000 24.88000
C  4.43000 47.76300 25.67600
C  4.87900 47.94800 26.97700
C  6.23200 48.32600 26.90400
C  3.10800 47.24600 25.21200
C  4.39000 47.96400 28.38500
O  3.33000 47.62200 28.89000
C  5.72300 48.38200 29.16200
C  6.16200 47.14800 29.93200
O  6.75900 46.22600 29.43900
O  5.92800 47.25400 31.26100
C  6.44100 46.18100 32.08800
H  12.25800 50.42300 27.46900
H  11.03100 47.97400 21.65000
H  4.85000 47.36700 22.95600
H  8.00700 50.75400 30.02300
H  10.87900 50.64400 29.49900
H  9.85800 52.54200 27.95200
H  10.59300 52.72700 29.55500
H  8.84300 52.65200 29.31500
H  8.91200 47.89700 30.12600
H  8.07300 48.86500 31.25200
H  10.63700 50.01000 31.65500
H  10.83200 48.35700 31.30500
H  14.57400 50.92900 24.68600
H  14.74000 49.78100 25.89100
H  13.80400 51.21900 26.21200
H  15.08600 50.22600 22.48000
H  15.66100 48.63000 21.93500
H  15.59200 48.94000 23.65200
H  9.15800 46.40900 21.06500
H  6.49100 47.58300 20.80700
H  7.83800 48.41600 19.57800
H  9.39800 47.48200 19.27500
H  9.38500 49.08300 20.11600
H  6.56500 45.16800 20.57900
H  5.91900 45.23800 22.20800
H  8.52200 45.07200 22.91000
H  8.47800 44.06200 21.33500
H  7.45800 43.72400 22.69000
H  2.98300 47.51200 24.16200
H  2.42100 47.71000 25.91900
H  3.05200 46.15800 25.23100
H  5.58700 49.25100 29.80600
H  5.96100 46.49800 33.01400
H  7.52500 46.10500 32.17300
H  6.04500 45.20000 31.82600

