158

Mg 41.39000 41.28100 26.90700
C  40.48000 43.62200 29.44600
C  42.54600 39.12800 29.38300
C  42.61000 39.30200 24.45100
C  40.48200 43.56100 24.67100
N  41.57800 41.39600 29.13900
C  41.02700 42.42400 29.95000
C  41.20100 42.14900 31.47400
C  42.05000 40.78200 31.42200
C  42.14200 40.37600 29.90700
C  43.50600 40.88600 31.99400
C  39.74900 42.03500 32.24300
C  39.70000 42.80400 33.54500
H  39.03600 42.11800 34.76400
N  42.38300 39.39100 26.94500
C  42.75100 38.68600 28.06400
C  43.45300 37.51200 27.59900
C  43.36500 37.47700 26.19700
C  42.81000 38.76300 25.76300
C  43.98800 36.46800 28.56500
C  43.72400 36.29000 25.20600
O  43.40200 36.28700 24.03900
C  44.49100 35.08800 25.78100
N  41.67600 41.52100 24.76300
C  42.01800 40.50800 23.92700
C  41.76000 40.82100 22.43600
C  40.73700 41.99100 22.63700
C  40.98100 42.37200 24.11700
C  43.01500 41.25100 21.63400
C  39.25300 41.45700 22.38900
C  38.40900 40.76300 23.41200
N  40.68700 43.13600 26.96500
C  40.39700 44.01100 25.96700
C  39.98000 45.35500 26.51000
C  40.00100 45.17000 27.89200
C  40.39700 43.83400 28.08400
C  39.65500 46.56800 25.62400
C  39.75100 45.88800 29.05200
O  39.29200 46.98400 29.30100
C  40.03100 44.88300 30.17000
C  41.02200 45.42400 31.05900
O  42.24000 45.34200 30.87000
O  40.42400 45.81100 32.26200
C  41.40100 46.05500 33.38000
H  42.84900 38.46800 30.19900
H  42.90200 38.58900 23.67700
H  40.09700 44.13600 23.82600
H  41.82000 42.93000 31.91500
H  41.48200 40.01400 31.94700
H  44.26700 40.90500 31.21400
H  43.71600 40.11700 32.73800
H  43.58100 41.81100 32.56600
H  39.59500 40.97300 32.43900
H  38.91500 42.38800 31.63600
H  39.29200 43.81100 33.45300
H  40.68400 42.97300 33.98300
H  44.91800 36.05800 28.17200
H  43.28900 35.65100 28.74600
H  44.30600 36.89800 29.51400
H  44.01200 34.57400 26.61400
H  45.51300 35.40900 25.98300
H  44.69200 34.35100 25.00400
H  41.25300 40.04700 21.86000
H  40.86600 42.84000 21.96600
H  43.84800 40.97800 22.28100
H  42.85100 42.31600 21.47200
H  43.10300 40.66500 20.71800
H  39.31200 40.83200 21.49800
H  38.57500 42.28900 22.19700
H  38.89300 40.79200 24.38800
H  38.27000 39.71700 23.13600
H  37.47100 41.31600 23.45700
H  40.07900 46.36200 24.64100
H  40.12700 47.51500 25.88300
H  38.58300 46.65200 25.44500
H  39.05900 44.79000 30.65400
H  42.17000 46.72800 33.00000
H  41.86300 45.17000 33.81700
H  40.84600 46.53000 34.18900
Mg 9.43100 48.77700 26.06900
C  7.32500 48.68100 28.84800
C  11.81000 50.14600 27.95200
C  11.09300 49.04600 23.32000
C  6.41600 48.10500 24.13600
N  9.35900 49.52800 28.12300
C  8.54200 49.22600 29.13800
C  9.03800 49.67300 30.50700
C  10.36100 50.31800 30.13700
C  10.60600 49.94600 28.63300
C  10.44900 51.84700 30.40200
C  9.22900 48.61800 31.66100
C  8.25500 48.86500 32.78200
H  8.80100 49.65100 33.96800
N  11.27100 49.36500 25.74900
C  12.18600 49.83700 26.62500
C  13.47900 49.76900 25.94800
C  13.27800 49.48200 24.55400
C  11.84700 49.30100 24.50400
C  14.73500 50.00200 26.75000
C  14.23000 49.38700 23.37200
O  13.87500 49.36100 22.17800
C  15.76300 49.56500 23.58400
N  8.81200 48.79100 24.04800
C  9.71300 48.90100 23.05000
C  9.20900 48.60100 21.63500
C  7.71100 48.17400 22.02900
C  7.61500 48.40700 23.50800
C  9.28300 49.73100 20.55800
C  7.29400 46.70000 21.57100
C  7.43100 45.55600 22.52400
N  7.28600 48.45400 26.39500
C  6.20300 48.17500 25.56600
C  5.03900 47.92800 26.29400
C  5.47300 48.06100 27.63800
C  6.81900 48.44000 27.60900
C  3.66200 47.53600 25.71600
C  4.94600 48.14600 28.99200
O  3.81100 47.94300 29.39900
C  6.20400 48.44800 29.86200
C  6.38200 47.15400 30.58500
O  7.07000 46.22500 30.17600
O  5.73800 47.08500 31.83500
C  6.04400 45.83300 32.59200
H  12.60200 50.57100 28.57200
H  11.62600 48.88800 22.38000
H  5.60400 47.71900 23.51600
H  8.32000 50.43900 30.80000
H  11.17400 49.94300 30.75800
H  9.65500 52.12100 31.09700
H  10.27100 52.37700 29.46600
H  11.44100 52.15700 30.72900
H  10.21500 48.55900 32.12200
H  8.99700 47.65300 31.20900
H  7.84600 47.91300 33.12200
H  7.38600 49.30700 32.29600
H  14.54500 49.80800 27.80600
H  15.01000 51.01900 26.47000
H  15.67200 49.48400 26.54300
H  15.86800 48.83700 24.38800
H  16.02200 50.58700 23.86300
H  16.33700 49.30900 22.69400
H  9.63500 47.71200 21.17000
H  6.98400 48.82800 21.55000
H  9.65300 50.68200 20.94100
H  8.27700 49.93500 20.19300
H  9.94500 49.41300 19.75200
H  7.63800 46.44000 20.56900
H  6.23100 46.79500 21.35300
H  8.18000 45.67500 23.30600
H  7.57900 44.66100 21.91900
H  6.45200 45.30800 22.93500
H  3.68900 47.19800 24.68000
H  3.04300 48.43300 25.69400
H  3.18400 46.85700 26.42200
H  6.00500 49.15600 30.66600
H  5.41500 45.06900 32.13600
H  5.69600 45.95300 33.61800
H  7.08000 45.50600 32.68400

