158

Mg -2.58800 17.28800 26.36500
C  -2.76000 14.90100 29.02900
C  -3.23500 19.65300 28.67900
C  -2.64200 19.44300 23.92100
C  -2.46600 14.65500 24.06700
N  -2.76800 17.26300 28.73000
C  -2.85600 16.18700 29.52400
C  -3.41000 16.58000 30.87600
C  -3.72600 18.11300 30.73100
C  -3.24600 18.36500 29.30400
C  -5.22600 18.53100 30.92100
C  -2.46400 16.25500 32.12600
C  -2.56300 16.99600 33.42600
H  -2.59100 16.25000 34.72300
N  -2.79200 19.33100 26.28400
C  -3.04600 20.12500 27.33100
C  -3.24900 21.51400 26.83600
C  -3.02500 21.44200 25.41500
C  -2.76900 20.02100 25.17100
C  -3.44900 22.75100 27.70100
C  -2.86700 22.57100 24.44100
O  -2.41100 22.34200 23.31700
C  -3.06400 24.02500 24.72700
N  -2.85600 17.05800 24.32300
C  -2.71100 18.11400 23.53700
C  -2.48300 17.67100 22.08800
C  -2.30200 16.15100 22.13000
C  -2.44300 15.94300 23.62200
C  -3.56400 18.04800 21.05500
C  -1.04300 15.59100 21.41700
C  0.27800 15.57400 22.20700
N  -2.55900 15.22100 26.42200
C  -2.51600 14.29500 25.39700
C  -2.47500 12.93700 25.96300
C  -2.61200 13.17300 27.32800
C  -2.66500 14.58800 27.59200
C  -2.47900 11.66200 25.19200
C  -2.76700 12.47800 28.59500
O  -2.76100 11.25600 28.74900
C  -2.81000 13.55200 29.69300
C  -1.66200 13.32500 30.62600
O  -0.59900 13.91400 30.59500
O  -2.07000 12.56400 31.63100
C  -0.93500 12.17500 32.47800
H  -3.29800 20.49600 29.37000
H  -2.51400 20.05500 23.02600
H  -2.41400 13.83600 23.34700
H  -4.32700 15.99100 30.86700
H  -3.05000 18.72600 31.32600
H  -5.75700 18.08300 31.76100
H  -5.81800 18.46300 30.00800
H  -5.22100 19.57300 31.24200
H  -1.44600 16.21300 31.73800
H  -2.77000 15.25900 32.44300
H  -3.43400 17.63200 33.27100
H  -1.71800 17.68300 33.47100
H  -3.64600 22.53200 28.75100
H  -4.35900 23.26400 27.39100
H  -2.67600 23.51400 27.61400
H  -4.08200 24.29800 25.00600
H  -3.00200 24.49300 23.74400
H  -2.35000 24.37200 25.47300
H  -1.48400 18.06600 21.90800
H  -3.14300 15.61300 21.69200
H  -3.41800 17.42600 20.17200
H  -3.39800 19.06700 20.70600
H  -4.55300 17.86600 21.47500
H  -0.86500 16.34100 20.64700
H  -1.30500 14.62400 20.98800
H  0.23000 15.80000 23.27200
H  0.91200 16.27300 21.66200
H  0.68400 14.56900 22.09400
H  -1.42800 11.43000 25.02400
H  -2.90100 11.78600 24.19400
H  -3.06700 10.91900 25.73100
H  -3.70000 13.50000 30.32100
H  0.04700 11.94900 32.06300
H  -1.22100 11.28200 33.03300
H  -0.84700 12.95800 33.23200
Mg 6.50700 53.66200 41.82100
C  5.53800 50.19400 41.50400
C  9.17600 52.94100 39.91100
C  6.67200 56.96300 41.03700
C  3.32600 54.27900 43.05700
N  7.27900 51.72800 40.94100
C  6.72600 50.51800 40.83900
C  7.68400 49.49000 40.27900
C  8.95500 50.35500 40.01300
C  8.46000 51.78800 40.31400
C  10.27500 49.93900 40.71400
C  7.16700 48.79700 38.98400
C  6.22200 49.59900 38.05500
H  5.41800 48.82200 36.97400
N  7.88100 54.83000 40.89700
C  8.96100 54.33600 40.14000
C  9.76000 55.38700 39.63600
C  9.12800 56.60500 40.08500
C  7.77200 56.14800 40.66200
C  11.06500 55.33300 38.84700
C  9.68900 58.02100 40.06900
O  10.85400 58.15000 39.62000
C  9.04400 59.27300 40.70000
N  5.09300 55.33300 41.76900
C  5.42100 56.66100 41.57900
C  4.35700 57.70300 41.97000
C  3.37300 56.80400 42.67200
C  3.98900 55.38100 42.58700
C  4.86800 58.87700 42.81300
C  1.90400 56.84500 42.12500
C  0.71000 56.85700 43.15100
N  4.84100 52.51300 42.40800
C  3.65200 52.93100 42.90800
C  2.87500 51.75200 43.23100
C  3.61400 50.66300 42.73700
C  4.75900 51.14300 42.19100
C  1.53500 51.81100 43.92700
C  3.57500 49.19600 42.55700
O  2.70700 48.41100 42.85700
C  4.94800 48.83300 41.82800
C  4.59400 47.89800 40.70400
O  3.84400 48.15600 39.74800
O  5.29300 46.75300 40.91900
C  4.81600 45.62200 40.15600
H  9.96200 52.68700 39.19700
H  6.86100 57.99900 40.75000
H  2.33800 54.44100 43.49300
H  7.85800 48.66900 40.97400
H  9.25000 50.38600 38.96400
H  9.95700 49.42600 41.62100
H  10.85400 50.82300 40.98100
H  10.87600 49.29100 40.07700
H  6.75300 47.81700 39.22300
H  8.05100 48.61700 38.37200
H  6.86600 50.17800 37.39300
H  5.52000 50.18700 38.64700
H  11.20500 54.41800 38.27100
H  11.97600 55.37900 39.44300
H  11.00500 56.01600 37.99900
H  8.51400 58.89300 41.57400
H  8.39600 59.78800 39.99100
H  9.77000 60.02900 40.99700
H  3.94400 58.15200 41.06600
H  3.29300 57.02300 43.73700
H  4.42400 58.82600 43.80700
H  4.78700 59.80700 42.24900
H  5.94500 58.72000 42.88200
H  1.86700 56.02300 41.41000
H  1.84200 57.66600 41.41100
H  1.12000 56.43100 44.06700
H  -0.00700 56.11100 42.80700
H  0.24800 57.83800 43.25700
H  0.93200 52.65100 43.58200
H  1.69800 51.96900 44.99300
H  1.23100 50.80200 43.65100
H  5.58200 48.39200 42.59800
H  5.45100 44.76000 40.35700
H  4.82500 45.89000 39.09900
H  3.77900 45.48500 40.46300

