158

Mg 42.53700 41.50600 26.40600
C  41.72900 43.93200 28.68700
C  43.59100 39.42500 29.19400
C  43.60800 39.08900 24.31100
C  42.09100 43.76600 23.87100
N  42.65400 41.71600 28.67700
C  42.21900 42.77900 29.32100
C  42.15500 42.45700 30.86400
C  43.01900 41.17800 31.03600
C  43.12600 40.71700 29.53600
C  44.35500 41.50800 31.68300
C  40.69600 42.37300 31.51600
C  40.27400 43.50400 32.47100
H  39.58900 43.04000 33.76300
N  43.34900 39.45700 26.70000
C  43.74000 38.86600 27.90700
C  44.13700 37.55800 27.60200
C  44.01300 37.38000 26.21800
C  43.66100 38.67800 25.66400
C  44.56000 36.53700 28.61200
C  44.13500 36.07000 25.41000
O  44.07200 36.02400 24.19800
C  44.48300 34.84100 26.08700
N  42.91200 41.48400 24.45100
C  43.19100 40.32900 23.72300
C  43.16900 40.60300 22.21500
C  42.69300 42.09600 22.04300
C  42.55300 42.51200 23.51300
C  44.56400 40.31000 21.54400
C  41.40500 42.36100 21.32500
C  41.36700 43.65600 20.37700
N  41.89600 43.44000 26.22500
C  41.85500 44.26300 25.16100
C  41.25200 45.54400 25.63600
C  41.25900 45.46400 26.97300
C  41.66000 44.19000 27.31200
C  40.96000 46.71500 24.77700
C  40.99400 46.20300 28.20200
O  40.73200 47.37000 28.33500
C  41.23500 45.19200 29.39600
C  42.12800 45.90800 30.32700
O  43.32600 46.06800 30.21200
O  41.40600 46.40200 31.38200
C  42.20900 47.01600 32.44200
H  43.95400 38.88400 30.07000
H  43.89600 38.37400 23.53800
H  41.91200 44.47700 23.06100
H  42.66700 43.29300 31.33800
H  42.49400 40.43000 31.63000
H  44.46800 42.57300 31.88800
H  45.24600 41.10300 31.20300
H  44.44900 41.11200 32.69500
H  40.63200 41.39500 31.99200
H  40.01900 42.30100 30.66500
H  39.55400 44.24500 32.12300
H  41.19200 44.05300 32.68100
H  44.53800 36.87000 29.65000
H  45.57500 36.20600 28.39300
H  43.90900 35.67000 28.73300
H  43.74900 34.68400 26.87800
H  45.40600 34.88500 26.66500
H  44.61600 33.95100 25.47200
H  42.46300 39.99000 21.65500
H  43.54700 42.68900 21.71600
H  45.26800 39.88700 22.26000
H  44.91300 41.19600 21.01300
H  44.44600 39.50000 20.82400
H  40.61500 42.29900 22.07300
H  41.16300 41.46000 20.76100
H  41.13100 43.37300 19.35200
H  42.32300 44.16700 20.48800
H  40.63000 44.38200 20.72000
H  41.65900 47.50400 25.05400
H  39.95900 47.02300 25.07900
H  41.10500 46.54200 23.71100
H  40.26800 44.93900 29.83000
H  43.29600 47.05600 32.38100
H  42.01300 46.41200 33.32800
H  41.97300 48.07600 32.53500
Mg -5.62800 25.27100 25.61500
C  -4.16200 26.25100 28.70100
C  -7.54800 22.83900 27.44800
C  -6.76400 23.95000 22.74300
C  -3.48500 27.26200 24.01800
N  -5.70600 24.50200 27.84000
C  -5.03700 25.13000 28.90700
C  -5.54700 24.64100 30.24000
C  -6.49500 23.43300 29.76200
C  -6.57900 23.54100 28.23500
C  -5.89500 22.10200 30.25100
C  -6.35800 25.71200 31.07100
C  -6.13700 25.82600 32.59300
H  -5.23300 24.76500 33.24000
N  -7.13400 23.70900 25.18600
C  -7.85300 22.90800 26.05700
C  -8.90600 22.25900 25.34300
C  -8.68200 22.57600 23.91900
C  -7.40600 23.39700 23.91500
C  -10.00200 21.57600 26.13000
C  -9.46100 22.18400 22.68700
O  -9.18800 22.50200 21.55400
C  -10.57900 21.28700 22.82100
N  -5.08500 25.46300 23.72800
C  -5.67100 24.80200 22.63700
C  -5.06300 25.21500 21.31700
C  -4.19100 26.49100 21.70400
C  -4.24300 26.41500 23.25100
C  -4.20900 23.90700 20.77900
C  -4.63300 27.84100 21.07500
C  -3.45900 28.54500 20.40400
N  -4.19000 26.53200 26.13000
C  -3.46900 27.43200 25.35600
C  -2.62100 28.22600 26.17300
C  -2.85700 27.79900 27.46700
C  -3.84500 26.73200 27.41400
C  -1.64700 29.26500 25.83600
C  -2.45700 28.10300 28.80400
O  -1.72600 28.90500 29.26800
C  -3.34300 27.01700 29.64000
C  -2.46900 26.29400 30.66900
O  -1.80500 25.27500 30.43500
O  -2.46800 27.00300 31.83500
C  -1.39500 26.46200 32.75100
H  -8.16500 22.12300 27.99500
H  -6.96100 23.52300 21.75700
H  -2.83400 27.91400 23.43300
H  -4.63800 24.30500 30.74000
H  -7.51300 23.52900 30.14000
H  -6.64100 21.44600 30.69900
H  -5.10100 22.22800 30.98600
H  -5.59300 21.62600 29.31800
H  -7.43700 25.56600 31.01800
H  -6.23600 26.73800 30.72500
H  -7.01800 25.84000 33.23400
H  -5.68300 26.81000 32.70600
H  -9.75400 20.51400 26.11300
H  -10.96000 21.66000 25.61700
H  -10.14100 21.99400 27.12700
H  -11.12000 21.20000 21.87900
H  -11.30600 21.64100 23.55300
H  -10.20500 20.29000 23.05300
H  -5.80800 25.52000 20.58200
H  -3.20200 26.24000 21.32200
H  -4.75000 23.36400 20.00400
H  -3.97400 23.22100 21.59400
H  -3.25300 24.28000 20.41200
H  -4.94500 28.48000 21.90100
H  -5.49400 27.86400 20.40800
H  -3.72000 29.17500 19.55400
H  -2.63500 27.84400 20.26800
H  -2.99700 29.18700 21.15300
H  -1.75300 29.63200 24.81500
H  -0.66100 28.80600 25.90500
H  -1.82000 30.18900 26.38600
H  -4.11400 27.52000 30.22400
H  -1.32000 27.01000 33.69000
H  -0.41100 26.62100 32.31000
H  -1.53100 25.38100 32.78700

