158

Mg 1.27300 42.07200 26.41600
C  2.46100 42.12300 29.65700
C  -1.93300 41.55500 27.64000
C  0.26600 41.29300 23.35100
C  4.60900 42.54500 25.18900
N  0.32100 41.62700 28.42400
C  1.05100 41.84600 29.61900
C  0.05900 41.85200 30.88500
C  -1.21900 41.33100 30.14900
C  -0.93000 41.52000 28.63400
C  -1.74600 39.88700 30.45800
C  0.04900 43.25200 31.57700
C  -0.45600 43.32400 33.04900
H  -0.76700 42.02100 33.81300
N  -0.56000 41.48700 25.58400
C  -1.76800 41.43500 26.24400
C  -2.80900 41.33900 25.24500
C  -2.12700 41.08100 23.97000
C  -0.72500 41.24400 24.24800
C  -4.30600 41.42700 25.60900
C  -2.71300 40.63400 22.67200
O  -2.01600 40.33400 21.72400
C  -4.25300 40.60900 22.44600
N  2.37400 41.82400 24.51900
C  1.60900 41.60100 23.37300
C  2.54200 41.60800 22.14800
C  3.85200 42.31200 22.65700
C  3.65100 42.20300 24.21500
C  2.65500 40.42600 21.25300
C  3.95100 43.77100 22.30700
C  4.77900 44.11000 21.04900
N  3.15100 42.26300 27.16100
C  4.38600 42.51700 26.56600
C  5.42700 42.55400 27.61300
C  4.67200 42.51700 28.81600
C  3.31400 42.27900 28.48100
C  6.92800 42.71600 27.36300
C  4.81200 42.52500 30.22900
O  5.75300 42.68000 30.95300
C  3.43100 42.15200 30.89400
C  3.51100 40.85100 31.66900
O  3.68300 39.70900 31.15600
O  3.61000 41.15600 32.96900
C  3.75300 40.09400 33.92900
H  -2.97100 41.55300 27.98200
H  -0.04400 41.22800 22.30600
H  5.61100 42.73100 24.79600
H  0.49600 41.08300 31.52300
H  -2.02700 42.03400 30.35400
H  -2.71800 40.00300 30.93600
H  -1.08800 39.39500 31.17400
H  -1.74900 39.30700 29.53500
H  -0.58100 43.99400 31.08700
H  1.06600 43.64100 31.63600
H  -1.34700 43.95200 33.05500
H  0.30000 43.90000 33.58400
H  -4.74600 40.43000 25.63800
H  -4.81500 42.17200 24.99800
H  -4.48800 41.84900 26.59700
H  -4.75400 41.57500 22.51100
H  -4.69200 40.04900 23.27200
H  -4.38800 40.13100 21.47500
H  2.19600 42.33600 21.41400
H  4.75500 41.71700 22.51600
H  3.59900 39.97000 21.55500
H  2.55500 40.75200 20.21800
H  1.85400 39.69900 21.38700
H  4.51600 44.27400 23.09100
H  2.99000 44.28400 22.34500
H  5.55100 43.37600 20.81900
H  5.32300 45.05400 21.05500
H  4.10100 44.22300 20.20300
H  7.32900 41.72600 27.14600
H  7.36900 42.97000 28.32700
H  7.17700 43.50100 26.65000
H  3.28800 42.99800 31.56600
H  4.76100 40.13300 34.34200
H  3.61600 39.10600 33.49100
H  3.03200 40.21300 34.73800
Mg -5.54500 24.66600 26.16500
C  -4.26700 26.31700 29.11200
C  -7.90700 23.20000 28.01200
C  -6.39200 23.07400 23.37100
C  -3.15300 26.59500 24.39300
N  -5.96500 24.63000 28.30400
C  -5.35200 25.40200 29.32500
C  -6.10300 25.18900 30.67300
C  -7.22600 24.11700 30.29700
C  -7.05100 24.02800 28.75100
C  -7.00300 22.67400 31.01000
C  -6.89600 26.46200 31.20100
C  -6.78900 26.64700 32.79700
H  -6.16400 25.50600 33.59900
N  -6.90800 23.26600 25.74600
C  -7.84700 22.81600 26.63600
C  -8.73100 21.92000 25.98500
C  -8.30400 21.85300 24.65300
C  -7.14600 22.76800 24.52100
C  -9.89800 21.27500 26.70100
C  -8.81200 20.93200 23.59600
O  -8.24300 20.89100 22.50200
C  -9.87700 19.87100 23.86600
N  -4.94400 24.89300 24.17700
C  -5.41400 24.02200 23.18800
C  -4.60000 24.28400 21.97200
C  -3.89300 25.67700 22.17800
C  -3.94400 25.71300 23.68800
C  -3.66100 23.07300 21.65500
C  -4.67500 26.86400 21.57500
C  -3.98800 27.61300 20.40000
N  -3.89700 25.96700 26.61300
C  -3.07700 26.65400 25.77000
C  -2.31600 27.64000 26.45500
C  -2.73200 27.43900 27.79100
C  -3.63000 26.44400 27.87400
C  -1.31200 28.60700 25.88200
C  -2.44600 27.97100 29.04900
O  -1.60200 28.76500 29.47900
C  -3.46900 27.29400 29.96100
C  -2.72500 26.59900 31.10500
O  -2.13000 25.59700 31.02500
O  -2.77700 27.47300 32.14900
C  -2.10200 27.00600 33.34600
H  -8.71900 22.81000 28.63000
H  -6.66100 22.40200 22.55300
H  -2.55200 27.23900 23.74600
H  -5.31000 24.71700 31.25400
H  -8.24600 24.48200 30.42400
H  -7.92400 22.40800 31.53000
H  -6.17000 22.60200 31.70900
H  -6.75700 21.89000 30.29500
H  -7.94500 26.44000 30.90500
H  -6.56600 27.33400 30.63600
H  -7.79800 26.90400 33.11700
H  -6.16500 27.49800 33.07200
H  -10.69400 21.38000 25.96300
H  -10.13600 21.73300 27.66100
H  -9.76700 20.20700 26.87000
H  -10.80900 20.41600 24.01300
H  -9.46200 19.36300 24.73600
H  -9.90000 19.18000 23.02300
H  -5.30000 24.45200 21.15300
H  -2.86000 25.62800 21.83400
H  -3.86900 22.26400 22.35600
H  -2.65000 23.40400 21.89000
H  -3.82800 22.66900 20.65700
H  -4.79300 27.69800 22.26600
H  -5.64700 26.55600 21.19000
H  -3.58900 28.55900 20.76800
H  -4.74500 27.70600 19.62200
H  -3.22300 26.92800 20.03600
H  -0.73100 28.97100 26.72900
H  -1.85500 29.41200 25.38600
H  -0.68700 28.10800 25.14100
H  -4.16600 27.90700 30.53200
H  -1.37900 27.75100 33.67700
H  -1.67700 26.00400 33.39500
H  -2.80000 27.09100 34.17900

