158

Mg 8.63000 4.39700 27.40500
C  9.88000 2.97800 30.33300
C  6.71800 6.51700 29.46200
C  7.14200 5.76400 24.65700
C  10.40900 2.26200 25.41100
N  8.25000 4.64300 29.66300
C  8.99700 4.02700 30.62400
C  8.61800 4.63000 31.98200
C  7.62000 5.80200 31.70100
C  7.43700 5.63500 30.15600
C  6.39900 5.77200 32.57900
C  9.82300 4.97700 32.84800
C  9.56300 5.81100 34.10100
H  10.22500 5.22300 35.37700
N  7.12000 5.83000 27.11800
C  6.49300 6.61100 28.05900
C  5.64400 7.58900 27.42700
C  5.70100 7.43200 26.05300
C  6.67700 6.32200 25.84800
C  4.86300 8.62400 28.19400
C  5.06400 8.11400 24.93200
O  5.08100 7.76600 23.78500
C  4.27500 9.32200 25.10300
N  8.64700 3.97200 25.33400
C  7.97900 4.67400 24.38300
C  8.32000 4.25400 22.98800
C  9.41200 3.10900 23.25100
C  9.58200 3.11400 24.76500
C  7.09900 3.85400 22.22600
C  10.78200 3.41700 22.49800
C  11.46900 2.18500 21.86900
N  9.86500 2.89000 27.70200
C  10.55300 2.10700 26.79900
C  11.26100 1.10800 27.54500
C  11.00300 1.35700 28.94100
C  10.22700 2.49400 28.99700
C  12.15800 0.02600 27.13300
C  11.32900 0.99300 30.30300
O  12.05800 0.08500 30.67700
C  10.50000 2.00700 31.31300
C  9.59100 1.20300 32.25200
O  8.91000 0.21700 31.98800
O  9.94100 1.63500 33.53400
C  9.49000 0.64000 34.61700
H  6.24500 7.34700 29.99100
H  6.85400 6.30500 23.75300
H  10.91300 1.49000 24.82600
H  8.02200 3.84000 32.44000
H  8.12600 6.75700 31.84300
H  5.64000 5.27500 31.97500
H  6.06800 6.80000 32.72600
H  6.46800 5.39500 33.59900
H  10.24100 5.66700 32.11500
H  10.47800 4.14500 33.10800
H  8.50800 5.75300 34.37000
H  9.88200 6.82900 33.87400
H  5.31100 9.58800 27.95400
H  4.73300 8.54300 29.27300
H  3.86700 8.71900 27.76300
H  3.20400 9.19500 25.25800
H  4.43400 9.77700 24.12500
H  4.67600 10.01900 25.83800
H  8.93900 5.06800 22.61100
H  9.08000 2.09700 23.01700
H  7.07100 2.81100 21.91000
H  6.91600 4.56400 21.42000
H  6.20600 3.96400 22.84200
H  11.47200 3.91000 23.18300
H  10.54700 4.09900 21.68100
H  11.73000 2.43800 20.84200
H  10.84400 1.29200 21.89800
H  12.49700 2.08900 22.21900
H  11.49500 -0.80700 26.90100
H  12.90600 -0.22000 27.88700
H  12.63100 0.39400 26.22300
H  11.27700 2.43900 31.94500
H  8.48800 0.22900 34.50000
H  9.39900 1.19400 35.55100
H  10.18000 -0.19100 34.76700
Mg 41.86600 40.86900 26.67400
C  40.87400 43.28300 28.92300
C  42.99400 38.92500 29.21800
C  42.89800 38.63800 24.32000
C  41.20700 43.20500 24.12500
N  41.89200 41.09100 28.82000
C  41.31200 42.07700 29.49100
C  41.30100 41.75200 31.00900
C  42.34600 40.65100 31.10200
C  42.45300 40.19800 29.65000
C  43.75800 40.90400 31.46500
C  39.96600 41.61900 31.68500
C  39.56000 42.44200 32.98400
H  39.39100 41.59500 34.30300
N  42.75700 39.01600 26.72700
C  43.16000 38.36100 27.91800
C  43.66500 37.02600 27.55500
C  43.67200 36.94700 26.13800
C  43.08300 38.24300 25.66300
C  44.07900 36.01200 28.59200
C  44.20600 35.90600 25.21600
O  44.32700 36.04900 23.98600
C  44.67200 34.55300 25.79600
N  42.08700 40.94100 24.49400
C  42.46400 39.84300 23.72100
C  42.29500 40.17400 22.27500
C  41.73300 41.61400 22.20500
C  41.66000 41.96000 23.70900
C  43.68200 40.02700 21.44800
C  40.35500 41.72100 21.56400
C  40.41300 42.13600 20.08400
N  41.22800 42.88800 26.48800
C  40.96900 43.66600 25.38200
C  40.29700 44.83400 25.83200
C  40.25700 44.80500 27.24100
C  40.87100 43.58900 27.56800
C  39.78700 45.89300 24.93000
C  39.84100 45.49800 28.55300
O  39.34100 46.58400 28.69100
C  40.20300 44.46900 29.63900
C  41.12000 45.17300 30.56300
O  42.15300 45.78300 30.19200
O  40.70500 45.08100 31.89300
C  41.44100 45.71500 32.93700
H  43.32700 38.27100 30.02700
H  43.17500 37.96700 23.50400
H  40.90200 43.85800 23.30500
H  41.81100 42.64900 31.36100
H  41.96400 39.87300 31.76300
H  43.94200 40.64600 32.50800
H  44.06500 41.93300 31.27900
H  44.49600 40.38100 30.85700
H  39.85000 40.55000 31.86400
H  39.22300 41.93300 30.95300
H  38.69500 43.07600 32.79200
H  40.48800 43.00300 33.09400
H  43.53800 35.06800 28.52400
H  43.95600 36.48400 29.56700
H  45.15300 35.88900 28.45700
H  45.41700 34.62100 26.58800
H  45.18300 34.13800 24.92700
H  43.82300 33.96000 26.13700
H  41.61700 39.35600 22.03100
H  42.44500 42.27900 21.71800
H  44.53300 39.75700 22.07400
H  43.99800 40.81900 20.77100
H  43.34200 39.20000 20.82400
H  39.71700 42.50000 21.98100
H  40.01300 40.68900 21.64400
H  39.55900 42.73900 19.77500
H  40.34700 41.19300 19.54300
H  41.32700 42.67600 19.83800
H  40.59700 46.51900 24.55400
H  39.09900 46.51700 25.50000
H  39.27900 45.37300 24.11700
H  39.42400 44.06200 30.28300
H  41.66200 45.05400 33.77500
H  40.92400 46.60300 33.30000
H  42.42500 46.06700 32.62600

