158

Mg 46.64200 24.92900 28.71600
C  47.15700 27.26900 31.51900
C  45.38600 22.77100 30.77600
C  46.76900 22.93900 26.16000
C  48.00400 27.53100 26.61400
N  46.49600 24.99800 30.92600
C  46.59900 26.00800 31.81700
C  46.01300 25.60600 33.18000
C  45.45500 24.14400 32.91300
C  45.73300 24.00500 31.41600
C  46.21100 23.11400 33.82000
C  44.96000 26.55100 33.78700
C  45.23500 26.89600 35.19400
H  44.12200 27.00600 36.24700
N  46.25400 23.01500 28.55900
C  45.75200 22.23100 29.55400
C  45.37200 20.95800 28.93800
C  45.82100 20.93800 27.53000
C  46.30700 22.32300 27.34800
C  44.58800 19.93500 29.73500
C  45.70600 19.85400 26.52700
O  46.05700 20.06400 25.42700
C  44.97600 18.53900 26.84400
N  47.35500 25.23900 26.66000
C  47.19400 24.23200 25.80400
C  47.47000 24.62100 24.36200
C  47.68100 26.14300 24.45900
C  47.66300 26.34900 25.97700
C  48.65000 23.87900 23.71300
C  46.70400 27.11500 23.76900
C  45.29100 26.97400 24.39900
N  47.47600 26.94500 28.92800
C  47.98300 27.85300 28.04700
C  48.39700 29.09700 28.73500
C  48.00000 28.91600 30.09100
C  47.56600 27.56200 30.18200
C  48.95000 30.35900 28.06100
C  47.81800 29.56700 31.37800
O  47.97900 30.72000 31.74700
C  47.42900 28.45100 32.40100
C  48.58500 28.13800 33.23100
O  49.71400 28.33700 32.95000
O  48.11900 27.75200 34.44900
C  49.20600 27.44400 35.45700
H  44.82100 22.06700 31.39200
H  46.66900 22.23900 25.32800
H  48.41100 28.27200 25.92400
H  46.85300 25.48500 33.86300
H  44.42500 24.10500 33.26800
H  46.12500 23.54600 34.81800
H  47.29200 23.10000 33.67900
H  45.86600 22.08200 33.75800
H  43.99700 26.05200 33.89500
H  44.86400 27.44300 33.16700
H  45.62400 27.91300 35.24900
H  46.06600 26.32000 35.60100
H  43.76700 19.44300 29.21200
H  44.23000 20.30500 30.69600
H  45.32400 19.18900 30.03200
H  45.41900 17.98700 27.67300
H  44.96200 17.84500 26.00300
H  43.90800 18.69300 27.00100
H  46.55800 24.44000 23.79400
H  48.66600 26.42200 24.08600
H  49.34900 23.63500 24.51300
H  48.96300 24.49900 22.87300
H  48.27600 22.89900 23.41300
H  46.56800 26.95000 22.70000
H  47.04700 28.14000 23.90600
H  44.55500 27.17000 23.62000
H  45.18200 27.83100 25.06500
H  45.06600 26.03300 24.90100
H  48.33200 31.19500 28.38800
H  48.88500 30.11400 27.00000
H  49.98700 30.51900 28.35600
H  46.65600 28.86000 33.05100
H  48.74900 27.19900 36.41500
H  49.97600 28.21100 35.53800
H  49.83000 26.63900 35.06900
Mg 6.58000 56.60200 42.28700
C  5.85100 53.16900 42.49800
C  9.55700 55.74900 40.82000
C  6.90300 59.79800 41.37100
C  3.60800 57.29600 43.94200
N  7.57400 54.66500 41.75600
C  7.10600 53.37300 41.90700
C  8.09500 52.38200 41.16500
C  9.47700 53.13100 41.10400
C  8.86600 54.62700 41.21100
C  10.51200 52.73700 42.24000
C  7.58900 52.09100 39.66700
C  7.78200 50.57800 39.27300
H  6.77100 50.04300 38.36100
N  8.05100 57.65600 41.20900
C  9.18500 57.15200 40.74400
C  10.00600 58.22700 40.23200
C  9.17800 59.42700 40.33300
C  7.92000 59.00000 40.94100
C  11.35000 57.93500 39.66200
C  9.66300 60.84300 39.85900
O  10.75800 60.89700 39.33300
C  8.82200 62.05400 39.94800
N  5.27500 58.23000 42.37200
C  5.74800 59.51200 42.09200
C  4.95000 60.64000 42.82000
C  4.05800 59.79100 43.78900
C  4.35300 58.36000 43.35200
C  5.80600 61.72700 43.51600
C  2.49500 60.13100 43.80300
C  1.88900 60.36300 45.22100
N  4.93600 55.50900 42.97300
C  3.78600 55.94400 43.62800
C  2.85800 54.77800 43.80000
C  3.70300 53.62400 43.42000
C  4.91300 54.15300 42.97400
C  1.58600 54.79900 44.51800
C  3.77400 52.22700 43.27600
O  2.89500 51.37700 43.48400
C  5.25400 51.88800 42.93100
C  5.26600 50.75600 41.93500
O  4.67500 50.76300 40.86900
O  6.04200 49.67900 42.35400
C  5.97000 48.40600 41.67600
H  10.57800 55.49200 40.53200
H  6.97400 60.86400 41.14900
H  2.76800 57.63600 44.55100
H  8.23500 51.50100 41.79200
H  10.07600 53.12100 40.19300
H  10.56500 53.58400 42.92400
H  11.38600 52.46000 41.65100
H  10.14500 51.93700 42.88400
H  8.25800 52.62200 38.98900
H  6.53100 52.34200 39.59200
H  7.90600 49.97700 40.17300
H  8.76100 50.50200 38.80000
H  11.19900 57.73700 38.60000
H  11.84800 57.09500 40.14700
H  11.95900 58.83900 39.65500
H  8.37500 62.11300 40.94100
H  8.13300 61.85500 39.12800
H  9.49100 62.90200 39.79900
H  4.36100 61.20300 42.09600
H  4.40200 59.85600 44.82100
H  5.74700 62.72000 43.07200
H  6.86700 61.52200 43.37600
H  5.64000 61.81600 44.59000
H  2.02400 59.23300 43.40400
H  2.35700 61.01600 43.18200
H  1.22900 61.21600 45.06400
H  2.69900 60.66400 45.88400
H  1.31900 59.48500 45.52400
H  1.67400 55.36700 45.44500
H  1.32000 53.75800 44.70200
H  0.77600 55.20400 43.91200
H  5.65500 51.44200 43.84100
H  6.15100 47.69700 42.48400
H  6.78700 48.27500 40.96600
H  4.99400 48.16300 41.25400

