158

Mg 41.42500 8.82600 29.16000
C  43.15200 9.77900 32.12200
C  38.83500 7.54200 31.04900
C  40.15700 7.60200 26.31000
C  44.44100 9.83300 27.37900
N  41.02700 8.65800 31.32900
C  41.83200 9.21300 32.32400
C  41.04000 9.03800 33.65300
C  39.90800 8.02600 33.33700
C  39.85900 8.07700 31.79200
C  40.18600 6.58000 33.72100
C  40.75500 10.46100 34.19000
C  40.10900 10.55100 35.62900
H  40.90500 11.31800 36.70400
N  39.73700 7.73000 28.76400
C  38.72900 7.32900 29.62100
C  37.67200 6.67600 28.89600
C  37.93400 6.84800 27.53900
C  39.33100 7.38500 27.50000
C  36.42500 6.15500 29.68300
C  37.07300 6.47900 26.28800
O  37.60500 6.49800 25.18500
C  35.62400 6.03800 26.44600
N  42.28100 8.50800 27.21200
C  41.49900 8.05200 26.19700
C  42.25900 8.13300 24.77000
C  43.55500 8.96700 25.13900
C  43.42100 9.07000 26.71300
C  42.49000 6.69400 24.16900
C  43.46300 10.35900 24.43300
C  42.59500 11.45300 25.05700
N  43.43100 9.62500 29.59200
C  44.48200 10.02400 28.75200
C  45.52700 10.62300 29.57900
C  45.04900 10.51700 30.88900
C  43.77000 9.94300 30.86100
C  46.73200 11.25400 29.05100
C  45.45000 10.75900 32.25500
O  46.44200 11.22600 32.78600
C  44.16100 10.32600 33.10600
C  44.47300 9.37500 34.20400
O  44.96900 8.23900 34.05100
O  43.95400 9.85300 35.36300
C  44.02000 8.97600 36.56500
H  38.16700 6.94900 31.67700
H  39.80200 7.10700 25.40300
H  45.30200 10.17500 26.80100
H  41.78600 8.56500 34.29100
H  39.06300 8.31700 33.96100
H  40.18300 5.83200 32.92800
H  39.37200 6.33500 34.40200
H  41.08800 6.56200 34.33300
H  39.98200 10.83900 33.52000
H  41.64500 11.09000 34.17800
H  40.10100 9.54800 36.05700
H  39.08700 10.92000 35.54800
H  36.51800 6.18300 30.76900
H  36.09500 5.21200 29.24800
H  35.64100 6.82200 29.32500
H  35.30800 5.36600 25.64800
H  35.04700 6.96200 26.48400
H  35.45600 5.48500 27.37000
H  41.66700 8.68500 24.04000
H  44.52800 8.53700 24.90300
H  42.09800 5.96200 24.87500
H  43.52900 6.40600 24.00800
H  42.12800 6.55100 23.15100
H  43.09800 10.16700 23.42400
H  44.46300 10.79300 24.42800
H  41.76300 11.48200 24.35400
H  43.07300 12.43200 25.03100
H  42.17100 11.26900 26.04400
H  47.29100 11.73700 29.85200
H  46.40400 11.95300 28.28200
H  47.27400 10.45400 28.54500
H  43.97300 11.27500 33.60800
H  43.29600 9.28800 37.31800
H  45.03100 8.92600 36.96800
H  43.74000 7.94400 36.35300
Mg 48.65300 15.85600 29.34000
C  46.38900 15.30300 31.92400
C  50.83000 17.23300 31.59800
C  50.77500 16.29100 26.71400
C  46.30200 14.44200 27.12100
N  48.54100 16.30200 31.57300
C  47.60000 15.84000 32.42100
C  48.10200 15.99400 33.86500
C  49.34100 16.94500 33.71300
C  49.67300 16.76600 32.19100
C  49.18100 18.41500 34.16300
C  48.50500 14.60500 34.45400
C  48.36100 14.26300 36.00700
H  48.08200 15.52200 36.84300
N  50.53200 16.65600 29.18700
C  51.23300 17.21900 30.20100
C  52.43200 17.70100 29.63600
C  52.48800 17.38900 28.25700
C  51.19500 16.82000 27.98400
C  53.45000 18.47600 30.46700
C  53.50500 17.77400 27.14900
O  53.26500 17.68100 25.91100
C  54.83100 18.25600 27.61400
N  48.53100 15.38800 27.15100
C  49.47300 15.81200 26.31900
C  49.11300 15.54900 24.83400
C  47.77400 14.77100 25.02900
C  47.49500 14.86200 26.48900
C  48.92400 16.85600 24.07900
C  47.79700 13.24000 24.66000
C  47.00600 12.71600 23.48200
N  46.69900 15.21600 29.41100
C  45.85400 14.63100 28.45500
C  44.62000 14.18700 29.01000
C  44.84100 14.42700 30.39200
C  46.04900 15.13900 30.56700
C  43.56300 13.29400 28.28900
C  44.27000 14.26500 31.72400
O  43.28500 13.63600 32.04600
C  45.22000 14.84100 32.75400
C  44.44200 15.78500 33.60600
O  44.26300 16.92600 33.26800
O  44.16800 15.20700 34.80900
C  43.40200 16.07200 35.76900
H  51.55100 17.67100 32.29200
H  51.41200 16.32000 25.82800
H  45.58600 14.03700 26.40300
H  47.28700 16.43200 34.44100
H  50.24600 16.65000 34.24500
H  49.63900 19.18100 33.53700
H  49.69300 18.52300 35.11900
H  48.13400 18.70300 34.25900
H  49.54400 14.48300 34.14700
H  47.93700 13.90400 33.84300
H  49.27900 13.72800 36.25000
H  47.51800 13.58100 36.11900
H  53.99900 19.19500 29.85800
H  54.09900 17.73800 30.93900
H  52.86100 19.05400 31.17900
H  54.62400 19.32100 27.72200
H  55.62400 18.04500 26.89600
H  55.01200 17.72400 28.54700
H  49.81200 14.95300 24.24700
H  46.95700 15.16700 24.42700
H  49.13700 16.59300 23.04300
H  49.53900 17.68400 24.43400
H  47.90500 17.23600 24.15000
H  47.47300 12.61200 25.49000
H  48.84200 12.97900 24.49200
H  46.85700 13.55300 22.79900
H  45.98700 12.43000 23.74400
H  47.50900 11.88200 22.99300
H  42.92200 13.93300 27.68200
H  42.96300 12.68100 28.96100
H  44.04400 12.61300 27.58700
H  45.59600 14.01300 33.35500
H  42.39600 15.65300 35.76700
H  43.35800 17.14000 35.55200
H  43.92600 16.08700 36.72500

