158

Mg 1.19700 8.58100 27.50100
C  2.16600 10.84700 30.01400
C  1.62200 6.12800 29.64400
C  0.76500 6.65300 24.92500
C  1.54400 11.32500 25.27100
N  1.81300 8.50300 29.63500
C  1.96500 9.51400 30.50100
C  1.88100 9.09100 31.93300
C  2.14400 7.55000 31.69800
C  1.80000 7.32300 30.23300
C  3.64000 7.09700 32.06500
C  0.50700 9.49200 32.48300
C  0.29200 9.58000 33.99800
H  1.49600 9.17500 34.87500
N  1.15500 6.55800 27.32400
C  1.42400 5.70100 28.31400
C  1.33000 4.30700 27.82700
C  1.02200 4.39000 26.43400
C  0.98600 5.91700 26.13500
C  1.61200 3.09800 28.68900
C  0.86100 3.34100 25.36400
O  0.33900 3.55700 24.23400
C  1.12800 1.89200 25.71700
N  1.33200 8.92600 25.43900
C  0.94500 7.94200 24.63400
C  0.99500 8.35400 23.13500
C  0.97000 9.92600 23.22800
C  1.32800 10.08100 24.71000
C  2.22200 7.77400 22.42400
C  -0.37300 10.58500 22.99400
C  -0.39300 11.85300 22.10500
N  1.71400 10.69100 27.57500
C  1.80700 11.65200 26.62200
C  2.18200 12.94900 27.15300
C  2.36200 12.64700 28.49400
C  2.03100 11.29400 28.73700
C  2.20500 14.19300 26.38400
C  2.78000 13.16300 29.78600
O  3.25000 14.22900 30.17300
C  2.56700 12.08600 30.84200
C  3.74700 11.87300 31.76200
O  4.77800 11.20500 31.58800
O  3.42900 12.46700 32.95000
C  4.62500 12.61800 33.84900
H  1.68300 5.22000 30.24700
H  0.61200 5.98000 24.07800
H  1.48800 12.22800 24.66000
H  2.63400 9.51800 32.59500
H  1.48900 6.93300 32.31300
H  3.65700 6.71700 33.08700
H  4.20000 8.03200 32.03200
H  4.08400 6.34400 31.41400
H  -0.24800 8.80800 32.09200
H  0.20200 10.48000 32.13900
H  -0.57200 9.01100 34.34300
H  0.14000 10.61700 34.29800
H  1.04700 2.24300 28.31700
H  1.21500 3.26000 29.69100
H  2.68300 2.90200 28.73300
H  2.06200 1.73600 26.25700
H  1.22300 1.36800 24.76600
H  0.24600 1.59300 26.28300
H  0.08100 7.98700 22.66700
H  1.66400 10.34400 22.49900
H  2.57000 8.38000 21.58700
H  1.74600 6.90800 21.96300
H  2.99000 7.54000 23.16100
H  -0.83700 10.82400 23.95100
H  -1.14300 9.95900 22.54400
H  -0.25400 11.40300 21.12200
H  0.51500 12.44800 22.21100
H  -1.30600 12.36400 22.40900
H  1.24600 14.70900 26.42300
H  2.46300 14.08400 25.33100
H  2.89600 14.91000 26.82800
H  1.76200 12.38400 31.51300
H  5.31500 13.33400 33.40200
H  5.15500 11.73600 34.20900
H  4.29400 13.08800 34.77500
Mg 9.28400 48.52600 26.06200
C  6.97100 48.87200 28.70500
C  11.64000 49.97300 28.16800
C  11.56600 48.61500 23.35800
C  6.75600 47.75000 23.83000
N  9.25500 49.35000 28.18600
C  8.31600 49.11500 29.13100
C  8.77600 49.54800 30.54300
C  10.17200 50.23600 30.31300
C  10.38600 49.82300 28.77000
C  10.11300 51.80100 30.40600
C  8.89800 48.27600 31.40400
C  8.62500 48.53300 32.86600
H  8.82200 47.40200 33.90700
N  11.29500 49.05800 25.90600
C  12.09200 49.69500 26.86300
C  13.38200 49.82400 26.29700
C  13.43500 49.38500 24.94600
C  12.05600 49.00200 24.65700
C  14.58900 50.13700 27.16700
C  14.67000 49.10900 23.94400
O  14.51500 48.60400 22.81500
C  16.00800 49.61900 24.24400
N  9.14900 48.29000 23.94200
C  10.22200 48.33600 23.04200
C  9.83400 47.83100 21.61000
C  8.36300 47.45400 21.82800
C  8.02300 47.81600 23.34500
C  9.99200 48.86300 20.45800
C  8.06800 45.99000 21.48200
C  8.67900 44.91600 22.35600
N  7.29200 48.29000 26.16300
C  6.36100 47.96500 25.15300
C  5.05900 47.81500 25.83000
C  5.30300 48.17200 27.16700
C  6.61900 48.53600 27.35700
C  3.82900 47.46800 25.12500
C  4.65000 48.26100 28.40300
O  3.49100 48.05400 28.74900
C  5.73700 48.88900 29.49700
C  5.69800 48.00000 30.61100
O  5.80200 46.79700 30.65800
O  5.18900 48.75100 31.69900
C  4.72500 47.96500 32.87200
H  12.38600 50.31800 28.88700
H  12.18100 48.66700 22.45600
H  6.03400 47.30500 23.14300
H  8.14200 50.31500 30.98800
H  11.01900 49.80100 30.84200
H  10.80100 52.25200 31.12100
H  9.09400 52.13800 30.59200
H  10.38300 52.26500 29.45700
H  9.90900 47.89000 31.26900
H  8.34500 47.38500 31.10800
H  7.55500 48.72600 32.93400
H  9.24700 49.39300 33.11100
H  15.15200 50.97400 26.75400
H  15.36100 49.36800 27.19100
H  14.33600 50.41000 28.19100
H  16.73500 49.34200 23.48200
H  16.39100 49.22500 25.18500
H  15.76400 50.66700 24.42300
H  10.39200 46.91300 21.42800
H  7.63000 47.86000 21.13200
H  9.02700 49.05200 19.98700
H  10.75300 48.52800 19.75300
H  10.25700 49.82400 20.90000
H  8.34400 45.78900 20.44700
H  6.98600 45.89400 21.57000
H  9.22800 45.23100 23.24300
H  9.37700 44.41400 21.68600
H  7.87200 44.22500 22.59800
H  3.38100 46.69000 25.74200
H  4.06400 47.02900 24.15600
H  3.13400 48.26800 24.86700
H  5.41800 49.90300 29.73600
H  5.57400 47.60100 33.45200
H  4.13400 47.12600 32.50500
H  4.07100 48.63600 33.42900

