158

Mg -1.63100 34.88000 27.94500
C  -3.67900 32.93100 29.86700
C  -0.76800 36.65900 30.66600
C  0.08100 36.87800 25.86600
C  -2.79700 33.04500 25.04000
N  -2.39600 35.01200 29.93700
C  -3.05100 33.99300 30.56300
C  -2.99600 34.18000 32.09000
C  -2.28300 35.54400 32.30900
C  -1.81200 35.82100 30.91000
C  -3.13100 36.72200 32.89200
C  -2.20900 32.99500 32.77500
C  -2.90500 32.45400 34.05000
H  -2.19700 32.44500 35.42400
N  -0.48700 36.54400 28.21900
C  -0.23100 37.10000 29.42900
C  0.70600 38.11200 29.25600
C  0.92500 38.22300 27.88800
C  0.15500 37.20200 27.23500
C  1.19900 38.81200 30.52900
C  1.83400 39.23400 27.22900
O  2.04300 39.39700 26.04100
C  2.58400 40.12000 28.17700
N  -1.33300 34.83700 25.77900
C  -0.53500 35.84200 25.20000
C  -0.36600 35.52600 23.69300
C  -1.35900 34.35700 23.35900
C  -1.82300 34.02500 24.79900
C  -0.63900 36.77500 22.76100
C  -0.70700 33.07800 22.74800
C  -1.61000 32.29300 21.76500
N  -2.91100 33.35300 27.48300
C  -3.31100 32.72700 26.31000
C  -4.35800 31.75200 26.61500
C  -4.38200 31.75600 28.01400
C  -3.58000 32.74500 28.49700
C  -5.13900 31.08600 25.61500
C  -5.04300 31.04800 29.11000
O  -5.85000 30.14000 29.05300
C  -4.60300 31.87200 30.34100
C  -5.78000 32.51400 30.96200
O  -6.62300 33.18400 30.43900
O  -5.90400 32.00500 32.25000
C  -6.94900 32.57300 33.15200
H  -0.45700 37.15900 31.58600
H  0.79600 37.46700 25.28800
H  -3.12400 32.52600 24.13600
H  -4.01100 34.32600 32.45900
H  -1.47600 35.43300 33.03400
H  -3.66300 36.18700 33.67900
H  -3.66300 37.16500 32.05000
H  -2.49500 37.43200 33.42100
H  -1.17200 33.25100 32.99600
H  -2.00600 32.17900 32.08100
H  -3.08100 31.41200 33.78100
H  -3.85600 32.96000 34.21700
H  1.86500 38.10600 31.02500
H  0.40100 38.92500 31.26200
H  1.69900 39.78000 30.49300
H  3.13600 39.54700 28.92100
H  1.86000 40.85000 28.53900
H  3.20000 40.82800 27.62200
H  0.66600 35.24000 23.49000
H  -2.22800 34.68500 22.78800
H  -1.48200 36.60600 22.09100
H  0.23400 37.06500 22.17800
H  -0.96000 37.61800 23.37200
H  -0.47600 32.46300 23.61800
H  0.22500 33.35300 22.25500
H  -1.79700 31.35000 22.27900
H  -1.13400 31.94400 20.84900
H  -2.59200 32.71200 21.54800
H  -4.47800 30.51700 24.96100
H  -5.76000 31.83000 25.11700
H  -5.82300 30.37000 26.07100
H  -4.15400 31.31500 31.16400
H  -6.71200 33.42800 33.78600
H  -7.35000 31.75200 33.74600
H  -7.83000 32.90500 32.60100
Mg -11.09100 16.35400 40.77300
C  -7.56900 16.22400 40.89900
C  -10.75400 19.81100 40.56900
C  -14.31400 16.67600 40.10600
C  -11.05300 12.95400 40.23000
N  -9.28800 17.83400 40.50500
C  -7.97800 17.52300 40.65500
C  -7.07000 18.78200 40.66400
C  -8.18700 19.96600 40.82900
C  -9.47500 19.16400 40.62400
C  -8.11700 20.76600 42.23700
C  -6.39400 18.88400 39.23000
C  -4.89100 18.62200 39.04600
H  -4.38800 17.63000 38.03000
N  -12.41700 18.00700 40.53000
C  -12.05300 19.39900 40.43600
C  -13.26200 20.19900 40.29500
C  -14.39200 19.35700 40.14900
C  -13.78200 17.94000 40.21800
C  -13.18500 21.70100 40.04300
C  -15.90300 19.70900 39.92500
O  -16.28200 20.91100 39.84500
C  -16.92000 18.71400 39.88700
N  -12.44300 15.03900 40.12100
C  -13.76200 15.36300 40.06700
C  -14.64700 14.07900 39.95400
C  -13.63300 12.97000 39.78700
C  -12.27900 13.69200 40.00000
C  -15.74700 13.85200 41.05200
C  -13.66600 12.39200 38.37800
C  -13.62100 10.90200 38.08500
N  -9.62600 14.82700 40.73300
C  -9.77800 13.52000 40.61300
C  -8.52400 12.87100 40.94300
C  -7.57900 13.86200 41.13000
C  -8.34600 15.05900 40.89600
C  -8.22500 11.34900 40.94500
C  -6.18500 14.23100 41.41000
O  -5.14800 13.55200 41.52200
C  -6.15600 15.80300 41.34300
C  -5.61000 16.49800 42.60100
O  -4.46200 16.89500 42.72200
O  -6.59400 16.70900 43.56100
C  -6.15000 17.70600 44.57700
H  -10.68400 20.89400 40.69600
H  -15.38600 16.62800 39.90200
H  -11.03700 11.87100 40.09800
H  -6.25800 18.92100 41.37800
H  -8.02800 20.77400 40.11600
H  -7.44700 20.21200 42.89500
H  -9.01900 20.78700 42.84800
H  -7.84200 21.81800 42.16000
H  -6.65600 19.82600 38.74800
H  -6.98000 18.27300 38.54400
H  -4.49800 18.39500 40.03700
H  -4.45100 19.58100 38.77100
H  -12.18000 22.08900 39.88000
H  -13.74500 22.24700 40.80200
H  -13.61200 21.95200 39.07200
H  -16.86300 18.24900 38.90200
H  -17.84700 19.21700 40.16200
H  -16.66500 18.03100 40.69700
H  -15.07800 14.28300 38.97400
H  -13.62800 12.18900 40.54600
H  -15.74600 14.80300 41.58500
H  -15.64400 13.00300 41.72800
H  -16.72200 13.69200 40.59100
H  -12.88700 12.85500 37.77100
H  -14.55700 12.82700 37.92400
H  -13.39500 10.42600 39.03900
H  -12.86600 10.78400 37.30800
H  -14.58100 10.54700 37.71100
H  -9.14800 10.82800 40.69000
H  -7.82800 11.09600 41.92800
H  -7.45700 11.14900 40.19700
H  -5.44600 16.04500 40.55300
H  -6.89300 17.71500 45.37400
H  -6.08300 18.71600 44.17100
H  -5.15400 17.49700 44.96700

