158

Mg 35.56800 48.91500 24.67600
C  35.74300 47.08600 27.78800
C  34.40600 51.59100 26.49900
C  35.18000 50.36400 21.85000
C  36.60100 45.98800 23.06600
N  35.16900 49.26200 26.83900
C  35.34900 48.42200 27.93700
C  35.07900 49.12700 29.24000
C  34.43900 50.53100 28.75400
C  34.70000 50.46000 27.27500
C  32.95700 50.91300 29.05300
C  36.32600 49.47400 30.15300
C  36.21000 48.95300 31.53400
H  34.78400 49.07400 32.26300
N  34.95100 50.71300 24.22500
C  34.47700 51.71500 25.07000
C  34.38200 52.92500 24.25600
C  34.55100 52.59800 22.88900
C  34.90300 51.13700 22.94700
C  34.20100 54.36700 24.88500
C  34.38900 53.42700 21.55300
O  34.42400 52.96300 20.40800
C  34.10200 54.91400 21.84000
N  35.90600 48.28500 22.73700
C  35.69900 49.14500 21.70900
C  36.06500 48.52000 20.33500
C  36.64400 47.12100 20.77400
C  36.34600 47.08200 22.26900
C  34.86400 48.44700 19.33400
C  38.11400 46.86900 20.35200
C  39.13400 47.75700 20.96600
N  36.12400 46.95900 25.20600
C  36.47700 45.85700 24.45700
C  36.84800 44.76400 25.30900
C  36.51000 45.14000 26.57100
C  36.09100 46.47500 26.47400
C  37.33800 43.46500 24.84000
C  36.48000 44.76000 28.03100
O  36.73200 43.68900 28.62300
C  36.06500 46.01400 28.87100
C  34.78500 45.61100 29.44500
O  33.63300 45.47200 29.01400
O  35.17600 45.13700 30.63400
C  34.16800 44.37600 31.40400
H  34.14800 52.51100 27.02800
H  35.24700 50.79000 20.84700
H  36.97800 45.15400 22.47100
H  34.33500 48.52700 29.76500
H  34.96800 51.39600 29.15300
H  32.92600 51.71800 29.78700
H  32.57400 50.06500 29.62100
H  32.31100 51.10300 28.19600
H  36.38400 50.54000 30.36900
H  37.20500 49.04500 29.67200
H  37.04100 49.37900 32.09600
H  36.44700 47.88900 31.55300
H  33.35700 54.94700 24.51200
H  35.07000 55.00200 24.71400
H  34.11100 54.34300 25.97100
H  33.84700 55.50000 20.95800
H  34.99000 55.31200 22.33100
H  33.22800 54.95500 22.49000
H  36.74900 49.22700 19.86500
H  36.07300 46.34900 20.25800
H  34.27000 47.58400 19.63600
H  35.14400 48.50100 18.28200
H  34.25200 49.34000 19.46400
H  38.10300 46.89100 19.26200
H  38.46100 45.89200 20.68900
H  39.27900 48.58900 20.27700
H  39.99500 47.26100 21.41400
H  38.78500 48.08600 21.94600
H  37.93000 43.06500 25.66400
H  37.93600 43.55600 23.93300
H  36.53200 42.78600 24.56200
H  36.86400 46.28800 29.56000
H  33.60100 45.03800 32.05800
H  34.71500 43.73700 32.09700
H  33.53400 43.74400 30.78200
Mg 6.32200 54.12400 40.83100
C  6.12300 50.49800 40.72900
C  9.65700 53.83500 40.00800
C  6.30500 57.42600 40.54600
C  2.75700 54.03300 40.83500
N  7.64600 52.35100 40.29200
C  7.42600 50.97800 40.33800
C  8.65700 50.20200 39.97800
C  9.74900 51.23400 40.20100
C  9.01400 52.54900 40.21600
C  10.61200 51.01200 41.48600
C  8.70100 49.41300 38.64700
C  8.80300 50.27800 37.25800
H  7.55000 50.29200 36.38300
N  7.78000 55.39400 40.32100
C  9.13900 55.08600 40.05600
C  9.86000 56.31300 39.84800
C  8.89300 57.37500 40.18300
C  7.60100 56.75500 40.37800
C  11.38800 56.44100 39.56400
C  9.17200 58.84600 40.13700
O  10.32500 59.18100 39.90800
C  8.07600 59.98100 40.31800
N  4.75900 55.50200 40.64400
C  5.03900 56.86700 40.67100
C  3.83000 57.66700 41.07100
C  2.66200 56.53000 40.76900
C  3.46300 55.26900 40.66100
C  3.83600 58.07900 42.60200
C  2.02700 56.82300 39.32100
C  0.55500 57.35200 39.38900
N  4.68100 52.63000 40.97700
C  3.33300 52.77000 40.97800
C  2.69200 51.47500 41.21700
C  3.85600 50.59400 41.14000
C  5.01600 51.34000 40.99800
C  1.22600 51.24000 41.27200
C  4.24100 49.19000 41.23600
O  3.56400 48.19400 41.49300
C  5.70600 49.06600 40.90500
C  5.65300 48.26100 39.69200
O  5.25600 48.70300 38.59700
O  6.06600 47.03900 39.97900
C  5.85900 46.01900 38.93700
H  10.73300 53.65300 39.95600
H  6.17800 58.49600 40.72300
H  1.68500 54.12700 41.02100
H  8.66500 49.51700 40.82600
H  10.47800 51.19300 39.39200
H  11.64600 51.18800 41.19300
H  10.68500 49.99000 41.86000
H  10.30100 51.61300 42.34100
H  7.74800 48.89900 38.52000
H  9.55400 48.73600 38.60900
H  9.65300 49.89900 36.69000
H  8.98300 51.28900 37.62300
H  11.63500 56.90200 38.60800
H  11.87500 55.47500 39.69900
H  11.62900 57.08900 40.40700
H  7.24000 59.90300 39.62300
H  8.70400 60.85100 40.12500
H  7.83100 59.99400 41.38000
H  3.74600 58.55700 40.44800
H  1.90600 56.48300 41.55300
H  3.18900 57.46300 43.22600
H  3.63800 59.15100 42.57700
H  4.88300 57.95400 42.87700
H  2.06200 55.86600 38.80000
H  2.61100 57.50600 38.70500
H  0.38500 58.33100 39.83700
H  -0.11400 56.67400 39.92000
H  0.16800 57.41300 38.37200
H  1.08200 50.60400 40.39900
H  0.70500 52.19600 41.33200
H  0.98900 50.73800 42.20900
H  6.30700 48.59300 41.68200
H  6.60400 45.26600 39.19400
H  6.20400 46.46100 38.00200
H  4.80400 45.75000 38.98600

