158

Mg 48.82400 35.21300 26.45500
C  46.87400 34.26600 29.17300
C  49.27500 38.35100 27.85700
C  50.42300 36.28400 23.47500
C  47.57600 32.39000 24.66300
N  48.22700 36.18000 28.27900
C  47.53900 35.51000 29.31600
C  47.41700 36.39300 30.52700
C  48.02300 37.80700 30.04100
C  48.58300 37.43100 28.66000
C  47.10400 39.13100 29.97300
C  48.25100 35.80200 31.78500
C  47.48100 35.83300 33.04600
H  47.43000 37.05400 33.93400
N  49.76700 37.03300 25.82400
C  49.82900 38.19300 26.55000
C  50.42600 39.23100 25.71100
C  50.95600 38.57900 24.53900
C  50.39000 37.24900 24.54200
C  50.71900 40.63300 26.03200
C  51.85300 39.05300 23.37400
O  52.06200 38.49700 22.27600
C  52.62500 40.36600 23.58000
N  49.03600 34.41000 24.37700
C  49.78600 35.05700 23.41600
C  49.94500 34.11000 22.25400
C  49.27300 32.75400 22.67500
C  48.53100 33.18900 23.95700
C  49.48100 34.64800 20.90500
C  50.18100 31.43200 22.89700
C  49.64600 30.16800 22.24500
N  47.56500 33.60200 26.81100
C  47.14300 32.54400 25.99900
C  46.29600 31.71300 26.73500
C  46.08500 32.40900 27.97800
C  46.91100 33.52500 27.94500
C  45.76300 30.40500 26.17200
C  45.27900 32.37900 29.19400
O  44.32900 31.63500 29.50700
C  45.86000 33.61100 30.11400
C  46.36100 33.00700 31.38000
O  47.35400 32.30800 31.45800
O  45.52100 33.36500 32.40100
C  45.66900 32.98700 33.81300
H  49.47400 39.36300 28.21700
H  50.91200 36.49000 22.52100
H  47.30300 31.48600 24.11400
H  46.34500 36.52300 30.67500
H  48.81700 38.16200 30.69800
H  47.40700 39.78600 30.79000
H  46.06800 38.83900 30.14700
H  47.09200 39.47500 28.93800
H  49.15600 36.38900 31.94000
H  48.48200 34.75700 31.57900
H  47.86600 35.10800 33.76300
H  46.42100 35.60500 32.93600
H  51.79600 40.79800 26.05700
H  50.20000 40.72500 26.98600
H  50.14000 41.34500 25.44500
H  51.93700 41.17900 23.81200
H  53.16200 40.65800 22.67700
H  53.37500 40.12800 24.33500
H  51.02100 33.95100 22.18600
H  48.44300 32.62700 21.98000
H  49.26300 33.72600 20.36600
H  50.30600 35.20100 20.45700
H  48.63400 35.33000 20.98400
H  50.44300 31.21400 23.93200
H  51.11500 31.70100 22.40300
H  49.28600 29.42200 22.95300
H  50.34900 29.54400 21.69200
H  48.87000 30.39500 21.51400
H  46.43100 29.55600 26.31200
H  45.40400 30.30500 25.14800
H  44.90500 30.18800 26.80900
H  44.94300 34.15200 30.34500
H  46.70700 33.16500 34.09200
H  45.38700 31.95600 34.02500
H  45.10300 33.57900 34.53200
Mg 16.83500 52.27900 25.49800
C  18.53700 50.72200 28.32100
C  14.18000 52.85500 27.71800
C  14.94200 52.99300 22.79800
C  19.39700 51.05100 23.50500
N  16.51700 51.95800 27.81000
C  17.34400 51.35900 28.71600
C  16.79500 51.57500 30.16400
C  15.33400 51.88100 29.77900
C  15.36100 52.29100 28.38000
C  14.25700 50.76600 30.08600
C  17.51000 52.76200 30.82700
C  17.37600 52.88500 32.35000
H  16.61900 51.85900 33.10100
N  14.91400 52.92800 25.36800
C  13.94000 53.09800 26.31700
C  12.68300 53.68500 25.66900
C  12.95700 53.66500 24.26700
C  14.30600 53.19000 24.05000
C  11.37700 54.00700 26.37600
C  12.00200 54.17400 23.09600
O  12.41500 54.23100 21.98700
C  10.62500 54.70400 23.41500
N  17.19600 52.24700 23.49200
C  16.28300 52.60000 22.50700
C  16.78700 52.29700 21.07200
C  18.29600 51.91900 21.29400
C  18.37500 51.80300 22.88100
C  15.99500 51.28800 20.23700
C  19.36000 52.80100 20.66400
C  20.31900 53.62400 21.50700
N  18.68200 51.27700 25.78400
C  19.57100 50.83000 24.83000
C  20.62900 49.94500 25.48000
C  20.29500 50.01300 26.79900
C  19.07700 50.75800 26.95300
C  21.87500 49.30600 24.80100
C  20.68200 49.54900 28.12800
O  21.65500 48.84800 28.42700
C  19.64200 50.07700 29.12000
C  19.40900 48.98100 30.07500
O  18.85600 47.89900 29.81300
O  20.10400 49.24100 31.31600
C  19.88700 48.35000 32.49900
H  13.35200 53.16200 28.36100
H  14.32400 53.05400 21.90100
H  20.12100 50.69100 22.77100
H  16.76500 50.64700 30.73500
H  14.97100 52.79400 30.25100
H  14.17000 50.10900 29.22100
H  13.28100 51.16700 30.35700
H  14.59800 50.10000 30.87800
H  17.13500 53.60700 30.25000
H  18.58700 52.74200 30.65800
H  16.96600 53.81700 32.73900
H  18.40500 52.90400 32.70800
H  10.72300 53.16800 26.13900
H  11.04400 54.95000 25.94400
H  11.42800 54.12100 27.45900
H  10.68200 55.56600 24.08000
H  10.06000 53.84700 23.78200
H  10.20900 54.96900 22.44300
H  16.76600 53.26800 20.57700
H  18.45700 50.89100 20.97000
H  16.60400 50.57100 19.68600
H  15.53300 51.88600 19.45100
H  15.25200 50.79000 20.86000
H  18.87100 53.41800 19.91000
H  20.04000 52.14700 20.11800
H  19.92600 53.77200 22.51300
H  20.50300 54.62400 21.11600
H  21.28800 53.12600 21.46600
H  22.75000 49.76000 25.26700
H  21.92000 49.52000 23.73300
H  21.88900 48.21900 24.88500
H  20.30300 50.82700 29.55400
H  19.20500 48.84100 33.19300
H  20.87800 48.29000 32.94700
H  19.57600 47.33200 32.26200

