158

Mg 49.04800 34.89200 27.22700
C  47.37700 33.24300 29.65600
C  49.26700 37.61800 29.17500
C  50.61300 36.38800 24.72800
C  48.32000 32.19500 25.01000
N  48.39600 35.34900 29.19300
C  47.88700 34.50300 30.12500
C  48.07300 34.94500 31.57300
C  48.19200 36.49600 31.31700
C  48.57800 36.51000 29.80600
C  46.88600 37.28400 31.61200
C  49.32300 34.32200 32.26300
C  49.16000 33.77500 33.74700
H  49.39200 34.89100 34.85000
N  49.86600 36.71500 27.04400
C  49.81100 37.71600 27.92700
C  50.45100 38.90700 27.34000
C  50.97100 38.53000 26.10500
C  50.43800 37.18100 25.84900
C  50.36900 40.27500 27.94900
C  51.86200 39.32300 25.18000
O  52.28200 38.85500 24.14000
C  52.39400 40.67700 25.61600
N  49.44300 34.29800 25.18300
C  50.15300 35.10500 24.39400
C  50.21300 34.61000 22.92900
C  49.82700 33.15600 23.03400
C  49.17900 33.18800 24.47000
C  49.37100 35.42400 21.93100
C  50.97700 32.04600 23.08800
C  51.21900 31.33000 21.72500
N  48.00100 33.06300 27.24000
C  47.75100 32.03800 26.30800
C  47.04800 30.95300 26.90200
C  46.80300 31.39800 28.23200
C  47.45000 32.67200 28.37000
C  46.60800 29.72900 26.23600
C  46.05300 31.17000 29.45400
O  45.35700 30.21300 29.70300
C  46.54600 32.22200 30.41500
C  47.23500 31.48900 31.58500
O  48.41300 31.22400 31.71500
O  46.36300 31.17500 32.52600
C  46.80300 30.36600 33.69100
H  49.52700 38.47200 29.80500
H  51.17800 36.75500 23.86800
H  48.21200 31.38500 24.28600
H  47.21500 34.67700 32.18900
H  48.99800 36.98800 31.86000
H  47.11000 37.79200 32.55000
H  46.07900 36.60500 31.88600
H  46.61500 37.94600 30.78900
H  50.15800 35.01800 32.34600
H  49.87000 33.57900 31.68200
H  49.82000 32.95100 34.01800
H  48.11800 33.45700 33.78600
H  51.36800 40.46600 28.34100
H  49.71900 40.42900 28.81000
H  50.22300 40.96800 27.12000
H  53.30700 40.92400 25.07400
H  52.67100 40.47300 26.65000
H  51.51900 41.30500 25.44500
H  51.24400 34.61800 22.57700
H  49.04100 32.91900 22.31600
H  48.53400 34.84700 21.53800
H  49.86700 35.69500 20.99800
H  49.09800 36.38700 22.36200
H  50.92700 31.30100 23.88200
H  51.86400 32.63900 23.31100
H  50.40500 31.49400 21.02000
H  51.30400 30.25500 21.88200
H  52.18600 31.68700 21.37000
H  46.84600 29.80100 25.17500
H  45.55700 29.44400 26.28300
H  47.24000 28.89300 26.53500
H  45.69100 32.69700 30.89600
H  46.85900 29.34800 33.30500
H  46.12200 30.55300 34.52200
H  47.79500 30.67600 34.01800
Mg 36.92600 49.29400 25.44200
C  37.01200 47.10500 28.25700
C  34.87100 51.32000 27.40100
C  36.06900 50.91000 22.67100
C  38.15000 46.61100 23.48100
N  36.13700 49.18400 27.60400
C  36.43200 48.33000 28.62400
C  36.03300 48.74800 30.02100
C  35.07300 49.91100 29.61700
C  35.37100 50.20400 28.15200
C  33.54300 49.76400 30.04000
C  37.35300 49.16200 30.63500
C  37.63200 48.63000 32.01900
H  36.38600 48.51200 32.93200
N  35.83200 50.96100 25.14400
C  35.16600 51.67600 26.06500
C  34.77600 53.02100 25.49300
C  35.05400 52.92500 24.07100
C  35.67800 51.55000 23.90800
C  34.42400 54.23200 26.38300
C  34.84100 53.88900 23.00300
O  35.04500 53.54600 21.84700
C  34.45900 55.31600 23.27000
N  37.17100 48.80500 23.44700
C  36.68200 49.67000 22.45900
C  36.96800 49.17700 21.04600
C  37.83700 47.88600 21.36600
C  37.69100 47.71800 22.80900
C  35.75400 48.99800 20.13700
C  39.34200 48.06100 20.89900
C  40.44700 48.60600 21.84500
N  37.52300 47.30800 25.74800
C  38.09400 46.41500 24.87700
C  38.35900 45.18700 25.60000
C  38.04000 45.48800 26.96700
C  37.47200 46.67500 26.98300
C  38.68500 43.86200 25.03300
C  37.94700 44.87400 28.25500
O  38.16300 43.73200 28.55900
C  37.51700 45.99800 29.20300
C  36.41300 45.39400 30.04300
O  35.26200 45.28800 29.67800
O  36.89400 45.08100 31.30200
C  35.89100 44.78400 32.32000
H  34.24600 51.96400 28.02300
H  35.88500 51.42100 21.72300
H  38.73500 45.87000 22.93200
H  35.45600 47.99400 30.55600
H  35.39200 50.80600 30.15200
H  32.87400 49.78000 29.17900
H  33.39900 50.72200 30.54000
H  33.29200 48.94600 30.71400
H  37.49000 50.23900 30.73400
H  38.17700 48.81000 30.01400
H  38.19000 49.38200 32.57700
H  38.31000 47.77900 32.07900
H  33.82300 54.97300 25.85500
H  35.27900 54.72900 26.84100
H  33.79700 53.93000 27.22200
H  35.18300 55.74700 23.96200
H  33.44400 55.32800 23.66800
H  34.47600 55.81500 22.30100
H  37.57000 49.96200 20.58900
H  37.56100 47.00500 20.78800
H  35.83400 48.19400 19.40600
H  35.51600 49.90500 19.58100
H  34.86600 48.80100 20.73800
H  39.38100 48.61400 19.96100
H  39.70800 47.06900 20.63600
H  39.96300 48.96800 22.75200
H  41.08000 49.33900 21.34400
H  40.96600 47.66400 22.02200
H  39.07300 43.22900 25.83100
H  39.50600 43.92400 24.31900
H  37.85800 43.41200 24.48300
H  38.38900 46.38400 29.73200
H  35.54500 43.75400 32.24500
H  34.97800 45.37400 32.24300
H  36.36100 45.12500 33.24300

