158

Mg 17.03700 53.10500 25.79900
C  19.06300 52.39300 28.70700
C  14.47800 53.90500 27.95800
C  15.30700 53.95800 23.12500
C  19.72400 51.90700 23.85600
N  16.84600 53.11900 28.08900
C  17.74200 52.80900 29.10100
C  17.14600 52.72800 30.45500
C  15.57800 53.04300 30.17400
C  15.60300 53.36700 28.64200
C  14.64400 51.90300 30.53800
C  17.83400 53.69600 31.54300
C  17.63300 53.13900 32.95500
H  16.80000 53.76200 34.09500
N  15.12700 53.82000 25.62900
C  14.24700 54.10100 26.61600
C  13.06000 54.68600 26.01000
C  13.31200 54.72500 24.57800
C  14.60800 54.11200 24.38300
C  11.79400 54.90400 26.83300
C  12.37600 55.14200 23.49100
O  12.66100 55.23900 22.27300
C  10.89700 55.50300 23.95000
N  17.48500 53.01700 23.79600
C  16.60400 53.33900 22.89300
C  17.18700 53.08500 21.48500
C  18.55400 52.28400 21.71000
C  18.59300 52.39800 23.23100
C  16.19300 52.28300 20.58400
C  19.77500 53.03900 21.02700
C  20.17300 54.44200 21.52200
N  18.98500 52.35700 26.18100
C  19.93200 51.94000 25.26600
C  21.16500 51.47700 26.01300
C  20.86200 51.72000 27.35600
C  19.54600 52.24900 27.37700
C  22.38900 50.92000 25.45300
C  21.33000 51.53400 28.70000
O  22.45200 51.08000 28.98700
C  20.21100 51.92100 29.63600
C  19.97000 50.78800 30.53000
O  19.85100 49.62900 30.11200
O  20.05000 51.17800 31.84400
C  20.00200 50.16900 32.91800
H  13.62800 54.10900 28.61300
H  14.82100 54.31800 22.21600
H  20.55800 51.55800 23.24500
H  17.20800 51.68500 30.76400
H  15.19200 53.98100 30.57300
H  14.48600 51.26100 29.67200
H  13.72200 52.27000 30.98900
H  15.15700 51.29400 31.28200
H  17.46200 54.72000 31.55800
H  18.86900 53.73600 31.20200
H  18.64300 53.16600 33.36400
H  17.41600 52.07400 33.03700
H  11.48700 55.94300 26.70800
H  11.87500 54.93300 27.91900
H  10.92100 54.32400 26.53600
H  10.86100 56.40800 24.55600
H  10.42900 54.67300 24.48000
H  10.26500 55.61500 23.07000
H  17.27700 53.91800 20.78800
H  18.39400 51.29300 21.28600
H  16.09700 51.23500 20.86800
H  16.67200 52.31500 19.60600
H  15.17600 52.66300 20.67800
H  19.55700 53.12500 19.96300
H  20.66600 52.41000 21.04000
H  21.13300 54.34100 22.02900
H  19.44000 54.77600 22.25600
H  20.20700 55.17800 20.71900
H  23.19200 51.15600 26.15100
H  22.67300 51.34300 24.48900
H  22.11000 49.88500 25.25500
H  20.66800 52.71500 30.22600
H  19.19600 49.43800 32.85100
H  19.74400 50.65800 33.85700
H  20.94100 49.62500 33.02100
Mg -4.60900 25.51400 26.57100
C  -3.16900 26.63700 29.64000
C  -6.64200 23.50100 28.33000
C  -5.38100 24.02200 23.63400
C  -2.27500 27.60200 24.90100
N  -4.64900 24.98000 28.74000
C  -4.15800 25.62200 29.82700
C  -4.91700 25.20600 31.08900
C  -5.79100 24.03300 30.65000
C  -5.73500 24.14100 29.12400
C  -5.23500 22.63700 31.06100
C  -5.59300 26.41700 31.80200
C  -5.32800 26.50700 33.32000
H  -4.64600 25.34200 34.07400
N  -5.94700 24.03800 26.02200
C  -6.71800 23.30600 26.92600
C  -7.64600 22.37800 26.19300
C  -7.27900 22.56700 24.81300
C  -6.15600 23.52600 24.76800
C  -8.69200 21.60500 26.75700
C  -7.93800 21.88200 23.58400
O  -7.47600 22.05100 22.46900
C  -9.25700 21.19900 23.74400
N  -3.88400 25.71700 24.50300
C  -4.34700 25.00000 23.50800
C  -3.64600 25.37400 22.16000
C  -2.88400 26.66000 22.57300
C  -3.04700 26.72300 24.08500
C  -2.84600 24.25500 21.49700
C  -3.44300 27.92400 21.89100
C  -2.73400 28.35500 20.56800
N  -3.14800 26.89800 27.09100
C  -2.28700 27.68800 26.30200
C  -1.50900 28.52000 27.14000
C  -1.83900 28.14600 28.45000
C  -2.80200 27.13300 28.39200
C  -0.52800 29.41700 26.78900
C  -1.55500 28.37200 29.81600
O  -0.69800 29.09900 30.36800
C  -2.44400 27.43800 30.65700
C  -1.54800 26.60400 31.51100
O  -0.69700 25.80700 31.15700
O  -1.56300 27.20000 32.78400
C  -0.49400 26.90100 33.71800
H  -7.28100 22.77300 28.83400
H  -5.44900 23.43700 22.71500
H  -1.64700 28.24800 24.28400
H  -4.21000 24.75700 31.78600
H  -6.80200 24.20500 31.02000
H  -4.89000 22.55300 32.09100
H  -4.31500 22.49000 30.49500
H  -6.02400 21.93100 30.80200
H  -6.66900 26.37900 31.63100
H  -5.26500 27.28900 31.23600
H  -6.26100 26.60100 33.87600
H  -4.71300 27.36200 33.60100
H  -8.55900 21.46900 27.83100
H  -8.71100 20.55600 26.46300
H  -9.63900 22.12800 26.62500
H  -9.83800 21.08100 22.83000
H  -9.92200 21.82900 24.33600
H  -9.02200 20.23500 24.19400
H  -4.41400 25.68200 21.45100
H  -1.81400 26.58300 22.37800
H  -1.79000 24.52500 21.49400
H  -3.19800 24.14700 20.47100
H  -3.00300 23.28400 21.96600
H  -3.50000 28.73000 22.62300
H  -4.46900 27.72500 21.58100
H  -1.89100 27.66600 20.49800
H  -2.42600 29.39800 20.63500
H  -3.46200 28.26600 19.76200
H  -0.37000 29.64900 25.73600
H  0.41500 29.00400 27.14800
H  -0.74400 30.35800 27.29400
H  -3.10900 28.05100 31.26600
H  -0.65800 25.83200 33.85500
H  -0.72700 27.43600 34.63800
H  0.43700 27.06500 33.17500

