158

Mg 48.44400 34.58400 27.27800
C  46.19200 33.48800 29.79800
C  49.29100 37.28400 29.22500
C  49.76300 36.03400 24.57600
C  46.93000 32.12200 25.13600
N  47.79200 35.26300 29.30400
C  46.92500 34.67100 30.14500
C  46.97500 35.41000 31.49600
C  47.62900 36.79900 31.11100
C  48.35000 36.45300 29.86600
C  46.61400 37.95400 30.87300
C  47.83700 34.54000 32.52000
C  47.28700 34.37800 33.92600
H  48.22500 34.87900 35.04300
N  49.46100 36.31300 26.97900
C  49.74600 37.28400 27.86800
C  50.55900 38.22700 27.20900
C  50.75300 37.92500 25.85900
C  49.94700 36.71900 25.74500
C  51.07500 39.46600 27.91000
C  51.45400 38.65700 24.77400
O  51.54400 38.14500 23.66200
C  52.17800 40.01800 25.09900
N  48.30000 34.14300 25.24700
C  49.05600 34.87800 24.32900
C  48.76000 34.37700 22.87400
C  48.16300 33.00900 23.18600
C  47.76400 33.08000 24.60300
C  47.84200 35.38400 22.13800
C  49.06900 31.76500 22.86200
C  50.15700 31.35100 23.83500
N  47.08200 32.96000 27.46500
C  46.62200 32.02000 26.50400
C  45.74600 31.00400 27.15900
C  45.50600 31.62100 28.42400
C  46.35500 32.75900 28.51400
C  45.20400 29.75100 26.52100
C  44.70800 31.48200 29.54700
O  43.89300 30.59100 29.80000
C  45.12100 32.67300 30.52400
C  45.55300 32.01600 31.80900
O  46.50200 31.26600 32.06600
O  44.55100 32.21200 32.74600
C  44.75000 31.77400 34.17900
H  49.48500 38.18600 29.80900
H  50.17400 36.40200 23.63400
H  46.66100 31.27100 24.50700
H  45.99900 35.55600 31.95800
H  48.37500 37.21800 31.78700
H  46.76100 38.80600 31.53600
H  45.57300 37.65900 31.00100
H  46.59400 38.31700 29.84500
H  48.87600 34.86600 32.55800
H  48.04200 33.59100 32.02400
H  47.18100 33.33700 34.23300
H  46.28800 34.81200 33.98600
H  50.34500 40.21500 27.59900
H  52.10000 39.60900 27.56800
H  51.12700 39.27900 28.98200
H  51.41300 40.61900 25.58900
H  52.60000 40.45500 24.19400
H  53.01100 39.77400 25.75800
H  49.65300 34.21000 22.27100
H  47.29700 32.90200 22.53300
H  47.74900 36.36400 22.60600
H  46.87900 34.91000 21.95000
H  48.27700 35.51700 21.14700
H  49.50700 32.10600 21.92500
H  48.44800 30.90000 22.62600
H  49.78200 30.42700 24.27600
H  50.40200 32.00900 24.66800
H  51.14200 31.20100 23.39300
H  45.87600 28.94500 26.81600
H  45.19800 29.85900 25.43600
H  44.20200 29.68500 26.94600
H  44.30500 33.36600 30.72700
H  45.35900 30.87000 34.20600
H  43.70100 31.58800 34.40700
H  45.13500 32.60900 34.76400
Mg 42.32700 41.26300 26.38600
C  41.51700 43.67900 28.86700
C  43.22800 39.09000 28.82100
C  43.10900 39.11400 23.98200
C  41.59000 43.67900 23.97200
N  42.47600 41.48600 28.66900
C  42.03100 42.52200 29.46400
C  42.27100 42.13100 30.95200
C  42.81400 40.58200 30.85100
C  42.87100 40.37900 29.31500
C  44.27200 40.45100 31.36300
C  40.93200 42.44100 31.81300
C  40.77900 41.62500 33.13300
H  40.12800 42.45200 34.24100
N  43.01900 39.31200 26.43100
C  43.39200 38.59900 27.48700
C  43.86500 37.32200 26.99300
C  43.76500 37.34400 25.61600
C  43.28600 38.63900 25.25300
C  44.53200 36.28800 27.93900
C  43.90500 36.13100 24.60500
O  43.65000 36.16300 23.39400
C  44.16300 34.84000 25.18000
N  42.35200 41.41700 24.32400
C  42.80800 40.35700 23.58200
C  42.66800 40.61300 22.09200
C  42.13500 42.06600 22.07100
C  41.98100 42.39800 23.55400
C  44.00900 40.43200 21.28300
C  40.71300 42.16900 21.37400
C  39.60700 41.28400 21.93800
N  41.66000 43.12900 26.36700
C  41.49300 44.03200 25.29300
C  40.94200 45.25100 25.82100
C  40.90600 45.18400 27.16400
C  41.39700 43.86500 27.49600
C  40.63400 46.45300 24.94700
C  40.49800 45.86300 28.38300
O  39.99100 46.95500 28.53800
C  40.99000 44.92100 29.54100
C  41.98000 45.65600 30.38600
O  43.16900 45.70900 30.10500
O  41.38800 46.18900 31.44800
C  42.38000 46.55300 32.52500
H  43.56400 38.34100 29.54100
H  43.32700 38.41200 23.17500
H  41.48500 44.49800 23.25800
H  42.98000 42.87200 31.32100
H  42.11500 39.88700 31.31500
H  44.51000 41.32700 31.96600
H  45.05900 40.39400 30.61000
H  44.39400 39.57600 32.00200
H  40.06600 42.24700 31.18000
H  40.98600 43.50300 32.05200
H  41.79800 41.36900 33.42300
H  40.21000 40.70100 33.03500
H  45.42200 35.96300 27.40000
H  43.90500 35.44200 28.22000
H  44.85100 36.81200 28.84000
H  44.17400 34.10000 24.37900
H  43.23500 34.50200 25.64200
H  45.15100 34.75300 25.63200
H  41.95200 39.92200 21.64800
H  42.85200 42.76700 21.64500
H  44.17800 41.28800 20.62900
H  43.90900 39.56500 20.63200
H  44.80900 40.43100 22.02400
H  40.80900 41.77000 20.36400
H  40.37900 43.20700 21.40000
H  39.24100 40.55000 21.22100
H  38.84100 41.99900 22.24000
H  39.95300 40.75100 22.82300
H  41.41900 46.42700 24.19100
H  40.83000 47.36000 25.52000
H  39.68900 46.47700 24.40500
H  40.14000 44.70300 30.18900
H  42.90200 45.66400 32.87900
H  41.79400 47.08800 33.27300
H  43.05900 47.28500 32.08700

