158

Mg 42.95100 42.00300 26.64200
C  42.35100 44.24000 29.33500
C  43.96700 39.75700 29.03500
C  43.91500 40.14000 24.23300
C  42.44400 44.77700 24.46000
N  43.12000 42.03100 28.90000
C  42.76800 42.99700 29.83900
C  42.78400 42.49600 31.26800
C  43.64000 41.23000 31.07700
C  43.54200 40.91800 29.57300
C  45.12700 41.19300 31.57800
C  41.46400 42.30800 32.00400
C  41.25300 43.00700 33.36400
H  42.01800 42.40900 34.52000
N  43.81500 40.20500 26.58700
C  44.02900 39.36800 27.66000
C  44.50800 38.11400 27.17200
C  44.40800 38.11300 25.75300
C  44.05800 39.53500 25.45000
C  45.02700 36.95200 28.06400
C  44.59500 37.07100 24.68600
O  44.64900 37.28700 23.48900
C  44.86400 35.68000 24.97600
N  43.34000 42.50800 24.61200
C  43.71000 41.43800 23.76300
C  43.45400 41.82700 22.28400
C  42.97400 43.30500 22.38200
C  42.91900 43.59100 23.87100
C  44.56400 41.53300 21.24300
C  41.51600 43.52800 21.75300
C  40.35500 42.85000 22.54800
N  42.52900 44.07100 26.79100
C  42.23000 44.98600 25.83600
C  41.66700 46.08000 26.38300
C  41.68400 45.93500 27.77600
C  42.24500 44.64000 28.02900
C  41.33300 47.40000 25.71000
C  41.39900 46.56500 29.05500
O  41.04800 47.70600 29.39400
C  41.86700 45.48400 30.13400
C  42.84300 46.00600 31.09900
O  43.95000 46.27900 30.72300
O  42.35100 46.00900 32.38700
C  43.39600 46.51600 33.33600
H  44.26700 39.00100 29.76300
H  44.03500 39.50100 23.35600
H  42.15300 45.48700 23.68400
H  43.36600 43.17700 31.88800
H  43.17500 40.39400 31.60000
H  45.17600 40.48800 32.40700
H  45.57300 42.09400 32.00100
H  45.78200 40.82800 30.78700
H  41.27500 41.26000 32.23700
H  40.57200 42.50900 31.41200
H  40.19000 43.06700 33.59500
H  41.59000 44.04200 33.30400
H  44.26100 36.20200 28.26200
H  45.24200 37.28600 29.07900
H  45.91500 36.57900 27.55400
H  45.76100 35.73700 25.59200
H  45.07200 35.02800 24.12700
H  44.03500 35.30800 25.57700
H  42.64400 41.16200 21.98200
H  43.66700 44.03400 21.96200
H  44.10900 41.00500 20.40400
H  45.37800 40.99200 21.72600
H  45.02000 42.42200 20.80900
H  41.46000 43.25000 20.70000
H  41.29300 44.59100 21.83700
H  39.75700 43.53500 23.15000
H  40.73600 42.14100 23.28400
H  39.77100 42.19000 21.90600
H  40.86200 47.20800 24.74600
H  42.25400 47.93500 25.47800
H  40.70200 47.97100 26.39100
H  40.92600 45.32000 30.65900
H  42.99100 46.27100 34.31800
H  43.52100 47.59100 33.20200
H  44.34700 45.99600 33.22500
Mg -5.68600 24.26200 25.54900
C  -4.23000 26.03800 28.18700
C  -7.54600 22.47300 27.83700
C  -6.79700 22.39000 22.97200
C  -3.85400 26.24900 23.28600
N  -5.78100 24.26900 27.70300
C  -5.15700 25.08800 28.59900
C  -5.64400 24.79900 30.12900
C  -6.20500 23.31000 29.94600
C  -6.56100 23.35300 28.40000
C  -5.25900 22.14100 30.33000
C  -6.71300 25.83700 30.58500
C  -6.58400 26.41500 31.95300
H  -5.92800 25.50400 32.98600
N  -7.05400 22.66300 25.43000
C  -7.78600 22.08200 26.48500
C  -8.63800 21.02200 25.96500
C  -8.54800 21.11500 24.52900
C  -7.45300 22.05900 24.25100
C  -9.44800 20.24800 26.87600
C  -9.32200 20.42800 23.39100
O  -9.14700 20.64400 22.20400
C  -10.46400 19.43300 23.72900
N  -5.42300 24.33900 23.49200
C  -5.99700 23.39700 22.66000
C  -5.55200 23.68300 21.14100
C  -5.10800 25.09300 21.29700
C  -4.70800 25.22100 22.75700
C  -4.43500 22.71000 20.68000
C  -6.07600 26.23700 20.92300
C  -5.50000 27.16400 19.87100
N  -4.30000 25.87200 25.64100
C  -3.67900 26.56900 24.66800
C  -2.70100 27.47300 25.31300
C  -2.91300 27.33700 26.65800
C  -3.88500 26.31400 26.85400
C  -1.68900 28.25300 24.53000
C  -2.53700 27.90900 28.00900
O  -1.90400 28.86600 28.37200
C  -3.42400 27.01500 29.06500
C  -2.46900 26.32900 29.95900
O  -1.88700 25.27400 29.69200
O  -2.30500 27.08300 31.13300
C  -1.36900 26.56100 32.16300
H  -8.10500 21.91900 28.59400
H  -7.08500 21.85400 22.06500
H  -3.25600 26.82400 22.57600
H  -4.82800 24.75200 30.85000
H  -7.18200 23.13300 30.39600
H  -4.30000 22.48900 30.71500
H  -5.04200 21.61800 29.39900
H  -5.82300 21.52300 31.02900
H  -7.74200 25.49700 30.47300
H  -6.60900 26.69300 29.91800
H  -7.63700 26.50200 32.22200
H  -6.02000 27.34700 31.90400
H  -9.11700 19.23300 27.09700
H  -10.49600 20.16900 26.59000
H  -9.46300 20.70100 27.86700
H  -11.28300 20.01500 24.15000
H  -9.95700 18.72100 24.38000
H  -10.81300 18.92900 22.82800
H  -6.47800 23.56400 20.58000
H  -4.19700 25.30400 20.73600
H  -4.88900 22.33600 19.76200
H  -4.21400 21.94900 21.42800
H  -3.48200 23.18100 20.43700
H  -6.35500 26.81800 21.80200
H  -7.02600 25.78200 20.64300
H  -4.70900 27.75600 20.33300
H  -6.25000 27.88600 19.54900
H  -5.07400 26.76900 18.94900
H  -0.93400 27.62800 24.05300
H  -1.20000 28.88600 25.27100
H  -2.12000 28.92800 23.79000
H  -4.00800 27.61000 29.76700
H  -1.78000 26.81700 33.13900
H  -0.40900 27.05700 32.02100
H  -1.19300 25.49800 31.99700

