158

Mg 24.91500 -4.88600 45.11700
C  26.96200 -2.36500 43.85600
C  22.30800 -3.63300 43.13200
C  23.21100 -7.65900 45.63400
C  27.64000 -6.15700 46.96400
N  24.69500 -3.30300 43.62000
C  25.71300 -2.38000 43.31100
C  25.20200 -1.40600 42.21300
C  23.68300 -1.62200 42.28700
C  23.51800 -2.91900 43.04500
C  22.91900 -0.30900 42.76800
C  25.60700 -1.83800 40.72300
C  25.78000 -0.71100 39.77500
H  25.18900 -0.81000 38.34800
N  22.99000 -5.50200 44.55900
C  22.11000 -4.85600 43.79400
C  20.93200 -5.65600 43.59500
C  21.06900 -6.80700 44.35000
C  22.46100 -6.69700 44.90500
C  19.75400 -5.11100 42.87900
C  19.94800 -7.78300 44.65100
O  18.84000 -7.71100 44.16400
C  20.20700 -8.83500 45.60200
N  25.43100 -6.69700 46.11500
C  24.47100 -7.71400 46.26000
C  24.95100 -8.82600 47.25100
C  26.42100 -8.29600 47.65500
C  26.53900 -7.01300 46.85500
C  24.12500 -9.15800 48.50400
C  27.51700 -9.23900 47.06100
C  28.22300 -10.26200 47.97400
N  26.88000 -4.37200 45.46400
C  27.88600 -4.97400 46.23900
C  29.08400 -4.12300 46.15300
C  28.74500 -3.13500 45.24000
C  27.41900 -3.34200 44.83700
C  30.40300 -4.27600 46.84200
C  29.24100 -1.95300 44.64600
O  30.34800 -1.43100 44.80500
C  28.15900 -1.49100 43.61900
C  27.96200 -0.05200 43.65500
O  27.18100 0.58300 44.34900
O  28.78300 0.53400 42.75000
C  29.03700 1.88400 42.93000
H  21.43300 -3.16600 42.67500
H  22.70700 -8.61900 45.76900
H  28.53800 -6.50700 47.47600
H  25.44800 -0.36500 42.42100
H  23.21000 -1.74300 41.31300
H  22.42300 0.23800 41.96600
H  23.61400 0.43400 43.15900
H  22.24000 -0.50800 43.59600
H  24.91100 -2.56600 40.30600
H  26.50100 -2.45200 40.83900
H  26.80800 -0.35000 39.74100
H  25.25700 0.09300 40.29300
H  20.13600 -4.97300 41.86700
H  19.44000 -4.13600 43.25000
H  18.98600 -5.88100 42.81400
H  20.47600 -8.36600 46.54900
H  20.93500 -9.48200 45.11400
H  19.28500 -9.39400 45.75900
H  24.98600 -9.70200 46.60300
H  26.58300 -8.05200 48.70500
H  23.70500 -10.15800 48.60500
H  23.29900 -8.47700 48.29900
H  24.51800 -8.79700 49.45500
H  28.33900 -8.68900 46.60300
H  27.12200 -9.80000 46.21500
H  27.87400 -10.20700 49.00500
H  29.28000 -10.00300 47.91900
H  27.99100 -11.29200 47.69900
H  30.73000 -5.27200 46.54300
H  30.29200 -4.24500 47.92600
H  31.11000 -3.56900 46.40900
H  28.48800 -1.81600 42.63200
H  30.08700 2.02300 43.18600
H  28.40500 2.43100 43.63000
H  28.90100 2.25100 41.91300
Mg 8.96000 48.79200 25.88600
C  6.78100 48.84700 28.55100
C  11.47000 50.13400 27.79700
C  10.90900 48.39100 23.27200
C  6.18300 47.90400 23.80800
N  9.11500 49.39000 27.92600
C  8.12500 49.14800 28.89600
C  8.62100 49.69300 30.33200
C  9.98700 50.48000 29.95900
C  10.21400 50.04400 28.45900
C  10.00400 52.03000 30.11700
C  8.77700 48.62700 31.45000
C  8.23800 49.04600 32.82900
H  8.27500 48.04600 34.01600
N  10.97200 49.12700 25.60400
C  11.88800 49.64900 26.52000
C  13.18300 49.54200 25.93000
C  13.08700 48.98900 24.59200
C  11.58200 48.88300 24.37900
C  14.44000 49.73800 26.85900
C  14.16900 48.59200 23.62400
O  13.99900 48.16300 22.49000
C  15.51500 48.82100 23.99500
N  8.57100 48.49700 23.76300
C  9.61800 48.29500 22.91900
C  9.14200 47.80700 21.55300
C  7.61600 47.82900 21.70000
C  7.44800 48.02100 23.21400
C  9.70300 48.36500 20.20200
C  6.85200 46.56600 21.15600
C  5.45800 46.77000 20.40900
N  6.84500 48.53400 26.09400
C  5.87700 48.26000 25.14800
C  4.52700 48.19200 25.91200
C  4.81700 48.44600 27.27600
C  6.22200 48.60200 27.30600
C  3.13700 47.97100 25.26400
C  4.30900 48.47300 28.57700
O  3.20300 48.29700 29.08900
C  5.48400 48.91700 29.46900
C  5.37600 47.91900 30.55900
O  5.77400 46.74900 30.47500
O  4.72400 48.40100 31.67800
C  4.57300 47.48600 32.78800
H  12.26500 50.60500 28.37900
H  11.48500 47.99400 22.43400
H  5.34200 47.50700 23.23600
H  7.87500 50.36100 30.76400
H  10.86600 50.20000 30.53900
H  10.29500 52.30700 31.13000
H  9.03600 52.45800 29.85400
H  10.69800 52.52500 29.43700
H  9.83600 48.38700 31.54400
H  8.19600 47.79600 31.04900
H  7.15800 49.14500 32.72100
H  8.72600 49.98600 33.08700
H  14.26500 49.88900 27.92500
H  14.99700 50.57200 26.43400
H  14.98200 48.81300 26.66000
H  15.88500 48.11800 24.74100
H  15.58600 49.88600 24.21600
H  16.23700 48.71200 23.18600
H  9.55600 46.80000 21.51000
H  7.19100 48.75900 21.32200
H  10.09000 47.54600 19.59600
H  10.59900 48.95400 20.39700
H  8.96600 48.87600 19.58200
H  6.57100 45.85400 21.93200
H  7.54100 46.01100 20.51900
H  4.75700 46.04200 20.81900
H  5.69700 46.58700 19.36200
H  5.13600 47.79500 20.59200
H  2.75600 48.88200 24.80300
H  2.45500 47.40900 25.90100
H  3.55400 47.23000 24.58100
H  5.30800 49.95900 29.73900
H  4.02000 48.08200 33.51400
H  5.55300 47.19000 33.16100
H  3.95600 46.62100 32.54200

