158

Mg 48.18300 15.89700 28.48400
C  46.17700 15.61900 31.38800
C  50.25000 18.00000 30.21800
C  50.07200 16.06100 25.81000
C  45.83200 14.00900 26.75700
N  48.09500 16.77700 30.55800
C  47.23200 16.36400 31.57100
C  47.75800 16.94700 32.94600
C  48.94300 17.86600 32.47300
C  49.05700 17.57200 30.96000
C  48.74200 19.44500 32.68500
C  48.19900 15.90200 33.92300
C  48.03200 16.33700 35.45200
H  49.10900 15.89200 36.41400
N  49.86800 16.96100 28.16500
C  50.59500 17.77600 28.95600
C  51.82200 18.21300 28.31200
C  51.79700 17.64900 26.96900
C  50.56900 16.80300 26.91600
C  52.89800 19.02100 29.02000
C  52.86100 17.74700 25.86800
O  52.81200 17.09800 24.82800
C  54.09800 18.54900 26.03800
N  47.88400 15.29300 26.53300
C  48.91500 15.37100 25.60500
C  48.58300 14.68200 24.27700
C  47.14500 14.23100 24.53100
C  46.92900 14.51200 25.99900
C  48.57900 15.70400 23.00500
C  46.97600 12.72800 24.14500
C  47.80100 11.64500 24.93800
N  46.38100 15.05700 28.94100
C  45.54500 14.25200 28.11500
C  44.37000 13.97900 28.83300
C  44.57000 14.45200 30.14300
C  45.82500 15.09200 30.16300
C  43.18600 13.19800 28.26700
C  43.95800 14.47300 31.43400
O  42.89600 14.00600 31.85900
C  44.98700 15.16800 32.34300
C  44.43100 16.48400 32.88500
O  44.11800 17.50400 32.23800
O  44.29500 16.38000 34.28100
C  44.08500 17.70200 34.93600
H  50.88200 18.68800 30.78300
H  50.74700 16.17000 24.95900
H  45.08100 13.41000 26.23700
H  46.98300 17.57200 33.39000
H  49.86300 17.56200 32.97100
H  48.58700 20.05700 31.79600
H  49.56900 19.82500 33.28400
H  47.86000 19.73400 33.25600
H  49.25600 15.73000 33.72200
H  47.67100 14.97800 33.68800
H  47.12000 15.80700 35.72400
H  47.86400 17.41000 35.53300
H  52.81600 19.10200 30.10400
H  53.06800 19.98700 28.54500
H  53.76900 18.39400 28.83100
H  53.85000 19.38000 26.69900
H  54.30600 18.86500 25.01600
H  54.99300 18.05800 26.42200
H  49.26000 13.85100 24.08000
H  46.35800 14.85000 24.10100
H  47.58100 15.84500 22.58800
H  49.22300 15.34100 22.20400
H  48.85000 16.72300 23.27900
H  47.42800 12.64500 23.15700
H  45.90200 12.58200 24.03200
H  47.08100 10.87400 25.21200
H  48.34200 12.02800 25.80200
H  48.57700 11.19300 24.32100
H  42.80900 13.40500 27.26500
H  42.36900 13.46700 28.93600
H  43.38000 12.12600 28.30200
H  45.34300 14.42300 33.05500
H  44.50600 18.49600 34.31900
H  44.60800 17.67300 35.89200
H  43.00100 17.81600 34.92600
Mg -9.92900 17.55500 42.13700
C  -6.46500 16.94600 42.80900
C  -9.18800 20.74700 41.43900
C  -13.18100 18.07300 41.43500
C  -10.51100 14.06500 42.56500
N  -7.93100 18.66100 42.06400
C  -6.74000 18.26400 42.38900
C  -5.73700 19.39400 42.14600
C  -6.69400 20.66200 42.08900
C  -8.02400 20.00500 41.78700
C  -6.74500 21.50000 43.40900
C  -4.81700 19.12600 40.91100
C  -5.37600 18.53000 39.64900
H  -5.10000 19.33300 38.35900
N  -11.03400 19.21300 41.57000
C  -10.54100 20.41300 41.39100
C  -11.56500 21.39900 41.21100
C  -12.77600 20.62600 41.09700
C  -12.35000 19.24200 41.34300
C  -11.42300 22.88000 40.93300
C  -14.17400 21.19300 40.92000
O  -14.36500 22.40200 40.99500
C  -15.41400 20.51000 40.54300
N  -11.64300 16.23600 41.95600
C  -12.92500 16.67300 41.73200
C  -13.90400 15.55100 41.88700
C  -13.05200 14.26500 42.17300
C  -11.65200 14.85400 42.27300
C  -14.87900 15.68100 42.96400
C  -13.17000 13.24200 41.02300
C  -14.13900 11.97100 41.25000
N  -8.80500 15.81600 42.44700
C  -9.14400 14.52800 42.58300
C  -7.94700 13.67500 42.81800
C  -6.89300 14.64100 42.94300
C  -7.44400 15.88700 42.76500
C  -7.83000 12.22700 42.94800
C  -5.43800 14.78300 43.26200
O  -4.55700 13.91600 43.32900
C  -5.19200 16.27800 43.20900
C  -4.61400 16.74600 44.47400
O  -3.59700 17.40700 44.53400
O  -5.45000 16.54000 45.55600
C  -5.20100 17.27000 46.82500
H  -9.01300 21.79600 41.19200
H  -14.23600 18.25900 41.22300
H  -10.67300 12.99000 42.66300
H  -5.09900 19.38900 43.03100
H  -6.29700 21.24600 41.25900
H  -7.77100 21.43800 43.77300
H  -6.53400 22.49900 43.02800
H  -5.88100 21.10000 43.93900
H  -4.28600 18.21400 41.18100
H  -4.06700 19.91500 40.85000
H  -6.44600 18.50600 39.85200
H  -4.98600 17.54100 39.40400
H  -11.36800 23.10400 39.86700
H  -10.45400 23.21600 41.30200
H  -12.18100 23.44500 41.47600
H  -15.54900 19.86500 41.41100
H  -15.29000 19.96300 39.60800
H  -16.23800 21.22200 40.48400
H  -14.38200 15.51100 40.90800
H  -13.18100 13.91400 43.19700
H  -15.68600 16.35800 42.68600
H  -14.38800 16.12800 43.82900
H  -15.24100 14.71000 43.30200
H  -12.16100 12.86500 40.85800
H  -13.49800 13.84100 40.17400
H  -15.03500 11.97600 40.63000
H  -14.44600 12.12400 42.28500
H  -13.63600 11.01000 41.14100
H  -8.63800 11.84900 42.32000
H  -7.99300 11.99300 44.00000
H  -6.78900 12.05500 42.67700
H  -4.30800 16.43700 42.59200
H  -5.09400 18.34500 46.68000
H  -4.30400 16.87800 47.30400
H  -6.10000 17.11400 47.42200

