158

Mg -9.26200 40.76100 42.80100
C  -8.30000 37.57300 41.90000
C  -6.51200 42.05800 41.15000
C  -10.46200 43.96200 43.07100
C  -12.35800 39.62700 43.84100
N  -7.72300 39.85700 41.41500
C  -7.48800 38.52300 41.33500
C  -6.07600 38.24300 40.66700
C  -5.43400 39.72400 40.68600
C  -6.65300 40.64900 41.09200
C  -4.06600 39.83900 41.37800
C  -6.33200 37.65000 39.24300
C  -5.32800 36.58300 38.76700
H  -4.67200 36.65600 37.29900
N  -8.52700 42.74100 42.24400
C  -7.36500 43.06100 41.66500
C  -7.19900 44.44700 41.54600
C  -8.31300 45.11200 42.18000
C  -9.19800 43.95700 42.48500
C  -5.97500 45.06400 40.89900
C  -8.49200 46.56100 42.42100
O  -7.65800 47.33000 41.92100
C  -9.61500 47.02500 43.27200
N  -11.16500 41.69200 43.28800
C  -11.31700 43.02900 43.54800
C  -12.74100 43.39000 44.13900
C  -13.23900 41.95400 44.51900
C  -12.25500 41.06600 43.86300
C  -12.75300 44.42000 45.30600
C  -14.71500 41.67600 44.01000
C  -15.63800 41.02800 45.07000
N  -10.16700 38.96700 42.95700
C  -11.43000 38.60200 43.38800
C  -11.63200 37.20100 43.32400
C  -10.47000 36.73100 42.79200
C  -9.59100 37.86700 42.52300
C  -12.82700 36.38800 43.76000
C  -9.68200 35.51900 42.39100
O  -10.00700 34.36900 42.48400
C  -8.27900 36.06100 41.70800
C  -7.10100 35.42900 42.38700
O  -6.78600 35.62000 43.51700
O  -6.42600 34.57800 41.43500
C  -5.17900 33.94200 41.91200
H  -5.56100 42.45000 40.78300
H  -10.95100 44.87000 43.43100
H  -13.33100 39.16700 44.02800
H  -5.55100 37.63000 41.40000
H  -5.18400 39.99600 39.66100
H  -3.34000 39.54900 40.61900
H  -4.07600 39.02900 42.10700
H  -3.83200 40.81100 41.81300
H  -6.13300 38.38300 38.46200
H  -7.33500 37.25700 39.07700
H  -5.80900 35.60900 38.86000
H  -4.52800 36.61300 39.50700
H  -6.16400 46.02600 40.42300
H  -5.52800 44.41700 40.14400
H  -5.26900 45.20700 41.71700
H  -9.43000 48.01200 43.69700
H  -9.56200 46.29800 44.08200
H  -10.51700 47.07100 42.66300
H  -13.17900 43.77100 43.21600
H  -13.14100 41.69200 45.57200
H  -13.44700 45.23500 45.10400
H  -11.71000 44.71800 45.41300
H  -13.09500 43.98900 46.24800
H  -14.55000 41.07200 43.11700
H  -15.28500 42.52600 43.63500
H  -16.49800 41.68300 45.20600
H  -15.11100 40.75100 45.98400
H  -15.93900 40.09200 44.59900
H  -12.59700 35.32300 43.78400
H  -13.70300 36.48600 43.11900
H  -13.05500 36.64100 44.79500
H  -8.25300 35.76900 40.65800
H  -5.44600 33.33000 42.77300
H  -4.53400 34.77300 42.19700
H  -4.82800 33.27400 41.12500
Mg -2.75200 33.99600 26.61100
C  -3.92400 32.16500 29.44200
C  -1.17700 36.07000 28.57400
C  -2.12400 35.71000 23.83700
C  -4.76800 31.77600 24.74400
N  -2.60300 34.09100 28.80000
C  -2.98300 33.20900 29.74600
C  -2.54200 33.57100 31.13800
C  -1.63500 34.83700 30.80700
C  -1.84700 35.07700 29.29900
C  -1.96400 36.15900 31.63400
C  -1.91800 32.32500 31.94400
C  -2.52300 32.10500 33.29600
H  -1.52700 31.96200 34.43300
N  -1.70800 35.60200 26.23500
C  -1.05500 36.37700 27.21000
C  -0.30900 37.43500 26.59200
C  -0.61000 37.40200 25.17500
C  -1.52800 36.23200 25.01500
C  0.60900 38.35700 27.32800
C  -0.28500 38.32800 24.04800
O  -0.79100 38.41900 22.92000
C  0.80400 39.37600 24.34200
N  -3.46200 33.79500 24.61100
C  -2.96200 34.61700 23.59400
C  -3.28000 34.04200 22.15700
C  -3.97300 32.68200 22.54200
C  -4.08300 32.76000 24.06600
C  -4.14700 34.98900 21.26100
C  -3.17900 31.50400 22.04100
C  -1.76500 31.39700 22.71400
N  -4.16300 32.34800 26.95100
C  -4.85400 31.52800 26.13000
C  -5.64000 30.57900 26.86800
C  -5.30800 30.85400 28.15500
C  -4.34400 31.85500 28.16100
C  -6.53000 29.56400 26.28700
C  -5.59600 30.39300 29.46900
O  -6.33400 29.53600 29.95000
C  -4.64700 31.22600 30.35700
C  -5.46700 31.90000 31.38200
O  -6.06600 32.97700 31.24200
O  -5.69700 31.11800 32.48000
C  -6.57800 31.71900 33.47900
H  -0.56100 36.64100 29.27200
H  -1.92600 36.17300 22.86800
H  -5.39500 31.04900 24.22400
H  -3.38400 34.01200 31.67200
H  -0.59200 34.68000 31.08000
H  -2.59100 36.77900 30.99400
H  -1.05700 36.66500 31.96500
H  -2.48300 36.04700 32.58600
H  -0.85400 32.53400 32.04900
H  -1.91200 31.46000 31.28100
H  -3.07600 31.16700 33.24100
H  -3.20300 32.86300 33.68400
H  0.42900 38.44100 28.40000
H  0.43500 39.37700 26.98600
H  1.64500 38.09600 27.11200
H  1.67500 38.86200 24.74700
H  0.54800 40.17600 25.03800
H  1.02100 39.82900 23.37500
H  -2.32200 33.88300 21.66000
H  -5.01100 32.58800 22.22300
H  -3.89300 36.02200 21.49800
H  -5.17700 34.77200 21.54400
H  -3.91500 34.87900 20.20200
H  -2.94700 31.53500 20.97700
H  -3.70700 30.61000 22.37300
H  -1.62900 32.25000 23.37900
H  -1.06700 31.35500 21.87900
H  -1.82500 30.49100 23.31700
H  -6.37600 29.42200 25.21700
H  -7.50100 29.98600 26.54900
H  -6.47300 28.54100 26.66000
H  -3.97100 30.58800 30.92600
H  -7.49500 32.04900 32.99200
H  -6.22900 32.55200 34.08900
H  -6.72500 30.83000 34.09300

