158

Mg 24.27500 -7.35600 46.70300
C  27.00900 -5.47100 45.85900
C  22.32600 -5.45100 44.62300
C  21.99900 -9.69800 46.93500
C  26.47900 -9.46200 48.61700
N  24.72400 -5.83300 45.14900
C  25.94700 -5.14000 45.05700
C  25.75900 -3.98500 44.05400
C  24.26800 -4.00300 43.75200
C  23.69300 -5.11800 44.58400
C  23.63300 -2.63000 43.99600
C  26.66200 -4.23200 42.88000
C  26.86700 -2.89200 42.02900
H  25.95500 -2.76700 40.73400
N  22.41000 -7.58200 45.91900
C  21.69700 -6.64700 45.17700
C  20.40100 -7.21800 44.75700
C  20.38500 -8.50700 45.28300
C  21.59500 -8.66000 46.08300
C  19.40400 -6.48100 43.91000
C  19.16900 -9.42600 45.13000
O  18.15600 -9.12000 44.56000
C  19.21000 -10.78500 45.75400
N  24.28000 -9.26100 47.71100
C  23.16700 -10.01900 47.68800
C  23.34500 -11.36800 48.35400
C  24.76600 -11.29400 48.96000
C  25.19900 -9.87600 48.41400
C  22.22400 -11.80900 49.33700
C  25.86100 -12.42300 48.36300
C  26.27700 -13.42700 49.43400
N  26.33600 -7.44400 47.31600
C  27.06600 -8.27900 48.10900
C  28.38800 -7.74500 48.36400
C  28.42100 -6.63600 47.45900
C  27.15200 -6.53400 46.79800
C  29.50600 -8.23900 49.27800
C  29.32400 -5.53100 46.88200
O  30.52800 -5.26700 47.10200
C  28.38300 -4.71900 45.86500
C  28.26500 -3.35700 46.44100
O  27.83200 -2.96000 47.51900
O  28.62900 -2.48900 45.41600
C  28.41400 -1.10200 45.69000
H  21.66200 -4.77500 44.08000
H  21.31200 -10.53300 47.09000
H  27.21100 -9.94400 49.26900
H  26.10300 -3.07700 44.54900
H  24.13800 -4.24700 42.69800
H  23.00000 -2.61500 44.88300
H  22.87000 -2.46300 43.23600
H  24.29800 -1.76900 43.92600
H  26.19400 -4.91900 42.17500
H  27.65500 -4.61600 43.11300
H  27.90400 -2.79400 41.71000
H  26.83700 -2.03800 42.70500
H  19.89600 -6.18800 42.98200
H  19.19000 -5.53800 44.41300
H  18.43500 -6.93800 43.71200
H  20.11400 -11.28600 45.40800
H  18.34700 -11.34900 45.40100
H  19.12500 -10.66900 46.83500
H  23.41800 -12.05800 47.51300
H  24.63900 -11.32600 50.04200
H  21.45700 -12.32800 48.76100
H  21.90400 -10.88500 49.81800
H  22.64300 -12.41500 50.14000
H  26.78100 -11.95500 48.01100
H  25.45700 -12.93800 47.49200
H  26.29000 -14.39900 48.94000
H  25.58600 -13.50100 50.27500
H  27.30900 -13.31900 49.76700
H  29.93400 -9.12700 48.81400
H  28.84500 -8.54300 50.09000
H  30.22600 -7.59400 49.78300
H  28.85500 -4.77500 44.88300
H  27.49200 -0.83700 46.20900
H  28.27600 -0.59800 44.73400
H  29.24800 -0.61900 46.19900
Mg 41.88400 41.38100 26.75700
C  41.34300 43.87100 28.94300
C  42.75500 39.31900 29.33500
C  42.31100 38.82400 24.53600
C  41.46100 43.53500 24.00700
N  42.18100 41.63400 28.91700
C  41.74500 42.69100 29.62500
C  41.69200 42.38300 31.22100
C  42.13500 40.89000 31.23900
C  42.46700 40.63100 29.70500
C  43.30500 40.60600 32.27500
C  40.29200 42.69400 31.74900
C  40.04300 42.14000 33.13700
H  40.39300 43.06100 34.33400
N  42.50400 39.37500 26.92000
C  42.87500 38.72200 28.05100
C  43.08000 37.30200 27.85900
C  42.95600 37.11500 26.50400
C  42.58900 38.41500 25.89900
C  43.50000 36.29800 28.96500
C  43.04100 35.85300 25.74500
O  42.68500 35.74200 24.57500
C  43.29300 34.57100 26.47400
N  42.02600 41.23400 24.51900
C  42.13400 40.02800 23.91600
C  41.88500 40.16800 22.38200
C  41.41100 41.60400 22.28300
C  41.62400 42.19200 23.68400
C  43.14500 39.81000 21.53400
C  39.97800 41.78100 21.72900
C  38.93800 40.97600 22.51700
N  41.57400 43.28400 26.49000
C  41.46800 44.08200 25.33700
C  41.20700 45.43000 25.70300
C  41.20300 45.39900 27.16900
C  41.42500 44.08800 27.57000
C  40.96300 46.55600 24.78600
C  40.91200 46.19000 28.34600
O  40.58000 47.36600 28.50600
C  41.12400 45.20900 29.48200
C  42.23500 45.72600 30.25800
O  43.45300 45.68400 29.96800
O  41.76900 46.34400 31.39500
C  42.75700 46.65300 32.40200
H  42.89800 38.60700 30.15100
H  42.37700 37.95400 23.88000
H  41.41900 44.25200 23.18400
H  42.33400 43.12300 31.69900
H  41.35000 40.18600 31.51600
H  43.09400 39.74200 32.90400
H  43.48400 41.33900 33.06200
H  44.12500 40.28000 31.63500
H  39.56100 42.44400 30.98000
H  40.22600 43.77600 31.86000
H  40.67400 41.26800 33.31300
H  39.01800 41.82200 33.33100
H  42.67800 35.61500 29.17700
H  43.77200 36.69800 29.94200
H  44.38300 35.73400 28.66500
H  42.43100 34.47200 27.13300
H  44.25700 34.47600 26.97300
H  43.35100 33.73300 25.78000
H  41.15000 39.39100 22.17400
H  42.10600 42.05600 21.57600
H  43.02200 39.16800 20.66200
H  43.79400 39.22900 22.18800
H  43.84500 40.58500 21.22000
H  39.94200 41.38500 20.71400
H  39.61900 42.80700 21.64900
H  38.50200 40.19700 21.89100
H  38.18200 41.62400 22.96100
H  39.37000 40.31500 23.26800
H  41.95500 46.86900 24.46100
H  40.44200 47.33300 25.34500
H  40.32100 46.10600 24.02800
H  40.22200 45.10400 30.08600
H  42.71900 45.69900 32.92900
H  42.31300 47.44100 33.01200
H  43.83400 46.74800 32.26700

