158

Mg 0.63200 7.65800 26.68300
C  1.20700 9.62500 29.43000
C  0.67700 4.87100 28.69600
C  0.48600 5.68700 23.97400
C  0.89100 10.52300 24.62800
N  1.03800 7.34200 28.83500
C  1.06800 8.24200 29.81700
C  1.12600 7.54600 31.30200
C  1.21600 6.02500 30.94800
C  0.97200 6.08100 29.41300
C  2.56800 5.29400 31.33500
C  -0.07900 8.00800 32.16200
C  0.32600 8.62600 33.46500
H  -0.45600 8.05300 34.66500
N  0.39500 5.51100 26.37800
C  0.47900 4.55900 27.34100
C  0.07800 3.25700 26.71800
C  -0.04200 3.53400 25.31200
C  0.30400 4.96500 25.17700
C  -0.18800 2.05400 27.58700
C  -0.42800 2.55400 24.22100
O  -0.50500 2.96100 23.03700
C  -0.65300 1.17200 24.51300
N  0.88500 8.04700 24.54400
C  0.78500 7.02600 23.64200
C  0.97500 7.66900 22.22900
C  0.54800 9.16800 22.47900
C  0.77400 9.29400 23.97800
C  2.48200 7.51000 21.64400
C  -1.01000 9.40600 22.19400
C  -1.27200 10.26700 21.00600
N  1.06000 9.67500 26.90200
C  1.14700 10.79100 25.98400
C  1.30400 12.03200 26.72900
C  1.30300 11.62300 28.01100
C  1.18200 10.17200 28.08700
C  1.38700 13.42600 26.07700
C  1.46000 12.09700 29.39900
O  1.69600 13.19500 29.81500
C  1.38900 10.78900 30.38200
C  2.48700 10.78400 31.40000
O  3.63900 10.38300 31.20800
O  1.97300 11.46500 32.45000
C  2.89400 11.49600 33.59800
H  0.53600 4.07300 29.42800
H  0.29300 5.11300 23.06600
H  0.83000 11.36700 23.93800
H  2.01900 7.98100 31.75100
H  0.52500 5.51700 31.62100
H  3.05700 5.09900 30.38100
H  2.37600 4.39500 31.92000
H  3.27000 5.96200 31.83400
H  -0.74200 7.14900 32.26600
H  -0.72000 8.72700 31.65200
H  -0.06400 9.64300 33.48700
H  1.38800 8.72000 33.68800
H  -1.12200 1.84900 27.06300
H  -0.38500 2.27500 28.63500
H  0.48200 1.20400 27.45800
H  -0.69900 0.63900 23.56300
H  -1.57900 1.09600 25.08100
H  0.20900 0.79700 25.06500
H  0.26800 7.15500 21.57900
H  1.20700 9.85400 21.94900
H  3.05000 7.47500 22.57400
H  2.63200 8.29600 20.90400
H  2.74200 6.49100 21.35800
H  -1.51400 9.71200 23.11000
H  -1.35100 8.42200 21.87100
H  -0.90200 11.23800 21.33500
H  -2.36000 10.32400 20.98700
H  -0.87200 9.91300 20.05600
H  1.16700 14.10000 26.90500
H  0.68000 13.54600 25.25600
H  2.41800 13.56300 25.75300
H  0.50700 10.85100 31.02000
H  2.29800 11.32500 34.49400
H  3.26300 12.51500 33.71200
H  3.66000 10.72100 33.59500
Mg 36.24200 49.19700 24.80900
C  36.33200 47.45600 27.77300
C  34.86000 51.96600 26.42900
C  35.58900 50.59800 21.82400
C  37.00600 46.16400 23.17700
N  35.45500 49.61300 26.86600
C  35.73600 48.78200 27.94300
C  35.30500 49.49800 29.25200
C  34.66800 50.87300 28.74200
C  35.12100 50.84500 27.26500
C  33.19200 51.05400 29.11800
C  36.53400 49.73000 30.23100
C  36.34900 49.34600 31.71000
H  34.92300 49.28500 32.35700
N  35.51500 51.09300 24.20900
C  34.98100 52.10200 24.97300
C  34.71500 53.32000 24.21700
C  34.91600 52.92800 22.84100
C  35.41000 51.51500 22.89900
C  34.35400 54.62100 24.87500
C  34.82400 53.72400 21.55100
O  35.21400 53.30900 20.44800
C  34.24300 55.03300 21.56700
N  36.11900 48.42900 22.84500
C  35.93700 49.24100 21.81200
C  35.85400 48.30500 20.55800
C  36.63700 47.07700 20.91000
C  36.46400 47.15600 22.36800
C  34.42600 48.05700 20.05300
C  38.10700 46.85000 20.43800
C  39.15500 47.97600 20.71500
N  36.61100 47.19200 25.29000
C  36.99800 46.10400 24.56200
C  37.39100 45.03400 25.48400
C  37.11300 45.50000 26.75300
C  36.67200 46.80700 26.53700
C  37.86800 43.68800 25.04300
C  37.25400 45.21400 28.21300
O  37.59100 44.23000 28.86900
C  36.68600 46.40400 28.89100
C  35.53800 45.85600 29.69300
O  34.40800 45.60400 29.29800
O  36.01800 45.74200 31.01900
C  35.06500 45.08200 31.90400
H  34.47500 52.79400 27.02800
H  35.23800 50.90400 20.83600
H  37.41700 45.25100 22.74200
H  34.49000 48.89100 29.64700
H  35.24200 51.71000 29.13900
H  32.65700 50.10800 29.20100
H  32.64800 51.58200 28.33500
H  33.18200 51.50800 30.10900
H  36.90800 50.75300 30.18900
H  37.39500 49.14700 29.90500
H  36.93100 50.10800 32.22900
H  36.90000 48.41900 31.86800
H  33.29600 54.88100 24.89400
H  34.76100 55.41500 24.24900
H  34.55000 54.66400 25.94600
H  34.05200 55.45500 20.58100
H  35.06400 55.62800 21.96700
H  33.35400 54.92100 22.18700
H  36.38200 48.75400 19.71700
H  36.13700 46.17200 20.56300
H  33.64800 48.74200 20.39000
H  34.11200 47.03400 20.25700
H  34.48300 48.15800 18.96900
H  37.96600 46.78900 19.35900
H  38.53700 45.88000 20.68700
H  38.77500 48.91300 21.12300
H  39.60300 48.07300 19.72600
H  39.92800 47.66600 21.41800
H  37.34400 43.29800 24.17000
H  37.75800 42.93600 25.82400
H  38.90100 43.80800 24.71500
H  37.51600 46.78600 29.48500
H  34.81400 44.09800 31.50700
H  34.17000 45.67200 32.09900
H  35.53600 45.05300 32.88700

