158

Mg -2.02900 17.66900 25.81900
C  -2.21000 15.57100 28.53200
C  -2.50500 20.36300 27.90500
C  -2.05300 19.72900 23.08000
C  -1.54800 14.95300 23.59700
N  -2.31100 17.86700 27.92100
C  -2.37700 16.89600 28.90400
C  -2.94400 17.42000 30.25200
C  -3.23000 18.89300 29.89500
C  -2.61400 19.04100 28.44100
C  -4.78400 19.25500 29.86700
C  -1.94800 17.03000 31.42100
C  -1.99900 17.97500 32.63600
H  -2.13200 17.32400 34.01300
N  -2.18700 19.73000 25.56700
C  -2.26400 20.64700 26.52500
C  -2.24100 22.02700 25.99700
C  -2.05600 21.88600 24.60300
C  -2.12000 20.35200 24.34600
C  -2.38000 23.28900 26.81700
C  -1.84800 22.92600 23.61500
O  -1.77000 22.69700 22.40900
C  -1.60300 24.33100 23.97500
N  -1.74100 17.43600 23.64100
C  -1.85600 18.41100 22.74800
C  -1.69600 17.92100 21.25700
C  -1.29100 16.41000 21.46100
C  -1.52000 16.22800 22.99500
C  -3.01500 18.08800 20.44200
C  0.10300 16.05900 21.06600
C  1.28700 16.58400 21.95600
N  -2.00800 15.65500 25.89800
C  -1.77000 14.69600 24.97700
C  -1.79800 13.42400 25.67500
C  -1.90000 13.74400 27.03300
C  -2.09300 15.10000 27.14200
C  -1.70900 12.07400 25.17800
C  -1.98300 13.19800 28.34800
O  -1.94800 11.99800 28.73600
C  -2.30500 14.36000 29.37600
C  -1.30500 14.22300 30.46100
O  -0.18100 14.71700 30.47200
O  -1.76700 13.33400 31.38200
C  -0.81700 12.97100 32.52800
H  -2.67800 21.28100 28.47200
H  -1.94600 20.40300 22.22800
H  -1.47200 14.21600 22.79500
H  -3.79800 16.77700 30.46500
H  -2.65900 19.53700 30.56500
H  -5.00000 19.99900 29.10000
H  -5.10300 19.75200 30.78300
H  -5.34800 18.32900 29.75600
H  -0.92400 16.98300 31.04900
H  -2.15700 16.02700 31.79300
H  -2.74000 18.77300 32.60300
H  -1.02100 18.45200 32.56400
H  -3.38100 23.71300 26.73200
H  -1.74800 24.10200 26.46000
H  -2.19500 23.16700 27.88400
H  -1.30300 25.02300 23.18800
H  -0.67900 24.39500 24.55100
H  -2.55000 24.52200 24.47900
H  -0.80700 18.40800 20.85500
H  -1.99700 15.72600 20.98900
H  -3.86600 18.24400 21.10600
H  -3.01600 17.15500 19.87900
H  -2.97300 18.89900 19.71500
H  0.41900 16.32600 20.05800
H  0.11800 14.97800 21.20700
H  0.97700 17.27100 22.74300
H  1.96100 17.21200 21.37200
H  1.73300 15.75900 22.51000
H  -0.97000 11.49000 25.72700
H  -1.55200 12.07400 24.10000
H  -2.69700 11.61700 25.23600
H  -3.28400 14.26500 29.84600
H  -1.28100 13.24400 33.47600
H  0.11000 13.53000 32.40300
H  -0.49400 11.93100 32.53300
Mg 26.21000 50.24200 26.19600
C  24.13100 51.51100 28.47900
C  28.65800 49.65400 28.57900
C  28.38300 49.52300 23.70700
C  23.93600 51.50800 23.57600
N  26.35100 50.39400 28.29400
C  25.37700 51.05000 29.06600
C  25.75500 50.95400 30.55800
C  27.31300 50.68700 30.52500
C  27.46200 50.13200 29.07500
C  28.22700 51.87200 30.97600
C  24.92500 49.81500 31.30900
C  24.17400 50.22400 32.61100
H  24.41500 49.36600 33.81700
N  28.13900 49.49500 26.19700
C  28.94000 49.30400 27.26400
C  30.18600 48.72400 26.76500
C  30.22200 48.76900 25.37500
C  28.90600 49.29900 25.07600
C  31.26400 48.19500 27.72100
C  31.33400 48.36200 24.40500
O  31.32900 48.65700 23.21200
C  32.57600 47.53800 24.71000
N  26.20300 50.62700 23.97400
C  27.22800 50.14100 23.24600
C  27.05800 50.41000 21.71900
C  25.53400 50.77700 21.70100
C  25.17700 51.04400 23.14300
C  27.93700 51.59100 21.25400
C  24.52500 49.72900 21.11500
C  23.35100 50.24000 20.17800
N  24.41500 51.29100 26.00600
C  23.55800 51.77100 24.94200
C  22.27400 52.10800 25.49300
C  22.48900 51.99400 26.87400
C  23.77400 51.55100 27.09600
C  21.18400 52.53100 24.60300
C  21.85300 52.36800 28.11000
O  20.72500 52.85800 28.25500
C  22.88100 51.91800 29.22100
C  23.00700 53.05800 30.21600
O  23.57000 54.15000 30.01100
O  22.34700 52.67900 31.28600
C  22.42800 53.57400 32.48500
H  29.36900 49.41300 29.37200
H  29.15700 49.36100 22.95400
H  23.25100 51.81400 22.78300
H  25.56800 51.93000 31.00500
H  27.56600 49.89000 31.22400
H  28.71200 52.27200 30.08500
H  28.98200 51.60700 31.71500
H  27.68600 52.69800 31.43700
H  25.60600 48.98600 31.50300
H  24.12700 49.36100 30.72200
H  23.10300 50.32100 32.43500
H  24.44500 51.25100 32.85600
H  32.19800 48.70000 27.47400
H  31.49500 47.15000 27.51200
H  31.06300 48.50600 28.74600
H  33.27100 48.11700 25.31700
H  33.02900 47.33000 23.74000
H  32.35600 46.65300 25.30700
H  27.27300 49.57500 21.05300
H  25.41800 51.72300 21.17200
H  27.29100 52.41100 20.93900
H  28.49600 51.31100 20.36100
H  28.56900 51.91400 22.08200
H  24.16800 49.07800 21.91300
H  25.17200 49.15700 20.45000
H  23.25500 49.63500 19.27700
H  23.54100 51.27000 19.87400
H  22.37500 50.22200 20.66300
H  20.31200 52.22900 25.18300
H  21.09900 52.16700 23.57900
H  21.22400 53.61900 24.55500
H  22.39200 51.10900 29.76400
H  23.15500 54.37500 32.35200
H  22.78000 52.95400 33.30900
H  21.40200 53.86500 32.71000

