158

Mg -0.64400 7.46500 26.88100
C  0.22200 9.71100 29.55000
C  -0.06100 4.90300 29.10300
C  -1.02200 5.29200 24.36800
C  -0.83300 10.16000 24.64100
N  -0.17500 7.42600 29.11700
C  0.15300 8.38800 30.02100
C  0.30500 7.88300 31.39900
C  0.58300 6.38700 31.15700
C  0.03400 6.15000 29.73200
C  1.96800 5.79100 31.33700
C  -0.98800 8.32500 32.19800
C  -0.74600 8.64000 33.67600
H  0.04600 7.56300 34.49600
N  -0.59400 5.31000 26.81700
C  -0.29200 4.47200 27.79000
C  -0.28900 3.12000 27.32800
C  -0.67500 3.21100 25.97500
C  -0.81100 4.64000 25.64000
C  0.01300 1.88000 28.23600
C  -0.84800 2.05600 24.95800
O  -1.06600 2.22500 23.73300
C  -0.89500 0.60700 25.47700
N  -0.69000 7.67200 24.86200
C  -1.02900 6.64900 24.10700
C  -1.28500 7.07200 22.64900
C  -1.59300 8.56700 22.83500
C  -0.98200 8.84900 24.16600
C  0.02700 6.77000 21.81200
C  -3.12300 8.79100 22.71700
C  -3.66600 9.87300 21.77600
N  -0.26200 9.56200 27.01800
C  -0.32800 10.48300 25.97800
C  0.03900 11.75700 26.54200
C  0.32400 11.50300 27.89700
C  0.07600 10.16000 28.19300
C  -0.03600 12.96700 25.77900
C  0.71900 12.07900 29.11400
O  1.01100 13.27200 29.38100
C  0.65100 10.96900 30.20600
C  1.85800 10.96700 31.10000
O  2.68300 10.13700 31.22100
O  1.85600 12.06500 31.97900
C  2.73700 11.99500 33.17700
H  0.17200 4.11900 29.82600
H  -1.16300 4.64200 23.50200
H  -1.05300 10.87100 23.84200
H  1.14000 8.43000 31.83600
H  -0.05100 5.73900 31.76200
H  1.91600 4.93300 32.00800
H  2.63000 6.55800 31.73900
H  2.34800 5.46300 30.37000
H  -1.79500 7.59700 32.11300
H  -1.29100 9.30900 31.84300
H  -1.72500 8.73500 34.14700
H  -0.25500 9.60500 33.80200
H  -0.66700 1.02800 28.24400
H  0.00500 2.09800 29.30400
H  1.02200 1.57500 27.95800
H  0.04500 0.06400 25.57200
H  -1.49200 -0.00400 24.80000
H  -1.42200 0.53800 26.42900
H  -2.15900 6.56600 22.23900
H  -1.10600 9.18100 22.07800
H  0.42000 7.72600 21.46700
H  -0.15800 6.34100 20.82600
H  0.75300 6.17600 22.36600
H  -3.46700 9.01700 23.72600
H  -3.66300 7.89600 22.40800
H  -4.27500 9.34300 21.04400
H  -2.80100 10.47400 21.49500
H  -4.29700 10.54200 22.36100
H  0.19000 13.79500 26.45000
H  -1.03000 13.15400 25.37300
H  0.67200 12.87700 24.95600
H  -0.14100 11.27000 30.89100
H  3.79100 12.03000 32.89900
H  2.64100 11.04700 33.70600
H  2.47500 12.80700 33.85400
Mg 40.28200 9.71300 29.44400
C  42.17600 10.48400 32.08900
C  37.90100 8.27000 31.67400
C  38.24500 8.62000 26.80300
C  42.78400 10.38900 27.19200
N  40.05800 9.40500 31.67500
C  40.91200 10.08800 32.50200
C  40.39600 9.86000 33.89500
C  39.03100 9.13100 33.81400
C  39.01700 8.79100 32.31000
C  38.79900 8.00500 34.83400
C  40.36700 11.19900 34.74100
C  41.36100 11.37000 35.86400
H  40.87600 11.87100 37.22400
N  38.31000 8.65400 29.24400
C  37.58000 8.15800 30.30000
C  36.33400 7.71500 29.75000
C  36.41100 7.74600 28.35300
C  37.73100 8.39000 28.04700
C  35.29700 7.18400 30.65100
C  35.43700 7.19200 27.36500
O  35.66900 7.16600 26.12700
C  34.06400 6.73000 27.83500
N  40.51000 9.53000 27.21900
C  39.50100 9.06600 26.41000
C  39.94100 9.14200 24.90100
C  41.40500 9.68900 25.00900
C  41.62000 9.85100 26.55400
C  39.75000 7.68300 24.29600
C  41.63100 11.08000 24.32400
C  41.23500 12.30200 25.20400
N  42.08400 10.40600 29.57000
C  43.04400 10.59900 28.58400
C  44.28900 11.07100 29.22400
C  43.94900 11.09300 30.58300
C  42.63100 10.59200 30.72500
C  45.57500 11.29400 28.53200
C  44.48300 11.41400 31.89200
O  45.56400 11.93300 32.13700
C  43.29600 11.05100 32.94000
C  43.94600 10.07200 33.90500
O  43.86200 8.87300 33.77200
O  44.55000 10.72000 34.96300
C  44.98100 9.78800 35.96100
H  37.02800 8.11300 32.31100
H  37.66600 8.24300 25.95700
H  43.72900 10.32100 26.64900
H  41.14200 9.16400 34.27900
H  38.25100 9.81200 34.15400
H  37.91200 8.34100 35.37100
H  39.64100 8.03900 35.52500
H  38.76400 7.00700 34.39600
H  39.40900 11.35700 35.23700
H  40.55600 12.03800 34.07100
H  42.07600 12.12800 35.54500
H  41.85500 10.42100 36.07600
H  35.18800 6.10200 30.58500
H  34.29900 7.60900 30.55000
H  35.57100 7.18800 31.70700
H  33.98900 5.69600 28.16900
H  33.32000 6.81000 27.04300
H  33.68800 7.45900 28.55300
H  39.29800 9.80300 24.31900
H  42.14700 9.00800 24.59500
H  39.57100 6.91900 25.05300
H  40.66600 7.27500 23.86800
H  39.04700 7.65700 23.46400
H  41.06100 11.19000 23.40100
H  42.69100 11.09000 24.07100
H  40.33300 12.11800 25.78800
H  40.98300 13.09400 24.49900
H  42.10500 12.57400 25.80300
H  45.78900 10.49700 27.81900
H  46.44400 11.53700 29.14300
H  45.43300 12.23200 27.99500
H  42.93900 11.92100 33.49100
H  45.67400 10.31200 36.62000
H  45.35400 8.79900 35.69700
H  44.09600 9.58600 36.56500

