158

Mg 23.74800 -5.31500 46.28800
C  25.81800 -2.73200 45.13100
C  21.24000 -4.04600 44.23200
C  22.18100 -8.21200 46.38100
C  26.57400 -6.73000 47.98100
N  23.56300 -3.53900 44.83900
C  24.54500 -2.72000 44.41800
C  24.00100 -1.63200 43.47200
C  22.48100 -1.83700 43.57100
C  22.39100 -3.17800 44.27900
C  21.80300 -0.71200 44.48000
C  24.52100 -1.70500 42.06800
C  24.76000 -0.34100 41.31400
H  24.04900 -0.14400 39.96400
N  21.87300 -6.01400 45.47700
C  20.99100 -5.37100 44.66500
C  19.83000 -6.20100 44.49700
C  20.04600 -7.49100 45.15700
C  21.40400 -7.26500 45.72800
C  18.66300 -5.76700 43.57500
C  19.12500 -8.75400 45.32700
O  18.09900 -8.79900 44.64600
C  19.38200 -9.90700 46.18300
N  24.39500 -7.17200 46.98400
C  23.46200 -8.17400 47.02700
C  24.06100 -9.46300 47.60600
C  25.53100 -9.02100 47.93500
C  25.52000 -7.53700 47.61900
C  23.14100 -9.94800 48.78100
C  26.75900 -9.85000 47.23600
C  27.75200 -10.43800 48.22500
N  25.71300 -4.74000 46.74100
C  26.76400 -5.41300 47.45700
C  27.85100 -4.46400 47.58600
C  27.50200 -3.41500 46.70300
C  26.24900 -3.64400 46.19100
C  29.17100 -4.71700 48.23400
C  28.00800 -2.17200 46.11100
O  29.02500 -1.50300 46.28800
C  26.87800 -1.68700 45.05800
C  26.57300 -0.30600 45.52400
O  26.19700 0.04700 46.63900
O  26.79100 0.53400 44.43100
C  26.31700 1.89400 44.59900
H  20.36900 -3.65600 43.70100
H  21.91100 -9.24100 46.13700
H  27.37300 -7.24300 48.52100
H  24.35500 -0.70700 43.92700
H  21.95500 -1.89500 42.61900
H  22.47500 0.10100 44.75600
H  21.41300 -1.04800 45.44100
H  20.99300 -0.24100 43.92300
H  23.89500 -2.34100 41.44200
H  25.46200 -2.25500 42.06500
H  25.84500 -0.25200 41.28100
H  24.41800 0.46100 41.96800
H  18.19500 -6.67000 43.18200
H  19.13600 -5.16100 42.80300
H  17.87400 -5.26600 44.13500
H  18.47900 -10.40200 46.54000
H  19.88600 -9.52900 47.07200
H  19.92600 -10.73100 45.72100
H  24.14800 -10.11600 46.73700
H  25.54100 -9.14100 49.01800
H  22.37300 -10.53100 48.27500
H  22.58900 -9.15900 49.29300
H  23.82400 -10.45300 49.46500
H  27.42000 -9.25600 46.60500
H  26.38200 -10.72300 46.70200
H  27.51100 -11.49900 48.28500
H  27.64700 -9.99500 49.21600
H  28.77700 -10.40500 47.85500
H  29.16500 -4.04000 49.08800
H  29.99300 -4.40900 47.58800
H  29.16300 -5.78500 48.45400
H  27.44200 -1.69400 44.12500
H  25.58000 1.93100 45.40000
H  25.92400 2.28000 43.65800
H  27.17000 2.48200 44.93900
Mg 6.34500 54.12900 41.67300
C  5.88000 50.64900 41.41500
C  9.51000 53.60700 40.41000
C  6.63100 57.48700 41.23400
C  2.98700 54.52800 42.59500
N  7.57600 52.29900 41.02300
C  7.20900 50.94500 41.04600
C  8.26800 50.10300 40.33800
C  9.52100 51.02300 40.51500
C  8.82900 52.38700 40.63400
C  10.41700 50.74900 41.75700
C  8.03300 49.65700 38.89900
C  7.39400 50.76300 38.01300
H  6.25400 50.41000 37.04900
N  7.92400 55.41100 40.94900
C  9.13800 54.97700 40.44700
C  9.87300 56.08300 40.02100
C  9.07600 57.32900 40.30500
C  7.81100 56.76700 40.84800
C  11.32300 56.04000 39.45800
C  9.41300 58.77800 40.04300
O  10.57100 58.96400 39.61100
C  8.59700 59.93800 40.26300
N  4.91100 55.76600 41.76400
C  5.36900 57.05000 41.60200
C  4.24000 58.11500 42.01800
C  3.13500 57.07900 42.52300
C  3.72500 55.69600 42.29000
C  4.68000 59.26700 43.02000
C  1.78000 57.18600 41.83800
C  0.56000 57.11600 42.68600
N  4.76000 52.92700 41.96000
C  3.47200 53.24700 42.39700
C  2.73500 52.03200 42.60100
C  3.66600 51.03800 42.27200
C  4.87200 51.57400 41.85700
C  1.27100 51.96800 43.06000
C  3.79400 49.63500 42.22000
O  3.07100 48.74800 42.55500
C  5.20000 49.36000 41.50700
C  4.79100 48.69600 40.24600
O  4.08300 49.11400 39.34800
O  5.44500 47.40000 40.20800
C  5.09300 46.70900 38.96300
H  10.49600 53.43300 39.97500
H  6.68700 58.57600 41.17200
H  1.95700 54.76500 42.87200
H  8.40800 49.21200 40.95000
H  10.20200 51.02700 39.66400
H  9.96200 50.06000 42.46900
H  10.49400 51.74300 42.19700
H  11.43100 50.42100 41.52700
H  7.51500 48.71900 38.70100
H  9.03700 49.53500 38.49200
H  8.07800 51.37800 37.42900
H  6.84200 51.41800 38.68800
H  11.37900 56.24100 38.38800
H  11.80200 55.09100 39.69900
H  11.82000 56.88300 39.93700
H  7.73400 59.90100 39.59800
H  9.25400 60.80600 40.21000
H  8.27100 60.00300 41.30100
H  3.94100 58.60000 41.08900
H  3.12300 57.23600 43.60100
H  4.89700 60.23700 42.57200
H  5.59900 59.00200 43.54300
H  3.94800 59.35800 43.82200
H  1.68400 56.42500 41.06400
H  1.75100 58.11100 41.26100
H  0.69900 56.65200 43.66200
H  -0.23400 56.53700 42.21400
H  0.15400 58.11100 42.87300
H  0.87200 52.98200 43.04600
H  1.22100 51.44800 44.01600
H  0.79400 51.44200 42.23300
H  5.64800 48.67000 42.22200
H  5.35400 45.67200 39.17700
H  5.72800 46.97700 38.11800
H  4.03900 46.84200 38.72000

