158

Mg 2.05100 -2.05900 44.81300
C  5.23100 -1.04700 43.99300
C  0.75600 0.46300 42.72200
C  -1.08900 -3.24900 45.18900
C  3.39100 -4.84000 46.36500
N  2.86700 -0.54100 43.45200
C  4.25500 -0.28600 43.27900
C  4.57700 0.90200 42.32600
C  3.10000 1.37000 41.98700
C  2.17100 0.33800 42.71700
C  2.84100 2.82500 42.41600
C  5.47200 0.32500 41.19100
C  6.75100 1.14700 40.93100
H  7.31500 1.09100 39.50400
N  0.11200 -1.41600 44.06300
C  -0.21000 -0.38300 43.28000
C  -1.68600 -0.26400 43.17400
C  -2.24500 -1.23300 43.99700
C  -1.03900 -2.04800 44.43900
C  -2.46200 0.82600 42.39900
C  -3.81000 -1.34200 44.42600
O  -4.68700 -0.60100 43.99400
C  -4.30000 -2.33600 45.36200
N  1.32800 -3.81900 45.50500
C  -0.07500 -4.03100 45.68500
C  -0.34400 -5.39200 46.28000
C  1.07600 -5.69900 46.87900
C  2.01200 -4.77000 46.14600
C  -1.54900 -5.66100 47.11400
C  1.25800 -7.25100 46.79300
C  0.97100 -8.07900 48.09000
N  3.94800 -2.86400 45.17700
C  4.39200 -3.94300 45.86800
C  5.90300 -3.88700 46.00600
C  6.16100 -2.74600 45.30500
C  5.03800 -2.20500 44.75300
C  6.79400 -4.76400 46.82500
C  7.29200 -1.90500 44.96200
O  8.46900 -1.99300 45.20600
C  6.74000 -0.70300 44.19100
C  6.92000 0.60200 44.94600
O  6.29400 0.95300 45.93300
O  7.89500 1.39700 44.42200
C  8.19500 2.69100 45.05900
H  0.43500 1.31100 42.11400
H  -2.14700 -3.51600 45.22500
H  3.86600 -5.72600 46.79200
H  5.00000 1.77600 42.82200
H  2.88100 1.22700 40.92900
H  3.52800 3.40100 41.79700
H  3.15200 3.00800 43.44400
H  1.81500 3.18600 42.34700
H  4.86500 0.49500 40.30200
H  5.67900 -0.74000 41.30000
H  7.49600 0.66600 41.56400
H  6.63000 2.17300 41.27800
H  -1.90500 1.50000 41.74800
H  -3.01200 1.57400 42.97100
H  -3.20000 0.31100 41.78400
H  -4.27900 -3.31700 44.88700
H  -5.30200 -2.06900 45.69900
H  -3.76500 -2.48500 46.30000
H  -0.57300 -6.06900 45.45600
H  1.06800 -5.48600 47.94800
H  -2.12600 -6.43200 46.60300
H  -2.14900 -4.77500 47.31900
H  -1.33700 -6.06200 48.10500
H  2.29400 -7.41200 46.49500
H  0.59900 -7.74900 46.08200
H  0.13800 -8.75000 47.87700
H  0.76600 -7.45400 48.95900
H  1.87000 -8.61500 48.39300
H  7.15200 -5.67100 46.33600
H  6.20200 -5.08800 47.68100
H  7.62600 -4.15800 47.18200
H  7.20900 -0.72400 43.20800
H  7.42900 3.34700 44.64700
H  9.18500 2.96900 44.69900
H  8.20100 2.72200 46.14900
Mg 15.76400 -2.11500 27.64300
C  14.60600 0.13700 30.19400
C  17.78500 -3.42100 30.04000
C  17.08700 -3.93800 25.19400
C  13.81500 -0.25900 25.39000
N  16.33800 -1.50200 29.79100
C  15.60800 -0.74200 30.64000
C  16.10900 -0.85400 32.04900
C  17.22700 -1.90000 31.96900
C  17.19200 -2.24900 30.49600
C  18.62800 -1.55000 32.53400
C  15.08200 -1.26500 33.16900
C  15.15100 -0.64700 34.56000
H  16.43200 0.09900 34.99700
N  17.11800 -3.56600 27.65400
C  17.73900 -4.06200 28.78200
C  18.50400 -5.19300 28.41200
C  18.27100 -5.39400 27.00700
C  17.41200 -4.29200 26.56000
C  19.33200 -5.89800 29.43600
C  18.98500 -6.36300 26.01700
O  18.84000 -6.29000 24.79300
C  19.93500 -7.49100 26.47200
N  15.68500 -1.95900 25.52600
C  16.32500 -2.81800 24.72600
C  16.11800 -2.53200 23.30000
C  14.86400 -1.54100 23.36700
C  14.70100 -1.23900 24.83200
C  17.27500 -2.11500 22.39300
C  13.51900 -2.07500 22.76600
C  13.02600 -1.32100 21.44200
N  14.50000 -0.42500 27.70700
C  13.71900 0.11600 26.72600
C  12.90300 1.24300 27.31300
C  13.22300 1.21800 28.63400
C  14.13900 0.20400 28.85900
C  11.96500 2.08600 26.54700
C  13.04100 1.91500 29.88800
O  12.36500 2.85400 30.21500
C  13.84200 1.17100 31.01400
C  14.83900 2.07300 31.76300
O  15.98600 2.37400 31.44900
O  14.17800 2.65200 32.85700
C  14.96300 3.60800 33.66100
H  18.09500 -3.95800 30.93900
H  17.40400 -4.58400 24.37300
H  13.10700 0.21900 24.70900
H  16.58300 0.12000 32.17200
H  16.89100 -2.81600 32.45500
H  18.87100 -2.14300 33.41500
H  18.69600 -0.48100 32.73900
H  19.42800 -1.79200 31.83400
H  15.05500 -2.34800 33.29100
H  14.09600 -0.93800 32.83900
H  14.93100 -1.45200 35.26200
H  14.34000 0.08000 34.50900
H  18.74200 -6.18100 30.30700
H  20.05600 -5.19000 29.83900
H  19.82800 -6.82500 29.14300
H  20.31700 -7.89400 25.53500
H  19.65600 -8.29100 27.15800
H  20.80400 -7.04600 26.95800
H  15.73400 -3.43600 22.82700
H  15.11900 -0.58800 22.90300
H  17.14900 -1.06100 22.14700
H  17.50300 -2.79400 21.57100
H  18.02800 -2.23400 23.17200
H  12.74900 -1.96100 23.52800
H  13.65800 -3.14800 22.63300
H  12.59600 -2.04900 20.75400
H  13.84700 -0.73000 21.03700
H  12.26900 -0.57200 21.67500
H  11.01600 1.91900 27.05800
H  11.81200 1.61900 25.57400
H  12.19000 3.14100 26.39200
H  13.05400 0.89100 31.71300
H  15.89600 4.04800 33.30800
H  15.12500 3.20200 34.66000
H  14.42200 4.53700 33.84100

