158

Mg 16.49300 -2.12500 28.30200
C  15.59300 0.22300 30.87800
C  18.19500 -3.83500 30.61500
C  17.63900 -3.96500 25.75600
C  14.43900 -0.19500 26.08500
N  16.96000 -1.64800 30.49000
C  16.37700 -0.78500 31.35100
C  16.76400 -1.03800 32.80100
C  17.76700 -2.31400 32.66700
C  17.63000 -2.65900 31.15900
C  19.20900 -2.08100 33.16900
C  15.56800 -1.52000 33.68800
C  15.51000 -0.83400 35.07800
H  16.70800 -0.10100 35.70100
N  17.74800 -3.73500 28.23900
C  18.36500 -4.33400 29.29300
C  19.14000 -5.44100 28.85700
C  18.97200 -5.52400 27.43800
C  18.11400 -4.36700 27.07200
C  19.87400 -6.29900 29.87600
C  19.53500 -6.53600 26.40700
O  19.38900 -6.40400 25.22200
C  20.29400 -7.78200 26.94600
N  15.99900 -2.09200 26.23000
C  16.70800 -2.94400 25.39500
C  16.52300 -2.52500 23.87100
C  15.25900 -1.56000 24.02100
C  15.15500 -1.25000 25.51400
C  17.71000 -1.78100 23.32800
C  13.89300 -2.12700 23.46400
C  13.07700 -1.22300 22.56300
N  15.33300 -0.27100 28.39400
C  14.59400 0.33900 27.40800
C  13.84300 1.47600 27.99400
C  14.22000 1.44000 29.37300
C  15.09800 0.35400 29.55900
C  12.78900 2.29700 27.33800
C  13.94500 2.05500 30.67400
O  13.18400 3.01400 30.92900
C  14.74300 1.23300 31.74600
C  15.62800 2.16300 32.43200
O  16.74300 2.61900 32.18900
O  15.05900 2.42300 33.66600
C  15.59700 3.62300 34.36100
H  18.70900 -4.47400 31.33600
H  18.05800 -4.41300 24.85300
H  13.78900 0.33300 25.38400
H  17.20200 -0.17200 33.29800
H  17.45200 -3.25200 33.12400
H  19.33200 -2.64800 34.09200
H  19.26000 -0.99900 33.29700
H  19.92800 -2.43200 32.42900
H  15.72900 -2.57900 33.89000
H  14.67500 -1.48700 33.06300
H  15.22500 -1.66900 35.71800
H  14.66200 -0.15300 35.00900
H  19.14100 -6.93700 30.37000
H  20.30400 -5.62100 30.61300
H  20.69200 -6.92100 29.51200
H  21.17500 -7.47400 27.51000
H  20.59400 -8.43200 26.12400
H  19.60600 -8.35400 27.56900
H  16.35100 -3.44000 23.30500
H  15.43700 -0.66100 23.43000
H  18.44100 -1.71800 24.13500
H  17.43900 -0.83300 22.86400
H  18.19900 -2.31300 22.51200
H  13.34600 -2.47900 24.33900
H  14.15400 -3.07100 22.98700
H  12.87500 -1.72600 21.61700
H  13.70200 -0.42500 22.16100
H  12.25500 -0.69800 23.05000
H  11.95100 2.41000 28.02500
H  12.39300 1.93900 26.38700
H  13.14000 3.30000 27.09500
H  14.03100 0.68500 32.36400
H  15.59800 4.47900 33.68700
H  16.60900 3.48000 34.74100
H  15.03900 3.79600 35.28100
Mg 25.13600 1.36700 29.38200
C  27.24200 1.22300 32.12500
C  22.44300 1.64900 31.61100
C  23.08500 0.69100 26.78800
C  27.95000 0.63500 27.30400
N  24.86900 1.58400 31.63000
C  25.92500 1.52500 32.51700
C  25.39000 1.69000 33.93000
C  23.87000 1.69400 33.83000
C  23.69600 1.60400 32.26700
C  23.14500 0.47200 34.55700
C  26.00600 2.87100 34.67900
C  26.59800 2.54300 36.11300
H  26.06400 3.51000 37.23000
N  23.08700 1.31100 29.23400
C  22.14000 1.42300 30.29600
C  20.81300 1.36600 29.66300
C  20.94600 1.08100 28.22500
C  22.42600 0.98100 28.01500
C  19.58900 1.63700 30.46400
C  19.85700 1.04600 27.11000
O  20.12400 0.75600 25.95100
C  18.43000 1.23700 27.38400
N  25.48700 0.67800 27.36100
C  24.43300 0.52200 26.52400
C  24.87400 0.39800 25.04800
C  26.45100 0.42200 25.18400
C  26.66900 0.66800 26.68800
C  24.39700 -0.98200 24.40300
C  27.12300 1.53700 24.37100
C  26.84800 3.05700 24.77700
N  27.15800 1.10100 29.61300
C  28.18000 0.81300 28.73400
C  29.42100 0.65500 29.38800
C  29.11400 0.80600 30.74200
C  27.73100 1.13300 30.84900
C  30.73200 0.20600 28.83700
C  29.68700 0.84300 32.08000
O  30.86400 0.78400 32.45200
C  28.41200 0.91200 33.00000
C  28.21900 -0.23700 33.85200
O  27.53600 -1.21100 33.62300
O  28.90800 0.00900 35.04800
C  28.81000 -1.02600 36.08500
H  21.63000 1.84700 32.31300
H  22.49900 0.46100 25.89500
H  28.80000 0.28600 26.71400
H  25.74400 0.79700 34.44400
H  23.49800 2.63400 34.23700
H  22.64500 0.85100 35.44800
H  23.88100 -0.23700 34.93600
H  22.43100 -0.03900 33.91100
H  25.37600 3.76100 34.68600
H  26.87500 3.11300 34.06700
H  27.65800 2.74200 35.96000
H  26.45700 1.47400 36.27500
H  19.69500 1.51100 31.54100
H  18.74900 0.97500 30.25300
H  19.24200 2.64800 30.24800
H  18.31300 2.23700 27.80000
H  18.26900 0.49800 28.16900
H  17.82400 1.00300 26.50800
H  24.45400 1.27700 24.56000
H  26.95400 -0.50600 24.91200
H  23.83800 -0.75600 23.49600
H  23.92200 -1.43700 25.27200
H  25.23400 -1.56400 24.01600
H  26.89500 1.35200 23.32200
H  28.19500 1.42200 24.53400
H  26.68400 3.65000 23.87800
H  27.71100 3.42000 25.33500
H  25.90300 3.18200 25.30600
H  30.57400 -0.22300 27.84700
H  31.14600 -0.53700 29.51800
H  31.38500 1.07200 28.73500
H  28.67700 1.70300 33.70100
H  28.97600 -1.97300 35.57200
H  27.82700 -0.85500 36.52300
H  29.64200 -0.80700 36.75400

