158

Mg 36.09700 49.32400 25.07900
C  36.06400 47.48900 27.98100
C  34.84800 52.03800 26.58400
C  35.77900 50.83700 22.00100
C  36.90700 46.32200 23.35700
N  35.62800 49.70400 27.15800
C  35.71800 48.85200 28.18600
C  35.20600 49.59800 29.43700
C  34.66800 51.02500 28.91000
C  35.06300 50.93400 27.44800
C  33.14700 51.28000 29.21500
C  36.23100 49.65800 30.56400
C  35.61400 49.63900 32.01000
H  34.15100 49.92700 32.36500
N  35.50700 51.22000 24.40300
C  35.06000 52.22000 25.19700
C  34.80400 53.45300 24.41400
C  35.18200 53.09100 23.09600
C  35.51200 51.65500 23.07700
C  34.29600 54.64600 25.11600
C  35.22000 53.99200 21.86100
O  35.58200 53.53900 20.77000
C  34.97000 55.47300 21.97000
N  36.26100 48.63200 22.95700
C  35.98800 49.42400 21.92800
C  36.20100 48.77800 20.62700
C  36.73600 47.38700 21.03900
C  36.67000 47.47300 22.52200
C  34.96500 48.77700 19.65900
C  38.15100 47.03400 20.42500
C  39.39800 47.88600 20.92200
N  36.52000 47.29100 25.54600
C  36.77500 46.24300 24.72500
C  36.89400 45.06500 25.56100
C  36.63900 45.51200 26.84200
C  36.43600 46.86100 26.79300
C  37.33700 43.76400 25.05200
C  36.58700 45.10000 28.20800
O  36.71100 43.98900 28.73400
C  36.21200 46.38100 29.03100
C  34.96200 46.12900 29.88600
O  33.82900 45.94500 29.46900
O  35.26600 46.21200 31.22300
C  34.20900 45.92100 32.19000
H  34.67300 52.93000 27.18900
H  35.81700 51.31700 21.02100
H  37.10100 45.41600 22.77900
H  34.40900 49.01600 29.89900
H  35.26000 51.84200 29.32300
H  32.56500 51.08800 28.31400
H  32.97700 52.32200 29.48400
H  32.79000 50.62700 30.01200
H  36.77300 50.59500 30.43300
H  37.02700 48.92000 30.47100
H  36.23900 50.33700 32.56700
H  35.89000 48.64100 32.35100
H  33.77100 55.42700 24.56500
H  35.16400 55.03300 25.65000
H  33.74500 54.37300 26.01700
H  33.88700 55.58000 21.90800
H  35.58800 55.84200 21.15200
H  35.48200 55.76200 22.88800
H  36.99700 49.22400 20.03000
H  36.12700 46.54200 20.71800
H  34.03400 48.47200 20.13600
H  35.17300 48.25500 18.72500
H  34.81700 49.80000 19.31300
H  38.06700 47.23700 19.35700
H  38.38900 45.97800 20.55400
H  39.81300 48.41200 20.06200
H  40.20800 47.21200 21.19900
H  39.16000 48.61000 21.70000
H  38.23000 43.93600 24.45000
H  36.58800 43.21500 24.48200
H  37.51500 43.12500 25.91600
H  37.09300 46.57000 29.64400
H  34.64600 46.07600 33.17600
H  34.03600 44.85800 32.02000
H  33.25100 46.44100 32.15300
Mg 10.07500 48.17000 26.21900
C  7.91200 47.78700 29.10400
C  12.35500 49.62600 28.13100
C  12.08600 48.05800 23.56200
C  7.38100 47.06400 24.30300
N  10.08800 48.70500 28.32800
C  9.17600 48.44200 29.36400
C  9.78400 48.88500 30.68200
C  10.95800 49.76300 30.28000
C  11.21400 49.31200 28.87400
C  10.80500 51.26500 30.54200
C  10.15400 47.69600 31.62000
C  9.55300 47.63300 32.98000
H  9.81900 46.37800 33.86600
N  11.94000 48.93100 25.86900
C  12.77300 49.37400 26.82100
C  14.09200 49.56600 26.22700
C  13.95200 49.15200 24.87500
C  12.59300 48.74200 24.67200
C  15.22800 50.03400 27.02900
C  14.98700 49.13500 23.89900
O  14.80800 48.92800 22.67800
C  16.39300 49.34800 24.29900
N  9.68200 48.00400 24.14700
C  10.75700 47.84700 23.27800
C  10.42100 47.02500 22.03100
C  8.96900 46.48400 22.30800
C  8.60300 47.29300 23.67600
C  10.75500 47.74900 20.69700
C  8.90200 44.91600 22.46300
C  8.77800 43.88800 21.26100
N  8.00800 47.58500 26.56100
C  7.07000 47.10100 25.67200
C  5.83300 46.85100 26.40200
C  6.15500 47.08300 27.79100
C  7.49200 47.44300 27.76900
C  4.56800 46.41300 25.82000
C  5.56600 47.22400 29.11200
O  4.39700 47.14900 29.47200
C  6.79500 47.32900 30.02800
C  6.99600 46.05800 30.81200
O  7.92500 45.22800 30.74300
O  6.00200 45.97500 31.82300
C  6.21500 44.85800 32.74400
H  13.03200 50.28800 28.67500
H  12.84100 47.63800 22.89400
H  6.69100 46.63600 23.57300
H  9.11100 49.49000 31.29100
H  11.85900 49.60500 30.87200
H  11.73400 51.67800 30.93600
H  10.00000 51.51100 31.23400
H  10.50700 51.73300 29.60400
H  11.23700 47.75700 31.72000
H  9.81300 46.79600 31.10800
H  8.49200 47.56700 32.74000
H  9.80400 48.55600 33.50300
H  14.86000 50.41300 27.98200
H  15.80400 50.82200 26.54300
H  15.81400 49.15900 27.31300
H  16.56700 50.33200 24.73300
H  17.03100 49.28400 23.41800
H  16.65800 48.62200 25.06800
H  11.09000 46.16500 22.05300
H  8.29100 46.89000 21.55700
H  11.65500 47.37200 20.21200
H  11.05400 48.75900 20.97900
H  10.11500 47.80000 19.81600
H  8.07300 44.79700 23.16000
H  9.84200 44.64800 22.94500
H  9.68600 43.36500 20.96200
H  8.37600 44.57900 20.52000
H  8.03800 43.11000 21.44800
H  4.33700 47.04200 24.96000
H  3.94300 46.54400 26.70400
H  4.58500 45.36600 25.51800
H  6.56300 48.11000 30.75300
H  7.13300 45.04200 33.30200
H  6.23400 43.88000 32.26300
H  5.37200 44.74600 33.42600

