158

Mg 2.10500 -1.84600 44.69800
C  5.38100 -0.66600 44.38500
C  0.99000 0.92100 43.03000
C  -0.82300 -3.45600 44.16300
C  3.48200 -4.94400 45.79400
N  3.10500 -0.22500 43.72500
C  4.39400 0.15600 43.80000
C  4.54900 1.59900 43.31800
C  3.15900 2.12000 43.35100
C  2.37400 0.84500 43.31600
C  2.65400 2.91400 44.55800
C  5.35500 1.71400 41.96200
C  6.88800 2.06900 41.99100
H  7.82300 1.40500 41.08200
N  0.32200 -1.38000 43.69800
C  0.05300 -0.10600 43.11600
C  -1.23900 -0.11200 42.54700
C  -1.78700 -1.41200 42.87100
C  -0.74200 -2.15100 43.58500
C  -1.74600 1.09500 41.77600
C  -3.25200 -1.81000 42.59200
O  -3.98300 -1.14900 41.86300
C  -3.92000 -2.96400 43.27000
N  1.39300 -4.05800 44.72400
C  0.12300 -4.37400 44.65200
C  -0.09200 -5.87100 45.03200
C  1.32000 -6.36300 45.53100
C  2.11000 -5.01400 45.35300
C  -1.09500 -6.11300 46.14100
C  1.86600 -7.54100 44.73800
C  2.53700 -8.75600 45.41600
N  4.03500 -2.60400 45.26700
C  4.41800 -3.86000 45.65400
C  5.89500 -3.90300 45.86800
C  6.30700 -2.57800 45.46900
C  5.15100 -1.93500 44.98000
C  6.70500 -5.03700 46.21400
C  7.44400 -1.63800 45.28200
O  8.63800 -1.80100 45.48200
C  6.81300 -0.37400 44.72200
C  7.01000 0.74000 45.85300
O  6.15600 1.09800 46.66700
O  8.08500 1.40900 45.47500
C  8.16200 2.78500 46.05500
H  0.60900 1.86400 42.63300
H  -1.76100 -3.99700 44.02100
H  3.86900 -5.92000 46.09700
H  5.11500 2.05600 44.13000
H  3.05000 2.65100 42.40500
H  1.79400 3.51700 44.26600
H  3.43300 3.56400 44.95500
H  2.33400 2.23600 45.34900
H  4.88600 2.57300 41.48200
H  5.21500 0.74700 41.47700
H  7.30100 1.96400 42.99400
H  7.02600 3.12400 41.75200
H  -1.35400 1.01300 40.76200
H  -1.50400 2.03400 42.27400
H  -2.83200 1.07900 41.68700
H  -3.62100 -3.87000 42.74200
H  -5.00500 -2.87300 43.22700
H  -3.61100 -2.93400 44.31500
H  -0.39600 -6.39500 44.12600
H  1.29100 -6.59600 46.59500
H  -0.74800 -6.93700 46.76300
H  -2.02500 -6.47000 45.69900
H  -1.22600 -5.15600 46.64600
H  2.61100 -7.17200 44.03300
H  1.06000 -7.92700 44.11400
H  2.08400 -8.83000 46.40400
H  3.62700 -8.73300 45.43800
H  2.25600 -9.66400 44.88100
H  6.57900 -5.72100 45.37400
H  6.25500 -5.35200 47.15500
H  7.77600 -4.85600 46.30700
H  7.36000 0.02600 43.86700
H  9.20800 3.01700 45.85400
H  7.82000 3.00900 47.06600
H  7.53000 3.32800 45.35300
Mg 0.54900 7.67600 26.07300
C  1.09700 9.64800 28.93800
C  0.09800 5.00000 28.17300
C  0.28900 5.90500 23.35300
C  0.60300 10.56300 24.26700
N  0.57300 7.37700 28.29600
C  0.78600 8.35500 29.20700
C  0.45900 7.77500 30.57300
C  0.61800 6.26600 30.34400
C  0.34500 6.18600 28.89800
C  1.98000 5.56800 30.74800
C  -0.87500 8.25000 31.23600
C  -1.00000 7.98100 32.74600
H  0.29300 7.91100 33.67300
N  0.37600 5.68900 25.78400
C  0.23500 4.76100 26.83700
C  0.13100 3.38700 26.18600
C  0.12700 3.61900 24.72100
C  0.33400 5.10400 24.54000
C  -0.18100 2.13100 27.02500
C  0.05900 2.63000 23.52500
O  -0.03100 2.88500 22.36700
C  -0.05600 1.07600 23.80800
N  0.53600 8.12400 24.09300
C  0.32700 7.25700 23.14500
C  0.34000 7.91800 21.68300
C  -0.02200 9.36900 22.10700
C  0.38500 9.34000 23.59500
C  1.67600 7.82300 20.89500
C  -1.52600 9.68500 21.89500
C  -1.79300 10.84400 20.93300
N  0.83700 9.73600 26.46100
C  0.83900 10.81700 25.60500
C  1.16400 12.06400 26.31000
C  1.15700 11.59300 27.67100
C  1.11800 10.19800 27.66200
C  1.37100 13.43300 25.78100
C  1.31500 12.07700 28.93300
O  1.50500 13.23900 29.31500
C  1.19900 10.85600 29.85800
C  2.47400 10.81400 30.63700
O  3.57100 10.48700 30.19600
O  2.25200 11.29800 31.88100
C  3.41500 11.24200 32.74900
H  -0.05700 4.12400 28.80600
H  0.21600 5.23100 22.49700
H  0.48500 11.36800 23.53900
H  1.20000 8.17300 31.26700
H  -0.21400 5.83000 30.89700
H  2.31200 6.25600 31.52600
H  2.60700 5.47000 29.86200
H  1.81000 4.60700 31.23300
H  -1.67900 7.69200 30.75600
H  -1.15900 9.28300 31.03600
H  -1.64400 7.11000 32.87000
H  -1.59700 8.75600 33.22600
H  -1.23400 2.10300 27.30500
H  0.40800 2.14700 27.94200
H  -0.03700 1.16000 26.55200
H  0.24100 0.55100 22.90000
H  -1.06900 0.72900 24.01100
H  0.55500 0.72200 24.63900
H  -0.46600 7.44200 21.12400
H  0.49600 10.09800 21.48400
H  1.95200 8.73300 20.36200
H  1.58000 6.90400 20.31800
H  2.48100 7.81300 21.63000
H  -1.94200 9.90100 22.87900
H  -2.00300 8.80900 21.45400
H  -0.94500 11.34100 20.46100
H  -2.25000 11.64400 21.51600
H  -2.45200 10.55300 20.11500
H  0.51600 13.86300 25.25900
H  2.26600 13.55300 25.17000
H  1.57500 14.06900 26.64300
H  0.38500 10.94000 30.57800
H  3.08000 11.66000 33.69900
H  4.33500 11.69700 32.38500
H  3.59300 10.18900 32.97100

