158

Mg 41.08800 8.32600 28.92400
C  42.74100 9.81000 31.53900
C  38.87800 6.90700 31.26600
C  39.33700 7.06100 26.36200
C  43.40700 9.62600 26.76500
N  40.95900 8.34100 31.12100
C  41.69200 9.09400 31.99800
C  41.03700 9.10600 33.39500
C  39.87700 8.06800 33.25900
C  39.85800 7.82100 31.76400
C  40.02300 6.80800 34.15500
C  40.39700 10.44000 33.84600
C  39.72600 10.47700 35.17000
H  40.30200 11.40300 36.21000
N  39.44300 7.06200 28.87300
C  38.66100 6.61700 29.90200
C  37.54400 5.81400 29.35100
C  37.47400 6.09700 27.94500
C  38.80300 6.73900 27.63500
C  36.72300 4.87800 30.13700
C  36.34300 5.80300 26.88800
O  36.43700 6.06200 25.71900
C  35.03200 5.22900 27.40200
N  41.30700 8.41400 26.86600
C  40.46000 7.79400 26.01600
C  41.00400 7.92100 24.56900
C  42.10500 8.96900 24.66700
C  42.31400 9.03100 26.14600
C  41.43900 6.51100 24.04500
C  41.69100 10.39700 24.15500
C  40.50800 11.04400 24.95200
N  42.86000 9.43200 29.02700
C  43.71200 9.88800 28.10100
C  44.76200 10.60400 28.73400
C  44.42400 10.70800 30.06300
C  43.26000 9.92700 30.20700
C  45.97700 11.04400 28.05200
C  44.75500 11.28000 31.32000
O  45.69300 11.98200 31.54900
C  43.61900 10.80300 32.35800
C  44.30200 10.17400 33.59800
O  44.99500 9.21700 33.66100
O  43.75000 10.89900 34.65300
C  43.85000 10.24200 35.92500
H  38.16800 6.54800 32.01400
H  38.78100 6.70100 25.49500
H  44.17300 9.92100 26.04400
H  41.75700 8.71300 34.11300
H  38.96200 8.61900 33.47800
H  39.93400 5.95100 33.48700
H  39.26800 6.77100 34.94000
H  40.93500 6.86600 34.74900
H  39.71800 10.71300 33.03900
H  41.21700 11.15600 33.89800
H  39.56500 9.51100 35.64900
H  38.69700 10.77600 34.96900
H  37.10800 4.83400 31.15500
H  36.62100 3.91300 29.64100
H  35.71700 5.25000 30.32900
H  34.57300 5.88200 28.14400
H  35.15900 4.24600 27.85500
H  34.28300 5.13600 26.61500
H  40.18500 8.25600 23.93300
H  43.05300 8.61400 24.26300
H  40.52300 6.07200 23.65000
H  41.77700 5.86500 24.85600
H  42.12500 6.56800 23.20000
H  41.27100 10.25500 23.16000
H  42.48100 11.14700 24.17200
H  40.83100 11.20000 25.98200
H  39.64000 10.38700 24.99000
H  40.23700 12.00300 24.51000
H  45.87600 11.07300 26.96800
H  46.67600 10.22700 28.23500
H  46.32100 12.03800 28.33700
H  43.26500 11.77400 32.70200
H  43.06900 10.52900 36.62900
H  44.84400 10.29200 36.37000
H  43.55600 9.20000 35.80100
Mg -2.37700 34.33000 26.90500
C  -3.15900 32.52100 29.68700
C  -0.67700 36.63600 28.82600
C  -1.78200 36.11500 24.06200
C  -4.06800 32.00600 24.97200
N  -2.01300 34.56900 29.00700
C  -2.32800 33.61400 29.96000
C  -1.87800 34.05000 31.35700
C  -1.30600 35.53300 31.12200
C  -1.21700 35.55000 29.59000
C  -2.19900 36.69100 31.67100
C  -0.98000 33.10100 32.17200
C  -1.42100 32.56800 33.57000
H  -0.34000 32.42400 34.68300
N  -1.45200 36.09200 26.47900
C  -0.79800 36.85000 27.37500
C  -0.21600 37.96800 26.66700
C  -0.63400 37.96400 25.33800
C  -1.33600 36.65400 25.24000
C  0.65300 38.90700 27.36300
C  -0.59000 39.03300 24.20200
O  -1.01300 38.90200 23.08100
C  -0.09100 40.33900 24.55100
N  -3.04300 34.19700 24.83700
C  -2.55400 35.02400 23.85100
C  -2.99400 34.61200 22.45700
C  -3.67800 33.24400 22.73000
C  -3.62600 33.10600 24.28300
C  -3.94000 35.67300 21.78000
C  -3.13500 32.16400 21.76900
C  -1.82200 31.58500 22.27900
N  -3.57600 32.75300 27.24900
C  -4.14100 31.79200 26.37200
C  -4.78600 30.69900 27.07500
C  -4.52900 31.05300 28.42500
C  -3.63300 32.13900 28.45200
C  -5.74000 29.65800 26.59000
C  -4.75300 30.57800 29.73300
O  -5.40500 29.63200 30.19800
C  -3.84500 31.53700 30.66700
C  -4.69900 32.25900 31.63100
O  -5.27900 33.31600 31.35400
O  -4.63900 31.67700 32.85900
C  -5.29500 32.43400 33.99300
H  -0.21300 37.39800 29.45600
H  -1.28000 36.37600 23.12900
H  -4.49700 31.26100 24.29900
H  -2.78400 34.18900 31.94700
H  -0.31800 35.53100 31.58100
H  -2.48500 37.44000 30.93200
H  -1.57100 37.08200 32.47100
H  -3.05100 36.32900 32.24500
H  0.00400 33.48900 32.43600
H  -0.88500 32.30200 31.43700
H  -1.73500 31.57400 33.25000
H  -2.36800 33.00700 33.88300
H  0.22500 39.89800 27.21000
H  1.62800 39.04200 26.89500
H  0.78900 38.79900 28.43900
H  0.98900 40.26200 24.67400
H  -0.55500 40.68700 25.47300
H  -0.27100 41.05600 23.75000
H  -2.05000 34.44100 21.93800
H  -4.72500 33.40900 22.47500
H  -4.22900 36.42900 22.51000
H  -4.82200 35.19200 21.35700
H  -3.33600 36.13300 20.99800
H  -3.03400 32.50700 20.74000
H  -3.87600 31.36500 21.74500
H  -1.73900 30.51500 22.08700
H  -1.51600 31.74600 23.31300
H  -1.00200 31.96600 21.67100
H  -5.43900 28.75300 27.11900
H  -5.66700 29.53800 25.50900
H  -6.70400 30.04500 26.92000
H  -3.18700 30.80500 31.13500
H  -4.65000 33.29300 34.17900
H  -5.51100 31.75500 34.81800
H  -6.24200 32.87700 33.68500

