158

Mg 44.14100 42.69100 25.71400
C  43.35500 45.11000 28.24000
C  45.12600 40.60900 28.26300
C  45.17000 40.71900 23.37200
C  43.29900 45.17300 23.25400
N  44.27300 42.89700 27.99200
C  43.70000 43.85200 28.78100
C  43.73300 43.54300 30.32700
C  44.45500 42.14300 30.33100
C  44.59100 41.84200 28.75800
C  45.78400 42.05400 31.16600
C  42.38400 43.47700 30.98600
C  42.24000 42.86700 32.40700
H  42.15400 43.74900 33.64000
N  45.09600 40.92600 25.78400
C  45.34800 40.16100 26.90400
C  45.86300 38.87500 26.55900
C  45.79100 38.85000 25.10700
C  45.34200 40.16800 24.67600
C  46.13900 37.81100 27.57500
C  46.08800 37.70300 24.13100
O  46.00500 37.76800 22.88600
C  46.67100 36.50500 24.70200
N  44.41100 42.98200 23.64300
C  44.79900 41.94500 22.87800
C  44.61100 42.20400 21.36900
C  43.80900 43.56100 21.39400
C  43.80000 43.92800 22.83200
C  45.85100 42.16400 20.54000
C  42.40000 43.44800 20.80300
C  41.24300 42.78800 21.55500
N  43.50800 44.75500 25.70200
C  43.16800 45.55200 24.63200
C  42.76200 46.81200 25.17300
C  42.81100 46.66500 26.57600
C  43.29400 45.42000 26.86400
C  42.60200 48.08600 24.44600
C  42.58000 47.32800 27.84400
O  42.08200 48.38700 28.09000
C  43.02500 46.36100 28.98000
C  44.19100 47.12000 29.59900
O  45.17500 47.50500 28.99000
O  43.89800 47.24900 30.96300
C  44.65200 48.29700 31.79000
H  45.44200 40.06000 29.15200
H  45.38300 40.07300 22.51700
H  43.10700 45.98300 22.54700
H  44.38100 44.28300 30.79600
H  43.77200 41.36300 30.66800
H  46.67800 41.91700 30.55700
H  45.66300 41.29900 31.94200
H  45.89600 43.00800 31.68100
H  41.68100 42.98700 30.31300
H  42.01300 44.48800 31.15100
H  43.12800 42.29500 32.67900
H  41.32200 42.28000 32.40100
H  45.67900 36.83600 27.41800
H  45.86800 38.16700 28.56900
H  47.21500 37.63400 27.57100
H  45.96500 36.08400 25.41700
H  47.64200 36.68400 25.16500
H  46.91000 35.78300 23.92100
H  44.06800 41.34900 20.96800
H  44.29800 44.39000 20.88200
H  45.48500 42.46600 19.55900
H  46.23700 41.14700 20.47100
H  46.55400 42.98600 20.67700
H  42.57200 43.02100 19.81500
H  42.02600 44.46800 20.72300
H  40.31400 43.31900 21.34900
H  41.40300 42.55900 22.60800
H  41.19200 41.76300 21.18700
H  43.01200 48.22600 23.44600
H  43.10100 48.85600 25.03500
H  41.53900 48.32000 24.39700
H  42.30200 46.20200 29.77900
H  45.65400 47.97000 32.06600
H  44.11800 48.64500 32.67400
H  44.85000 49.21400 31.23500
Mg -2.33400 33.97700 27.27300
C  -3.96200 32.05900 29.57000
C  -0.78300 35.68800 29.72200
C  -0.63700 35.72300 24.84900
C  -4.14300 32.42300 24.66800
N  -2.49700 33.97900 29.28000
C  -3.11100 33.03600 30.05400
C  -3.11800 33.26900 31.56600
C  -2.18500 34.55300 31.59900
C  -1.81900 34.81700 30.13000
C  -2.91500 35.75300 32.16200
C  -2.30900 31.98800 32.24000
C  -2.72600 31.46200 33.60500
H  -1.76600 31.89000 34.72100
N  -0.94400 35.54800 27.32700
C  -0.43200 36.13000 28.45800
C  0.64800 37.05800 28.09800
C  0.70200 37.08600 26.67100
C  -0.29800 36.09200 26.19100
C  1.55200 37.74000 29.12100
C  1.54800 37.94000 25.81500
O  1.43000 37.84600 24.61000
C  2.59400 38.92000 26.32100
N  -2.48500 34.12500 25.03200
C  -1.61300 34.92700 24.32200
C  -1.74100 34.71400 22.77800
C  -2.90100 33.62700 22.73700
C  -3.30100 33.44500 24.21300
C  -1.97600 36.01600 21.97700
C  -2.48400 32.27600 22.11000
C  -3.04000 31.92200 20.64000
N  -3.79500 32.58600 27.11100
C  -4.35700 31.98300 26.03400
C  -5.13300 30.84800 26.50100
C  -5.03800 30.77500 27.85500
C  -4.16100 31.86500 28.16600
C  -5.90400 29.79300 25.73800
C  -5.38400 30.06700 29.06400
O  -6.02100 29.04800 29.24200
C  -4.75100 30.91700 30.25700
C  -5.87600 31.44200 31.05500
O  -6.63000 32.35200 30.76000
O  -5.92900 30.64800 32.19200
C  -6.93000 30.98700 33.20900
H  -0.47300 36.32500 30.55300
H  0.04800 36.05200 24.06500
H  -4.69800 31.83800 23.93200
H  -4.13300 33.34100 31.95600
H  -1.26000 34.46900 32.16900
H  -3.99200 35.59600 32.22400
H  -2.82400 36.56700 31.44300
H  -2.48700 36.01300 33.13100
H  -1.26200 32.27600 32.33200
H  -2.40500 31.11800 31.59000
H  -2.70500 30.37300 33.64700
H  -3.74000 31.82700 33.76300
H  1.12500 37.53600 30.10300
H  1.42600 38.81400 28.98600
H  2.62300 37.57500 29.00300
H  3.02800 39.42600 25.45900
H  3.39000 38.32500 26.76900
H  2.24700 39.75400 26.93200
H  -0.84800 34.21700 22.40000
H  -3.75200 34.07100 22.22000
H  -1.79100 36.94000 22.52600
H  -3.00000 35.88700 21.62500
H  -1.19800 35.91300 21.22100
H  -2.93700 31.46000 22.67400
H  -1.40800 32.12300 22.19300
H  -3.56000 32.84500 20.38500
H  -3.58800 30.98100 20.68900
H  -2.20600 31.77100 19.95400
H  -5.35800 29.62700 24.80900
H  -6.86100 30.24000 25.46900
H  -6.00400 28.86900 26.30800
H  -4.16300 30.22800 30.86300
H  -6.60800 31.54000 34.09100
H  -7.22800 30.05700 33.69100
H  -7.79700 31.43900 32.72700

