158

Mg -2.46500 17.08100 27.19900
C  -2.75400 14.90600 29.92900
C  -2.97000 19.74300 29.25800
C  -2.28100 19.09300 24.41200
C  -2.14200 14.44400 25.11500
N  -2.88100 17.31400 29.37000
C  -2.97400 16.26300 30.30800
C  -3.03600 16.85600 31.72200
C  -3.31400 18.39400 31.38000
C  -3.14900 18.52600 29.86300
C  -4.69400 18.95200 31.97500
C  -1.74800 16.60900 32.55200
C  -1.50200 17.41800 33.87100
H  -1.25800 16.66100 35.26200
N  -2.51800 19.16800 26.85600
C  -2.71900 20.11700 27.89300
C  -2.72600 21.45500 27.30800
C  -2.48500 21.26100 25.86500
C  -2.37700 19.78500 25.64500
C  -3.04200 22.74300 27.97700
C  -2.19600 22.30500 24.78500
O  -2.02500 21.99800 23.60400
C  -2.24900 23.79200 25.12100
N  -2.34200 16.73900 25.09900
C  -2.26000 17.74400 24.18000
C  -2.23300 17.15700 22.70700
C  -1.91800 15.72100 22.97000
C  -2.18400 15.59500 24.47800
C  -3.60000 17.36100 21.96000
C  -0.47200 15.33200 22.65600
C  0.65700 15.92000 23.52500
N  -2.52800 15.12800 27.40700
C  -2.33700 14.14000 26.47200
C  -2.44700 12.82600 27.07300
C  -2.59800 13.07000 28.44700
C  -2.61100 14.51800 28.61000
C  -2.47500 11.45300 26.36500
C  -2.70800 12.43600 29.72100
O  -2.84200 11.28200 30.06900
C  -2.83300 13.58200 30.71800
C  -1.64300 13.36000 31.57400
O  -0.48500 13.58600 31.22100
O  -1.97100 12.87500 32.84900
C  -0.86700 12.58700 33.72300
H  -2.93100 20.61900 29.90900
H  -2.24600 19.63100 23.46300
H  -1.91400 13.58100 24.48600
H  -3.79700 16.23800 32.19900
H  -2.50500 19.04000 31.71900
H  -5.09000 18.08400 32.50200
H  -5.47800 19.34200 31.32600
H  -4.48200 19.70300 32.73600
H  -0.84000 16.48300 31.96200
H  -1.64100 15.60500 32.96500
H  -2.31000 18.14000 33.97900
H  -0.55100 17.94900 33.82900
H  -2.09000 23.25400 27.83200
H  -3.23900 22.67000 29.04600
H  -3.80500 23.28800 27.42200
H  -3.17400 24.23400 25.49300
H  -1.97700 24.28400 24.18800
H  -1.49000 24.05600 25.85800
H  -1.37500 17.53900 22.15500
H  -2.65400 15.07000 22.49700
H  -4.30000 17.99000 22.51100
H  -4.13100 16.42800 21.77200
H  -3.45800 17.77900 20.96400
H  -0.14200 15.59600 21.65200
H  -0.44600 14.24300 22.61600
H  1.07700 16.64500 22.82700
H  1.35500 15.15000 23.85500
H  0.41000 16.49400 24.41800
H  -1.75000 11.50700 25.55300
H  -3.48500 11.33500 25.97400
H  -2.18700 10.67500 27.07200
H  -3.78800 13.41100 31.21400
H  -1.17700 11.74400 34.33900
H  -0.57000 13.44600 34.32500
H  -0.01000 12.24700 33.14100
Mg 1.56600 42.43800 25.82800
C  2.95000 42.36800 29.03800
C  -1.41200 41.23700 27.15300
C  0.40900 41.73600 22.65100
C  4.71700 43.25100 24.62100
N  0.88300 41.79000 27.86400
C  1.59500 41.89400 29.03200
C  0.67800 41.74400 30.28200
C  -0.66900 41.28400 29.64100
C  -0.38100 41.50000 28.10200
C  -1.19000 39.93400 30.02700
C  0.49100 43.05500 31.07200
C  0.48700 42.89700 32.61000
H  -0.80200 42.27100 33.24400
N  -0.17600 41.49600 24.99100
C  -1.29300 41.21200 25.73900
C  -2.34500 40.79700 24.82100
C  -1.79400 40.76100 23.48300
C  -0.41900 41.25200 23.69800
C  -3.78700 40.53400 25.27400
C  -2.40800 40.18400 22.11800
O  -1.73600 40.24200 21.10600
C  -3.86400 39.64000 22.14600
N  2.41600 42.40500 23.98400
C  1.75200 42.17700 22.78900
C  2.69100 42.47100 21.61300
C  3.78800 43.33900 22.26100
C  3.64600 43.01000 23.73100
C  3.20600 41.10900 21.04600
C  3.56800 44.86900 22.10600
C  4.24100 45.64800 20.95000
N  3.47900 42.79900 26.62100
C  4.68100 43.12600 26.05600
C  5.71100 43.35100 27.03900
C  5.05500 43.06100 28.24200
C  3.71100 42.77400 27.91700
C  7.04600 43.83400 26.86900
C  5.29500 42.90400 29.63200
O  6.29000 42.89500 30.30100
C  3.94100 42.43800 30.23100
C  4.03900 41.11100 30.91100
O  4.13600 39.98200 30.45700
O  4.03000 41.36000 32.25000
C  3.99000 40.16500 33.22600
H  -2.42800 41.11900 27.53400
H  0.12800 41.61900 21.60300
H  5.62800 43.64300 24.16400
H  1.20800 41.06300 30.94800
H  -1.41200 42.04000 29.89200
H  -0.44600 39.32200 30.53700
H  -1.44700 39.39500 29.11500
H  -2.12000 40.16400 30.54700
H  -0.32800 43.69900 30.75200
H  1.37500 43.67900 30.94600
H  0.54700 43.92600 32.96300
H  1.33400 42.28200 32.91500
H  -3.91600 39.47800 25.03600
H  -4.47000 41.22600 24.78100
H  -4.02000 40.75800 26.31500
H  -3.81000 38.65800 22.61700
H  -4.13400 39.56600 21.09300
H  -4.55800 40.32600 22.63100
H  2.11000 43.01000 20.86500
H  4.82300 43.12600 21.99300
H  2.50300 40.30200 21.25400
H  4.17700 40.78100 21.41800
H  3.29200 41.22200 19.96600
H  3.87600 45.43300 22.98600
H  2.51600 45.15200 22.05700
H  3.50000 45.99400 20.23000
H  4.94400 45.01800 20.40500
H  4.81800 46.47700 21.35800
H  7.06900 44.89500 27.11700
H  7.49000 43.78100 25.87500
H  7.63600 43.33200 27.63700
H  3.51700 43.10800 30.97900
H  4.27800 39.20600 32.79600
H  2.92700 40.09100 33.45300
H  4.62400 40.26900 34.10600

