158

Mg 47.68800 35.21400 28.16400
C  45.82000 33.37800 30.41200
C  47.70400 37.84100 30.47700
C  49.09300 37.22000 25.77000
C  47.72200 32.45700 25.97200
N  47.00000 35.52300 30.30600
C  46.25900 34.56200 31.00700
C  46.26800 34.88000 32.47100
C  46.48000 36.43100 32.36200
C  47.07100 36.69000 30.93300
C  45.12200 37.08200 32.52400
C  47.61900 34.29400 33.04500
C  48.09500 34.71700 34.41400
H  47.21000 35.44400 35.40000
N  48.38200 37.21100 28.14800
C  48.29900 38.09600 29.17200
C  48.86000 39.33400 28.71400
C  49.34100 39.19900 27.39100
C  48.92000 37.83800 27.06000
C  48.85600 40.60700 29.59600
C  50.21800 40.10000 26.52600
O  50.48200 39.87800 25.32300
C  50.77400 41.35200 27.12500
N  48.28000 34.85000 26.20200
C  48.85500 35.84100 25.40200
C  49.36300 35.28400 24.13800
C  48.94300 33.77200 24.23300
C  48.30900 33.63200 25.61100
C  48.68500 36.05100 22.95400
C  49.95900 32.78200 23.75600
C  50.02000 32.55100 22.19900
N  46.80800 33.36900 28.03000
C  46.88700 32.33700 27.11600
C  46.21200 31.15600 27.52300
C  45.65300 31.57700 28.77900
C  46.14400 32.90000 29.07900
C  45.98000 29.86800 26.76800
C  44.80000 31.21600 29.88600
O  44.18000 30.16800 30.08600
C  44.80600 32.38700 30.96500
C  44.99700 31.72900 32.27800
O  45.89000 30.94900 32.52200
O  44.07000 32.18900 33.16900
C  44.14500 31.63700 34.54000
H  47.87900 38.61900 31.22300
H  49.60300 37.80000 24.99800
H  48.07000 31.56500 25.44900
H  45.35500 34.57200 32.98100
H  47.16100 36.88100 33.08500
H  44.81000 37.64700 31.64600
H  44.99600 37.72800 33.39300
H  44.34200 36.32300 32.45600
H  48.33100 34.67300 32.31100
H  47.55000 33.20700 33.09700
H  48.97300 35.33700 34.22800
H  48.51900 33.84600 34.91400
H  49.74100 40.73100 30.22200
H  47.96600 40.71900 30.21400
H  48.78500 41.49400 28.96700
H  50.88300 41.30300 28.20900
H  50.15600 42.17000 26.75500
H  51.78100 41.50700 26.73900
H  50.44300 35.40000 24.05400
H  48.00600 33.65000 23.69000
H  48.03700 35.41400 22.35200
H  49.60600 36.25300 22.40700
H  48.09700 36.91700 23.25700
H  49.93200 31.79000 24.20900
H  50.96400 33.14500 23.97400
H  50.84200 33.10900 21.74900
H  49.11700 32.73300 21.61600
H  50.15000 31.47200 22.11900
H  46.96000 29.52100 26.44000
H  45.29300 30.14000 25.96600
H  45.50200 29.13700 27.42000
H  43.85900 32.92600 30.95200
H  44.01800 32.49500 35.20000
H  45.17100 31.31500 34.71600
H  43.37800 30.88300 34.71700
Mg 42.64200 41.07900 26.06900
C  41.63300 43.50300 28.54800
C  43.54100 39.09400 28.73500
C  43.53400 39.02800 23.84500
C  41.78300 43.62700 23.57200
N  42.51800 41.26800 28.38300
C  42.01200 42.30600 29.16000
C  42.05200 42.00200 30.67600
C  42.87600 40.64500 30.65100
C  42.99300 40.31600 29.17700
C  44.18100 40.60400 31.43400
C  40.67500 41.93100 31.31800
C  40.75000 41.53900 32.84200
H  40.22500 42.56900 33.80300
N  43.52500 39.28600 26.21800
C  43.70800 38.62800 27.38800
C  44.23300 37.28800 26.95300
C  44.18600 37.25800 25.53200
C  43.79700 38.56300 25.11900
C  44.68400 36.18900 27.97400
C  44.52300 36.16500 24.56200
O  44.42300 36.24900 23.28400
C  44.94300 34.85200 25.12000
N  42.90700 41.39400 23.96200
C  43.09300 40.24500 23.25200
C  42.93100 40.51200 21.73700
C  42.15800 41.93100 21.77000
C  42.15900 42.33800 23.22800
C  44.23100 40.58300 20.80300
C  40.67900 41.78700 21.22900
C  39.79700 40.67000 21.79600
N  41.96300 43.17100 25.99400
C  41.68800 44.03200 24.95800
C  41.22100 45.30300 25.47900
C  41.14400 45.12500 26.86900
C  41.61700 43.80700 27.12300
C  40.88600 46.53400 24.61500
C  40.74500 45.79900 28.14000
O  40.28300 46.91500 28.32300
C  41.02800 44.71800 29.27100
C  41.79100 45.38000 30.38000
O  43.03100 45.56200 30.40700
O  40.93000 45.80200 31.32100
C  41.50400 46.29900 32.61200
H  44.01900 38.43900 29.46600
H  43.67100 38.37800 22.97900
H  41.45200 44.29000 22.77000
H  42.62400 42.72700 31.25500
H  42.16600 39.94500 31.09100
H  44.24400 41.39100 32.18500
H  45.11500 40.68400 30.87900
H  44.16200 39.69800 32.04100
H  39.92100 41.36000 30.77700
H  40.25300 42.93600 31.31000
H  41.78600 41.29500 33.07700
H  40.03800 40.72300 32.96200
H  44.46500 36.42500 29.01500
H  45.76000 36.01900 27.94600
H  44.27700 35.21100 27.71700
H  44.12000 34.21000 25.43600
H  45.69000 34.94200 25.90800
H  45.47900 34.45100 24.26000
H  42.20400 39.75300 21.44800
H  42.71000 42.68800 21.21200
H  43.90500 40.18100 19.84300
H  45.01300 39.86500 21.05100
H  44.65200 41.57900 20.66400
H  40.77400 41.56100 20.16700
H  40.27600 42.79100 21.36200
H  39.48000 39.95000 21.04200
H  38.89900 40.99200 22.32400
H  40.39300 40.12100 22.52500
H  41.82600 46.95700 24.26100
H  40.33500 47.25700 25.21700
H  40.20700 46.23700 23.81600
H  40.12200 44.36800 29.76700
H  42.26800 47.05700 32.43800
H  41.85100 45.52000 33.29000
H  40.71500 46.85200 33.12100

