158

Mg 47.91400 25.83100 28.38600
C  48.89800 27.85000 31.11400
C  47.07500 23.37200 30.66600
C  46.90900 23.83000 25.82800
C  49.00100 28.16900 26.26500
N  47.95400 25.69000 30.59700
C  48.31300 26.63400 31.52600
C  47.88200 26.25500 32.89200
C  47.43600 24.78400 32.73900
C  47.50900 24.62000 31.23900
C  48.13400 23.59500 33.46800
C  46.78600 27.25000 33.57800
C  47.16700 27.66300 35.03900
H  46.05000 28.05300 35.95900
N  47.11700 23.90500 28.26300
C  46.93500 23.06800 29.30700
C  46.58500 21.73100 28.81000
C  46.33500 21.88100 27.40400
C  46.72200 23.29600 27.11600
C  46.72300 20.47000 29.69000
C  45.92300 20.93700 26.32900
O  45.56400 21.24200 25.21900
C  45.94900 19.45600 26.60900
N  47.89900 25.98200 26.37400
C  47.37500 25.07400 25.46900
C  47.64900 25.43400 24.00400
C  48.37000 26.77700 24.22600
C  48.43300 27.01200 25.74700
C  48.56300 24.43700 23.21900
C  47.58300 28.03400 23.55000
C  48.40100 28.85400 22.63400
N  48.81000 27.68600 28.50900
C  49.22400 28.51300 27.58900
C  50.02200 29.56000 28.23000
C  49.79800 29.36500 29.59400
C  49.11300 28.21600 29.73100
C  50.74800 30.67900 27.64900
C  50.07800 29.98100 30.88300
O  50.60900 31.06100 31.08400
C  49.35600 29.03300 31.98300
C  50.24200 28.61300 32.97600
O  50.78800 27.52300 32.93700
O  50.43200 29.57700 33.94100
C  51.34500 29.24400 35.00800
H  46.89800 22.53900 31.35000
H  46.56800 23.27900 24.94900
H  49.42700 28.84500 25.52100
H  48.81300 26.07200 33.42900
H  46.39200 24.66300 33.02800
H  48.88400 24.03100 34.12700
H  48.75500 23.04400 32.76100
H  47.45200 22.93000 33.99700
H  45.78600 26.81700 33.55300
H  46.70900 28.08200 32.87800
H  47.86700 28.49900 35.04400
H  47.67100 26.78700 35.44700
H  47.15400 20.73600 30.65500
H  47.30400 19.67600 29.22100
H  45.75200 20.17900 30.09000
H  45.56300 19.34800 27.62200
H  46.98500 19.12500 26.54400
H  45.39700 18.77200 25.96400
H  46.66700 25.56200 23.54900
H  49.37300 26.74200 23.80000
H  48.95800 23.58600 23.77400
H  49.46900 24.83100 22.75900
H  47.94700 23.99100 22.43800
H  47.11500 28.65700 24.31200
H  46.71400 27.61400 23.04300
H  49.35800 28.37000 22.43900
H  48.57500 29.82900 23.08900
H  47.84000 28.97900 21.70700
H  51.73600 30.22600 27.56000
H  50.75900 31.59700 28.23500
H  50.30400 30.97100 26.69700
H  48.57600 29.61700 32.47300
H  50.92200 28.46300 35.64100
H  51.62900 30.05200 35.68200
H  52.26100 28.88100 34.54100
Mg 26.88300 49.27000 26.33900
C  24.91000 50.62100 28.99300
C  29.20600 48.31200 28.74700
C  29.03900 48.71200 23.91600
C  24.60700 50.82400 24.05000
N  27.04500 49.53800 28.60600
C  26.08100 49.94500 29.47000
C  26.44700 49.62800 30.85900
C  27.94100 49.10500 30.83700
C  28.07900 48.88500 29.27900
C  28.94400 50.16900 31.38300
C  25.42700 48.54900 31.47600
C  24.80800 48.78500 32.86500
H  25.61700 49.54200 33.96700
N  28.88200 48.54800 26.30400
C  29.61400 48.10700 27.36600
C  30.88000 47.53500 26.87300
C  30.85300 47.68100 25.42200
C  29.57400 48.31000 25.11700
C  31.95900 46.96500 27.68400
C  31.89800 47.37400 24.29200
O  31.80300 47.60700 23.11500
C  33.28000 46.92000 24.69100
N  26.86300 49.76600 24.28300
C  27.83800 49.24600 23.51800
C  27.51000 49.35500 22.03100
C  26.02800 50.03300 22.08000
C  25.76400 50.17000 23.54400
C  28.57700 50.17300 21.21600
C  25.02300 49.05400 21.32300
C  24.79400 49.16700 19.75800
N  25.07600 50.39700 26.46900
C  24.33300 51.04800 25.43900
C  23.32700 51.85200 26.09300
C  23.47600 51.66400 27.49800
C  24.61900 50.79300 27.60600
C  22.34600 52.72700 25.40500
C  22.91600 52.02400 28.82500
O  21.98700 52.73300 29.22000
C  23.90100 51.39200 29.81000
C  24.51300 52.48300 30.63800
O  25.27800 53.39900 30.28800
O  23.99700 52.43700 31.92600
C  24.37200 53.52300 32.82800
H  29.98900 47.89300 29.38200
H  29.65900 48.43000 23.06100
H  24.01100 51.40900 23.34700
H  26.44000 50.50600 31.50500
H  28.09200 48.18100 31.39500
H  29.97800 49.86600 31.21900
H  28.84300 50.23600 32.46600
H  28.66000 51.12600 30.94500
H  25.95900 47.60000 31.54700
H  24.63700 48.45400 30.73200
H  24.55400 47.77200 33.17700
H  23.87500 49.30800 32.65100
H  31.90300 47.16200 28.75400
H  32.89900 47.25000 27.21100
H  31.88500 45.90100 27.45900
H  33.11700 46.06000 25.34100
H  33.84100 47.65900 25.26300
H  33.85200 46.67200 23.79600
H  27.43900 48.35600 21.60000
H  25.98300 50.99900 21.57500
H  28.73400 51.03000 21.87100
H  28.11100 50.42500 20.26400
H  29.53100 49.65800 21.10400
H  23.99300 49.13000 21.67000
H  25.33600 48.03500 21.54900
H  24.69800 48.18700 19.29100
H  25.46800 49.80900 19.19100
H  23.82100 49.60400 19.53200
H  21.64000 52.07600 24.88900
H  22.87000 53.27600 24.62200
H  21.78100 53.46100 25.97900
H  23.39600 50.67100 30.45300
H  23.68300 53.67200 33.66000
H  24.46200 54.45100 32.26400
H  25.32700 53.26500 33.28500

