158

Mg 2.19200 -1.43000 44.14600
C  5.50900 -0.53500 43.36100
C  1.14000 1.35900 42.31300
C  -0.86400 -2.70100 44.17500
C  3.49800 -4.48000 45.55900
N  3.20800 0.19100 42.94900
C  4.53600 0.39500 42.83000
C  4.90800 1.63000 41.95100
C  3.44000 2.39200 41.84100
C  2.56300 1.25100 42.39900
C  3.39900 3.75800 42.51300
C  5.60400 1.16200 40.60700
C  6.69000 2.11700 40.11400
H  6.49600 2.94600 38.83000
N  0.39000 -0.71200 43.52600
C  0.14300 0.44200 42.77000
C  -1.23800 0.62900 42.59700
C  -1.87700 -0.42800 43.29000
C  -0.79000 -1.38500 43.72100
C  -1.94800 1.85100 41.90700
C  -3.34100 -0.59100 43.51500
O  -4.19300 0.19200 43.12200
C  -3.84500 -1.82300 44.19600
N  1.40200 -3.35300 44.81600
C  0.08500 -3.57800 44.64400
C  -0.25900 -5.05200 44.94900
C  1.11500 -5.48000 45.74200
C  2.06600 -4.41600 45.36300
C  -1.52200 -5.30400 45.79800
C  1.65300 -6.92700 45.39200
C  1.68100 -7.89000 46.58400
N  4.08500 -2.32300 44.47800
C  4.47200 -3.56900 45.03900
C  5.92400 -3.73500 45.00400
C  6.32600 -2.51300 44.49100
C  5.20700 -1.79100 44.08900
C  6.74600 -4.97400 45.41900
C  7.48200 -1.73700 44.10400
O  8.63100 -2.13800 44.22100
C  7.02700 -0.43700 43.43000
C  7.47800 0.78000 44.09200
O  6.98700 1.27700 45.08700
O  8.44000 1.45300 43.30000
C  8.75600 2.83200 43.62600
H  0.82800 2.22900 41.73000
H  -1.81600 -3.19800 43.97700
H  3.85000 -5.42200 45.98500
H  5.61800 2.14500 42.59700
H  3.23300 2.52000 40.77800
H  2.47000 3.89500 43.06600
H  3.32300 4.52700 41.74400
H  4.23600 4.06800 43.13800
H  4.82700 1.01300 39.85800
H  6.06400 0.18200 40.73500
H  7.53200 1.44100 39.96300
H  7.07700 2.72500 40.93200
H  -1.46100 2.42800 41.12000
H  -2.39800 2.39200 42.73900
H  -2.80000 1.43100 41.37200
H  -4.78400 -1.54600 44.67500
H  -3.19500 -2.12100 45.01900
H  -3.97700 -2.65300 43.50200
H  -0.17100 -5.64900 44.04200
H  0.92000 -5.27500 46.79400
H  -1.19900 -5.65500 46.77800
H  -2.18100 -5.98300 45.25700
H  -2.03700 -4.36600 46.00900
H  2.59000 -7.05700 44.85100
H  0.82400 -7.28600 44.78200
H  0.82500 -8.55900 46.48400
H  1.40900 -7.33700 47.48200
H  2.68300 -8.31400 46.63300
H  6.63000 -5.57000 44.51300
H  6.26900 -5.42600 46.28900
H  7.78600 -4.71700 45.61900
H  7.54100 -0.55300 42.47500
H  8.06800 3.52600 43.14300
H  9.76800 3.06400 43.29500
H  8.80500 2.99800 44.70200
Mg 26.74000 49.29100 26.51900
C  24.72200 50.81300 28.97800
C  28.88400 48.42100 29.02900
C  28.74900 48.25100 24.18000
C  24.56700 50.86400 24.13800
N  26.80200 49.69500 28.66700
C  25.79100 50.10100 29.43000
C  25.97600 49.93700 30.96800
C  27.38800 49.33100 30.95300
C  27.70800 49.07800 29.44500
C  28.58300 50.09800 31.59500
C  24.86200 49.00600 31.60000
C  24.09300 49.47700 32.89000
H  23.93500 48.48800 34.06400
N  28.58800 48.34100 26.63000
C  29.32800 48.05700 27.73300
C  30.59000 47.41400 27.31000
C  30.52900 47.34500 25.86400
C  29.28300 48.01900 25.46400
C  31.64000 46.89300 28.21900
C  31.54300 46.78100 24.95200
O  31.39400 46.88900 23.74800
C  32.76600 46.00600 25.41700
N  26.62200 49.49000 24.43700
C  27.68700 48.95700 23.71000
C  27.50200 49.25200 22.21500
C  26.05300 49.83500 22.20900
C  25.67800 50.09700 23.66700
C  28.51800 50.27300 21.57300
C  25.06600 48.90100 21.53500
C  24.14200 47.98000 22.37800
N  25.03400 50.64100 26.47000
C  24.32500 51.19300 25.48800
C  23.24800 52.03600 26.03600
C  23.30800 51.74200 27.41700
C  24.43700 51.00900 27.62200
C  22.17200 52.86900 25.28300
C  22.65100 52.04000 28.67300
O  21.59400 52.68300 28.89900
C  23.52200 51.38500 29.74800
C  23.99400 52.44600 30.73200
O  24.79100 53.32300 30.52100
O  23.36600 52.26800 31.93700
C  23.56800 53.33800 32.91200
H  29.60200 48.13500 29.80100
H  29.22300 47.78800 23.31200
H  23.76500 51.19800 23.47700
H  25.99900 50.92900 31.42000
H  27.29100 48.36000 31.43700
H  29.42000 50.46400 31.00000
H  29.15500 49.53000 32.32900
H  28.21000 50.97300 32.12700
H  25.42100 48.09500 31.81300
H  24.20600 48.80900 30.75200
H  23.11800 49.88300 32.62000
H  24.67600 50.29300 33.31800
H  31.85500 45.82400 28.22500
H  31.37700 47.11400 29.25400
H  32.51800 47.49000 27.97600
H  33.41300 46.79500 25.80200
H  33.18500 45.58400 24.50300
H  32.65200 45.20800 26.15000
H  27.60500 48.27200 21.75000
H  26.06300 50.82400 21.75200
H  29.28000 50.45000 22.33200
H  27.88300 51.07600 21.19600
H  28.95500 49.75200 20.72100
H  25.54000 48.31400 20.74800
H  24.37000 49.55600 21.01100
H  24.48200 47.70300 23.37500
H  24.22000 47.04400 21.82500
H  23.14100 48.41100 22.36400
H  21.98500 53.73600 25.91700
H  21.29900 52.25000 25.07700
H  22.62700 53.30100 24.39200
H  22.98000 50.58100 30.24700
H  23.46500 54.35600 32.53500
H  24.56600 53.21800 33.33400
H  22.85500 53.18400 33.72200

