158

Mg 47.34600 25.95000 28.95100
C  48.80000 28.00400 31.53500
C  46.33500 23.77700 31.35900
C  46.78200 23.60900 26.60900
C  48.87900 28.00300 26.59500
N  47.57800 25.89900 31.24200
C  48.10800 26.90500 32.04700
C  47.89300 26.54000 33.49300
C  47.00500 25.28200 33.36100
C  46.98300 24.90400 31.91800
C  47.32300 23.97200 34.16400
C  47.19300 27.71400 34.31100
C  46.28200 27.38600 35.52300
H  46.85900 27.59900 36.94500
N  46.49900 24.01900 28.94600
C  46.18900 23.28000 30.02900
C  45.55800 21.99200 29.63500
C  45.58500 22.05000 28.19900
C  46.33100 23.26600 27.83300
C  44.85400 21.02300 30.55900
C  44.94700 21.00600 27.12700
O  45.04400 21.08000 25.90700
C  44.29900 19.72000 27.65600
N  47.92600 25.78400 26.94600
C  47.47400 24.76400 26.18300
C  47.79300 25.05000 24.70200
C  47.81800 26.59700 24.68700
C  48.37300 26.79500 26.14900
C  49.08100 24.33600 24.19900
C  46.40600 27.17200 24.56000
C  46.22400 28.05800 23.26700
N  48.55900 27.69400 28.99200
C  49.08900 28.41100 27.95300
C  49.78500 29.56600 28.46900
C  49.65800 29.46000 29.86000
C  48.91900 28.30300 30.12700
C  50.49400 30.50400 27.63000
C  50.06400 30.08100 31.14800
O  50.78300 31.07200 31.34600
C  49.40200 29.15300 32.28900
C  50.44900 28.75000 33.18800
O  51.36500 28.03000 32.87600
O  50.17400 29.23000 34.43500
C  50.92600 28.51200 35.47500
H  45.78400 23.14700 32.06100
H  46.56700 22.86200 25.84200
H  49.00400 28.70800 25.77000
H  48.81500 26.19200 33.96000
H  45.95900 25.53400 33.53100
H  48.02100 24.21800 34.96500
H  47.94500 23.25600 33.62900
H  46.46600 23.41000 34.53700
H  46.73800 28.46200 33.66100
H  48.01400 28.25700 34.78000
H  45.87700 26.37800 35.62100
H  45.37200 27.96300 35.36000
H  43.79600 20.96100 30.30400
H  44.80400 21.39700 31.58100
H  45.12800 19.96900 30.49900
H  45.06300 19.00600 27.96200
H  43.65300 19.25800 26.90900
H  43.74100 20.05400 28.53000
H  47.01900 24.74700 23.99700
H  48.52700 27.02200 23.97600
H  49.44700 23.69000 24.99700
H  49.75000 25.06900 23.74900
H  48.90800 23.68000 23.34600
H  46.30400 27.79600 25.44800
H  45.68900 26.37000 24.73700
H  45.14100 28.14400 23.17800
H  46.59900 27.55200 22.37700
H  46.59600 29.07500 23.39000
H  49.95700 31.45200 27.60300
H  50.71000 30.09700 26.64200
H  51.46100 30.79800 28.03900
H  48.56300 29.58100 32.83900
H  51.27500 27.54100 35.12400
H  50.26500 28.36900 36.33000
H  51.67200 29.21800 35.84200
Mg 30.10600 57.71600 40.67000
C  27.72300 55.39000 39.50800
C  32.48200 55.62700 39.19200
C  32.42700 60.20800 40.97000
C  27.56000 59.97800 41.42800
N  30.03100 55.74200 39.56300
C  29.01500 54.91200 39.20700
C  29.49100 53.68800 38.36800
C  30.93400 53.59200 38.75600
C  31.17500 55.03800 39.19500
C  31.40200 52.54200 39.82900
C  29.26100 54.02800 36.85200
C  28.54200 52.92900 36.12100
H  27.37100 53.48500 35.27100
N  32.16600 57.90700 40.17200
C  32.91900 56.85700 39.65300
C  34.28800 57.27500 39.65100
C  34.37800 58.65700 40.12700
C  32.95500 58.97600 40.46000
C  35.39300 56.36500 39.16700
C  35.65400 59.40600 40.32000
O  36.73500 58.91500 39.95300
C  35.66600 60.68800 41.12000
N  30.03000 59.76400 41.22100
C  31.06700 60.60400 41.28100
C  30.65200 62.02400 41.79500
C  29.13300 61.91800 41.97300
C  28.88100 60.45400 41.53100
C  31.36300 62.62100 43.02300
C  28.23400 62.94400 41.20000
C  27.37300 63.84900 42.12700
N  28.13200 57.68000 40.67300
C  27.22600 58.61800 41.04800
C  25.88800 58.12800 40.95500
C  26.06700 56.88200 40.33100
C  27.43600 56.60900 40.16900
C  24.60200 58.87000 41.29700
C  25.31500 55.67300 39.93000
O  24.12300 55.40200 40.04100
C  26.38300 54.65200 39.32500
C  26.30800 53.39800 40.09800
O  26.66700 53.17300 41.25300
O  25.61400 52.52600 39.31200
C  25.45900 51.18100 39.93400
H  33.20000 54.86000 38.89400
H  33.16600 61.00600 41.06900
H  26.82800 60.64100 41.89200
H  28.96600 52.86000 38.84600
H  31.60200 53.38300 37.92000
H  32.01000 51.75300 39.38700
H  30.55500 52.06200 40.32000
H  31.98700 53.03500 40.60500
H  30.19400 54.06400 36.28900
H  28.78000 55.00400 36.78500
H  28.20600 52.15000 36.80400
H  29.26100 52.48600 35.43200
H  35.98500 56.86700 38.40200
H  35.08100 55.40300 38.76100
H  36.09600 56.07700 39.94800
H  35.43000 61.52800 40.46700
H  36.66700 60.84900 41.52000
H  35.01100 60.62600 41.98900
H  30.87800 62.69100 40.96300
H  28.99500 61.96400 43.05300
H  32.11000 61.88500 43.32300
H  30.72100 62.87100 43.86700
H  31.85400 63.53600 42.69100
H  27.52000 62.42500 40.56100
H  28.77600 63.51000 40.44200
H  27.64400 64.90000 42.03100
H  27.44000 63.46300 43.14400
H  26.34000 63.60500 41.88000
H  24.16000 59.41100 40.46100
H  24.63700 59.60800 42.09800
H  23.92800 58.05500 41.56100
H  26.22800 54.52900 38.25300
H  26.45900 50.80400 40.14900
H  24.94800 50.60000 39.16500
H  24.93400 51.22100 40.88800

