158

Mg 0.07400 7.43400 26.21300
C  1.18100 9.59900 28.68200
C  -0.01300 5.05000 28.59000
C  -0.48300 5.21900 23.79900
C  0.88100 9.95000 23.75700
N  0.65900 7.35100 28.38400
C  0.80200 8.34100 29.23200
C  0.67000 7.91700 30.67500
C  0.74100 6.40800 30.56700
C  0.44700 6.24800 29.08600
C  2.12700 5.82100 31.01300
C  -0.70700 8.51400 31.20900
C  -0.82700 8.31900 32.67400
H  0.40700 8.03100 33.63500
N  -0.36100 5.46300 26.24300
C  -0.37500 4.60500 27.34500
C  -0.79700 3.33000 26.96000
C  -1.00600 3.33400 25.48800
C  -0.60400 4.69100 25.07200
C  -0.83600 2.16800 27.98800
C  -1.45500 2.24800 24.53800
O  -1.35900 2.30400 23.35400
C  -1.99700 0.95300 25.00700
N  0.18300 7.57800 24.05600
C  -0.22000 6.51700 23.32300
C  -0.07100 6.87000 21.86200
C  0.14600 8.37300 21.90500
C  0.51400 8.70200 23.30200
C  1.06000 6.06400 21.08800
C  -1.16800 9.17600 21.42900
C  -0.99400 10.06400 20.20900
N  0.95300 9.35200 26.17700
C  1.16500 10.23100 25.15200
C  1.62000 11.43400 25.69600
C  1.60500 11.26000 27.10700
C  1.26600 9.96700 27.32000
C  1.86900 12.78000 24.96300
C  1.78500 11.87800 28.40200
O  2.11800 13.05600 28.71800
C  1.48400 10.80100 29.47200
C  2.65200 10.70400 30.40100
O  3.64800 10.05000 30.25700
O  2.42300 11.60900 31.44800
C  3.42100 11.43200 32.48900
H  0.06000 4.25000 29.33000
H  -0.78600 4.58500 22.96300
H  1.05700 10.69700 22.98000
H  1.52400 8.39600 31.15500
H  -0.06700 5.96600 31.14900
H  2.88300 6.57700 31.22500
H  2.46100 5.17700 30.19900
H  1.93600 5.19600 31.88500
H  -1.50500 7.98500 30.68900
H  -0.77700 9.57200 30.95600
H  -1.59000 7.63000 33.03900
H  -1.26700 9.23500 33.06800
H  -1.22100 1.16300 27.81400
H  -1.49500 2.52400 28.77900
H  0.15100 2.17800 28.45200
H  -2.59700 0.54800 24.19200
H  -2.58800 1.14100 25.90400
H  -1.17400 0.30500 25.30800
H  -0.95300 6.55300 21.30600
H  0.88500 8.73300 21.19000
H  1.74500 6.85400 20.78100
H  0.71000 5.62400 20.15400
H  1.57000 5.44700 21.82800
H  -1.52600 9.90000 22.16100
H  -2.04300 8.55700 21.22900
H  -1.86500 9.96700 19.56100
H  -0.09400 9.91600 19.61300
H  -0.90900 11.07500 20.60800
H  2.58500 12.70500 24.14400
H  2.22700 13.53800 25.66000
H  0.91200 13.13700 24.58300
H  0.55600 11.05400 29.98400
H  3.36000 10.54800 33.12400
H  3.13700 12.25800 33.14100
H  4.43400 11.62700 32.13500
Mg 8.02600 2.43200 27.93200
C  9.34000 1.24300 31.00500
C  6.21800 4.68700 29.77000
C  6.66100 3.27300 25.10300
C  9.79600 -0.10900 26.29500
N  7.46100 2.72400 30.26400
C  8.35800 2.29800 31.26100
C  8.07300 2.98600 32.62000
C  6.84400 3.93400 32.28300
C  6.80200 3.83000 30.67700
C  5.38700 3.63000 32.92200
C  9.30800 3.77500 33.09100
C  9.13000 4.74500 34.22900
H  10.09800 4.60100 35.42300
N  6.59900 3.79700 27.48400
C  5.95500 4.64900 28.37900
C  4.98100 5.44100 27.60000
C  5.16900 5.08400 26.20900
C  6.15500 3.97200 26.21700
C  4.13400 6.47000 28.28100
C  4.48200 5.57300 24.95800
O  4.70000 5.25100 23.78800
C  3.34800 6.54300 25.13400
N  8.13500 1.66400 25.88700
C  7.48300 2.20100 24.89700
C  7.77400 1.55500 23.53800
C  9.04500 0.68900 23.82000
C  9.04500 0.75800 25.44000
C  6.49200 0.78900 23.20100
C  10.37000 1.27800 23.20400
C  11.24600 2.14100 24.11700
N  9.23400 0.90800 28.45400
C  9.89100 -0.02600 27.67700
C  10.88500 -0.78200 28.46600
C  10.71500 -0.31900 29.78700
C  9.67600 0.65800 29.73500
C  11.86500 -1.84600 27.96300
C  11.14900 -0.46300 31.06200
O  11.95500 -1.28600 31.48500
C  10.28700 0.53600 31.97300
C  9.78000 -0.21800 33.15200
O  9.36700 -1.36100 33.14100
O  9.78100 0.57800 34.26700
C  9.04000 0.02800 35.42300
H  5.87700 5.55700 30.33500
H  6.31100 3.58600 24.11700
H  10.53500 -0.76800 25.83700
H  7.72800 2.22100 33.31600
H  7.12100 4.97600 32.43800
H  4.71400 3.34000 32.11600
H  5.07000 4.42900 33.59200
H  5.43000 2.88900 33.72000
H  9.75300 4.33100 32.26500
H  10.19600 3.20500 33.36500
H  8.11100 4.67300 34.61100
H  9.20700 5.67600 33.66900
H  4.31400 7.42800 27.79400
H  4.29600 6.50900 29.35800
H  3.07700 6.25900 28.12300
H  2.75300 6.59400 24.22200
H  3.66600 7.56200 25.35200
H  2.75000 6.14200 25.95200
H  7.86300 2.27100 22.72200
H  8.84200 -0.27500 23.35400
H  5.77400 0.90200 24.01300
H  6.48100 -0.28100 22.99600
H  6.10100 1.32100 22.33400
H  10.08700 2.00600 22.44400
H  10.93000 0.48900 22.70200
H  11.60000 2.89900 23.41800
H  12.07400 1.50400 24.42900
H  10.78400 2.46900 25.04800
H  11.28100 -2.66600 27.54500
H  12.50000 -2.21500 28.76900
H  12.53900 -1.55600 27.15800
H  11.00900 1.24600 32.37700
H  7.95200 0.08900 35.40100
H  9.55900 0.62900 36.16900
H  9.39400 -1.00100 35.48400

