158

Mg 53.35600 24.25700 43.94600
C  50.56400 26.45100 43.50700
C  51.23000 21.51000 43.06700
C  56.01000 22.34500 43.79600
C  55.24500 27.03400 44.82600
N  51.13500 24.06100 42.98500
C  50.24400 25.11600 43.09200
C  48.79600 24.51600 42.85800
C  49.01300 22.95100 43.05900
C  50.54600 22.82000 43.02100
C  48.26800 22.31900 44.30100
C  48.12200 24.81500 41.49400
C  49.01900 24.85000 40.16600
H  48.34300 24.16200 38.93800
N  53.60700 22.25400 43.51400
C  52.63600 21.26800 43.22400
C  53.21300 19.97200 43.24800
C  54.59800 20.14800 43.50400
C  54.80600 21.60400 43.56200
C  52.41800 18.68500 42.99900
C  55.70200 19.02700 43.61900
O  55.32400 17.80500 43.41900
C  57.12100 19.24700 43.90600
N  55.36400 24.60500 44.10400
C  56.32500 23.65500 43.95400
C  57.71200 24.30600 44.21400
C  57.45300 25.86900 44.31700
C  55.95200 25.89300 44.46800
C  58.41700 23.72900 45.47000
C  57.83200 26.80900 43.07100
C  58.59600 28.02300 43.44400
N  53.00800 26.28500 44.23100
C  53.88800 27.27100 44.61700
C  53.14500 28.48900 44.81200
C  51.84000 28.17500 44.49300
C  51.80900 26.84500 44.08200
C  53.84500 29.66600 45.16200
C  50.49200 28.74800 44.36500
O  50.17700 29.87000 44.62800
C  49.64200 27.61000 43.74500
C  49.07800 28.15300 42.45000
O  49.75700 28.49800 41.47900
O  47.72500 28.06500 42.56000
C  46.90200 28.45300 41.32300
H  50.57300 20.64200 43.15200
H  56.92100 21.74300 43.81500
H  55.88700 27.91300 44.91200
H  48.03300 24.88300 43.54400
H  48.64400 22.38800 42.20100
H  47.34700 21.86400 43.93500
H  48.06900 23.12300 45.01000
H  48.87500 21.52800 44.74300
H  47.55700 25.74700 41.49100
H  47.44400 23.99900 41.24100
H  49.98700 24.41400 40.41200
H  49.25100 25.88400 39.91400
H  52.86800 18.17200 42.14900
H  51.36900 18.82900 42.73900
H  52.40300 17.88300 43.73700
H  57.69600 19.72400 43.11300
H  57.52800 18.26100 44.12800
H  57.20700 19.78600 44.85000
H  58.39300 24.10300 43.38700
H  57.94800 26.19700 45.23200
H  59.43300 23.36400 45.32100
H  57.82700 22.88000 45.81700
H  58.30300 24.35000 46.35800
H  56.90300 27.07000 42.56300
H  58.37900 26.24200 42.31800
H  59.64500 27.95000 43.15500
H  58.59100 28.26000 44.50800
H  58.08200 28.85400 42.96200
H  54.39900 29.40400 46.06300
H  53.12200 30.42100 45.47300
H  54.65400 29.92200 44.47800
H  48.91300 27.27900 44.48500
H  46.89400 27.63700 40.60100
H  47.43400 29.29000 40.87300
H  45.85900 28.74900 41.43700
Mg -2.73500 34.50800 26.79500
C  -3.45700 32.63900 29.64700
C  -1.03000 36.77600 28.77500
C  -2.31000 36.52700 24.03400
C  -4.41000 32.27000 24.85100
N  -2.43700 34.70800 28.95900
C  -2.75700 33.82700 29.96800
C  -2.24100 34.29300 31.36400
C  -1.60400 35.69000 31.05500
C  -1.69500 35.76200 29.52800
C  -2.15200 36.88800 31.80100
C  -1.25700 33.20500 32.00000
C  -1.73600 32.59500 33.34500
H  -0.85100 32.67300 34.59200
N  -1.75400 36.38800 26.52600
C  -1.03800 37.11700 27.41300
C  -0.35900 38.19600 26.75100
C  -0.74800 38.17800 25.41300
C  -1.63300 36.99400 25.25700
C  0.65900 39.04200 27.47200
C  -0.43900 39.18500 24.29900
O  -0.82000 38.99200 23.16200
C  0.22700 40.49700 24.57700
N  -3.34200 34.47100 24.75200
C  -3.04000 35.37100 23.89800
C  -3.47600 34.87900 22.47600
C  -3.83700 33.39500 22.63900
C  -3.79300 33.29300 24.14000
C  -4.62600 35.79700 21.95900
C  -2.98500 32.35700 21.91100
C  -3.36500 30.87100 21.82300
N  -3.81000 32.83800 27.15100
C  -4.44100 31.97200 26.24600
C  -5.04200 30.86200 26.99200
C  -4.64000 31.01800 28.31100
C  -3.88600 32.24800 28.37300
C  -5.86700 29.83200 26.41500
C  -4.70900 30.45700 29.60400
O  -5.27700 29.47000 30.01500
C  -4.04300 31.53400 30.54800
C  -5.10500 32.10800 31.47000
O  -5.95000 32.93600 31.13200
O  -4.98900 31.53100 32.69600
C  -5.91600 32.02000 33.75300
H  -0.52700 37.46000 29.46300
H  -2.13400 37.12000 23.13400
H  -4.89100 31.54700 24.18800
H  -3.06900 34.49500 32.04400
H  -0.54900 35.50600 31.26100
H  -2.80900 36.53800 32.59800
H  -2.52900 37.68400 31.15900
H  -1.30800 37.39500 32.26800
H  -0.27400 33.64500 32.16700
H  -1.09900 32.41700 31.26300
H  -1.89200 31.52700 33.19200
H  -2.68300 33.09200 33.55300
H  0.71000 38.67400 28.49700
H  0.47500 40.11500 27.42600
H  1.54500 38.84700 26.86800
H  1.31200 40.46800 24.67200
H  -0.27000 40.79300 25.50100
H  -0.07900 41.24500 23.84600
H  -2.70100 35.12300 21.74900
H  -4.88100 33.21600 22.38300
H  -5.31100 36.21400 22.69700
H  -5.31200 35.08100 21.50600
H  -4.34400 36.48500 21.16200
H  -1.98300 32.34900 22.34100
H  -2.80400 32.53700 20.85200
H  -4.33700 30.73900 22.29800
H  -2.57800 30.32900 22.34700
H  -3.36500 30.50800 20.79600
H  -6.02800 30.16800 25.39100
H  -6.77900 29.82900 27.01200
H  -5.42900 28.83700 26.49200
H  -3.22800 31.06400 31.09800
H  -6.66700 32.75100 33.45400
H  -5.39500 32.65400 34.47100
H  -6.46900 31.16800 34.14900

