158

Mg 47.50400 14.71700 27.90300
C  45.37900 15.12500 30.57800
C  49.58900 17.07900 29.23800
C  49.18000 14.75100 25.06000
C  44.90500 12.90200 26.31500
N  47.36100 16.09300 29.67500
C  46.51900 15.92700 30.74800
C  47.09200 16.51300 32.03100
C  48.17100 17.43100 31.43400
C  48.42600 16.92100 29.98500
C  47.85600 18.93100 31.49100
C  47.54100 15.55700 33.09300
C  47.20500 15.98200 34.53500
H  48.40000 16.47000 35.34300
N  49.21600 15.65500 27.30900
C  49.93000 16.54300 28.01200
C  51.33200 16.67500 27.44000
C  51.20100 16.05600 26.10800
C  49.80200 15.45800 26.11000
C  52.54200 17.31200 28.17900
C  52.20600 16.03300 24.94500
O  51.97000 15.52900 23.87700
C  53.46200 16.85000 25.05200
N  47.07900 14.03200 26.05400
C  47.91700 14.18500 25.03500
C  47.45600 13.51100 23.74100
C  46.18900 12.72900 24.20100
C  46.00700 13.28000 25.58800
C  47.10100 14.42100 22.50500
C  46.47100 11.22300 24.14900
C  47.38900 10.53000 25.17400
N  45.50900 14.07200 28.34200
C  44.59200 13.26300 27.67500
C  43.48700 12.96700 28.53600
C  43.82600 13.61300 29.74300
C  45.00700 14.33300 29.53500
C  42.30500 12.11100 28.20700
C  43.29100 13.82600 31.07500
O  42.25000 13.45300 31.61800
C  44.35600 14.86500 31.68400
C  43.59700 16.10300 32.08700
O  43.31100 17.05800 31.38200
O  43.10000 15.93300 33.31000
C  42.47300 17.01300 33.99800
H  50.42900 17.59500 29.70800
H  49.67900 14.76100 24.08900
H  44.17300 12.26400 25.81600
H  46.27500 17.08500 32.47100
H  49.09700 17.29100 31.99000
H  47.68000 19.27500 30.47100
H  48.74800 19.45300 31.83700
H  46.98500 19.14600 32.11100
H  48.62200 15.41400 33.07400
H  47.12600 14.58200 32.83600
H  46.62400 15.23700 35.07800
H  46.63300 16.91000 34.54800
H  53.43800 16.77000 27.87800
H  52.25700 17.02100 29.18900
H  52.56300 18.40200 28.18600
H  54.07400 16.42700 25.84900
H  53.22700 17.89500 25.25500
H  53.93700 16.83900 24.07100
H  48.33300 12.94000 23.43700
H  45.27900 12.92600 23.63400
H  46.22600 13.97100 22.03500
H  47.96800 14.57800 21.86400
H  46.85000 15.32000 23.06800
H  46.82500 10.99700 23.14400
H  45.49300 10.75200 24.24700
H  47.66100 11.03000 26.10400
H  48.31800 10.17200 24.73000
H  46.85900 9.66200 25.56500
H  41.40100 12.65900 27.94100
H  42.03600 11.49200 29.06300
H  42.56100 11.57600 27.29300
H  44.72700 14.30600 32.54300
H  42.84000 17.98700 33.67500
H  42.76000 16.80000 35.02800
H  41.38700 16.92000 34.03000
Mg -10.54900 16.24400 43.66800
C  -7.14700 16.66100 43.59800
C  -10.89300 19.68000 42.88700
C  -13.84100 15.79900 42.85000
C  -10.04700 12.75700 43.67600
N  -9.19400 17.94100 43.15900
C  -7.84700 17.84700 43.40400
C  -7.27200 19.31500 43.26400
C  -8.48900 20.12000 43.68000
C  -9.58700 19.17800 43.17800
C  -8.64500 20.38700 45.24300
C  -6.85800 19.58000 41.79800
C  -5.41300 19.99100 41.60400
H  -5.25000 20.93100 40.42000
N  -12.21400 17.62600 43.00100
C  -12.12900 18.95500 42.70800
C  -13.39100 19.44300 42.31600
C  -14.30600 18.31500 42.27000
C  -13.41600 17.10800 42.70600
C  -13.67500 20.92900 42.00500
C  -15.71500 18.30000 41.84300
O  -16.33600 19.33500 41.57400
C  -16.51800 16.91600 41.57600
N  -11.71500 14.49500 43.25200
C  -13.09200 14.61100 43.09400
C  -13.71900 13.15500 43.25600
C  -12.49700 12.19800 43.15200
C  -11.33100 13.21400 43.39100
C  -14.61700 12.93100 44.48000
C  -12.18800 11.76700 41.68400
C  -12.80700 10.41400 41.29600
N  -8.92200 14.95200 43.81800
C  -8.86100 13.59300 43.77600
C  -7.48000 13.11700 43.91100
C  -6.74100 14.31500 43.96800
C  -7.71100 15.40300 43.82400
C  -7.15300 11.70500 44.01000
C  -5.42800 14.91200 43.95800
O  -4.29800 14.43000 44.00300
C  -5.65000 16.45800 43.85800
C  -5.31500 16.95800 45.21500
O  -5.89000 16.78400 46.31200
O  -4.04600 17.50300 45.15200
C  -3.55600 18.18000 46.42700
H  -11.04400 20.75200 42.74000
H  -14.89500 15.57200 42.67800
H  -9.95700 11.66900 43.69100
H  -6.37500 19.53200 43.84300
H  -8.55600 21.11000 43.23000
H  -9.27600 19.68200 45.78300
H  -9.09100 21.38000 45.30400
H  -7.67100 20.59300 45.68800
H  -7.44900 20.38500 41.36000
H  -7.02400 18.66800 41.22400
H  -4.83100 19.07900 41.46900
H  -5.04100 20.50600 42.48900
H  -12.79700 21.51500 41.73100
H  -14.20500 21.38500 42.84100
H  -14.31000 21.13800 41.14500
H  -15.90400 16.13400 41.12800
H  -17.39100 16.98400 40.92700
H  -16.82200 16.52400 42.54700
H  -14.41400 13.01300 42.42900
H  -12.47000 11.37400 43.86600
H  -15.64600 13.06100 44.14500
H  -14.37800 13.71500 45.19900
H  -14.49200 11.93800 44.91300
H  -11.14300 11.51600 41.50300
H  -12.42200 12.63000 41.06100
H  -12.07800 9.64500 41.03700
H  -13.45400 10.65100 40.45200
H  -13.36300 10.02600 42.15000
H  -7.83900 11.31100 44.75900
H  -6.11400 11.53100 44.28900
H  -7.43900 11.26400 43.05500
H  -5.05100 16.85500 43.03800
H  -3.03200 17.50900 47.10600
H  -4.39600 18.72200 46.86100
H  -2.88800 18.96100 46.06200

