158

Mg 49.24400 45.99400 42.74500
C  45.78500 46.10900 42.37200
C  49.27000 42.71400 41.64900
C  52.70300 46.11200 42.27500
C  49.28600 49.37400 43.36900
N  47.77600 44.64800 41.94300
C  46.41800 44.87700 42.00300
C  45.59800 43.60200 41.55000
C  46.68500 42.45900 41.73000
C  47.96700 43.31900 41.78500
C  46.54100 41.67000 43.03800
C  45.08100 43.77600 40.10500
C  43.61000 43.36800 39.90600
H  43.03800 43.78100 38.54200
N  50.82200 44.57300 42.17100
C  50.57200 43.27200 41.82400
C  51.78200 42.64900 41.56400
C  52.80100 43.59900 41.68800
C  52.12000 44.80300 42.07500
C  51.85800 41.20300 41.14000
C  54.32300 43.33600 41.31600
O  54.66300 42.19800 41.10300
C  55.26000 44.38500 41.14900
N  50.80400 47.44900 42.79400
C  52.07500 47.26600 42.71000
C  52.92600 48.60100 42.85600
C  51.81900 49.56300 43.38700
C  50.56000 48.74700 43.10200
C  54.08200 48.54600 43.88100
C  51.86000 50.91900 42.66700
C  51.74800 52.21100 43.48900
N  47.85500 47.49700 42.77700
C  48.02200 48.81600 43.22300
C  46.74500 49.42500 43.33000
C  45.81700 48.39500 43.04600
C  46.53900 47.25500 42.73400
C  46.46900 50.85900 43.59600
C  44.42700 48.06300 42.89400
O  43.40600 48.67900 43.01500
C  44.35300 46.52200 42.50900
C  43.58700 45.80300 43.50500
O  43.98500 45.53900 44.61900
O  42.40500 45.48600 42.96400
C  41.51400 44.70400 43.87300
H  49.25200 41.64300 41.43700
H  53.77100 46.24800 42.09300
H  49.36000 50.36600 43.82100
H  44.75100 43.48400 42.22600
H  46.68200 41.69200 40.95500
H  45.78300 42.13700 43.66800
H  47.51100 41.69400 43.53400
H  46.18300 40.65900 42.84400
H  45.79000 43.17400 39.53700
H  45.11000 44.82700 39.81400
H  43.01200 43.73400 40.74100
H  43.49500 42.30000 40.09100
H  52.79500 40.64600 41.16500
H  51.35300 41.08600 40.18100
H  51.16300 40.60900 41.73300
H  54.93200 44.87800 40.23400
H  56.25600 44.03000 40.88400
H  55.23300 44.95500 42.07800
H  53.20000 48.71100 41.80700
H  51.77600 49.81400 44.44700
H  54.00500 49.42800 44.51700
H  55.02400 48.52700 43.33300
H  54.10300 47.64200 44.49000
H  50.95600 50.83300 42.06200
H  52.70300 50.90100 41.97600
H  52.68300 52.76900 43.44300
H  51.47200 51.94600 44.51000
H  50.95000 52.82100 43.06600
H  47.18200 51.15100 44.36700
H  45.44100 50.98200 43.93700
H  46.52200 51.52300 42.73300
H  43.88900 46.36800 41.53500
H  40.62500 44.43000 43.30400
H  41.27400 45.43400 44.64600
H  42.10400 43.82600 44.13600
Mg 35.54500 48.47500 25.31300
C  36.02300 46.48700 28.20100
C  34.43800 50.95100 27.28600
C  34.62000 49.94700 22.52100
C  36.90900 45.78100 23.35000
N  35.27100 48.68100 27.52600
C  35.57200 47.80000 28.51200
C  35.23900 48.39900 29.94700
C  34.77100 49.80200 29.57500
C  34.80600 49.81100 27.99300
C  33.41800 50.20400 30.20500
C  36.50500 48.48000 30.90700
C  36.26000 48.37200 32.41600
H  34.85300 48.64800 32.87500
N  34.80700 50.29600 24.91600
C  34.34400 51.17800 25.86600
C  33.85000 52.37400 25.15200
C  33.90600 52.11800 23.74700
C  34.43900 50.74200 23.65300
C  33.62500 53.66700 25.84800
C  33.70600 52.97200 22.51400
O  33.95900 52.63700 21.34000
C  33.21700 54.42800 22.61400
N  35.76100 47.95000 23.19600
C  35.22400 48.76200 22.24100
C  35.61700 48.18100 20.82700
C  36.62100 46.98300 21.11000
C  36.45500 46.86700 22.65500
C  34.34400 47.95000 19.99200
C  38.10800 47.13700 20.66900
C  38.93300 48.23800 21.35700
N  36.30900 46.53400 25.64500
C  36.75300 45.51000 24.77500
C  36.93000 44.29700 25.47000
C  36.61800 44.62200 26.83600
C  36.32300 46.02200 26.86400
C  37.34900 43.01500 24.79900
C  36.52600 44.00900 28.18700
O  36.57000 42.87700 28.57400
C  36.21300 45.28200 29.14700
C  35.07200 44.83000 29.95700
O  33.93200 44.82100 29.55900
O  35.36600 44.53300 31.20600
C  34.33300 44.42500 32.18500
H  34.21600 51.76700 27.97700
H  34.29600 50.29200 21.53600
H  37.42500 45.05300 22.72200
H  34.37700 47.89100 30.38000
H  35.50700 50.49900 29.97900
H  33.47000 51.18000 30.69000
H  33.01300 49.41700 30.84100
H  32.67300 50.32500 29.41900
H  37.08300 49.34300 30.57600
H  37.09000 47.58100 30.71300
H  36.97100 49.09600 32.81200
H  36.65900 47.40200 32.71400
H  34.16800 54.46700 25.34500
H  34.22100 53.52100 26.74900
H  32.58300 53.94700 25.99800
H  34.11300 55.04800 22.62000
H  32.56100 54.55300 23.47600
H  32.48400 54.57500 21.82100
H  36.05100 49.04200 20.31800
H  36.17400 46.09100 20.67100
H  33.85200 48.90400 19.80300
H  33.70400 47.25400 20.53400
H  34.79100 47.62100 19.05400
H  37.91100 47.51600 19.66600
H  38.65300 46.20400 20.53000
H  39.92200 47.88600 21.65300
H  38.43600 48.54000 22.27900
H  39.17000 49.08100 20.70900
H  36.60300 42.57600 24.13600
H  37.61300 42.45300 25.69500
H  38.30500 43.16400 24.29800
H  37.07800 45.50700 29.77100
H  33.45700 43.90300 31.80100
H  34.06000 45.43400 32.49500
H  34.74100 43.84800 33.01500

