158

Mg 0.27700 8.56900 26.46100
C  1.12100 10.50300 29.29000
C  -0.03200 5.82300 28.62300
C  -0.18100 6.55500 23.81700
C  1.16600 11.16100 24.39400
N  0.62000 8.20700 28.73400
C  0.83500 9.13700 29.66100
C  0.76600 8.58600 31.11700
C  0.65800 7.02800 30.87800
C  0.35900 6.98700 29.34200
C  1.96500 6.25400 31.33900
C  -0.50500 9.05100 31.88600
C  -0.17700 9.49700 33.33000
H  1.02100 8.94700 34.13500
N  -0.15700 6.45700 26.26700
C  -0.24500 5.54900 27.27400
C  -0.48900 4.24100 26.69300
C  -0.68500 4.47800 25.29700
C  -0.30100 5.85000 25.04100
C  -0.57200 2.97700 27.45300
C  -1.18800 3.46500 24.23000
O  -1.30500 3.83900 23.05100
C  -1.62300 2.13200 24.58300
N  0.47900 8.87300 24.50500
C  0.18200 7.90000 23.57000
C  0.51900 8.34700 22.15900
C  0.82500 9.90300 22.40000
C  0.82200 9.99700 23.85700
C  1.68800 7.57100 21.54000
C  -0.11100 10.95600 21.68700
C  -1.38500 11.43300 22.46200
N  1.17700 10.44000 26.76800
C  1.39200 11.41500 25.82700
C  1.77900 12.66500 26.51700
C  1.79900 12.36500 27.85000
C  1.36200 10.97600 27.92600
C  2.06400 13.96900 25.93200
C  1.87200 12.89400 29.20600
O  2.10400 13.97900 29.63000
C  1.48500 11.72200 30.18800
C  2.67500 11.57600 31.28200
O  3.54900 10.71700 31.23300
O  2.43100 12.49400 32.29600
C  3.42600 12.56200 33.33600
H  -0.10200 4.97600 29.30900
H  -0.66300 6.05000 22.97700
H  1.36400 11.94700 23.66300
H  1.67900 8.92300 31.60700
H  -0.17900 6.48400 31.31600
H  2.72100 7.01500 31.53400
H  2.39700 5.51500 30.66500
H  1.57300 5.73400 32.21300
H  -1.25400 8.26100 31.93800
H  -1.04300 9.84500 31.36800
H  -1.03500 9.38400 33.99300
H  -0.00300 10.57200 33.27800
H  -0.28600 2.95600 28.50500
H  0.17300 2.28200 27.06400
H  -1.57000 2.54500 27.38200
H  -0.89000 1.45000 25.01300
H  -2.14100 1.80100 23.68200
H  -2.39100 2.36400 25.32100
H  -0.32100 8.37400 21.46600
H  1.80900 10.18000 22.02300
H  2.61100 7.72500 22.10000
H  1.94600 7.87600 20.52600
H  1.40700 6.51900 21.49500
H  -0.50400 10.49900 20.77800
H  0.51800 11.82200 21.48600
H  -1.50200 11.07700 23.48500
H  -2.36600 11.27200 22.01300
H  -1.30500 12.51300 22.58400
H  1.56900 13.97800 24.96100
H  3.09300 13.93300 25.57600
H  1.78500 14.87800 26.46500
H  0.62400 11.96500 30.81100
H  4.30900 13.12300 33.02800
H  3.70400 11.62200 33.81200
H  2.97900 13.18100 34.11400
Mg 24.42700 -4.93000 45.89500
C  26.88500 -2.62900 44.57600
C  22.34300 -3.86200 43.37800
C  22.45300 -7.59300 46.48300
C  27.07300 -6.26800 47.76900
N  24.73300 -3.55300 44.04600
C  25.75200 -2.68400 43.83000
C  25.45400 -1.87700 42.55900
C  23.96000 -2.00100 42.45300
C  23.63900 -3.21000 43.34300
C  23.14200 -0.81400 42.93400
C  26.15200 -2.41500 41.26700
C  26.44300 -1.31600 40.14800
H  25.80100 -1.48700 38.84400
N  22.56300 -5.51200 45.28100
C  21.88300 -4.89900 44.20200
C  20.58800 -5.48700 44.13400
C  20.58000 -6.71500 44.82900
C  21.85400 -6.61200 45.65000
C  19.43100 -4.90600 43.27100
C  19.57600 -7.82100 44.71300
O  18.56900 -7.67700 44.06900
C  19.75600 -9.22200 45.36200
N  24.82700 -6.77300 46.76100
C  23.76100 -7.66400 47.03700
C  24.25600 -8.94200 47.75500
C  25.66300 -8.37100 48.24300
C  25.89800 -6.99600 47.60000
C  23.25300 -9.48200 48.85000
C  26.77300 -9.42900 48.17100
C  27.94700 -9.32700 47.29000
N  26.56400 -4.52200 46.20600
C  27.50900 -5.21400 46.94700
C  28.82600 -4.58800 46.82400
C  28.56700 -3.48300 45.99600
C  27.21500 -3.58700 45.52100
C  30.04100 -5.00300 47.59400
C  29.14400 -2.39700 45.32200
O  30.29900 -2.04400 45.44600
C  28.14600 -1.91700 44.22900
C  28.16600 -0.44100 44.25200
O  27.46700 0.32800 44.86100
O  29.16600 -0.08900 43.38700
C  29.42300 1.34900 43.24200
H  21.55700 -3.57900 42.67400
H  21.85000 -8.47200 46.71700
H  27.77200 -6.57800 48.54900
H  25.77400 -0.84600 42.71000
H  23.66800 -2.21500 41.42500
H  22.43600 -0.27300 42.30400
H  23.70800 -0.02900 43.43600
H  22.55100 -1.16600 43.78000
H  25.61200 -3.31100 40.96400
H  27.13400 -2.78800 41.56000
H  27.53000 -1.31700 40.06600
H  26.04700 -0.36900 40.51400
H  18.44100 -5.24400 43.57800
H  19.54400 -5.25000 42.24300
H  19.45600 -3.81700 43.28300
H  19.79200 -9.01500 46.43100
H  20.65900 -9.61800 44.89800
H  18.91500 -9.85600 45.08300
H  24.51600 -9.64400 46.96200
H  25.46500 -8.23100 49.30500
H  22.25900 -9.05000 48.96000
H  23.74100 -9.36400 49.81700
H  23.03500 -10.53600 48.68000
H  26.35100 -10.39100 47.88000
H  27.26100 -9.59100 49.13200
H  27.63600 -8.91500 46.33000
H  28.43500 -10.28500 47.11400
H  28.67000 -8.65900 47.75900
H  30.69100 -5.25600 46.75600
H  29.83900 -5.88300 48.20500
H  30.32800 -4.11700 48.16000
H  28.50800 -2.21500 43.24500
H  29.03500 1.62100 42.26000
H  30.51000 1.41400 43.30100
H  29.05800 1.96400 44.06400

