158

Mg 49.39700 46.26100 43.00200
C  46.37700 46.94900 41.43900
C  49.61400 43.26400 41.09700
C  52.67700 45.95300 43.76100
C  49.59400 49.76300 43.67900
N  48.11700 45.22400 41.41200
C  46.87300 45.69100 41.01800
C  46.19700 44.53500 40.18000
C  47.16500 43.34300 40.43800
C  48.41500 43.96800 40.95900
C  46.63400 42.23900 41.31600
C  45.88000 45.02300 38.74900
C  44.46800 44.67400 38.26700
H  44.37700 44.18400 36.78200
N  50.86600 44.73300 42.62000
C  50.78300 43.60200 41.80400
C  51.95200 42.78800 42.05700
C  52.79600 43.42500 42.93500
C  52.10800 44.75700 43.18900
C  52.14600 41.46600 41.47900
C  54.15200 42.91100 43.44800
O  54.51500 41.78000 43.19500
C  54.97500 43.62000 44.37400
N  50.88500 47.71900 43.56900
C  52.14200 47.24900 43.89700
C  53.00300 48.35400 44.65000
C  52.07900 49.62500 44.50300
C  50.75700 49.06600 43.90600
C  53.34400 48.11700 46.17900
C  52.61400 50.75200 43.66800
C  52.22600 52.15300 44.14000
N  48.12500 47.88900 42.91300
C  48.32100 49.28200 43.20500
C  47.09900 49.95900 43.07400
C  46.28800 49.08000 42.38700
C  47.02300 47.85600 42.24700
C  46.80000 51.31000 43.42700
C  45.00200 48.97900 41.81000
O  44.07000 49.74600 41.90400
C  45.01500 47.58700 41.04100
C  43.89200 46.71200 41.44900
O  43.83300 45.97000 42.44300
O  42.89300 46.93400 40.57200
C  41.59900 46.29900 40.89800
H  49.57000 42.20000 40.85400
H  53.62900 45.85300 44.28700
H  49.65600 50.81700 43.95700
H  45.24300 44.32500 40.66400
H  47.49600 42.90400 39.49700
H  47.40000 41.46400 41.30400
H  45.68000 41.85400 40.95600
H  46.63100 42.53100 42.36600
H  46.62200 44.69100 38.02200
H  46.00900 46.10400 38.78500
H  43.87900 45.58900 38.20000
H  43.92700 43.94600 38.87200
H  52.66000 41.65000 40.53600
H  51.18900 40.98700 41.27000
H  52.63700 40.79200 42.18100
H  55.41700 44.51100 43.92700
H  55.71800 42.95900 44.82200
H  54.25600 43.90400 45.14300
H  53.91800 48.44700 44.06400
H  51.87900 50.11100 45.45800
H  52.74900 48.65700 46.91600
H  54.36200 48.47900 46.32600
H  53.44300 47.04300 46.33100
H  52.07400 50.65500 42.72600
H  53.66400 50.58200 43.43000
H  52.93400 52.96500 43.97400
H  52.00300 52.18900 45.20600
H  51.31800 52.41400 43.59700
H  47.18000 51.95200 42.63300
H  47.38700 51.57100 44.30700
H  45.76700 51.63200 43.56000
H  44.96500 47.77200 39.96800
H  41.12500 46.62300 41.82500
H  41.66300 45.21300 40.84400
H  40.92300 46.53000 40.07500
Mg 16.60700 51.96200 26.08600
C  18.65300 50.44800 28.73900
C  14.33900 52.59200 28.51000
C  14.76900 53.33600 23.73100
C  19.00000 50.73500 23.76100
N  16.52600 51.53300 28.33900
C  17.49000 51.00300 29.24500
C  17.01400 51.04500 30.71600
C  15.53900 51.59800 30.57000
C  15.41500 51.94400 29.05900
C  14.44700 50.58800 30.89900
C  17.91800 51.87800 31.70500
C  18.07500 51.28100 33.10500
H  17.14600 51.89300 34.17700
N  14.82000 52.86800 26.12300
C  14.01500 53.06100 27.21300
C  12.86300 53.81900 26.78200
C  13.00300 54.14600 25.40400
C  14.23400 53.47000 25.03600
C  11.83200 54.32900 27.75400
C  12.17900 55.02900 24.45800
O  12.43900 55.17600 23.28700
C  10.94900 55.72600 24.94400
N  16.92800 51.98400 24.10600
C  15.98100 52.76100 23.32300
C  16.48400 52.82900 21.85600
C  17.91400 52.06900 21.88500
C  17.98300 51.62200 23.35800
C  15.51100 52.25400 20.80700
C  19.11700 52.99100 21.52300
C  19.78700 53.93900 22.49100
N  18.39100 50.67000 26.19600
C  19.22200 50.24200 25.10300
C  20.33200 49.46500 25.72800
C  20.14800 49.54500 27.13900
C  19.00700 50.32900 27.32400
C  21.65800 49.12100 24.97300
C  20.72600 49.15700 28.42100
O  21.69900 48.46300 28.67200
C  19.74300 49.75300 29.55000
C  19.19600 48.65700 30.42400
O  18.30000 47.88400 30.13500
O  19.95200 48.52900 31.57600
C  19.88500 47.44000 32.58000
H  13.65700 52.88400 29.31100
H  14.26600 53.83100 22.89800
H  19.71100 50.33200 23.03600
H  16.90200 50.03800 31.11900
H  15.38100 52.48200 31.18900
H  14.12000 50.07000 29.99800
H  13.64300 51.20600 31.29800
H  14.75100 49.90200 31.68900
H  17.43500 52.85200 31.78200
H  18.91100 51.91600 31.25700
H  19.06100 51.44500 33.53800
H  18.09600 50.19100 33.08100
H  10.85300 53.89800 27.54500
H  11.61800 55.39700 27.72300
H  12.01700 54.04400 28.79000
H  10.37200 56.30300 24.22200
H  11.24200 56.41600 25.73400
H  10.41900 54.86200 25.34700
H  16.67600 53.87000 21.59500
H  17.97000 51.27300 21.14200
H  14.46700 52.45100 21.05200
H  15.68900 51.17900 20.80200
H  15.79200 52.70800 19.85700
H  18.65700 53.62100 20.76100
H  19.85500 52.31400 21.09200
H  20.87600 53.89900 22.46200
H  19.54600 53.81400 23.54700
H  19.53900 54.95400 22.18100
H  22.55700 49.19100 25.58500
H  21.67200 49.78100 24.10600
H  21.61100 48.12500 24.53300
H  20.20800 50.42700 30.27000
H  20.20200 46.48400 32.16300
H  18.85300 47.40500 32.92700
H  20.60100 47.70000 33.36000

