158

Mg 40.70500 9.89400 30.04500
C  42.56300 11.10300 32.68300
C  38.23200 8.79300 32.12300
C  39.12200 8.54200 27.49700
C  43.36300 10.82900 27.83400
N  40.49100 9.84500 32.19200
C  41.33700 10.48800 33.04400
C  40.65000 10.55900 34.49500
C  39.34100 9.73700 34.26000
C  39.35300 9.41700 32.83500
C  39.20900 8.42500 35.06400
C  40.28400 11.96700 34.94200
C  39.95200 12.06600 36.42400
H  40.91500 12.90000 37.34500
N  38.96000 8.64400 29.85600
C  38.04100 8.41000 30.83800
C  36.86000 7.87200 30.31500
C  37.13400 7.67600 28.90000
C  38.46900 8.24700 28.68900
C  35.69300 7.29700 31.20100
C  36.29500 7.07800 27.76700
O  36.72900 6.90000 26.58500
C  34.92000 6.60100 28.17500
N  41.20400 9.79600 27.93700
C  40.32800 9.11900 27.16500
C  40.81500 9.14000 25.70600
C  42.15300 10.00900 25.74500
C  42.31000 10.13100 27.24500
C  41.11500 7.66000 25.16000
C  41.89100 11.46700 25.23400
C  40.60200 12.25400 25.60500
N  42.60200 10.78500 30.20100
C  43.48500 11.15400 29.25700
C  44.59200 11.79800 29.84100
C  44.21200 11.95000 31.21100
C  43.03600 11.19300 31.35600
C  45.93300 12.21000 29.20800
C  44.66900 12.49100 32.46000
O  45.63000 13.12700 32.76900
C  43.45900 12.03400 33.48500
C  44.11200 11.33100 34.54200
O  44.86300 10.36700 34.46500
O  43.71100 11.83500 35.72500
C  44.06400 11.13900 36.92300
H  37.33600 8.54800 32.69700
H  38.67800 8.27300 26.53600
H  44.26000 11.06900 27.26000
H  41.27800 10.08600 35.25000
H  38.40000 10.28700 34.27400
H  38.14200 8.20500 35.08700
H  39.66300 8.64600 36.02900
H  39.80800 7.67000 34.55600
H  39.51000 12.29900 34.25100
H  41.15000 12.61900 34.83200
H  39.99500 11.07900 36.88600
H  38.93500 12.45600 36.43200
H  34.68900 7.37900 30.78400
H  35.69700 7.54500 32.26200
H  35.73600 6.20800 31.21700
H  35.08800 5.84700 28.94400
H  34.43200 6.13800 27.31700
H  34.39600 7.51600 28.45200
H  40.10200 9.59600 25.02000
H  42.96900 9.40900 25.34200
H  41.67200 7.03100 25.85400
H  41.61500 7.61900 24.19200
H  40.16800 7.13300 25.04400
H  42.04200 11.49500 24.15500
H  42.65300 12.19500 25.51300
H  40.18600 12.56400 24.64700
H  40.77000 13.11100 26.25600
H  39.89000 11.59100 26.09700
H  46.69300 12.43800 29.95600
H  45.79100 13.06700 28.54900
H  46.38500 11.43800 28.58500
H  43.15900 13.00000 33.89200
H  45.15300 11.13300 36.97000
H  43.70400 10.11800 36.79400
H  43.59400 11.50800 37.83400
Mg -4.54200 25.24500 26.28300
C  -3.21500 26.66600 29.23100
C  -6.50000 23.16200 28.24600
C  -5.56100 23.85300 23.50000
C  -2.30200 27.31400 24.47500
N  -4.68000 24.92500 28.48900
C  -4.18700 25.68800 29.48600
C  -4.72700 25.25600 30.84400
C  -5.62700 23.99900 30.51100
C  -5.69300 24.04400 28.97700
C  -5.28200 22.66200 31.10400
C  -5.47200 26.42800 31.54900
C  -5.48000 26.43700 33.13700
H  -4.89800 25.17200 33.95000
N  -5.78100 23.61400 25.90500
C  -6.48800 22.88800 26.84000
C  -7.33500 21.89600 26.15200
C  -7.08600 22.10200 24.77100
C  -6.12500 23.21800 24.64700
C  -8.29900 20.95100 26.86700
C  -7.71400 21.33700 23.56600
O  -7.24600 21.46000 22.45600
C  -8.79700 20.34700 23.72900
N  -4.01400 25.50500 24.31500
C  -4.52900 24.78000 23.27000
C  -3.92700 25.16400 21.91200
C  -3.00700 26.36900 22.34100
C  -3.15800 26.50900 23.82700
C  -3.16300 24.04000 21.24600
C  -3.26200 27.68200 21.61500
C  -2.21800 28.02300 20.52400
N  -3.10800 26.75500 26.68500
C  -2.27700 27.47200 25.86300
C  -1.49100 28.38900 26.60000
C  -1.80700 28.07300 27.95600
C  -2.84200 27.08600 27.96600
C  -0.38500 29.30000 26.01900
C  -1.48900 28.44200 29.33700
O  -0.68900 29.28200 29.76000
C  -2.39800 27.48700 30.24800
C  -1.47900 26.58300 30.91600
O  -0.69500 25.76400 30.34500
O  -1.69000 26.60500 32.26900
C  -0.68500 25.99300 33.15800
H  -7.12800 22.45900 28.79700
H  -5.92700 23.44200 22.55700
H  -1.66300 27.93800 23.84700
H  -3.96900 25.01600 31.59000
H  -6.65700 24.22000 30.79500
H  -5.20600 21.90100 30.32800
H  -6.02000 22.36100 31.84800
H  -4.39100 22.70900 31.73100
H  -6.52000 26.35500 31.26100
H  -5.17500 27.35900 31.06700
H  -6.49900 26.58500 33.49300
H  -4.87700 27.29400 33.44000
H  -9.25300 20.96300 26.33900
H  -8.50200 21.14300 27.92100
H  -7.82400 19.97200 26.80000
H  -8.77000 19.82100 22.77500
H  -9.72200 20.92200 23.78200
H  -8.66900 19.66000 24.56600
H  -4.79900 25.43000 21.31500
H  -1.97600 26.13600 22.07100
H  -3.54400 23.69100 20.28700
H  -2.91100 23.22300 21.92200
H  -2.20900 24.37600 20.83800
H  -3.18200 28.54000 22.28200
H  -4.24300 27.74300 21.14400
H  -2.32300 27.32900 19.69000
H  -1.18700 27.86700 20.84300
H  -2.26200 29.08900 20.29700
H  -0.59800 29.42500 24.95700
H  0.55900 28.77500 26.16600
H  -0.48700 30.30400 26.42900
H  -3.01200 28.04100 30.95900
H  -1.00100 25.05800 33.62200
H  -0.29300 26.66500 33.92100
H  0.22400 25.68900 32.64000

