158

Mg 35.18600 2.92600 29.89300
C  33.07300 4.16600 32.32200
C  37.87900 3.30400 32.04700
C  37.14500 1.95400 27.23000
C  32.37000 2.76600 27.74700
N  35.50400 3.78900 31.83800
C  34.45800 3.97700 32.71500
C  35.03600 3.90500 34.23000
C  36.49800 4.09700 33.91800
C  36.65900 3.71900 32.52400
C  37.14400 5.48200 34.20800
C  34.51400 2.72200 35.10100
C  34.13300 3.18200 36.56300
H  35.01600 4.21900 37.34300
N  37.27500 2.59800 29.72500
C  38.22300 2.70100 30.77100
C  39.45900 2.16300 30.20500
C  39.31500 1.87200 28.81100
C  37.85700 2.09800 28.55300
C  40.73700 2.24300 30.98600
C  40.30200 1.31400 27.65700
O  39.89500 1.04100 26.49000
C  41.77100 1.03000 27.91400
N  34.86600 2.50400 27.80300
C  35.79700 2.18800 26.90100
C  35.30200 2.05000 25.52100
C  33.76200 2.07900 25.67800
C  33.60400 2.43800 27.21400
C  35.90000 2.92700 24.41600
C  32.99500 0.83800 25.18600
C  32.64300 -0.27300 26.16200
N  33.09800 3.41900 29.91500
C  32.06000 3.26400 28.98800
C  30.84900 3.78400 29.54000
C  31.11200 4.10900 30.89600
C  32.53000 3.89500 31.04300
C  29.53800 3.90600 28.78700
C  30.65800 4.53000 32.12000
O  29.50400 4.75100 32.51600
C  31.88900 4.51300 33.19100
C  32.02900 5.83500 33.79600
O  32.58400 6.77900 33.24800
O  31.41900 5.72900 35.02800
C  31.57800 6.91900 35.89700
H  38.74600 3.30700 32.71000
H  37.77100 1.74100 26.36000
H  31.53200 2.76200 27.04800
H  34.57500 4.82400 34.59300
H  36.99700 3.37400 34.56400
H  36.48600 6.18200 34.72300
H  37.46200 5.99800 33.30300
H  38.03000 5.45100 34.84100
H  35.27900 1.94700 35.13100
H  33.60300 2.30900 34.66900
H  34.14400 2.31200 37.21900
H  33.07000 3.41700 36.61900
H  41.58100 2.72700 30.49400
H  41.00400 1.20700 31.19300
H  40.66900 2.70200 31.97300
H  42.17200 0.36400 27.15000
H  41.77500 0.60200 28.91600
H  42.25800 2.00500 27.95900
H  35.65400 1.02500 25.40200
H  33.47800 2.94000 25.07400
H  36.51600 3.70600 24.86400
H  35.21000 3.47700 23.77400
H  36.47600 2.22200 23.81700
H  33.62100 0.44600 24.38400
H  32.02600 0.99800 24.71400
H  32.89900 -1.21400 25.67600
H  31.57900 -0.15300 26.36300
H  33.24000 -0.21600 27.07200
H  29.43100 3.28000 27.90100
H  29.34500 4.94900 28.53700
H  28.72300 3.55400 29.41900
H  31.63200 3.78800 33.96400
H  32.30500 6.64800 36.66200
H  30.59600 7.08000 36.34200
H  31.88100 7.85200 35.42100
Mg 27.29400 51.21200 26.59100
C  25.36400 52.25800 29.17600
C  29.66300 50.03800 28.91800
C  29.46000 50.43600 24.03400
C  25.01800 52.45500 24.32000
N  27.45100 50.99000 28.73600
C  26.49500 51.52700 29.60600
C  26.79000 51.12500 31.01700
C  28.31400 50.67600 30.93500
C  28.51100 50.58500 29.42700
C  29.24600 51.75000 31.54200
C  25.72500 50.08400 31.48700
C  25.08600 50.07200 32.88500
H  26.05000 50.37600 34.05500
N  29.24500 50.25000 26.50000
C  30.01900 49.80300 27.56200
C  31.21700 49.14600 27.05400
C  31.17000 49.41000 25.61000
C  29.91100 50.11500 25.31700
C  32.35000 48.49800 27.91000
C  32.26600 49.16700 24.63400
O  32.21800 49.47400 23.40800
C  33.52100 48.51000 25.02600
N  27.33700 51.61600 24.51600
C  28.34700 51.15600 23.67800
C  27.84900 51.07500 22.22800
C  26.40900 51.66700 22.30700
C  26.19200 51.90800 23.81400
C  28.78200 51.90200 21.25800
C  25.38400 50.74400 21.79200
C  24.90100 49.51600 22.58600
N  25.49000 52.09900 26.70600
C  24.63300 52.52900 25.72700
C  23.54600 53.32200 26.28100
C  23.74300 53.15600 27.68800
C  24.93500 52.43500 27.88300
C  22.52000 54.13600 25.50200
C  23.20200 53.45200 28.95400
O  22.18600 54.03800 29.22800
C  24.17400 52.78000 29.98100
C  24.58900 53.78000 31.01800
O  25.42000 54.67900 30.78400
O  24.02500 53.59700 32.24600
C  24.29100 54.54000 33.33900
H  30.29500 49.54300 29.65800
H  30.05900 50.06400 23.20000
H  24.21600 52.67900 23.61400
H  26.82500 52.04100 31.60600
H  28.62500 49.66400 31.19200
H  30.26800 51.50800 31.25100
H  29.25300 51.61300 32.62300
H  29.07600 52.79000 31.26400
H  26.34300 49.18700 31.45000
H  24.99200 49.89100 30.70400
H  24.72700 49.06100 33.07700
H  24.19300 50.69600 32.86300
H  32.25900 47.41600 27.82300
H  32.17800 48.58900 28.98300
H  33.29700 48.99900 27.71200
H  33.37700 47.61600 25.63200
H  34.26900 49.08100 25.57500
H  34.01000 48.23100 24.09200
H  27.76900 50.01500 21.99000
H  26.35500 52.58800 21.72600
H  29.75300 52.17900 21.66900
H  28.30200 52.76300 20.79200
H  29.09800 51.35400 20.37100
H  25.73700 50.38000 20.82700
H  24.50800 51.32900 21.51300
H  25.70300 49.27400 23.28200
H  24.82200 48.58100 22.03100
H  24.05100 49.71400 23.23900
H  22.81700 55.14000 25.20100
H  21.74000 54.29800 26.24600
H  22.24100 53.68400 24.55100
H  23.48300 52.03700 30.37900
H  24.86000 55.40600 32.99900
H  24.88900 53.95500 34.03800
H  23.35000 54.90600 33.74800

