158

Mg 24.68200 -5.70000 46.31300
C  26.76700 -3.60000 44.28900
C  22.11800 -4.97400 44.22400
C  23.12500 -8.31700 47.63900
C  27.70000 -6.62100 48.01600
N  24.50300 -4.56300 44.42000
C  25.43200 -3.65100 43.96600
C  24.81000 -2.70800 42.93100
C  23.28100 -2.91600 43.17100
C  23.25100 -4.24400 43.94000
C  22.66700 -1.86000 44.10500
C  25.45400 -3.03600 41.48300
C  25.85600 -1.77300 40.60500
H  25.40500 -1.90500 39.16400
N  22.83500 -6.41600 46.02900
C  21.87900 -6.01700 45.13200
C  20.74000 -6.88100 45.14000
C  20.89900 -7.80900 46.16400
C  22.35000 -7.53700 46.69600
C  19.49100 -6.67400 44.14700
C  19.94800 -8.89300 46.57300
O  18.86700 -9.03600 45.98200
C  20.15600 -9.77900 47.76800
N  25.32900 -7.25900 47.62700
C  24.42400 -8.16200 48.14500
C  25.11700 -9.24300 48.99500
C  26.50900 -8.61700 49.21000
C  26.51500 -7.46400 48.21400
C  24.32700 -9.53200 50.30100
C  27.64700 -9.63400 48.79800
C  27.83100 -10.70900 49.81900
N  26.91500 -5.23700 46.27400
C  27.92600 -5.57800 47.06200
C  29.19600 -4.97700 46.55000
C  28.75600 -4.11600 45.53800
C  27.40900 -4.34000 45.38100
C  30.64100 -5.12800 47.12900
C  29.22600 -3.17100 44.50800
O  30.32800 -2.77400 44.12500
C  27.86900 -2.66700 43.80000
C  27.58900 -1.22800 44.25200
O  26.72300 -0.98100 45.07700
O  28.42800 -0.39500 43.60800
C  28.22900 0.99700 43.97700
H  21.31900 -4.77100 43.50800
H  22.72300 -9.27400 47.97700
H  28.43300 -6.92800 48.76500
H  25.05100 -1.67800 43.19200
H  22.66700 -3.05200 42.28100
H  22.71400 -0.90400 43.58400
H  23.12700 -1.85800 45.09300
H  21.58700 -1.96700 44.21000
H  24.67300 -3.60000 40.97500
H  26.25300 -3.77600 41.43200
H  26.94100 -1.80700 40.69900
H  25.50300 -0.84900 41.06500
H  18.65200 -7.35300 44.29400
H  19.86400 -6.81500 43.13300
H  19.25500 -5.61400 44.23400
H  21.04400 -10.34900 47.49700
H  19.32500 -10.42900 48.04200
H  20.41700 -9.19500 48.65100
H  25.05900 -10.11000 48.33700
H  26.55700 -8.21000 50.22000
H  24.86300 -9.27400 51.21500
H  24.28100 -10.61300 50.42900
H  23.30600 -9.15900 50.21600
H  28.61900 -9.14100 48.78000
H  27.50500 -10.14300 47.84500
H  27.30100 -11.62700 49.56600
H  27.55100 -10.43000 50.83500
H  28.88200 -10.99600 49.80900
H  31.12900 -4.16100 47.00500
H  31.16100 -5.80400 46.45000
H  30.72800 -5.50600 48.14800
H  27.99600 -2.70500 42.71800
H  29.11200 1.62900 43.88900
H  27.96500 1.01900 45.03400
H  27.45000 1.37700 43.31500
Mg 42.23400 40.87100 26.50400
C  41.39300 43.39800 28.87200
C  43.00400 38.94100 29.06900
C  42.79400 38.58900 24.21800
C  41.79300 43.35400 23.98700
N  42.11200 41.12500 28.67000
C  41.69600 42.18800 29.44200
C  41.73300 41.89300 30.93800
C  42.66300 40.59300 30.92000
C  42.60400 40.15400 29.44400
C  44.09200 40.84200 31.49100
C  40.28600 41.69100 31.55600
C  39.88300 42.57900 32.74400
H  39.49100 41.76300 33.96000
N  42.82600 39.00100 26.65000
C  43.05600 38.32500 27.79500
C  43.55800 37.02900 27.42300
C  43.47400 36.94100 25.96500
C  42.94300 38.19900 25.55400
C  43.80300 36.00400 28.41000
C  43.83500 35.76700 25.11200
O  43.79600 35.76900 23.89100
C  44.46100 34.58400 25.57100
N  42.34800 41.06600 24.35500
C  42.54100 39.89800 23.62300
C  42.39200 40.16400 22.15200
C  42.20100 41.68800 22.08500
C  42.10200 42.08900 23.54300
C  43.45000 39.55600 21.15700
C  40.96000 42.11500 21.16000
C  41.27500 43.08600 19.99200
N  41.68400 42.94500 26.37800
C  41.53900 43.78400 25.29800
C  41.14000 45.11100 25.77000
C  40.97900 44.94800 27.19800
C  41.38800 43.65500 27.49800
C  40.84200 46.30700 24.92100
C  40.41700 45.58200 28.37100
O  39.72900 46.63100 28.45000
C  40.77700 44.63100 29.54100
C  41.71000 45.24900 30.50900
O  42.88200 45.46900 30.41300
O  41.01600 45.58700 31.57300
C  41.74900 46.25900 32.69500
H  43.25800 38.35000 29.95100
H  42.86800 37.86200 23.40600
H  41.54000 44.12800 23.25800
H  42.21500 42.67900 31.51900
H  42.27000 39.77000 31.51700
H  44.84900 41.08800 30.74600
H  44.43700 39.97900 32.06000
H  44.07900 41.73500 32.11600
H  40.00200 40.65300 31.72700
H  39.63600 41.95400 30.72100
H  38.94700 43.01400 32.39600
H  40.52300 43.43400 32.96200
H  44.87700 35.83700 28.32500
H  43.46800 34.97600 28.27200
H  43.44500 36.41100 29.35500
H  43.73300 33.91300 26.02600
H  45.10700 34.95100 26.36900
H  45.03900 34.11000 24.77800
H  41.41800 39.70700 21.97400
H  43.06200 42.16100 21.61400
H  44.09900 40.25400 20.62700
H  42.92100 38.97800 20.40000
H  44.11400 38.90000 21.71900
H  40.09100 42.50200 21.69200
H  40.57900 41.23600 20.63900
H  42.34100 43.20600 19.79800
H  40.86700 44.07000 20.22300
H  40.79700 42.81800 19.05000
H  41.26900 46.35200 23.91900
H  41.09100 47.13300 25.58600
H  39.75400 46.24700 24.90700
H  39.83500 44.28600 29.96700
H  42.59600 46.87100 32.38600
H  42.09600 45.49600 33.39200
H  41.08300 46.92800 33.24000

