158

Mg 25.30900 1.06900 30.40300
C  27.23500 1.06700 33.25800
C  22.46000 1.49500 32.34000
C  23.36000 1.10600 27.59300
C  28.00200 0.56800 28.47600
N  24.86600 1.27500 32.57200
C  25.88500 1.38800 33.48200
C  25.27600 1.77800 34.90700
C  23.73400 1.78800 34.59800
C  23.65400 1.48200 33.14400
C  22.83200 0.99500 35.62000
C  25.93000 3.08800 35.57600
C  26.56600 2.90000 36.94400
H  26.35900 4.00800 37.98500
N  23.25400 1.18300 30.08700
C  22.27000 1.38300 30.99600
C  21.02000 1.49500 30.32000
C  21.26100 1.47100 28.99000
C  22.68900 1.32100 28.83500
C  19.70800 1.62500 31.07700
C  20.26100 1.50400 27.83800
O  20.52500 1.34200 26.65100
C  18.81800 2.00700 28.12200
N  25.61500 0.90600 28.32600
C  24.71000 0.89800 27.35700
C  25.34200 0.77300 25.95700
C  26.86500 0.84400 26.30000
C  26.85400 0.73600 27.79000
C  24.86900 -0.59800 25.25500
C  27.63700 2.08400 25.72700
C  26.99600 3.40100 26.05300
N  27.26500 0.87300 30.72500
C  28.27600 0.59200 29.85200
C  29.53700 0.47400 30.60800
C  29.13700 0.68000 31.94000
C  27.75500 0.91300 31.96000
C  30.87000 0.19300 30.11200
C  29.68700 0.79500 33.27800
O  30.84300 0.72900 33.70700
C  28.45100 1.03600 34.23400
C  28.42400 -0.10700 35.17200
O  27.91300 -1.19000 34.93100
O  28.95000 0.25900 36.42500
C  28.77400 -0.65700 37.50000
H  21.55100 1.73500 32.89500
H  22.83200 1.22700 26.64500
H  28.87800 0.46000 27.83400
H  25.40400 1.06900 35.72400
H  23.43500 2.83400 34.53300
H  21.82000 1.38800 35.72400
H  23.32600 0.95400 36.59100
H  22.57600 0.00600 35.24000
H  25.10400 3.79700 35.50700
H  26.70200 3.37600 34.86200
H  27.63400 2.97000 36.73900
H  26.34700 1.91300 37.35100
H  19.02600 0.81700 30.81000
H  19.38700 2.64000 30.84500
H  19.82900 1.48800 32.15200
H  18.36400 1.91300 27.13500
H  18.80700 2.99400 28.58300
H  18.22100 1.32000 28.72100
H  25.09300 1.66400 25.38100
H  27.35700 -0.00800 25.83100
H  23.96100 -1.00900 25.69700
H  25.62900 -1.37900 25.28100
H  24.68400 -0.52200 24.18400
H  27.76100 2.02800 24.64500
H  28.58400 2.16500 26.26000
H  26.79500 3.91500 25.11300
H  27.63500 4.09700 26.59600
H  26.05600 3.42300 26.60600
H  30.86200 -0.88200 29.93200
H  31.55700 0.66800 30.81300
H  31.04300 0.70600 29.16700
H  28.61300 1.96200 34.78700
H  27.95700 -0.38000 38.16500
H  29.66200 -0.67600 38.13200
H  28.61400 -1.67600 37.14600
Mg 37.18200 50.38700 25.50000
C  37.27900 48.23300 28.53500
C  36.12600 52.83400 27.63700
C  36.53300 52.14200 22.82600
C  37.88800 47.43200 23.68700
N  36.65400 50.48200 27.79500
C  36.94500 49.55000 28.79500
C  36.85900 50.13400 30.15600
C  36.04000 51.47300 29.89500
C  36.27800 51.61300 28.34900
C  34.57300 51.35300 30.29800
C  38.11100 50.08500 30.98200
C  38.04700 49.47500 32.36100
H  36.72900 49.48000 33.22500
N  36.55800 52.27800 25.24500
C  36.12600 53.14500 26.21500
C  35.77200 54.40800 25.49900
C  35.90500 54.20700 24.12800
C  36.29300 52.88200 24.02600
C  35.40500 55.63700 26.24300
C  35.48400 55.17300 22.95800
O  35.45700 54.73500 21.77300
C  35.13000 56.60600 23.18800
N  37.06000 49.83000 23.56600
C  36.90500 50.83100 22.59200
C  37.14400 50.22100 21.23000
C  37.75100 48.82100 21.53100
C  37.58200 48.65400 22.99700
C  35.83300 50.08800 20.43800
C  39.18500 48.58900 21.05000
C  39.42800 47.22500 20.35700
N  37.56600 48.27400 25.95800
C  37.93700 47.24400 25.01600
C  38.44200 46.12400 25.81400
C  38.12600 46.41600 27.15400
C  37.63400 47.74000 27.22000
C  38.95100 44.78500 25.38300
C  38.10400 45.91600 28.55200
O  38.44900 44.83200 28.91700
C  37.57100 47.07400 29.43600
C  36.40500 46.51700 30.15700
O  35.24300 46.51400 29.74200
O  36.75000 46.07400 31.43400
C  35.60700 45.71200 32.25700
H  35.78900 53.67800 28.24400
H  36.55000 52.57700 21.82400
H  38.25800 46.61600 23.06300
H  36.15000 49.46800 30.64800
H  36.59200 52.20400 30.48600
H  34.38300 52.17500 30.98800
H  34.37200 50.39400 30.77600
H  33.90000 51.52200 29.45700
H  38.34500 51.14100 31.12000
H  38.94200 49.74300 30.36500
H  38.79700 50.03000 32.92400
H  38.36600 48.43300 32.32900
H  36.34800 56.11600 26.50600
H  34.90300 55.38000 27.17600
H  34.73800 56.34200 25.74700
H  34.17200 56.53500 23.70300
H  34.96000 56.91700 22.15800
H  35.96400 57.17600 23.59800
H  37.89800 50.82000 20.72000
H  37.15700 48.02200 21.08800
H  34.99000 50.61200 20.88700
H  35.58000 49.05200 20.21400
H  35.92500 50.57400 19.46700
H  39.74800 48.46900 21.97600
H  39.55300 49.47900 20.54000
H  40.01500 46.58600 21.01700
H  40.00100 47.37200 19.44200
H  38.49000 46.77100 20.04000
H  38.51700 43.91800 25.88100
H  40.00900 44.91600 25.61100
H  38.89500 44.47700 24.33900
H  38.35600 47.28600 30.16200
H  35.10800 44.75100 32.13400
H  34.78400 46.42600 32.21400
H  35.78400 45.54000 33.31800

