158

Mg 39.49300 9.38400 29.32800
C  41.31200 10.59100 31.90300
C  37.62100 7.50600 31.60600
C  37.94400 7.94100 26.74000
C  41.97800 10.51800 27.03300
N  39.34800 9.16200 31.43900
C  40.21700 9.86400 32.31100
C  39.79300 9.73000 33.71900
C  38.75400 8.50400 33.70400
C  38.54500 8.34100 32.17200
C  39.28700 7.16200 34.31900
C  39.19300 11.07600 34.22900
C  39.15000 11.10800 35.70900
H  39.60100 12.41100 36.35700
N  37.88400 8.04000 29.21000
C  37.18000 7.37400 30.22400
C  36.10000 6.59100 29.61500
C  36.15900 6.78200 28.19900
C  37.37100 7.61700 28.00000
C  35.16000 5.86900 30.61800
C  35.27000 6.13200 27.07300
O  35.49700 6.41400 25.87500
C  34.22000 5.16000 27.46200
N  39.98400 9.22600 27.18900
C  39.09400 8.61700 26.38700
C  39.44600 8.85400 24.94400
C  40.74900 9.71400 25.00800
C  41.00100 9.81200 26.49300
C  39.67900 7.63300 24.05300
C  40.61300 11.09600 24.27900
C  39.63300 12.11700 24.80900
N  41.29100 10.31500 29.44200
C  42.15600 10.68900 28.42200
C  43.26000 11.33200 29.10000
C  43.01300 11.30200 30.45900
C  41.75800 10.66900 30.60400
C  44.48000 11.91200 28.35400
C  43.46500 11.75500 31.75300
O  44.52000 12.33000 31.99100
C  42.40700 11.40200 32.78000
C  43.07800 10.45500 33.77500
O  43.82300 9.53800 33.56500
O  42.79100 10.85400 35.03300
C  43.09100 10.04500 36.23200
H  37.04900 6.92100 32.33000
H  37.46800 7.50100 25.86100
H  42.68300 10.99500 26.34800
H  40.67100 9.60500 34.35200
H  37.78600 8.75100 34.14000
H  40.27100 7.37100 34.73900
H  39.42500 6.43200 33.52200
H  38.64500 6.77700 35.11100
H  38.21300 11.07600 33.75200
H  39.57500 11.98200 33.75600
H  39.67100 10.25900 36.15200
H  38.09900 11.11400 36.00000
H  35.38700 5.92500 31.68200
H  35.07900 4.81900 30.33400
H  34.16800 6.30700 30.51000
H  33.67500 5.55500 28.31900
H  34.77400 4.25200 27.70400
H  33.60400 5.04000 26.57100
H  38.58200 9.37900 24.53500
H  41.54500 9.20800 24.46100
H  38.88700 7.44600 23.32800
H  39.71200 6.72900 24.66100
H  40.59500 7.60300 23.46300
H  40.28400 10.93100 23.25300
H  41.53700 11.67000 24.20700
H  39.24200 11.92800 25.80900
H  38.75000 12.02000 24.17700
H  40.03200 13.12900 24.88600
H  44.21100 12.15200 27.32600
H  45.33800 11.25700 28.50100
H  44.74800 12.78500 28.95000
H  41.98200 12.30700 33.21400
H  42.94300 9.00300 35.95000
H  42.51400 10.26600 37.13000
H  44.16900 10.12600 36.36800
Mg 16.33600 52.44600 26.42800
C  18.09200 51.04600 29.20600
C  14.08200 53.68200 28.70200
C  14.36100 52.93300 23.90100
C  18.77100 50.95300 24.33500
N  15.98600 52.19800 28.66700
C  16.93200 51.75000 29.62400
C  16.46800 52.11000 31.06200
C  15.01500 52.53900 30.83900
C  14.98900 52.86800 29.31500
C  13.93300 51.48100 31.18600
C  17.32600 53.28100 31.69900
C  17.85100 53.04000 33.07100
H  17.01300 52.02100 33.92800
N  14.60300 53.33800 26.30100
C  13.82200 53.86600 27.31200
C  12.70600 54.66600 26.67000
C  12.64900 54.27300 25.30700
C  13.88700 53.45100 25.11500
C  11.73700 55.59700 27.43400
C  11.56800 54.65800 24.22800
O  11.61600 54.40200 22.99900
C  10.48100 55.60300 24.65800
N  16.64300 52.01400 24.39400
C  15.62000 52.27100 23.51200
C  15.98800 51.83500 22.10700
C  17.51300 51.47900 22.23000
C  17.65900 51.48200 23.73000
C  15.17800 50.65100 21.56200
C  18.38800 52.49700 21.44000
C  18.97700 53.77900 21.96300
N  18.11300 51.33600 26.70800
C  18.96300 50.78900 25.74600
C  20.05000 49.98800 26.35800
C  19.71100 50.11700 27.69000
C  18.53600 50.88800 27.82800
C  21.24100 49.35900 25.77000
C  20.22400 49.91300 29.03000
O  21.29500 49.44700 29.31700
C  19.20700 50.50900 30.06000
C  18.75600 49.34300 30.93000
O  17.79200 48.63800 30.64200
O  19.59200 49.22700 32.02200
C  19.39100 48.11300 32.87900
H  13.36500 54.19600 29.34500
H  13.85000 53.16100 22.96300
H  19.57500 50.56800 23.70300
H  16.60200 51.15300 31.56600
H  14.74400 53.49300 31.29200
H  13.55700 51.65200 32.19500
H  14.25600 50.45100 31.03600
H  13.10400 51.54400 30.48100
H  16.78000 54.22200 31.63700
H  18.19600 53.35100 31.04600
H  17.96200 53.94500 33.66900
H  18.82700 52.59900 32.87200
H  11.85900 56.60900 27.04900
H  12.05100 55.79500 28.45800
H  10.68800 55.30100 27.42900
H  9.66600 55.47100 23.94600
H  10.87600 56.60900 24.79600
H  10.05000 55.27000 25.60200
H  15.72000 52.62700 21.40800
H  17.80600 50.50800 21.83100
H  15.78800 49.74800 21.54600
H  14.95100 50.78800 20.50400
H  14.22000 50.46800 22.04900
H  17.96000 52.96100 20.55200
H  19.13400 51.90800 20.90600
H  18.47400 54.67000 21.58800
H  20.01600 53.75800 21.63300
H  18.98800 53.89600 23.04700
H  22.06400 49.26500 26.47800
H  21.53500 49.76200 24.80100
H  21.03200 48.29000 25.75100
H  19.73000 51.21700 30.70300
H  19.28900 47.21600 32.26700
H  18.40200 48.16100 33.33500
H  20.09500 48.06700 33.70900

