158

Mg 40.45700 40.66500 27.14600
C  39.80200 43.03300 29.59300
C  41.79300 38.65600 29.54900
C  41.52400 38.68800 24.63700
C  39.82400 43.18700 24.69800
N  40.79800 40.84900 29.35300
C  40.36300 41.87700 30.10100
C  40.63900 41.64100 31.62500
C  41.20300 40.13700 31.61200
C  41.36700 39.85500 30.08700
C  42.47300 40.06900 32.45000
C  39.40000 41.64100 32.49700
C  39.28800 42.71000 33.61700
H  38.41300 42.37900 34.82600
N  41.44300 38.85500 27.09800
C  41.94600 38.17600 28.13400
C  42.47200 36.88500 27.74400
C  42.45000 36.91300 26.30900
C  41.79200 38.20900 25.91200
C  43.14800 36.01400 28.73800
C  42.94400 35.80900 25.31700
O  42.81900 35.84000 24.10400
C  43.37700 34.48900 25.87800
N  40.74700 41.01200 24.97700
C  40.91500 39.82400 24.23200
C  40.46200 40.10200 22.79000
C  39.79200 41.51300 22.82300
C  40.13800 41.98100 24.25200
C  41.67800 40.14800 21.82000
C  38.26700 41.66000 22.44300
C  37.26000 40.83500 23.22100
N  39.77200 42.62200 27.09200
C  39.68100 43.59100 26.04100
C  39.26900 44.84500 26.52000
C  39.25700 44.65200 27.90400
C  39.62100 43.31100 28.22500
C  38.82400 45.99600 25.68000
C  38.86700 45.32000 29.12600
O  38.30200 46.39300 29.36400
C  39.27800 44.25300 30.30000
C  40.30200 44.99200 31.14200
O  41.50000 45.04500 30.88500
O  39.69800 45.53400 32.20500
C  40.61000 46.50300 32.97000
H  42.06200 37.88900 30.27800
H  41.78100 37.96700 23.85900
H  39.46500 43.78000 23.85500
H  41.34000 42.36600 32.03900
H  40.54200 39.35200 31.97800
H  42.35600 39.03500 32.77700
H  42.50900 40.82300 33.23600
H  43.33300 40.20900 31.79600
H  39.25800 40.70500 33.03700
H  38.49700 41.86300 31.92700
H  38.68300 43.43800 33.07600
H  40.29300 43.03900 33.88000
H  42.72400 35.01100 28.68100
H  43.18400 36.28700 29.79300
H  44.17300 35.77000 28.45900
H  44.11800 34.56100 26.67400
H  43.75100 33.86900 25.06300
H  42.50400 33.90900 26.17900
H  39.76500 39.27200 22.67600
H  40.33500 42.22100 22.19700
H  41.75300 39.26500 21.18500
H  42.54100 40.09700 22.48400
H  41.90500 41.06700 21.28100
H  38.20000 41.35000 21.40000
H  38.02000 42.72100 22.46800
H  37.71400 40.21300 23.99300
H  36.73500 40.13300 22.57300
H  36.51100 41.47700 23.68400
H  38.31400 45.69300 24.76500
H  39.68300 46.62400 25.44300
H  38.18600 46.60100 26.32300
H  38.33300 43.96300 30.75900
H  40.19700 46.82600 33.92500
H  40.68500 47.30600 32.23600
H  41.55700 46.04700 33.25900
Mg 34.04900 48.50100 25.33200
C  34.42300 47.17300 28.64600
C  32.71500 51.42500 26.81600
C  33.53200 49.74100 22.21600
C  35.24300 45.61300 24.03800
N  33.61000 49.20300 27.43400
C  33.89900 48.50800 28.55600
C  33.70800 49.34300 29.84700
C  33.07400 50.70000 29.27800
C  33.15400 50.47900 27.75900
C  31.66100 50.97800 29.76500
C  35.07200 49.57400 30.62400
C  35.00900 49.43900 32.16000
H  33.59300 49.42300 32.84000
N  33.16200 50.32700 24.64600
C  32.67700 51.33200 25.43900
C  32.24300 52.39000 24.54000
C  32.46500 51.98700 23.18700
C  33.08500 50.59100 23.25600
C  31.78300 53.73400 25.16000
C  32.15800 52.69900 21.94600
O  32.25600 52.25400 20.81800
C  31.71500 54.08900 22.00200
N  34.21300 47.71000 23.38500
C  34.13700 48.48800 22.28400
C  34.60700 47.75800 21.02100
C  35.15300 46.42200 21.56700
C  34.89200 46.60600 23.13100
C  33.56500 47.43600 19.95600
C  36.61500 46.14200 21.21500
C  37.66600 46.91600 22.06500
N  34.67200 46.72200 26.09300
C  35.11000 45.61000 25.44600
C  35.49300 44.61600 26.39500
C  35.16600 45.15200 27.62300
C  34.73600 46.47900 27.42000
C  36.05700 43.21700 26.04000
C  35.17800 44.81300 29.05800
O  35.41200 43.72700 29.56500
C  34.70800 46.14000 29.74900
C  33.54000 45.67100 30.56400
O  32.39900 45.61000 30.16700
O  33.88300 45.22400 31.79600
C  32.83500 45.11800 32.86000
H  32.33600 52.29000 27.36500
H  33.46600 50.27100 21.26400
H  35.69800 44.64500 23.82000
H  32.89300 48.80800 30.33400
H  33.65500 51.60300 29.46300
H  31.59500 52.06000 29.87600
H  31.39100 50.53500 30.72300
H  30.92500 50.86400 28.96900
H  35.47900 50.58100 30.53200
H  35.74500 48.85700 30.15500
H  35.56600 50.26300 32.60500
H  35.46700 48.47100 32.36200
H  32.47300 54.49800 24.80100
H  31.80000 53.74800 26.25000
H  30.83000 54.16000 24.84600
H  30.67000 54.23000 22.27800
H  31.66200 54.61700 21.05000
H  32.36600 54.72800 22.59900
H  35.35100 48.35300 20.49100
H  34.56700 45.54200 21.30200
H  33.29800 48.39900 19.52200
H  32.68000 46.87500 20.25600
H  34.06300 46.83000 19.20000
H  36.66300 46.46700 20.17500
H  36.73400 45.06000 21.27600
H  37.20700 47.52700 22.84200
H  38.04700 47.61700 21.32200
H  38.47900 46.33100 22.49500
H  36.81500 43.00500 26.79400
H  36.60900 43.10500 25.10700
H  35.34800 42.38900 26.00800
H  35.49800 46.42000 30.44500
H  32.04600 45.82600 32.60700
H  33.20500 45.37600 33.85300
H  32.36900 44.13400 32.81500

