158

Mg -3.37500 17.15900 26.70200
C  -3.75000 14.95900 29.31500
C  -3.48500 19.76300 28.87400
C  -3.30500 19.33600 24.10700
C  -3.72400 14.51300 24.50700
N  -3.65700 17.21600 28.84000
C  -3.70700 16.22200 29.74400
C  -3.66100 16.75100 31.26300
C  -3.61300 18.28800 31.06900
C  -3.60600 18.45900 29.48800
C  -4.74700 19.11600 31.73500
C  -2.43800 16.14400 32.08500
C  -1.88400 16.95800 33.28300
H  -1.49000 16.29500 34.60800
N  -3.23100 19.19300 26.53000
C  -3.30500 20.12900 27.52300
C  -2.96100 21.44200 26.96500
C  -2.73900 21.28200 25.55800
C  -3.07200 19.85200 25.36800
C  -2.74100 22.69200 27.80200
C  -2.17900 22.16700 24.46900
O  -2.02900 21.77500 23.36700
C  -1.67900 23.59500 24.82000
N  -3.72600 16.92200 24.61400
C  -3.56100 18.00500 23.77000
C  -3.63400 17.54100 22.31500
C  -3.83600 16.03300 22.46000
C  -3.68900 15.78900 23.97100
C  -4.76300 18.24700 21.51200
C  -2.77700 15.21800 21.67200
C  -1.24100 15.23700 22.11900
N  -3.59300 15.09500 26.79400
C  -3.80900 14.17000 25.88600
C  -3.90900 12.86800 26.43100
C  -3.75800 13.06100 27.81200
C  -3.69600 14.48100 27.96200
C  -4.15100 11.54200 25.77300
C  -3.67000 12.45500 29.05300
O  -3.63700 11.24900 29.19600
C  -3.84900 13.66700 30.13200
C  -2.74800 13.37700 31.03700
O  -1.60000 13.63300 30.70200
O  -3.16200 12.72300 32.14700
C  -2.08800 12.35000 33.14600
H  -3.47900 20.68400 29.46100
H  -3.54000 20.05300 23.31800
H  -3.84100 13.58300 23.94800
H  -4.59800 16.46100 31.73900
H  -2.69800 18.79100 31.38300
H  -5.22400 19.76200 30.99800
H  -4.39000 19.88000 32.42600
H  -5.39700 18.45900 32.31200
H  -1.60500 15.91400 31.42000
H  -2.73300 15.21700 32.57600
H  -2.59000 17.73400 33.58000
H  -1.00400 17.46800 32.89300
H  -3.29600 23.54300 27.40800
H  -1.68700 22.96800 27.83500
H  -3.12000 22.55500 28.81500
H  -0.74600 23.57600 25.38200
H  -2.52100 24.08800 25.30600
H  -1.44300 24.15600 23.91600
H  -2.68200 17.84900 21.88200
H  -4.82500 15.64600 22.21300
H  -5.29600 19.00400 22.08800
H  -5.45600 17.56700 21.01700
H  -4.25100 18.79400 20.72100
H  -2.79800 15.67700 20.68400
H  -3.20800 14.21700 21.64700
H  -1.04300 15.93500 22.93300
H  -0.70800 15.69400 21.28600
H  -0.77800 14.27000 22.31800
H  -3.18000 11.11500 25.52200
H  -4.76500 11.67000 24.88100
H  -4.65800 10.90200 26.49500
H  -4.84700 13.65400 30.57000
H  -1.83100 11.30300 32.98400
H  -2.55700 12.56400 34.10700
H  -1.16700 12.92800 33.06700
Mg 10.12200 46.95200 25.20300
C  7.52800 47.31300 27.51600
C  12.30200 48.32100 27.28900
C  12.32300 46.85700 22.64300
C  7.52000 46.11800 22.71800
N  9.91200 47.68600 27.23000
C  8.81200 47.69100 28.04300
C  9.22000 48.04200 29.47300
C  10.67600 48.60900 29.26700
C  10.97100 48.29500 27.80000
C  10.86700 50.13500 29.53400
C  9.00100 46.95300 30.63600
C  9.61000 47.21400 32.01300
H  8.79200 46.55200 33.16400
N  12.02600 47.42300 25.01600
C  12.79700 47.90700 26.02000
C  14.24800 47.82300 25.55600
C  14.17200 47.26200 24.27600
C  12.77500 47.17300 23.94300
C  15.35900 48.18500 26.53500
C  15.38800 46.76100 23.40400
O  15.25600 46.30700 22.29800
C  16.78000 46.77600 24.01100
N  9.88400 46.45700 22.99700
C  11.04900 46.56900 22.22500
C  10.58400 46.30600 20.75400
C  9.14400 45.64400 20.86400
C  8.80700 46.05700 22.25900
C  10.80400 47.55400 19.85500
C  9.14500 44.06700 20.62400
C  9.01600 43.24300 21.93100
N  7.99500 46.71200 25.07400
C  7.15500 46.33700 24.07900
C  5.84600 46.21000 24.54900
C  5.95700 46.50800 25.91800
C  7.28000 46.94100 26.15500
C  4.60500 45.79800 23.68500
C  5.15000 46.55400 27.11700
O  3.99700 46.27800 27.34500
C  6.18100 47.07800 28.18700
C  6.24100 46.00500 29.19000
O  6.95400 45.00400 29.10500
O  5.34000 46.27400 30.19500
C  5.05600 45.22900 31.11700
H  13.08200 48.60600 27.99800
H  12.97600 46.92400 21.77100
H  6.78600 45.69000 22.03300
H  8.55000 48.88300 29.65100
H  11.35500 48.10200 29.95200
H  11.59500 50.23500 30.33900
H  9.93900 50.58700 29.88400
H  11.26100 50.52200 28.59500
H  9.26900 45.99800 30.18600
H  7.92300 47.01000 30.78700
H  9.81500 48.28000 32.10500
H  10.53300 46.63300 32.01600
H  15.04800 48.51100 27.52800
H  16.00500 48.97600 26.15300
H  15.97800 47.31000 26.73500
H  16.77000 46.13000 24.88900
H  17.06300 47.80800 24.21900
H  17.50600 46.35800 23.31400
H  11.29700 45.56500 20.39300
H  8.41800 46.02300 20.14400
H  9.83100 47.92500 19.53200
H  11.49900 47.39900 19.02900
H  11.29900 48.40000 20.33200
H  10.05200 43.81700 20.07400
H  8.25100 43.86900 20.03300
H  9.14800 43.80800 22.85400
H  9.66100 42.36400 21.93300
H  8.00600 42.83200 21.95200
H  5.04500 44.99300 23.09700
H  4.23000 46.65600 23.12700
H  3.80300 45.38000 24.29300
H  5.86500 47.99300 28.68800
H  4.52500 44.33600 30.78500
H  4.41000 45.76600 31.81100
H  5.88800 44.90200 31.74000

