158

Mg 1.67100 -2.28400 43.79100
C  5.10500 -1.32600 43.27600
C  0.81000 0.54000 41.96900
C  -1.29200 -3.48500 43.72200
C  2.88300 -5.30600 45.04400
N  2.88200 -0.50900 42.83200
C  4.24600 -0.34800 42.80300
C  4.57200 0.97100 42.02600
C  3.21200 1.72100 42.10200
C  2.21500 0.53100 42.27500
C  3.10200 2.97800 43.13000
C  5.31300 0.60500 40.65400
C  6.59200 1.42200 40.28600
H  6.73000 2.00900 38.88600
N  -0.04000 -1.54600 42.99500
C  -0.23300 -0.39200 42.26700
C  -1.62200 -0.25300 41.94100
C  -2.27300 -1.34000 42.52200
C  -1.17700 -2.19400 43.15000
C  -2.33900 1.05300 41.29000
C  -3.76500 -1.57800 42.46700
O  -4.57900 -0.80500 41.89500
C  -4.38500 -2.79900 42.98100
N  0.92700 -4.34300 43.95800
C  -0.38800 -4.44600 44.14200
C  -0.75900 -5.79100 44.81100
C  0.61200 -6.41200 45.12300
C  1.52300 -5.27000 44.68700
C  -1.60100 -5.57000 45.98200
C  1.06100 -7.61500 44.26800
C  1.50100 -8.86900 44.94400
N  3.55700 -3.18600 44.20300
C  3.83400 -4.37500 44.74300
C  5.29600 -4.41300 44.93900
C  5.89700 -3.29000 44.34800
C  4.72100 -2.51000 43.92200
C  5.97300 -5.42000 45.74000
C  7.08900 -2.63600 43.87600
O  8.22200 -2.99500 44.09600
C  6.68000 -1.28700 43.21400
C  7.19400 -0.18600 43.99800
O  6.73100 0.19700 45.06200
O  8.25400 0.45100 43.42200
C  8.96300 1.57600 44.10200
H  0.49800 1.23900 41.19100
H  -2.33500 -3.81000 43.72800
H  3.29200 -6.10900 45.66000
H  5.36500 1.45700 42.59400
H  2.98500 2.16300 41.13200
H  4.10300 3.38900 43.25900
H  2.69000 2.76800 44.11700
H  2.52000 3.81900 42.75100
H  4.50700 0.72300 39.93000
H  5.62500 -0.43900 40.68600
H  7.45500 0.80700 40.53900
H  6.71400 2.27300 40.95600
H  -2.87600 0.91800 40.35100
H  -1.56900 1.80500 41.11600
H  -2.96000 1.61300 41.98800
H  -5.40800 -2.74500 42.60800
H  -4.15900 -2.83000 44.04700
H  -3.90300 -3.63900 42.48100
H  -1.23500 -6.42000 44.05900
H  0.81000 -6.71400 46.15100
H  -1.10700 -5.80300 46.92500
H  -2.48400 -6.18800 45.82100
H  -1.98100 -4.55600 46.10000
H  2.01600 -7.45800 43.76600
H  0.30200 -7.82000 43.51200
H  0.90100 -8.96900 45.84800
H  2.53000 -8.80700 45.30000
H  1.39800 -9.76800 44.33600
H  5.40600 -5.90800 46.53300
H  6.92200 -5.09300 46.16500
H  6.28700 -6.21700 45.06700
H  7.06000 -1.22500 42.19400
H  8.19300 2.16300 44.60300
H  9.37900 2.15000 43.27500
H  9.79400 1.19300 44.69500
Mg 55.40300 24.04100 45.06300
C  53.03300 26.57700 44.21900
C  53.09000 21.76500 43.89100
C  57.87900 21.78100 44.95600
C  57.77200 26.59600 45.79000
N  53.34400 24.14300 43.99900
C  52.55700 25.29800 43.88900
C  51.13900 24.88300 43.44200
C  51.07900 23.37200 43.82500
C  52.56700 23.03000 43.84600
C  50.35400 22.88500 45.03600
C  50.94100 25.21200 41.92800
C  49.55100 25.57800 41.45600
H  49.19400 25.46400 39.93900
N  55.44400 22.07700 44.49400
C  54.36600 21.32300 44.11400
C  54.86300 19.94600 43.89300
C  56.25700 19.89300 44.12900
C  56.59900 21.28700 44.54500
C  53.83800 18.87300 43.41100
C  57.12600 18.68900 43.93400
O  56.63600 17.61300 43.57100
C  58.61300 18.74500 44.19800
N  57.58900 24.17900 45.31900
C  58.32600 23.04000 45.39200
C  59.78200 23.45800 45.76500
C  59.75900 25.01700 45.95600
C  58.25200 25.30100 45.71600
C  60.34700 22.74400 47.00800
C  60.75900 25.70400 44.89500
C  61.50900 26.95500 45.48600
N  55.41300 26.13500 45.11500
C  56.42700 26.97400 45.53600
C  55.83200 28.34300 45.55400
C  54.52600 28.20600 45.02800
C  54.31800 26.82900 44.80800
C  56.57100 29.54900 45.96700
C  53.28500 28.86900 44.81100
O  52.92100 30.04700 44.91300
C  52.40000 27.93200 44.03600
C  52.32200 28.37300 42.59900
O  53.16800 28.28200 41.73600
O  51.03300 28.94300 42.44800
C  50.76400 29.26800 41.06100
H  52.31700 21.01400 43.71300
H  58.71600 21.08600 45.04600
H  58.52000 27.34600 46.05400
H  50.33900 25.40200 43.96900
H  50.56900 22.92300 42.97300
H  49.83900 23.72800 45.49600
H  51.08600 22.46400 45.72500
H  49.67800 22.10300 44.69000
H  51.12000 24.27900 41.39400
H  51.57600 26.06400 41.68400
H  49.37900 26.63000 41.68200
H  48.73400 25.06100 41.95900
H  53.75900 18.64100 42.34900
H  52.82000 19.03600 43.76600
H  54.14600 17.92900 43.86100
H  59.14600 19.52000 43.64700
H  59.14400 17.85900 43.85100
H  58.73300 18.74800 45.28100
H  60.33200 23.16600 44.87100
H  59.89200 25.23700 47.01500
H  61.09900 21.97200 46.85000
H  59.53400 22.27300 47.56100
H  60.76100 23.49800 47.67800
H  60.11400 26.06300 44.09300
H  61.51100 25.04300 44.46400
H  62.47700 27.08700 45.00100
H  61.58800 26.85600 46.56800
H  60.85600 27.81000 45.30900
H  57.43800 29.89000 45.40200
H  56.83600 29.20100 46.96500
H  55.80600 30.32500 46.02600
H  51.41800 27.91100 44.50800
H  51.54300 29.92500 40.67400
H  49.76300 29.69900 41.03600
H  50.85000 28.33600 40.50200

