158

Mg 1.63400 8.26900 27.34700
C  1.92000 10.11800 30.28800
C  1.46900 5.49800 29.26900
C  1.53800 6.47000 24.58400
C  1.84600 11.25900 25.54700
N  1.73700 7.89600 29.58900
C  1.73700 8.78700 30.57900
C  1.41800 8.18800 31.93800
C  1.52600 6.65400 31.55200
C  1.51200 6.64500 30.02600
C  2.75900 6.02200 32.10500
C  -0.02400 8.57200 32.42400
C  -0.35600 8.63800 33.94900
H  0.74900 8.25800 34.98300
N  1.67500 6.22100 26.94300
C  1.47100 5.29800 27.88700
C  1.33700 3.96400 27.29600
C  1.45400 4.25600 25.92000
C  1.62700 5.68700 25.74200
C  1.16900 2.67800 28.13100
C  1.45600 3.33900 24.79400
O  1.63000 3.72600 23.63700
C  1.10800 1.85100 25.03800
N  1.76900 8.76700 25.37400
C  1.71400 7.87400 24.38100
C  1.73900 8.57700 22.96600
C  1.42900 10.03500 23.34600
C  1.75700 10.01100 24.86300
C  3.11800 8.16000 22.32500
C  -0.05300 10.50600 22.99300
C  -0.57000 10.41300 21.47200
N  1.82300 10.35000 27.78900
C  1.95900 11.42500 26.96100
C  2.15100 12.57000 27.68800
C  2.17000 12.17000 29.01600
C  2.03000 10.75900 29.00600
C  2.15100 13.94100 27.12700
C  2.39700 12.57500 30.39200
O  2.73300 13.62700 30.89100
C  2.03500 11.25700 31.21900
C  2.93800 11.24000 32.40900
O  3.99400 10.66700 32.60600
O  2.28800 12.00200 33.35900
C  3.03100 12.05400 34.67800
H  1.37600 4.58400 29.85900
H  1.35900 5.91800 23.65800
H  2.01100 12.07600 24.84200
H  2.11700 8.50500 32.71200
H  0.72000 6.03700 31.94900
H  3.65300 6.47400 31.67400
H  2.81500 5.03600 31.64400
H  2.91700 5.98000 33.18300
H  -0.79400 7.84200 32.17600
H  -0.20300 9.55600 31.99100
H  -1.17500 7.94000 34.12600
H  -0.69000 9.65500 34.15600
H  0.83700 1.75000 27.66600
H  0.47000 2.88700 28.94100
H  2.13100 2.48400 28.60400
H  1.32200 1.31500 24.11300
H  0.10300 1.81900 25.45900
H  1.81800 1.38800 25.72400
H  0.92400 8.04300 22.47800
H  2.19400 10.65000 22.87200
H  3.51700 8.95000 21.69000
H  2.66000 7.42400 21.66400
H  3.89900 7.86100 23.02500
H  -0.06900 11.55300 23.29500
H  -0.82400 10.07500 23.63300
H  0.16400 9.98000 20.79300
H  -1.08500 11.31200 21.13400
H  -1.44300 9.76000 21.47100
H  1.65100 14.10000 26.17100
H  3.19100 14.21200 26.94500
H  1.65000 14.72600 27.69300
H  1.01800 11.51200 31.51700
H  2.43900 12.74600 35.27800
H  4.03400 12.46200 34.55300
H  3.15100 11.09400 35.18100
Mg 25.98300 1.18000 29.50900
C  28.30400 0.69300 32.31500
C  23.51100 1.27900 31.80100
C  23.96200 1.23300 26.91900
C  28.74600 0.53100 27.34100
N  25.98700 1.04200 31.84400
C  26.98500 0.91800 32.74000
C  26.42700 1.26400 34.20000
C  24.85100 1.23100 33.98700
C  24.77200 1.22000 32.47100
C  24.13600 0.03200 34.63400
C  27.02200 2.50400 34.92600
C  27.94000 2.23100 36.14000
H  27.93900 3.21800 37.34600
N  24.02900 1.26900 29.40800
C  23.12400 1.26400 30.43000
C  21.76500 1.41300 29.89800
C  21.88200 1.30700 28.48200
C  23.32600 1.28200 28.20500
C  20.59600 1.47400 30.79300
C  20.77400 1.29500 27.39500
O  20.91200 1.02400 26.20300
C  19.37900 1.53700 27.75800
N  26.36200 0.95000 27.45700
C  25.33500 1.10100 26.57500
C  25.78100 1.00000 25.13400
C  27.27300 0.73300 25.25200
C  27.51500 0.74500 26.76700
C  25.08000 -0.04900 24.21000
C  28.24100 1.64500 24.37600
C  29.07200 2.67300 25.18200
N  28.05400 0.65800 29.70000
C  29.02400 0.49800 28.74600
C  30.26200 0.23900 29.34600
C  30.06800 0.32900 30.72500
C  28.70100 0.55500 30.92000
C  31.64700 0.11700 28.72600
C  30.68500 0.26900 32.00000
O  31.88300 0.11300 32.35400
C  29.60800 0.49600 33.10400
C  29.52600 -0.67600 34.05300
O  29.04600 -1.76200 33.74900
O  29.82600 -0.30600 35.38500
C  29.36600 -1.19000 36.46000
H  22.68300 1.46000 32.49000
H  23.32200 1.10500 26.04300
H  29.47900 0.30600 26.56400
H  26.57800 0.31600 34.71600
H  24.36000 2.12800 34.36300
H  24.72600 -0.61800 35.28200
H  23.65700 -0.58900 33.87600
H  23.32700 0.41800 35.25400
H  26.18600 3.08800 35.31000
H  27.41300 3.23100 34.21400
H  28.98400 2.19100 35.82700
H  27.68300 1.26000 36.56300
H  19.97100 0.58100 30.77400
H  19.91100 2.24300 30.43500
H  20.77500 1.76500 31.82800
H  19.25400 2.55600 28.12600
H  19.08800 0.87100 28.57000
H  18.73100 1.51800 26.88200
H  25.56700 1.93500 24.61600
H  27.58100 -0.27500 24.97500
H  25.83800 -0.72100 23.80800
H  24.48500 0.31100 23.37000
H  24.33300 -0.61800 24.76400
H  27.72700 2.00700 23.48500
H  29.06000 1.00200 24.05400
H  28.35200 3.10800 25.87500
H  29.37400 3.49800 24.53800
H  29.94600 2.34600 25.74700
H  32.41000 0.66300 29.28000
H  31.66800 0.46400 27.69300
H  31.86000 -0.95000 28.79400
H  29.85900 1.32200 33.77000
H  28.80900 -2.09600 36.22100
H  28.63300 -0.54700 36.94700
H  30.17100 -1.33600 37.18000

