158

Mg 25.05200 1.87300 29.34800
C  27.18300 1.45700 32.09900
C  22.42400 1.72000 31.56800
C  22.95600 1.95700 26.67700
C  27.75900 1.10400 27.27600
N  24.86300 1.92400 31.56900
C  25.89300 1.75200 32.52600
C  25.36400 1.81900 33.97900
C  23.81800 1.71100 33.78500
C  23.67900 1.66600 32.17000
C  23.08500 0.59000 34.50500
C  25.79700 3.13900 34.72400
C  26.44100 2.96400 36.00700
H  26.04200 3.93800 37.12800
N  22.90900 1.90500 29.12300
C  22.03900 1.76100 30.18500
C  20.65800 1.84000 29.55000
C  20.74500 1.86300 28.14800
C  22.25300 2.00000 27.90400
C  19.39600 1.97400 30.43400
C  19.63900 1.79700 27.07600
O  19.84300 1.89200 25.86800
C  18.28300 1.45800 27.53800
N  25.34800 1.75700 27.31800
C  24.32600 1.88100 26.37600
C  24.89800 1.64800 24.96000
C  26.48600 1.54400 25.17300
C  26.54100 1.41000 26.66300
C  24.32800 0.51900 24.13400
C  27.20200 2.82200 24.64600
C  26.69700 4.23600 25.28600
N  27.05400 1.45200 29.60900
C  28.04700 1.14600 28.68000
C  29.27400 0.76700 29.29800
C  29.01600 0.94000 30.65400
C  27.64300 1.32900 30.77000
C  30.50000 0.13200 28.63500
C  29.59300 0.78500 31.93400
O  30.69500 0.31500 32.31000
C  28.49400 1.24800 32.93700
C  28.34400 0.15700 34.00200
O  27.67900 -0.83100 33.86900
O  28.99800 0.51200 35.15600
C  28.65900 -0.27500 36.38700
H  21.61900 1.89100 32.28500
H  22.30500 2.13100 25.81800
H  28.56000 0.95500 26.54900
H  25.74200 0.90500 34.43700
H  23.29800 2.63000 34.05700
H  23.11500 -0.15300 33.70800
H  22.11600 1.03900 34.72200
H  23.51200 0.21600 35.43600
H  24.90500 3.71600 34.96500
H  26.42400 3.79400 34.11900
H  27.50500 3.16400 35.88300
H  26.28200 1.99200 36.47300
H  18.77600 2.77500 30.03200
H  19.58200 2.14700 31.49400
H  18.79900 1.06400 30.38200
H  18.35500 0.63100 28.24300
H  17.71600 1.04600 26.70300
H  17.73500 2.33000 27.89700
H  24.63500 2.58500 24.47100
H  26.98500 0.73600 24.63900
H  25.07100 0.15400 23.42500
H  23.51500 0.84700 23.48600
H  23.87200 -0.27800 24.72100
H  26.96900 2.83800 23.58100
H  28.27400 2.70000 24.80300
H  26.36000 4.85600 24.45600
H  27.54700 4.65100 25.82900
H  25.87900 4.17000 26.00400
H  31.35100 0.15000 29.31700
H  30.85600 0.66100 27.75100
H  30.18900 -0.89600 28.44700
H  28.75000 2.19100 33.41800
H  29.23600 0.06800 37.24500
H  28.95500 -1.31900 36.29100
H  27.57900 -0.15400 36.47900
Mg 41.93400 41.45500 26.59300
C  41.02400 43.84300 29.02000
C  43.05600 39.42600 28.98000
C  42.66700 39.18800 24.09500
C  41.10200 43.75200 24.21200
N  42.18300 41.68700 28.77300
C  41.50600 42.60000 29.54300
C  41.55600 42.21700 31.06300
C  42.46900 40.90000 30.92800
C  42.58000 40.60600 29.47700
C  43.90300 41.16300 31.50000
C  40.18000 42.17000 31.67100
C  39.92700 41.10600 32.82500
H  39.25300 41.81800 34.01600
N  42.81200 39.61700 26.51800
C  43.13200 38.91300 27.62300
C  43.77400 37.64700 27.25900
C  43.50400 37.50600 25.81900
C  43.00400 38.82000 25.42300
C  44.30900 36.66100 28.25100
C  43.63100 36.32500 24.92100
O  43.35800 36.35200 23.71400
C  44.07600 34.91100 25.50100
N  42.01600 41.43300 24.50200
C  42.19700 40.36900 23.67300
C  42.06300 40.69400 22.16800
C  41.31900 42.10000 22.31500
C  41.49600 42.49300 23.80600
C  43.35400 40.65200 21.36400
C  39.86100 42.14600 21.79500
C  38.85200 41.18000 22.40100
N  41.16800 43.40100 26.55300
C  41.03400 44.28300 25.48000
C  40.55300 45.50500 26.02600
C  40.54800 45.44100 27.36400
C  40.98800 44.15100 27.65700
C  40.02200 46.72300 25.26400
C  40.20600 46.10500 28.62600
O  39.72900 47.22500 28.80400
C  40.49300 45.02200 29.77700
C  41.41200 45.44000 30.88900
O  42.55900 45.75300 30.77700
O  40.68700 45.52700 32.06600
C  41.50100 45.47100 33.32600
H  43.50800 38.82800 29.77400
H  42.91100 38.47500 23.30500
H  40.62600 44.49300 23.56600
H  41.97300 43.00200 31.69300
H  42.08000 40.05900 31.50200
H  44.20600 40.19600 31.90200
H  43.88000 41.90400 32.29900
H  44.66500 41.45800 30.77900
H  39.57500 41.77700 30.85300
H  39.74900 43.14500 31.89800
H  40.86700 40.64000 33.11900
H  39.28000 40.35900 32.36500
H  45.19700 36.25200 27.77000
H  43.66500 35.80000 28.42900
H  44.66800 37.25100 29.09500
H  45.15400 34.78000 25.41500
H  43.73700 34.06900 24.89700
H  43.68500 34.56800 26.45900
H  41.47000 39.86400 21.78400
H  41.89800 42.83600 21.75600
H  43.53200 41.63300 20.92300
H  43.43600 39.83600 20.64600
H  44.17300 40.53200 22.07400
H  39.86400 41.99700 20.71600
H  39.51300 43.11700 22.14800
H  38.07400 41.69800 22.96300
H  39.32200 40.51600 23.12700
H  38.45000 40.57100 21.59100
H  39.25000 47.17900 25.88300
H  39.61500 46.24400 24.37300
H  40.85100 47.40200 25.06500
H  39.49000 44.81600 30.15200
H  41.48900 44.46300 33.74100
H  41.11100 46.23600 33.99700
H  42.52900 45.67100 33.02300

