158

Mg 0.67200 7.55400 25.62800
C  1.31300 9.52600 28.43600
C  0.51500 4.78200 27.52000
C  0.08400 5.73000 22.85300
C  1.02600 10.40200 23.69600
N  0.85400 7.23600 27.76000
C  1.06100 8.13600 28.77100
C  1.02500 7.44000 30.13800
C  0.89700 5.92900 29.72900
C  0.70600 5.97900 28.22200
C  2.11400 5.06100 30.19700
C  -0.05300 7.94000 31.08600
C  0.25300 7.94700 32.56100
H  1.35600 7.18900 33.33300
N  0.42800 5.45300 25.22300
C  0.44000 4.46800 26.14900
C  0.23900 3.16800 25.49300
C  0.24500 3.50000 24.06000
C  0.25500 4.91800 24.00800
C  0.12500 1.82400 26.21100
C  0.28900 2.61100 22.88000
O  0.30300 3.01400 21.72900
C  0.33900 1.18400 23.15300
N  0.65400 7.98800 23.59800
C  0.22400 7.10500 22.67900
C  -0.08000 7.75100 21.35500
C  0.04900 9.25600 21.58000
C  0.56300 9.24900 23.10000
C  0.71700 7.09300 20.17600
C  -1.32900 10.07500 21.42900
C  -1.14200 11.56100 20.93200
N  1.16900 9.56800 25.93700
C  1.33500 10.64800 25.02400
C  1.57500 11.81100 25.74400
C  1.69800 11.39600 27.07300
C  1.45500 10.03400 27.13400
C  1.61400 13.22900 25.24700
C  1.81300 11.92300 28.44000
O  2.00300 13.02800 28.85500
C  1.51000 10.72300 29.35500
C  2.62400 10.60900 30.32900
O  3.79200 10.39400 29.95200
O  2.25500 10.89200 31.63000
C  3.30700 10.90000 32.66700
H  0.42400 3.92500 28.19100
H  -0.22500 5.15100 21.98000
H  1.02000 11.23300 22.98700
H  1.98800 7.59600 30.62300
H  0.02100 5.49400 30.21100
H  2.66700 5.65400 30.92600
H  2.81400 4.89300 29.37900
H  1.77000 4.11900 30.62300
H  -0.84800 7.21300 30.91900
H  -0.35000 8.96200 30.85000
H  -0.67700 7.72800 33.08500
H  0.50900 8.97300 32.82500
H  1.11900 1.42700 26.00100
H  -0.63700 1.17800 25.77500
H  -0.06500 1.86500 27.28300
H  0.98000 0.90600 23.99000
H  0.74400 0.79300 22.21900
H  -0.67800 0.79000 23.14100
H  -1.15400 7.58700 21.26700
H  0.78700 9.60400 20.85700
H  1.22400 6.19400 20.52800
H  1.23900 7.79100 19.52200
H  -0.04600 6.74500 19.48000
H  -1.99000 9.93400 22.28500
H  -1.78500 9.54300 20.59300
H  -1.48600 11.69500 19.90600
H  -0.11400 11.87100 21.12200
H  -1.75600 12.22400 21.54100
H  1.49300 13.50800 24.20100
H  2.58100 13.61300 25.57200
H  0.88000 13.87500 25.73000
H  0.57200 10.97900 29.84800
H  4.20100 11.23700 32.14200
H  3.46500 9.92200 33.12000
H  3.15300 11.70100 33.39000
Mg 42.66500 41.61500 26.45000
C  41.91300 43.86500 29.18500
C  43.63000 39.35200 28.84700
C  44.01500 39.70400 24.06800
C  42.02300 44.07400 24.13900
N  42.76800 41.66700 28.71700
C  42.40500 42.61800 29.60200
C  42.42100 42.06500 31.05700
C  43.16500 40.70500 30.92500
C  43.16700 40.53900 29.39000
C  44.52800 40.66000 31.60300
C  41.08200 41.98800 31.75000
C  41.16300 41.78700 33.27300
H  40.53000 42.84900 34.14000
N  43.75100 39.72700 26.44600
C  43.81700 38.97800 27.52900
C  44.35300 37.66900 27.11400
C  44.55900 37.74800 25.70700
C  44.15300 39.09700 25.32300
C  44.56600 36.49500 28.05100
C  45.13000 36.80100 24.81500
O  45.42300 37.06900 23.65700
C  45.33700 35.35700 25.27400
N  43.15100 41.88900 24.45000
C  43.59500 40.91900 23.64800
C  43.53900 41.30400 22.18700
C  42.85700 42.63900 22.19900
C  42.66500 42.90600 23.66300
C  44.95900 41.24500 21.49900
C  41.39700 42.54700 21.49200
C  40.32100 41.72900 22.18700
N  41.98900 43.58700 26.51200
C  41.74900 44.45600 25.51400
C  41.35900 45.67500 26.05500
C  41.44200 45.55900 27.52400
C  41.74600 44.22300 27.73600
C  41.08800 46.89100 25.23200
C  41.31700 46.20200 28.80400
O  40.97500 47.33700 28.99400
C  41.50900 45.07800 29.92700
C  42.55100 45.62300 30.89700
O  43.78000 45.73500 30.60000
O  42.03700 46.02700 32.07100
C  43.03300 46.62800 32.98200
H  44.01200 38.65700 29.59700
H  44.49700 39.13600 23.27000
H  41.88300 44.84500 23.37800
H  42.99100 42.88700 31.49000
H  42.58500 39.97100 31.48300
H  44.56400 39.66200 32.03900
H  44.67500 41.27800 32.48900
H  45.36700 40.83400 30.92900
H  40.61200 41.07700 31.38100
H  40.49700 42.89700 31.60700
H  42.14600 41.58600 33.69900
H  40.64500 40.89100 33.61800
H  44.21600 35.57100 27.59200
H  44.08500 36.62000 29.02100
H  45.64600 36.43100 28.18000
H  45.87800 35.39300 26.21900
H  46.00200 34.96500 24.50400
H  44.39200 34.82500 25.17000
H  42.88600 40.49300 21.86500
H  43.53700 43.29800 21.65900
H  45.73300 40.94800 22.20600
H  45.28300 42.19000 21.06200
H  44.84900 40.45700 20.75300
H  41.55200 42.16300 20.48400
H  41.04600 43.55100 21.25400
H  39.50500 42.37900 22.50300
H  40.69900 41.13600 23.02000
H  39.89300 41.02400 21.47400
H  40.29800 47.48000 25.69700
H  40.78200 46.56500 24.23800
H  41.97400 47.52500 25.18300
H  40.59200 44.92300 30.49600
H  42.83300 46.24400 33.98200
H  43.01400 47.71300 33.08100
H  44.04700 46.24800 32.85700

