158

Mg 47.00000 34.15200 27.51800
C  45.48700 32.41600 30.02400
C  47.39700 36.91500 29.74200
C  48.01300 35.93300 24.99800
C  46.48200 31.46500 25.33700
N  46.53900 34.58900 29.64000
C  46.00900 33.66100 30.50500
C  46.11100 34.23700 31.96900
C  46.35700 35.79900 31.70300
C  46.79500 35.77700 30.22100
C  45.21000 36.70500 32.00400
C  47.26700 33.58100 32.69800
C  47.37500 33.76300 34.29900
H  46.38600 34.80600 34.92300
N  47.60400 36.16800 27.44700
C  47.71100 37.12100 28.41400
C  48.26200 38.29900 27.79000
C  48.41400 38.08800 26.39500
C  48.01200 36.70300 26.23900
C  48.61200 39.46100 28.60900
C  48.93800 39.07200 25.35700
O  48.98100 38.81200 24.14200
C  49.25300 40.54300 25.73800
N  47.19900 33.65500 25.45600
C  47.61700 34.65800 24.67600
C  47.89900 34.15900 23.18300
C  47.54800 32.73400 23.26900
C  47.05500 32.57500 24.78300
C  46.98000 34.91300 22.10000
C  48.66400 31.64500 22.91700
C  48.16100 30.24000 22.58200
N  46.14900 32.32800 27.65300
C  46.01700 31.30700 26.71700
C  45.38500 30.15500 27.28800
C  45.12700 30.57500 28.62300
C  45.60100 31.89300 28.73900
C  45.19700 28.79200 26.71100
C  44.62600 30.11100 29.90000
O  44.28100 29.01200 30.33900
C  44.56000 31.47800 30.71800
C  44.77700 31.16700 32.24500
O  45.80500 30.72600 32.79300
O  43.64400 31.53500 32.82900
C  43.53200 31.34900 34.22000
H  47.57200 37.68300 30.49900
H  48.42600 36.42100 24.11300
H  46.34300 30.55900 24.74300
H  45.18700 33.97600 32.48400
H  47.16800 36.07800 32.37600
H  45.35200 37.11900 33.00200
H  44.26100 36.19800 31.82900
H  45.22000 37.57300 31.34400
H  48.08000 34.15100 32.24900
H  47.35300 32.51600 32.48300
H  48.40600 34.04600 34.51200
H  47.05900 32.85900 34.82000
H  48.29600 40.43300 28.23100
H  49.69600 39.49800 28.71600
H  48.15900 39.51500 29.59900
H  48.34900 40.91500 26.22000
H  49.33600 41.06400 24.78400
H  50.17200 40.73200 26.29300
H  48.92100 34.40700 22.89600
H  46.73600 32.43700 22.60500
H  47.59000 35.42700 21.35800
H  46.40700 35.73800 22.52400
H  46.32900 34.23700 21.54500
H  49.28200 31.52400 23.80600
H  49.35500 32.15400 22.24500
H  48.71700 29.49500 23.15100
H  48.40800 29.97600 21.55400
H  47.08000 30.13300 22.66900
H  46.06700 28.16700 26.91300
H  45.09900 28.88800 25.62900
H  44.22600 28.34800 26.93200
H  43.55100 31.87600 30.62100
H  42.60400 30.80200 34.38400
H  43.47000 32.31500 34.72200
H  44.32400 30.73800 34.65300
Mg -2.76700 34.66300 26.81400
C  -3.90600 32.78600 29.50200
C  -1.37300 36.88700 29.07400
C  -2.39300 36.71100 24.25500
C  -4.64100 32.46100 24.73400
N  -2.67700 34.79600 28.99700
C  -3.08800 33.84500 29.90800
C  -2.70400 34.19900 31.34100
C  -1.91400 35.55000 31.17200
C  -2.00500 35.79300 29.67600
C  -2.43900 36.78000 31.93900
C  -1.95300 32.97100 32.07500
C  -2.52400 32.66800 33.51900
H  -1.43400 32.62000 34.61300
N  -1.92600 36.52800 26.63100
C  -1.35400 37.20200 27.67900
C  -0.86400 38.44900 27.10600
C  -1.15600 38.53800 25.68600
C  -1.83500 37.22800 25.41300
C  -0.27600 39.54600 27.99200
C  -0.73700 39.58600 24.73900
O  -1.16100 39.58800 23.57400
C  0.24500 40.76000 25.09100
N  -3.43500 34.59100 24.81300
C  -3.02800 35.50700 23.87500
C  -3.60300 35.33900 22.50100
C  -4.05200 33.86400 22.56400
C  -4.03400 33.60300 24.12300
C  -4.67500 36.36800 22.05500
C  -3.21300 32.81700 21.65900
C  -2.25100 31.96200 22.35300
N  -3.93700 32.86000 26.99100
C  -4.62100 32.06400 26.04600
C  -5.21900 30.90000 26.65100
C  -5.02700 31.21700 28.00200
C  -4.25600 32.34000 28.17500
C  -6.01400 29.81200 26.06900
C  -5.27500 30.75900 29.31900
O  -5.91100 29.79400 29.63700
C  -4.57100 31.73100 30.41400
C  -5.59400 32.18800 31.39100
O  -6.38500 33.11500 31.30200
O  -5.68800 31.31500 32.50800
C  -6.62300 31.80500 33.52300
H  -0.66700 37.50100 29.63700
H  -2.32200 37.41700 23.42500
H  -5.08500 31.71900 24.06800
H  -3.63300 34.33100 31.89600
H  -0.83100 35.45300 31.25100
H  -3.26500 36.52200 32.60100
H  -2.76600 37.57600 31.27100
H  -1.73500 37.20300 32.65500
H  -0.87800 33.14500 32.12500
H  -2.11700 32.05600 31.50600
H  -2.99300 31.68800 33.61000
H  -3.27100 33.34700 33.93000
H  0.78500 39.66800 27.77600
H  -0.40600 39.48600 29.07200
H  -0.67700 40.53000 27.75000
H  -0.20200 41.58500 25.64600
H  0.48900 41.37600 24.22600
H  1.15800 40.31500 25.48600
H  -2.76100 35.42300 21.81400
H  -5.10800 33.83400 22.29600
H  -4.79700 37.08600 22.86600
H  -5.72500 36.12800 21.89000
H  -4.34300 36.88500 21.15400
H  -2.65800 33.33500 20.87800
H  -3.94100 32.05100 21.38900
H  -2.43300 30.89700 22.21100
H  -2.10900 32.10200 23.42500
H  -1.30600 32.20300 21.86600
H  -5.59600 29.68700 25.07100
H  -7.05900 30.10000 25.95100
H  -5.76900 28.86700 26.55400
H  -3.83800 31.14100 30.96200
H  -6.23400 32.65900 34.07700
H  -6.90800 30.99200 34.19000
H  -7.56500 32.03600 33.02400

