158

Mg 29.47500 57.94100 39.96800
C  26.35500 56.34100 39.13900
C  31.03400 55.32900 38.70700
C  32.14700 60.00000 39.74700
C  27.42400 60.96700 40.59400
N  28.77400 56.04200 39.05400
C  27.51900 55.58300 38.92800
C  27.48600 54.17800 38.36900
C  29.02300 53.69700 38.62000
C  29.65400 55.07700 38.78300
C  29.24300 52.75100 39.75100
C  26.94400 53.98600 36.97700
C  27.12400 55.16500 35.93600
H  27.98100 54.87800 34.67500
N  31.41700 57.64700 39.47600
C  31.89100 56.42300 39.04900
C  33.34900 56.49200 38.99300
C  33.72400 57.85600 39.22700
C  32.43900 58.58500 39.50400
C  34.20400 55.31400 38.61500
C  35.06500 58.44800 39.26400
O  36.04800 57.75400 39.05700
C  35.25100 59.84500 39.58900
N  29.71400 60.19500 40.13200
C  30.94200 60.66900 40.09000
C  30.88800 62.24600 40.34900
C  29.44700 62.50600 40.61200
C  28.77300 61.15400 40.44000
C  31.86500 62.76600 41.56000
C  28.76300 63.55500 39.73100
C  27.77700 64.52700 40.43800
N  27.35600 58.52400 40.08500
C  26.68600 59.77700 40.29200
C  25.27400 59.50400 40.20400
C  25.09000 58.18000 39.69800
C  26.38600 57.65400 39.62500
C  24.18700 60.55200 40.46400
C  24.13400 57.19600 39.28700
O  22.92800 57.30000 39.16300
C  24.96900 55.89600 38.88500
C  24.54600 54.69100 39.74300
O  24.81500 54.45100 40.88600
O  23.75400 53.90300 38.98300
C  22.93300 52.84000 39.62500
H  31.60600 54.46300 38.36900
H  32.92900 60.75100 39.87700
H  26.78600 61.80500 40.88100
H  26.83800 53.58500 39.01500
H  29.40500 53.34600 37.66100
H  29.80900 51.86000 39.48000
H  28.30600 52.30000 40.07800
H  29.74800 53.28300 40.55700
H  25.88300 53.76200 37.09100
H  27.39500 53.08400 36.56500
H  27.64300 55.97900 36.44200
H  26.13700 55.51100 35.62700
H  35.20100 55.22600 39.04600
H  34.33700 55.20100 37.54000
H  33.75700 54.39900 39.00500
H  36.29800 60.14900 39.56300
H  34.94300 60.05000 40.61400
H  34.63600 60.30000 38.81300
H  31.17300 62.84800 39.48500
H  29.47400 62.83100 41.65200
H  32.63000 63.47600 41.24600
H  32.16400 61.92500 42.18500
H  31.32400 63.42100 42.24300
H  28.07500 63.11300 39.01000
H  29.50100 64.09900 39.14100
H  28.29300 65.40600 40.82500
H  27.55200 64.02000 41.37600
H  26.85200 64.74800 39.90600
H  24.64000 61.38400 41.00200
H  23.35700 60.30500 41.12600
H  23.85800 60.85600 39.47000
H  24.75900 55.66700 37.84000
H  23.45900 52.35600 40.44800
H  22.73800 51.94200 39.03900
H  21.98200 53.31200 39.87300
Mg -5.11800 25.59400 26.58800
C  -3.65500 26.82600 29.64000
C  -7.26100 23.64300 28.48800
C  -6.18300 24.21100 23.70300
C  -2.98300 27.50300 24.81900
N  -5.27200 25.18000 28.74400
C  -4.62900 25.84400 29.77400
C  -5.24100 25.38900 31.11900
C  -6.22000 24.22500 30.71900
C  -6.29200 24.32400 29.22000
C  -5.70400 22.86800 31.22900
C  -5.98100 26.58600 31.91800
C  -7.04100 26.31500 33.03000
H  -6.70400 25.24500 34.10000
N  -6.51500 24.26200 26.15200
C  -7.31600 23.58100 27.08800
C  -8.25300 22.76700 26.38300
C  -7.96000 22.87700 25.00800
C  -6.81600 23.79200 24.90500
C  -9.32100 22.06300 27.15200
C  -8.60500 22.22700 23.81700
O  -8.30400 22.50500 22.63700
C  -9.55200 21.06700 24.13500
N  -4.62400 25.77300 24.55100
C  -5.18000 25.11700 23.53100
C  -4.46700 25.39100 22.27000
C  -3.63300 26.68300 22.52400
C  -3.79300 26.76200 24.04900
C  -3.64400 24.16800 21.72400
C  -4.09100 27.96100 21.77300
C  -3.10200 28.41500 20.72800
N  -3.56600 26.87300 27.03500
C  -2.84900 27.65400 26.17500
C  -1.89300 28.50500 26.97200
C  -2.24400 28.26000 28.34000
C  -3.25500 27.28200 28.29400
C  -0.83400 29.38600 26.41000
C  -1.97300 28.64200 29.72900
O  -1.24900 29.53900 30.20500
C  -2.93600 27.70400 30.65900
C  -2.13200 27.01200 31.70500
O  -1.45300 26.00100 31.63100
O  -2.27600 27.71400 32.88100
C  -2.21000 26.93700 34.13200
H  -7.87400 22.91400 29.02100
H  -6.47800 23.90900 22.69600
H  -2.18500 27.98300 24.24800
H  -4.48400 25.09900 31.84700
H  -7.22200 24.32100 31.13900
H  -4.98100 22.99100 32.03600
H  -5.21100 22.42300 30.36400
H  -6.54900 22.27500 31.57800
H  -6.40500 27.09500 31.05200
H  -5.26000 27.28000 32.34900
H  -7.86400 25.97900 32.39900
H  -7.32300 27.27400 33.46600
H  -9.01000 21.07400 27.49000
H  -10.20000 21.76000 26.58300
H  -9.68900 22.65800 27.98800
H  -9.87100 20.63600 23.18600
H  -10.48200 21.36400 24.61900
H  -9.05200 20.30400 24.73200
H  -5.28900 25.68100 21.61500
H  -2.56700 26.51500 22.36700
H  -3.38300 23.45600 22.50700
H  -2.77900 24.56100 21.19000
H  -4.27700 23.68000 20.98300
H  -4.25400 28.81200 22.43500
H  -5.04200 27.81900 21.26000
H  -3.42400 28.09100 19.73800
H  -2.07700 28.09100 20.90200
H  -3.09100 29.50500 20.68800
H  -0.43700 28.98800 25.47600
H  -0.03600 29.58600 27.12500
H  -1.30600 30.35600 26.25700
H  -3.73700 28.28500 31.11600
H  -1.29600 27.22200 34.65400
H  -2.32800 25.86700 33.96200
H  -3.08500 27.20800 34.72300

