158

Mg 5.62300 54.59100 41.69300
C  5.41700 50.93700 41.70200
C  8.60000 54.35400 40.35300
C  5.35500 57.88500 41.28400
C  2.31600 54.60500 43.07300
N  6.80800 52.79200 40.92900
C  6.56200 51.43300 40.98700
C  7.78500 50.60700 40.48200
C  8.93600 51.75600 40.34000
C  8.09500 53.06400 40.50900
C  10.08200 51.58300 41.43300
C  7.55200 49.87000 39.11100
C  6.55100 50.58700 38.12400
H  6.98000 51.26400 36.75200
N  6.89000 55.98400 40.99400
C  8.09600 55.69300 40.49700
C  8.72400 56.85700 40.02200
C  7.82200 57.98300 40.18300
C  6.59100 57.32500 40.81700
C  9.96800 56.83100 39.16400
C  8.06500 59.44300 39.70000
O  9.14300 59.80300 39.27100
C  6.92900 60.44400 39.85700
N  4.05100 56.03700 42.09400
C  4.26700 57.38500 41.94300
C  3.10800 58.10800 42.53400
C  1.90800 57.03700 42.59800
C  2.82800 55.77600 42.63100
C  3.43200 58.78100 43.86800
C  0.88600 56.96500 41.42400
C  -0.53800 57.30900 41.75400
N  4.14900 53.12400 42.26300
C  2.93800 53.31200 42.94000
C  2.40300 52.04000 43.33500
C  3.34700 51.12300 42.83300
C  4.37900 51.79200 42.20500
C  1.16800 51.75200 44.19600
C  3.61100 49.73500 42.78700
O  2.90200 48.82600 43.16100
C  4.97800 49.54800 41.92400
C  4.62900 48.74800 40.76400
O  3.92200 49.10600 39.81600
O  5.25600 47.56000 40.88100
C  5.10400 46.69200 39.67700
H  9.67100 54.19600 40.20400
H  5.36800 58.97300 41.37500
H  1.29000 54.70800 43.43400
H  7.96000 49.83000 41.22600
H  9.31100 51.83500 39.31900
H  10.99900 51.95000 40.97300
H  10.09500 50.49800 41.54100
H  9.78200 52.06400 42.36400
H  7.14500 48.87800 39.30800
H  8.50800 49.81700 38.59000
H  5.95800 51.33700 38.64700
H  5.70700 49.94100 37.88100
H  10.08000 57.68700 38.49800
H  9.85800 55.96400 38.51200
H  10.76200 56.60200 39.87400
H  6.00300 60.06100 39.42900
H  7.22400 61.41700 39.46500
H  6.72500 60.57100 40.92000
H  2.81100 58.97700 41.94800
H  1.46300 57.17300 43.58400
H  2.53000 59.28500 44.21500
H  4.33400 59.39000 43.81200
H  3.61800 58.05100 44.65600
H  1.00600 56.00300 40.92600
H  1.23700 57.73600 40.73800
H  -1.02000 58.01300 41.07400
H  -0.63100 57.62500 42.79300
H  -1.22300 56.46800 41.64800
H  1.38200 50.94500 44.89600
H  0.36600 51.46400 43.51700
H  0.79100 52.59000 44.78200
H  5.79100 49.04900 42.45300
H  5.67600 47.08200 38.83500
H  4.04100 46.64000 39.44300
H  5.49300 45.69900 39.90400
Mg 8.48300 48.10300 26.29300
C  6.15200 48.15700 28.96300
C  10.93800 48.66200 28.60500
C  10.71100 48.38300 23.78100
C  5.84000 47.59500 24.05300
N  8.53500 48.20600 28.58800
C  7.43800 48.16000 29.44500
C  7.94500 48.13100 30.86000
C  9.44300 48.66600 30.71500
C  9.72600 48.49000 29.21800
C  9.62800 50.10800 31.19800
C  7.84000 46.71700 31.62000
C  7.34000 46.90400 33.03200
H  8.02700 46.28800 34.31400
N  10.55700 48.45600 26.16500
C  11.39100 48.77100 27.25800
C  12.68900 49.15800 26.77100
C  12.66700 48.91700 25.38400
C  11.28200 48.53600 25.03200
C  13.77500 49.54800 27.73000
C  13.77300 48.94500 24.33700
O  13.61400 48.65800 23.12500
C  15.18700 49.18200 24.81700
N  8.33200 48.05000 24.19700
C  9.42100 48.13500 23.31200
C  9.01200 47.71800 21.86600
C  7.43400 47.48100 22.02000
C  7.17600 47.67400 23.52600
C  9.44900 48.70200 20.75500
C  6.96300 46.12300 21.46300
C  5.66900 46.12100 20.66300
N  6.46000 48.00600 26.35700
C  5.51500 47.82400 25.35000
C  4.22400 47.84000 25.89300
C  4.36900 47.96100 27.31000
C  5.78600 48.00800 27.56700
C  2.89800 47.65300 25.28100
C  3.63300 47.99500 28.62800
O  2.44700 47.85900 28.89300
C  4.80000 48.46900 29.67200
C  4.46900 47.84700 30.94500
O  4.55800 46.64900 31.18800
O  4.17600 48.69300 31.89700
C  3.77700 48.26300 33.20800
H  11.71200 48.90100 29.33800
H  11.38400 48.32700 22.92300
H  5.07600 47.20000 23.38100
H  7.48100 48.91300 31.46100
H  10.16200 48.16600 31.36400
H  8.72700 50.55500 31.61800
H  9.99500 50.76000 30.40500
H  10.37400 50.15300 31.99200
H  8.84200 46.28900 31.65600
H  7.11600 46.14400 31.04000
H  6.37400 46.40600 32.94300
H  7.27000 47.95300 33.32000
H  13.68700 48.81100 28.52800
H  13.47300 50.55900 28.00200
H  14.78400 49.49200 27.32100
H  15.42900 48.31200 25.42800
H  15.21400 50.16600 25.28400
H  15.92200 49.28100 24.01700
H  9.41100 46.72400 21.66400
H  6.86200 48.24200 21.49000
H  10.33100 49.29400 20.99900
H  8.63600 49.41300 20.60600
H  9.68400 48.21300 19.81000
H  6.69900 45.50800 22.32400
H  7.77800 45.74400 20.84700
H  5.29600 45.17000 20.28200
H  5.84300 46.79300 19.82300
H  4.86600 46.52200 21.28200
H  2.55200 48.66000 25.05000
H  2.19100 47.12700 25.92300
H  3.02400 47.23600 24.28200
H  4.83700 49.55800 29.69100
H  3.24300 49.14900 33.55000
H  4.69900 48.19700 33.78500
H  3.18600 47.35000 33.28700

