158

Mg 53.62700 24.36100 43.86700
C  50.98100 26.52800 43.48100
C  51.72900 21.70600 42.95700
C  56.47500 22.49700 43.34600
C  55.63200 27.15100 44.46200
N  51.63400 24.19000 43.25300
C  50.61600 25.17600 43.27800
C  49.30400 24.52100 42.95900
C  49.54900 22.96900 43.07500
C  51.08000 22.92500 43.10900
C  48.85100 22.29000 44.23000
C  48.60500 25.10900 41.60300
C  49.52900 25.24600 40.37800
H  49.31100 24.28900 39.22700
N  54.00000 22.28700 43.46400
C  53.05400 21.36400 43.22000
C  53.64900 20.07900 43.14100
C  55.06600 20.26500 43.19300
C  55.25100 21.71300 43.34700
C  52.73800 18.82900 42.95900
C  56.03600 19.11900 43.02700
O  55.64700 17.97400 42.73900
C  57.53000 19.44000 43.04700
N  55.76700 24.81600 43.86500
C  56.66900 23.87900 43.52200
C  58.12600 24.55800 43.48300
C  57.82100 26.01800 44.06400
C  56.28600 26.03400 44.11500
C  59.19200 23.77600 44.36700
C  58.38400 27.19800 43.25200
C  59.45500 28.06700 44.06600
N  53.35500 26.42600 44.01100
C  54.19200 27.39600 44.37600
C  53.54100 28.72700 44.56900
C  52.25600 28.42100 44.21800
C  52.18100 27.04800 43.84500
C  54.18000 29.98200 45.09400
C  50.85400 28.85900 44.19400
O  50.42000 29.95400 44.60500
C  50.00300 27.70500 43.60000
C  49.75300 28.25000 42.20000
O  50.60600 28.59800 41.38900
O  48.37300 28.46800 41.98300
C  48.10200 29.34600 40.80800
H  50.98900 20.91400 42.82700
H  57.40100 22.00500 43.03800
H  56.17700 28.05700 44.73600
H  48.58700 24.96200 43.65100
H  49.13600 22.57800 42.14600
H  49.56600 21.78500 44.87900
H  48.27600 21.52600 43.70900
H  48.12500 22.80600 44.85900
H  48.16000 26.08500 41.79700
H  47.90900 24.32500 41.30300
H  50.54300 25.07600 40.73900
H  49.46700 26.23900 39.93300
H  51.75800 18.95600 43.41900
H  52.98900 17.94100 43.53800
H  52.73500 18.40800 41.95300
H  58.04500 18.51200 42.79800
H  57.75900 19.60700 44.09900
H  57.71700 20.16500 42.25500
H  58.40100 24.50200 42.43000
H  58.10500 26.08900 45.11400
H  60.10200 23.63300 43.78500
H  58.82200 22.75900 44.50200
H  59.57500 24.27600 45.25600
H  57.57500 27.84200 42.90500
H  58.97700 26.78300 42.43700
H  60.38400 28.16700 43.50500
H  59.77200 27.63300 45.01400
H  58.98400 29.05000 44.02800
H  55.05500 30.25400 44.50400
H  54.44500 29.77500 46.13100
H  53.42700 30.76900 45.14500
H  49.04800 27.63900 44.12000
H  48.68500 30.26700 40.79100
H  47.10300 29.77400 40.88500
H  48.12400 28.84400 39.84100
Mg 16.91500 52.20300 25.67800
C  18.36700 50.59100 28.38700
C  14.44700 53.29600 27.91800
C  15.46100 53.79500 23.20500
C  19.27600 50.85200 23.59900
N  16.43800 51.74400 27.96500
C  17.29000 51.25100 28.82500
C  16.87300 51.42700 30.24800
C  15.45100 52.04400 30.03000
C  15.41200 52.34900 28.51800
C  14.23400 51.11400 30.49100
C  17.82800 52.44400 31.03900
C  18.19700 52.11400 32.52400
H  17.27600 52.64200 33.63200
N  15.23000 53.43200 25.60300
C  14.39700 53.80100 26.64100
C  13.46400 54.70900 26.15500
C  13.72200 54.87000 24.73000
C  14.89800 54.09600 24.49200
C  12.45700 55.42600 27.11000
C  13.05900 55.76400 23.71600
O  13.27200 55.75700 22.49600
C  11.93100 56.67500 24.25200
N  17.38900 52.51800 23.72800
C  16.58000 53.07900 22.84700
C  17.18300 53.13600 21.43800
C  18.57200 52.30200 21.62700
C  18.43400 51.87200 23.08200
C  16.20900 52.59500 20.31300
C  19.87800 53.01700 21.30200
C  19.95400 54.46300 21.86800
N  18.46800 50.86800 25.86000
C  19.37700 50.36100 24.96000
C  20.36600 49.53300 25.59800
C  19.97700 49.58700 26.96400
C  18.85000 50.40400 27.03300
C  21.59300 48.93500 24.90500
C  20.43800 49.22600 28.30300
O  21.37100 48.53100 28.70900
C  19.49400 50.00700 29.26500
C  18.80200 48.97700 30.15600
O  17.96600 48.12800 29.81500
O  19.29500 49.12600 31.40000
C  19.08900 48.02900 32.38900
H  13.80600 53.73200 28.68800
H  14.98200 54.21200 22.31600
H  19.92100 50.47000 22.80600
H  16.81500 50.45300 30.73400
H  15.39700 53.03400 30.48200
H  13.60800 51.66200 31.19500
H  14.55200 50.25500 31.08200
H  13.59400 50.82000 29.65900
H  17.32300 53.41000 31.03100
H  18.76100 52.53000 30.48200
H  19.16800 52.54600 32.76700
H  18.36700 51.03800 32.52100
H  12.65300 56.49700 27.06300
H  12.50600 55.27300 28.18800
H  11.41100 55.31500 26.82400
H  12.46100 57.26900 24.99600
H  11.18600 56.01700 24.69800
H  11.42000 57.21700 23.45700
H  17.53900 54.09600 21.06400
H  18.42800 51.46200 20.94700
H  15.24800 53.02800 20.59100
H  16.12000 51.52200 20.48200
H  16.54300 52.85900 19.30900
H  20.02800 53.02800 20.22200
H  20.73900 52.45800 21.66700
H  19.11300 54.87300 22.42700
H  20.10300 55.17900 21.06000
H  20.87700 54.51300 22.44700
H  21.71500 47.95000 25.35500
H  22.47600 49.53700 25.12100
H  21.46700 48.86600 23.82500
H  20.02200 50.78700 29.81400
H  18.13000 47.51600 32.31700
H  19.07900 48.57600 33.33200
H  19.91600 47.32600 32.29400

