158

Mg -0.28000 6.86700 25.42900
C  0.58300 9.10600 28.03200
C  0.21900 4.19000 27.70000
C  -0.76400 4.66500 22.93800
C  0.42500 9.39600 23.20700
N  0.38100 6.64400 27.59400
C  0.47300 7.74100 28.47000
C  0.38100 7.25000 29.89800
C  0.71800 5.71500 29.79400
C  0.40200 5.47700 28.31000
C  2.19200 5.32300 30.18600
C  -1.01000 7.59400 30.65500
C  -1.01100 7.41400 32.20300
H  0.24400 7.13300 33.06400
N  -0.41600 4.75000 25.32400
C  -0.22200 3.87200 26.34100
C  -0.42200 2.47600 25.88800
C  -0.76000 2.61800 24.51300
C  -0.66200 4.04400 24.24300
C  -0.43700 1.32000 26.87000
C  -0.92300 1.58800 23.47500
O  -1.00800 1.88300 22.29000
C  -0.84500 0.15600 23.88300
N  -0.01100 7.04500 23.38000
C  -0.46100 6.05100 22.52200
C  -0.78800 6.53200 21.08100
C  -0.21800 7.96100 21.20900
C  0.11500 8.16200 22.70000
C  -0.12800 5.60700 19.99300
C  -1.05600 9.06400 20.48900
C  -2.10300 9.74900 21.35700
N  0.16300 8.94600 25.54500
C  0.43100 9.84700 24.53100
C  0.91200 11.09200 25.13900
C  0.79800 10.87400 26.55300
C  0.40800 9.56100 26.70200
C  1.30000 12.38400 24.42800
C  0.97800 11.50300 27.81400
O  1.35500 12.67300 28.11400
C  0.80100 10.40500 28.87800
C  2.06900 10.23300 29.64200
O  3.02300 9.53000 29.33700
O  1.95300 11.04100 30.71600
C  2.99200 10.92000 31.77500
H  0.41500 3.25900 28.23600
H  -1.18000 4.11300 22.09200
H  0.57300 10.18400 22.46600
H  1.22000 7.66100 30.46000
H  0.05200 5.25600 30.52400
H  2.18000 4.93800 31.20600
H  2.84900 6.14600 29.90300
H  2.49300 4.57800 29.45000
H  -1.85400 7.02300 30.26700
H  -1.31900 8.57100 30.28200
H  -1.64900 6.54600 32.36500
H  -1.51900 8.26200 32.66400
H  0.32300 0.57900 26.62300
H  -1.38200 0.82900 26.63600
H  -0.53800 1.57100 27.92600
H  -1.61900 -0.15400 24.58500
H  0.14400 -0.27900 24.02600
H  -1.10700 -0.30700 22.93100
H  -1.87600 6.47200 21.05000
H  0.72900 7.91700 20.67000
H  0.55400 4.87100 20.41900
H  0.38500 6.27100 19.29700
H  -0.85200 5.01000 19.43800
H  -1.54900 8.60900 19.63000
H  -0.29900 9.82200 20.28500
H  -1.90000 10.78400 21.63200
H  -2.14000 9.21400 22.30600
H  -3.15300 9.72200 21.06800
H  1.45800 12.17800 23.37000
H  2.23200 12.82200 24.78500
H  0.52300 13.11000 24.67100
H  0.07700 10.55400 29.67900
H  3.74000 11.68400 31.56000
H  3.48900 9.95200 31.71400
H  2.54700 11.26600 32.70800
Mg -2.22700 33.61000 26.57800
C  -4.07400 32.15100 29.38200
C  -0.76200 35.74300 28.73900
C  -1.05000 35.15200 23.91400
C  -4.46500 31.60700 24.44000
N  -2.43300 33.84400 28.83600
C  -3.16200 33.09500 29.80900
C  -2.83500 33.54300 31.24000
C  -1.85600 34.73900 30.92900
C  -1.59000 34.77600 29.35700
C  -2.28500 36.08500 31.56100
C  -2.31800 32.38300 32.14900
C  -2.81800 32.34400 33.55700
H  -1.84000 32.24400 34.78400
N  -1.04900 35.28400 26.32500
C  -0.42500 35.96100 27.35900
C  0.53200 36.96600 26.80700
C  0.56000 36.64400 25.39100
C  -0.57400 35.67700 25.16400
C  1.40400 37.98900 27.51100
C  1.38900 37.35000 24.37900
O  1.22800 37.21800 23.14200
C  2.43900 38.33400 24.84400
N  -2.92300 33.55400 24.36900
C  -2.08300 34.26300 23.51400
C  -2.38400 33.77200 22.06600
C  -3.40300 32.62500 22.24500
C  -3.53400 32.45000 23.77000
C  -2.93600 35.01500 21.29600
C  -3.04000 31.39600 21.43200
C  -2.05500 30.41500 22.05400
N  -3.83600 32.13200 26.79300
C  -4.58700 31.44500 25.86000
C  -5.54100 30.54500 26.47900
C  -5.37500 30.78000 27.86300
C  -4.32900 31.71800 28.02500
C  -6.46800 29.63800 25.73300
C  -5.83500 30.39000 29.15900
O  -6.67800 29.55700 29.45900
C  -5.03100 31.29800 30.14400
C  -6.02500 32.10400 30.85900
O  -6.95900 32.66600 30.28900
O  -5.92300 31.93800 32.22600
C  -7.09900 32.32200 33.00100
H  -0.20200 36.42500 29.38200
H  -0.40200 35.50400 23.10800
H  -5.13000 30.86900 23.98600
H  -3.79200 33.88700 31.63100
H  -0.84300 34.71200 31.33200
H  -3.14100 35.94500 32.22200
H  -2.53200 36.66700 30.67300
H  -1.46800 36.54100 32.11900
H  -1.22900 32.41000 32.11000
H  -2.64000 31.41500 31.76500
H  -3.45600 31.46300 33.62600
H  -3.45500 33.20500 33.75900
H  2.46700 37.74600 27.51200
H  1.09400 37.90700 28.55300
H  1.28400 39.05600 27.32300
H  1.94500 39.22200 25.24000
H  2.97800 38.62000 23.94100
H  3.16800 37.88600 25.51900
H  -1.46200 33.48800 21.55600
H  -4.37000 32.96000 21.87000
H  -2.85800 35.92500 21.89200
H  -3.93000 34.86700 20.87200
H  -2.37300 35.25600 20.39500
H  -2.57400 31.78300 20.52600
H  -3.88400 30.82000 21.05000
H  -1.36100 30.16900 21.25000
H  -2.58400 29.51200 22.36100
H  -1.54300 30.90000 22.88500
H  -6.96700 30.26700 24.99600
H  -7.18800 29.27400 26.46600
H  -5.94000 28.87600 25.16000
H  -4.55500 30.52800 30.75000
H  -7.77300 31.46600 33.02300
H  -7.51700 33.28700 32.71600
H  -6.67800 32.35300 34.00600

