158

Mg 9.05700 3.61200 27.74500
C  10.36100 1.95600 30.66400
C  7.14700 5.49100 29.81900
C  7.50700 4.68600 24.97100
C  10.57500 1.02400 25.79500
N  8.79600 3.74000 30.08300
C  9.52600 3.00100 31.04600
C  9.19000 3.51700 32.41900
C  8.05900 4.62700 32.18400
C  7.99100 4.64400 30.59000
C  6.65700 4.37900 32.89700
C  10.42400 3.92900 33.27500
C  10.09000 4.97700 34.33500
H  10.59300 4.84700 35.74500
N  7.63400 5.01000 27.37900
C  6.98400 5.73700 28.37200
C  6.17500 6.73400 27.81500
C  6.40700 6.70500 26.36800
C  7.20100 5.41400 26.15100
C  5.28400 7.75600 28.45800
C  6.01700 7.66000 25.21600
O  6.18200 7.37200 24.01800
C  5.36500 8.99400 25.53900
N  8.86900 2.76200 25.70000
C  8.24700 3.51800 24.68200
C  8.66900 3.10200 23.31200
C  9.45700 1.78400 23.62400
C  9.67300 1.87700 25.11900
C  7.54600 2.94100 22.19800
C  10.80700 1.69800 22.83700
C  11.09200 0.27000 22.18100
N  10.20200 1.96400 28.02200
C  10.78400 1.02700 27.13000
C  11.61500 0.13400 27.84100
C  11.51300 0.52000 29.18300
C  10.63100 1.56600 29.27800
C  12.35900 -1.03800 27.22000
C  11.91500 0.11900 30.50500
O  12.71500 -0.72300 30.82000
C  11.28600 1.10300 31.47000
C  10.50800 0.29700 32.49100
O  9.60100 -0.48100 32.20100
O  11.03800 0.43800 33.71900
C  10.47900 -0.46000 34.70400
H  6.75000 6.27400 30.46900
H  7.12300 5.16700 24.06900
H  11.25300 0.40300 25.20600
H  8.83700 2.69400 33.03900
H  8.38600 5.65800 32.32200
H  5.80400 4.49300 32.22800
H  6.55300 5.23600 33.56200
H  6.70500 3.48200 33.51400
H  11.18200 4.23000 32.55200
H  10.79500 3.01400 33.73600
H  9.00200 5.00700 34.39800
H  10.52500 5.92600 34.02300
H  5.49500 8.81400 28.29800
H  5.29900 7.57100 29.53200
H  4.26200 7.56100 28.13200
H  6.09300 9.54500 26.13600
H  4.39300 8.80700 25.99500
H  5.08700 9.53400 24.63400
H  9.27800 3.94100 22.97500
H  8.81100 0.90800 23.57300
H  7.84400 3.60800 21.39000
H  6.53400 3.24300 22.46700
H  7.43100 1.90600 21.87500
H  11.69300 2.01600 23.38500
H  10.83200 2.40500 22.00800
H  11.30200 0.41000 21.12100
H  10.37700 -0.54600 22.28500
H  12.02400 0.01800 22.68700
H  12.89000 -0.64600 26.35300
H  11.58500 -1.77500 27.00700
H  13.00800 -1.34600 28.04000
H  12.10900 1.60700 31.97800
H  11.32900 -1.05500 35.03800
H  9.66300 -1.11500 34.39600
H  10.00400 0.15000 35.47200
Mg -10.62900 39.58200 41.79600
C  -9.48700 36.39000 41.26800
C  -7.62800 40.90200 40.50200
C  -12.05700 42.67100 41.55100
C  -13.91000 38.26000 42.28800
N  -8.72400 38.75200 41.14300
C  -8.50700 37.35400 40.96100
C  -7.19900 37.17000 40.24100
C  -6.51900 38.63100 40.19200
C  -7.62800 39.46600 40.65700
C  -5.27800 38.81500 41.09100
C  -7.45400 36.56100 38.80900
C  -6.91300 35.09600 38.54900
H  -6.65800 34.69000 37.12200
N  -9.87300 41.54400 41.23900
C  -8.63100 41.86200 40.83000
C  -8.52100 43.25300 40.66100
C  -9.72500 43.80500 41.09700
C  -10.62900 42.67100 41.25000
C  -7.24700 43.98900 40.26100
C  -10.08600 45.28600 41.15100
O  -9.32000 46.18100 40.67600
C  -11.28700 45.60500 42.02200
N  -12.71000 40.34800 41.81300
C  -12.95800 41.65000 41.92600
C  -14.48200 41.94200 41.95600
C  -15.05800 40.51800 42.10800
C  -13.82200 39.62000 42.05200
C  -14.93900 43.03000 43.03000
C  -16.08800 40.10600 41.00200
C  -17.34900 39.32800 41.45600
N  -11.53400 37.71500 41.98000
C  -12.85600 37.35900 42.19400
C  -12.87500 35.88300 42.26100
C  -11.59500 35.46500 41.83900
C  -10.81800 36.60700 41.67000
C  -14.06800 35.12700 42.66800
C  -10.79700 34.25300 41.62300
O  -11.08300 33.09100 41.87100
C  -9.42300 34.86900 41.09700
C  -8.23300 34.42700 41.92400
O  -7.69200 34.97100 42.91600
O  -7.84200 33.20500 41.39300
C  -6.50600 32.74000 41.76000
H  -6.72100 41.19500 39.96800
H  -12.54900 43.63500 41.40800
H  -14.84500 37.70300 42.37400
H  -6.54800 36.54700 40.85500
H  -6.12700 38.84300 39.19700
H  -5.44200 39.47600 41.94200
H  -4.48200 39.17000 40.43500
H  -4.95400 37.89400 41.57500
H  -7.12800 37.12500 37.93500
H  -8.54000 36.54500 38.71800
H  -7.64000 34.37300 38.91900
H  -6.03400 34.91400 39.16700
H  -7.29700 44.32500 39.22500
H  -6.42200 43.28300 40.35800
H  -7.06900 44.86000 40.89100
H  -11.35200 44.84200 42.79900
H  -12.23600 45.56800 41.48800
H  -11.23600 46.64000 42.35900
H  -14.58000 42.32000 40.93800
H  -15.46800 40.31000 43.09600
H  -14.88600 44.01900 42.57400
H  -14.20300 42.98900 43.83200
H  -15.98000 42.84600 43.29700
H  -15.73800 39.39600 40.25300
H  -16.29000 40.90900 40.29400
H  -17.19600 38.26400 41.27200
H  -18.25000 39.60500 40.91000
H  -17.50000 39.36400 42.53500
H  -13.72800 34.11200 42.87600
H  -14.74000 35.28300 41.82400
H  -14.53300 35.53500 43.56500
H  -9.31700 34.54300 40.06200
H  -6.67400 32.33300 42.75700
H  -5.78600 33.55800 41.74400
H  -6.17600 31.96300 41.07000

