158

Mg 44.75700 4.06700 48.10000
C  42.63100 6.75500 47.76400
C  41.98200 1.91900 47.76400
C  46.81000 1.62800 47.63800
C  47.43800 6.45800 47.78300
N  42.58100 4.28300 47.81700
C  41.98500 5.51000 47.65000
C  40.50000 5.30700 47.26100
C  40.28800 3.80500 47.65900
C  41.67000 3.29800 47.76300
C  39.49500 3.59300 49.01300
C  40.25700 5.53300 45.76900
C  39.08700 6.39200 45.26200
H  39.42500 7.30800 43.95900
N  44.45500 2.03100 47.88000
C  43.24700 1.33300 47.82300
C  43.55700 -0.05500 47.72300
C  44.96700 -0.14400 47.61700
C  45.50300 1.19900 47.68300
C  42.57900 -1.18900 47.49900
C  45.72100 -1.48300 47.35600
O  45.11500 -2.55500 47.47000
C  47.17600 -1.61400 47.19100
N  46.79500 4.09000 47.76400
C  47.43400 2.88400 47.75300
C  48.95000 3.00600 47.65700
C  49.14400 4.55100 47.67600
C  47.72600 5.09700 47.79200
C  49.84200 2.28400 48.69400
C  49.90100 5.01300 46.40500
C  49.25700 5.24900 45.03800
N  45.06500 6.23000 47.95200
C  46.16100 7.03800 47.84600
C  45.72200 8.45900 47.64600
C  44.33600 8.33400 47.72200
C  43.98700 7.03800 47.91700
C  46.56600 9.66500 47.47100
C  43.10600 9.12600 47.74000
O  42.94800 10.33300 47.71800
C  41.93600 8.12600 47.61100
C  40.99000 8.47600 48.67000
O  40.95300 7.94800 49.78800
O  40.04400 9.35200 48.22200
C  39.01700 9.94900 49.14300
H  41.20100 1.16100 47.67200
H  47.54700 0.83700 47.48700
H  48.27300 7.15900 47.71800
H  39.89900 6.02000 47.82600
H  39.76200 3.32300 46.83500
H  40.19800 3.32800 49.80200
H  38.85800 2.70900 48.99700
H  38.92100 4.50400 49.18500
H  40.06000 4.57000 45.29800
H  41.11800 5.89100 45.20400
H  38.58800 6.89800 46.08900
H  38.23900 5.82100 44.88300
H  42.80100 -1.53300 46.48800
H  41.55900 -0.86000 47.69300
H  42.99100 -2.02300 48.06800
H  47.80100 -1.45400 48.06900
H  47.44200 -0.87200 46.43800
H  47.46600 -2.59900 46.82500
H  49.22000 2.54300 46.70800
H  49.75100 5.03200 48.44300
H  50.68500 2.91100 48.98500
H  50.25600 1.32700 48.37400
H  49.14900 2.06000 49.50500
H  50.54600 4.18600 46.10800
H  50.52900 5.85900 46.68400
H  49.86300 4.77200 44.26800
H  49.08200 6.30800 44.85200
H  48.31800 4.69600 45.08300
H  47.09300 9.83400 48.41100
H  46.13700 10.63300 47.21400
H  47.41600 9.54100 46.79900
H  41.44100 8.48500 46.70800
H  38.64300 10.88300 48.72400
H  39.43100 10.13700 50.13400
H  38.22000 9.21700 49.27500
Mg 29.99000 56.98900 41.13500
C  27.33600 55.16700 39.56900
C  32.14200 54.84400 39.45100
C  32.25400 59.23700 41.58900
C  27.37100 59.40900 41.80000
N  29.72900 55.31400 39.60500
C  28.60400 54.74200 39.15000
C  28.76700 53.57500 38.19000
C  30.34600 53.40500 38.21700
C  30.79900 54.53800 39.16100
C  30.81900 51.95800 38.77800
C  28.24300 53.98100 36.81500
C  27.45900 52.89000 36.01800
H  26.54300 53.50400 34.94200
N  31.96400 56.93400 40.83300
C  32.68000 55.96500 40.15700
C  34.08800 56.37800 40.22600
C  34.15000 57.65000 40.85100
C  32.76200 58.01800 41.14300
C  35.16400 55.58000 39.51300
C  35.47200 58.37100 41.22300
O  36.54900 57.97400 40.75700
C  35.54500 59.56600 42.13500
N  29.80400 59.04200 41.50800
C  30.93000 59.74600 41.74800
C  30.60400 61.16400 42.13300
C  29.06300 61.26600 42.30200
C  28.70100 59.88600 41.81700
C  31.41600 61.70600 43.32900
C  28.40500 62.52300 41.60000
C  27.24500 63.11300 42.40600
N  27.75700 57.22800 40.96600
C  26.96100 58.15000 41.34300
C  25.58200 57.70700 41.18200
C  25.67700 56.52600 40.51000
C  27.00800 56.30500 40.31100
C  24.27000 58.39500 41.50600
C  24.88300 55.44400 39.94500
O  23.67300 55.32100 39.84100
C  25.96700 54.51600 39.39600
C  25.80000 53.31000 40.22300
O  26.35200 53.01000 41.23700
O  24.82400 52.53700 39.67300
C  24.46300 51.23800 40.27100
H  32.78700 54.19400 38.85600
H  33.08600 59.88200 41.87900
H  26.50400 60.02600 42.04700
H  28.22800 52.70100 38.55800
H  30.97800 53.58200 37.34700
H  30.01700 51.23200 38.91300
H  31.47200 52.07500 39.64200
H  31.53100 51.66700 38.00600
H  29.18100 54.11000 36.27500
H  27.73900 54.93700 36.67500
H  26.88400 52.35600 36.77500
H  28.19900 52.27400 35.50700
H  35.28800 54.74700 40.20500
H  36.06800 56.12900 39.24900
H  34.70800 55.21300 38.59400
H  35.42300 60.46100 41.52400
H  36.52400 59.58700 42.61300
H  34.81500 59.46300 42.93700
H  30.93900 61.80800 41.32000
H  28.80300 61.32900 43.35800
H  32.09800 60.93300 43.68300
H  30.72100 62.15200 44.04100
H  32.06500 62.50600 42.97200
H  28.04000 62.09400 40.66700
H  29.20200 63.23400 41.38200
H  26.31200 63.01800 41.85200
H  27.38700 64.17700 42.59800
H  27.17300 62.46600 43.28100
H  23.51200 58.03800 40.80900
H  24.39000 59.45400 41.27600
H  24.01700 58.15700 42.53900
H  25.59700 54.25400 38.40500
H  24.36900 51.27000 41.35600
H  25.20700 50.45900 40.10400
H  23.54000 50.93600 39.77700

