158

Mg 8.61600 3.50000 26.95400
C  9.87500 2.38800 30.05100
C  6.47800 5.64200 28.71200
C  7.18500 4.40100 24.00600
C  10.23500 0.99700 25.31100
N  8.05800 3.87000 29.20100
C  8.92400 3.42000 30.20400
C  8.44100 4.09400 31.50000
C  7.47900 5.19100 31.04600
C  7.24900 4.84600 29.59700
C  6.22000 5.25800 31.96300
C  9.69200 4.65900 32.28500
C  9.34500 5.32400 33.69200
H  9.82800 4.69900 35.00500
N  7.21900 4.99300 26.43300
C  6.43500 5.68400 27.29900
C  5.71200 6.75600 26.51800
C  5.91800 6.36100 25.10400
C  6.80600 5.16500 25.13400
C  4.80800 7.85000 27.16500
C  5.31400 7.02700 23.83500
O  5.60100 6.74500 22.65200
C  4.46000 8.32900 23.96800
N  8.70900 2.79100 24.83500
C  7.98300 3.29200 23.82300
C  8.30100 2.61600 22.47600
C  9.37100 1.62700 22.93100
C  9.44900 1.77000 24.48100
C  7.17300 1.97900 21.77200
C  10.81100 1.79300 22.24200
C  11.70900 2.98100 22.76700
N  9.79700 1.97400 27.48600
C  10.45500 1.04600 26.71700
C  11.20300 0.13700 27.55700
C  11.08800 0.65200 28.82000
C  10.14100 1.74200 28.77000
C  11.96000 -1.03700 27.02600
C  11.46700 0.49300 30.26100
O  12.18300 -0.30400 30.85300
C  10.76100 1.54200 31.03000
C  10.04800 0.94100 32.09300
O  8.89500 0.50600 32.05500
O  10.87200 0.87200 33.15800
C  10.28200 0.31900 34.41900
H  5.95700 6.38700 29.31700
H  6.77000 4.80700 23.08100
H  10.78800 0.14100 24.91900
H  7.93600 3.30200 32.05200
H  7.85500 6.20000 31.21800
H  6.08600 6.26000 32.37100
H  6.29900 4.46800 32.71000
H  5.40900 5.06700 31.26000
H  10.24900 5.34800 31.65000
H  10.36000 3.84300 32.56300
H  8.26800 5.32500 33.85800
H  9.66400 6.36400 33.76700
H  3.78300 7.71100 26.82200
H  5.10100 8.88200 26.97000
H  4.72000 7.67000 28.23700
H  5.13900 9.07700 24.37700
H  3.59100 8.21900 24.61600
H  4.20700 8.63900 22.95400
H  8.73600 3.40500 21.86200
H  9.15300 0.56300 22.83200
H  6.23400 2.06700 22.31800
H  7.43100 0.92100 21.73100
H  7.00900 2.36200 20.76500
H  10.67000 1.80600 21.16100
H  11.35600 0.87200 22.45100
H  11.16000 3.53600 23.52700
H  11.89700 3.68600 21.95800
H  12.70400 2.74700 23.14500
H  12.24600 -1.51300 27.96400
H  12.88700 -0.66900 26.58700
H  11.42400 -1.70900 26.35600
H  11.55300 2.13800 31.48500
H  9.77000 -0.64200 34.37600
H  9.67100 1.07800 34.90900
H  11.19300 0.18800 35.00300
Mg 24.09500 -5.40300 45.33400
C  26.19100 -3.09200 43.76800
C  21.42800 -4.16100 43.47900
C  22.45500 -8.39500 45.78100
C  26.88700 -6.85800 46.86900
N  23.81500 -3.72400 43.88800
C  24.83800 -2.94100 43.39500
C  24.22700 -1.86200 42.51500
C  22.67900 -1.99200 42.85100
C  22.58100 -3.33000 43.52900
C  22.12100 -0.84500 43.74300
C  24.67700 -2.01600 40.99900
C  25.52500 -0.81700 40.45200
H  25.11800 -0.53500 39.01800
N  22.20400 -6.22600 44.68700
C  21.30000 -5.51000 43.88200
C  20.17300 -6.38200 43.63400
C  20.49300 -7.69900 44.22900
C  21.74900 -7.49400 44.92400
C  18.95500 -5.99500 42.84100
C  19.65000 -9.00400 43.95600
O  18.46600 -8.98600 43.54000
C  20.35400 -10.33700 44.19800
N  24.65700 -7.41400 46.15200
C  23.67900 -8.34800 46.41300
C  24.20100 -9.56600 47.25200
C  25.71500 -9.11400 47.53300
C  25.75000 -7.67100 46.88300
C  23.39900 -9.79600 48.55100
C  26.76300 -10.10300 47.09600
C  27.93700 -10.35100 47.94400
N  26.14500 -4.95000 45.46400
C  27.13800 -5.62800 46.05900
C  28.39000 -4.88200 45.90600
C  28.05900 -3.99100 44.85400
C  26.68900 -4.01100 44.68800
C  29.72900 -5.19700 46.48200
C  28.58200 -2.95800 43.94400
O  29.74300 -2.66100 43.75100
C  27.38400 -2.28100 43.31000
C  27.31900 -0.85700 43.68500
O  26.56900 -0.35300 44.51200
O  28.16600 -0.18200 42.86500
C  28.43900 1.20500 43.19100
H  20.61900 -3.70900 42.90200
H  21.84400 -9.22300 46.14700
H  27.75800 -7.33600 47.32000
H  24.62900 -0.93700 42.92700
H  22.02900 -2.08400 41.98100
H  21.32700 -0.27400 43.26100
H  22.89600 -0.13000 44.01900
H  21.72900 -1.28800 44.65900
H  23.81200 -2.23400 40.37400
H  25.41500 -2.81500 40.93500
H  26.57700 -1.10200 40.41500
H  25.36800 0.14700 40.93700
H  19.01100 -5.92400 41.75400
H  18.70500 -4.96200 43.08500
H  18.08900 -6.46700 43.30400
H  21.40900 -10.11200 44.04300
H  19.98400 -11.00600 43.42000
H  20.19800 -10.67000 45.22400
H  24.20400 -10.48800 46.67100
H  25.92400 -9.04700 48.60100
H  22.80500 -10.70700 48.48600
H  22.72400 -8.94100 48.52300
H  24.08100 -9.74400 49.40100
H  27.02600 -10.03200 46.04000
H  26.21100 -11.04300 47.04900
H  28.88400 -10.11100 47.46000
H  27.99700 -11.40500 48.21400
H  27.98700 -9.77400 48.86800
H  29.70400 -5.43600 47.54500
H  30.33000 -4.30100 46.33100
H  30.12700 -6.03300 45.90600
H  27.39000 -2.25600 42.22000
H  27.83500 1.70100 43.95100
H  28.41700 1.89300 42.34500
H  29.47600 1.22400 43.52700

