158

Mg 25.10500 -0.86300 29.09400
C  27.00100 -0.82400 32.04000
C  22.19800 -0.50000 31.24300
C  23.07200 -1.03000 26.44400
C  27.88300 -1.87500 27.27700
N  24.64900 -0.55100 31.36600
C  25.68300 -0.54100 32.30700
C  25.16400 -0.18100 33.66300
C  23.55700 -0.39200 33.40100
C  23.42500 -0.45800 31.88600
C  22.98400 -1.56900 34.22600
C  25.64200 1.25100 34.07800
C  26.64300 1.37600 35.26700
H  26.15600 1.98200 36.59800
N  22.95700 -0.61200 28.82900
C  21.98400 -0.51900 29.82200
C  20.73100 -0.27300 29.15100
C  20.91900 -0.39200 27.76300
C  22.39100 -0.71500 27.63400
C  19.40400 -0.22500 29.81000
C  19.89100 -0.27300 26.57900
O  20.24800 -0.47800 25.42200
C  18.51800 0.31400 26.86900
N  25.42200 -1.71900 27.12600
C  24.41900 -1.38800 26.18600
C  24.99600 -1.45600 24.74000
C  26.54400 -1.39900 25.05400
C  26.65800 -1.70000 26.55100
C  24.59500 -2.58300 23.81100
C  27.31000 -0.16900 24.48600
C  27.80700 0.98000 25.34900
N  27.07400 -1.32800 29.51300
C  28.11900 -1.69400 28.67500
C  29.34700 -1.75900 29.49400
C  28.95700 -1.42100 30.78300
C  27.53800 -1.23000 30.78100
C  30.72400 -2.11200 29.06000
C  29.40700 -1.20900 32.16000
O  30.57100 -1.17800 32.50900
C  28.22600 -0.86900 33.05700
C  28.04600 -1.87100 34.05600
O  27.40300 -2.89500 33.85300
O  28.72500 -1.46200 35.16300
C  28.52400 -2.37000 36.34300
H  21.37200 -0.48100 31.95700
H  22.39700 -0.90200 25.59600
H  28.84800 -1.95500 26.77400
H  25.52600 -0.89900 34.40000
H  23.04700 0.52700 33.69100
H  22.38800 -1.19400 35.05800
H  23.77900 -2.22500 34.58000
H  22.31100 -2.17900 33.62400
H  24.82700 1.87400 34.44500
H  25.94300 1.79900 33.18500
H  27.41500 2.06200 34.92000
H  27.17200 0.46300 35.53900
H  19.50500 -0.71700 30.77700
H  18.70300 -0.66400 29.10000
H  19.13300 0.81900 29.97000
H  18.27700 0.84400 25.94800
H  18.63500 1.10300 27.61200
H  17.84100 -0.47600 27.19100
H  24.69600 -0.48500 24.34600
H  27.13700 -2.18100 24.58000
H  24.45400 -2.37800 22.74900
H  23.72700 -3.04000 24.28600
H  25.41400 -3.30100 23.77600
H  26.76200 0.19700 23.61800
H  28.08500 -0.77000 24.01100
H  27.36500 0.90500 26.34300
H  27.46400 1.92000 24.91700
H  28.89400 0.94600 25.42100
H  30.63900 -2.48200 28.03800
H  31.15200 -2.95300 29.60600
H  31.30600 -1.19200 29.02600
H  28.39600 0.12600 33.46800
H  28.52700 -3.38700 35.95100
H  27.61200 -2.07700 36.86300
H  29.38500 -2.30600 37.00800
Mg 0.24600 42.79100 26.06200
C  2.56800 42.20700 28.66000
C  -2.28500 41.88200 28.29200
C  -2.01900 42.42700 23.53500
C  2.77100 43.07900 23.80700
N  0.22400 42.10600 28.21300
C  1.24400 42.08900 29.14800
C  0.73000 41.88200 30.60800
C  -0.82000 41.85300 30.35000
C  -1.02100 42.03600 28.89000
C  -1.45400 40.52400 30.87900
C  1.25800 42.97700 31.54000
C  1.89300 42.50500 32.83900
H  1.28800 41.21400 33.46700
N  -1.84300 42.35400 25.94600
C  -2.69400 42.01700 26.99100
C  -4.04300 41.75700 26.52600
C  -3.95200 41.86800 25.11200
C  -2.54200 42.24200 24.80700
C  -5.24600 41.34700 27.51600
C  -5.10000 41.67700 24.12400
O  -4.96700 42.04700 22.97800
C  -6.56100 41.34700 24.57300
N  0.36800 42.77100 23.93200
C  -0.70000 42.67100 23.12700
C  -0.24000 42.67700 21.62100
C  1.26800 43.09400 21.77800
C  1.49900 43.09300 23.28900
C  -0.47200 41.33000 20.86000
C  1.81900 44.31900 21.06100
C  1.63200 45.71400 21.71000
N  2.27900 42.76100 26.16800
C  3.16500 42.83600 25.09200
C  4.51700 42.67500 25.64600
C  4.35100 42.49000 27.02000
C  2.93800 42.42600 27.32700
C  5.73300 42.71000 24.89700
C  5.04300 42.34700 28.26200
O  6.25300 42.29400 28.49000
C  3.91300 42.25900 29.38600
C  4.13700 40.93600 30.08100
O  3.62400 39.87300 29.80600
O  4.90400 41.18500 31.15300
C  5.13900 40.02900 32.02000
H  -2.97400 41.64500 29.10600
H  -2.71100 42.45000 22.69000
H  3.63800 43.26200 23.16900
H  1.20400 40.94100 30.88900
H  -1.34000 42.71700 30.76500
H  -0.76500 39.94900 31.49700
H  -1.58600 39.77700 30.09600
H  -2.31600 40.74000 31.51100
H  0.45800 43.60800 31.92700
H  1.94400 43.69700 31.09300
H  1.73400 43.22200 33.64500
H  2.92200 42.39800 32.49600
H  -5.46900 40.29000 27.37300
H  -6.11100 41.99400 27.37400
H  -5.01100 41.40200 28.57900
H  -6.62500 40.45700 25.20000
H  -7.23800 41.29300 23.72000
H  -6.87000 42.26700 25.06900
H  -0.85100 43.49600 21.24300
H  1.94600 42.26000 21.59800
H  -1.09000 40.64000 21.43600
H  0.35300 40.67300 20.58700
H  -1.05100 41.58500 19.97200
H  1.49700 44.36300 20.02100
H  2.89300 44.14600 20.99300
H  2.53700 45.99400 22.25000
H  0.81500 45.59600 22.42200
H  1.29700 46.44600 20.97500
H  6.55800 43.14200 25.46300
H  5.56300 43.35900 24.03800
H  5.88700 41.68200 24.56800
H  3.96900 43.13100 30.03700
H  5.85800 40.31200 32.78900
H  5.55600 39.16600 31.50000
H  4.18100 39.76600 32.46900

