158

Mg 17.41300 -1.81300 27.89000
C  16.32200 0.38200 30.50800
C  19.22700 -3.54800 30.15900
C  18.77400 -3.24000 25.37600
C  15.44000 0.29400 25.69000
N  17.82700 -1.47200 30.11800
C  17.12600 -0.68300 30.94100
C  17.49500 -1.07300 32.38700
C  18.64800 -2.21600 32.24400
C  18.60500 -2.45700 30.78400
C  20.02100 -1.79700 32.74500
C  16.26800 -1.50900 33.27400
C  16.17000 -1.02300 34.77700
H  17.29000 -0.37600 35.41700
N  18.77000 -3.24800 27.80900
C  19.39000 -3.91700 28.82100
C  20.07900 -5.06800 28.27000
C  19.99500 -4.94300 26.83500
C  19.15600 -3.75400 26.59600
C  20.72500 -6.08000 29.13500
C  20.57200 -5.84600 25.77400
O  20.37000 -5.65400 24.55100
C  21.40800 -7.11700 26.16500
N  17.12600 -1.50500 25.82400
C  17.85500 -2.20600 24.98500
C  17.64200 -1.77500 23.50300
C  16.48600 -0.75400 23.62700
C  16.28800 -0.64800 25.14900
C  18.88400 -1.18700 22.76000
C  15.19000 -1.11900 22.85400
C  14.07600 -1.81700 23.60300
N  16.19500 0.04600 28.01200
C  15.48500 0.69600 27.03200
C  14.78900 1.77500 27.66900
C  15.16800 1.71600 29.05700
C  16.03500 0.65600 29.19600
C  13.67900 2.66600 27.02500
C  15.00600 2.39500 30.31400
O  14.40100 3.45600 30.62600
C  15.74300 1.55800 31.33200
C  16.73300 2.46100 31.97600
O  17.70300 3.05700 31.50800
O  16.17200 2.75100 33.21900
C  16.92000 3.61800 34.08900
H  19.66300 -4.23400 30.88800
H  19.25500 -3.64800 24.48400
H  14.79800 0.83100 24.98800
H  17.90500 -0.17200 32.84500
H  18.36300 -3.15400 32.72000
H  20.10500 -0.71500 32.84400
H  20.69600 -2.16200 31.97100
H  20.37600 -2.29100 33.64900
H  16.06300 -2.57800 33.21000
H  15.36700 -1.12800 32.79300
H  15.80100 -1.95400 35.20700
H  15.32100 -0.34500 34.86400
H  20.30900 -6.98200 28.68600
H  20.36800 -6.12800 30.16300
H  21.80600 -6.09600 28.99700
H  22.34300 -7.00700 26.71500
H  21.69000 -7.47400 25.17500
H  20.72100 -7.70300 26.77600
H  17.24200 -2.70400 23.09800
H  16.93000 0.22700 23.45800
H  19.63500 -0.86800 23.48200
H  18.71300 -0.27900 22.18200
H  19.34600 -1.97600 22.16700
H  15.43400 -1.67800 21.95000
H  14.82400 -0.19400 22.40700
H  13.29600 -1.09300 23.83800
H  14.52000 -2.26700 24.49100
H  13.59000 -2.64900 23.09300
H  12.64300 2.43000 27.26800
H  13.74700 2.81600 25.94700
H  13.77200 3.69200 27.37900
H  15.03700 1.28300 32.11500
H  17.98400 3.46500 33.91000
H  16.69900 3.44700 35.14200
H  16.76600 4.66900 33.84800
Mg 35.57600 1.87800 29.21400
C  33.39800 3.06000 31.68300
C  38.09500 2.04400 31.40200
C  37.45400 1.11800 26.64700
C  32.72800 1.92700 27.00400
N  35.77700 2.72900 31.30700
C  34.67200 2.89400 32.14800
C  35.15200 2.86200 33.62800
C  36.74200 2.80600 33.44700
C  36.92200 2.48000 31.98500
C  37.38400 4.13500 33.83600
C  34.39100 1.68300 34.40500
C  33.93300 1.94800 35.87700
H  34.39700 3.27800 36.52300
N  37.50000 1.59100 29.06800
C  38.44800 1.67800 30.09800
C  39.69400 1.17100 29.57200
C  39.54900 1.02200 28.16900
C  38.10700 1.24200 27.88300
C  40.87500 0.89700 30.48500
C  40.57000 0.62700 27.16100
O  40.31400 0.49900 25.96600
C  42.01100 0.46100 27.54600
N  35.09100 1.50200 27.07800
C  36.08500 1.15200 26.24400
C  35.59600 0.94800 24.77000
C  34.06200 0.95800 25.04000
C  33.91200 1.44400 26.44300
C  36.07600 2.01600 23.80000
C  33.32300 -0.41400 24.85100
C  32.73700 -0.61100 23.48800
N  33.51300 2.48700 29.25000
C  32.52800 2.48400 28.31400
C  31.21900 2.96500 28.84700
C  31.56700 3.20800 30.17000
C  32.95200 2.94300 30.36300
C  29.84600 3.14500 28.17100
C  30.96700 3.59900 31.40100
O  29.87100 3.98800 31.80300
C  32.12200 3.44100 32.45300
C  32.23400 4.75700 33.20800
O  32.80000 5.75400 32.75800
O  31.60800 4.64200 34.37600
C  31.32400 5.92900 35.15000
H  38.95400 1.92200 32.06500
H  38.12100 0.86200 25.82100
H  31.83100 1.93900 26.38100
H  34.86600 3.78700 34.13000
H  37.22700 2.08100 34.10100
H  38.13000 4.01100 34.62100
H  36.74600 4.96600 34.13600
H  37.99700 4.55600 33.04000
H  35.09300 0.85300 34.48200
H  33.50200 1.38300 33.85000
H  34.13300 1.10400 36.53700
H  32.84800 1.96800 35.78100
H  41.31000 -0.07500 30.25500
H  40.69300 0.79400 31.55500
H  41.55500 1.72900 30.30300
H  42.67500 0.31000 26.69400
H  42.12500 -0.31800 28.30000
H  42.43200 1.34000 28.03300
H  35.94800 -0.05100 24.51300
H  33.56200 1.68400 24.39900
H  35.22500 2.42100 23.25300
H  36.87900 1.57000 23.21200
H  36.39300 2.84700 24.43000
H  32.57000 -0.62500 25.61000
H  34.06400 -1.20900 24.93700
H  31.65900 -0.48700 23.58200
H  32.95600 -1.63300 23.17900
H  33.09200 0.05600 22.70200
H  29.61700 4.20000 28.02000
H  29.23100 2.65300 28.92400
H  29.79400 2.64500 27.20400
H  31.77300 2.64100 33.10600
H  30.48300 6.47200 34.71900
H  32.08500 6.69900 35.27800
H  31.11400 5.50700 36.13300

