158

Mg 53.44600 24.29200 44.33400
C  50.62100 26.33100 43.25400
C  52.07800 21.72000 42.61200
C  56.45000 22.67500 44.46000
C  55.10500 27.24400 45.11600
N  51.61600 24.20300 42.95000
C  50.55000 25.07100 42.70900
C  49.45800 24.37500 41.92200
C  49.85400 22.92200 42.02400
C  51.24700 22.90500 42.69900
C  48.83500 22.01700 42.76000
C  49.31800 24.86400 40.41400
C  50.71100 25.06400 39.69300
H  50.50800 25.80000 38.33200
N  54.07400 22.41200 43.80200
C  53.37300 21.47300 43.17600
C  54.05300 20.23400 43.12900
C  55.29000 20.45600 43.69800
C  55.35600 21.90100 44.02000
C  53.49800 18.97300 42.54500
C  56.34000 19.39100 43.95300
O  56.13500 18.31800 43.50100
C  57.58100 19.63900 44.74600
N  55.46900 24.84400 44.77100
C  56.50500 23.98300 44.90300
C  57.87300 24.72100 45.07900
C  57.40500 26.19700 44.96000
C  55.88900 26.10900 45.02000
C  58.47100 24.45300 46.50100
C  57.88400 26.84700 43.68400
C  58.90900 27.99300 43.65400
N  52.96200 26.41700 44.41300
C  53.73100 27.35600 44.84800
C  52.84900 28.50700 44.98200
C  51.66900 28.22400 44.31500
C  51.75000 26.88000 43.98800
C  53.18200 29.67000 45.88300
C  50.45600 28.75100 43.85800
O  50.05400 29.89500 43.98900
C  49.70400 27.53400 43.16300
C  49.34200 28.09700 41.78300
O  50.08000 28.69300 40.98200
O  47.97000 28.04500 41.63400
C  47.36700 28.73400 40.45700
H  51.56600 20.86000 42.17500
H  57.42700 22.18800 44.47200
H  55.63000 28.14600 45.43700
H  48.47700 24.67700 42.29100
H  49.88400 22.59400 40.98500
H  48.25500 21.42400 42.05300
H  48.11700 22.71600 43.19000
H  49.32700 21.45000 43.55000
H  48.78100 25.80400 40.28800
H  48.67900 24.18800 39.84500
H  50.87000 24.04900 39.33000
H  51.54300 25.47800 40.26300
H  54.10400 18.59900 41.72000
H  52.56600 19.20700 42.03000
H  53.24300 18.24400 43.31400
H  57.87700 18.65800 45.11900
H  57.36200 20.33600 45.55500
H  58.36600 20.07200 44.12600
H  58.59700 24.45300 44.30900
H  57.73600 26.82800 45.78500
H  59.51900 24.15900 46.45300
H  57.80500 23.74900 46.99900
H  58.45900 25.40200 47.03800
H  56.96100 27.20600 43.22900
H  58.20200 26.03200 43.03300
H  59.38900 28.29000 44.58600
H  58.44700 28.87900 43.21700
H  59.66400 27.69300 42.92600
H  54.09100 30.21000 45.61700
H  53.18300 29.35000 46.92500
H  52.38700 30.41600 45.88800
H  48.81000 27.21400 43.69900
H  46.48100 29.28700 40.77100
H  46.97000 27.97500 39.78300
H  48.00300 29.35800 39.82800
Mg -2.14100 34.87800 26.36100
C  -3.76900 32.88200 28.73800
C  -0.52100 36.49900 28.94900
C  -0.95600 36.86800 24.06400
C  -3.75200 32.97400 23.86700
N  -2.18300 34.68700 28.61600
C  -2.89900 33.80900 29.36900
C  -2.74900 34.14600 30.82400
C  -1.70600 35.35500 30.84400
C  -1.51100 35.54000 29.35900
C  -2.26100 36.61800 31.56500
C  -2.22700 32.88000 31.67800
C  -2.98500 32.50000 32.98500
H  -2.23900 32.40900 34.36100
N  -0.94900 36.58500 26.48400
C  -0.29500 37.02400 27.61400
C  0.68700 38.00800 27.21100
C  0.56000 38.09300 25.77700
C  -0.52100 37.21700 25.40700
C  1.40100 38.89400 28.14000
C  1.37700 39.03600 24.81100
O  1.09700 39.18300 23.59600
C  2.56200 39.75400 25.35600
N  -2.43400 35.06300 24.28600
C  -1.83100 35.98800 23.51400
C  -2.07000 35.70400 22.05100
C  -2.52600 34.24200 22.06100
C  -2.91600 34.05600 23.51400
C  -3.08400 36.67600 21.38800
C  -1.53600 33.12800 21.54400
C  -0.06900 33.24600 21.93200
N  -3.58100 33.19000 26.26100
C  -4.17000 32.58100 25.13000
C  -5.00200 31.51900 25.63000
C  -4.95900 31.58800 27.04100
C  -4.06500 32.62800 27.39000
C  -5.79000 30.46800 24.84800
C  -5.43500 31.08600 28.27300
O  -6.19300 30.17100 28.55400
C  -4.71700 31.99000 29.46200
C  -5.76900 32.71500 30.14300
O  -6.34000 33.69800 29.73700
O  -5.96000 32.09200 31.38200
C  -6.92800 32.70400 32.33300
H  0.06000 36.90700 29.77900
H  -0.50700 37.39100 23.21700
H  -4.12600 32.36200 23.04400
H  -3.73400 34.48200 31.14700
H  -0.76600 35.04300 31.29800
H  -3.19700 36.40300 32.08000
H  -2.55600 37.28800 30.75800
H  -1.54300 37.09400 32.23300
H  -1.17400 33.01500 31.92700
H  -2.21700 31.91200 31.17600
H  -3.34200 31.49700 32.75100
H  -3.70600 33.30600 33.12700
H  2.41300 38.51500 28.28300
H  0.88200 38.95300 29.09700
H  1.45000 39.90900 27.74500
H  2.13700 40.64300 25.82200
H  3.09000 39.94300 24.42200
H  3.09000 39.01500 25.95900
H  -1.12100 35.76100 21.51800
H  -3.50900 34.17600 21.59400
H  -4.05900 36.24600 21.16100
H  -2.60900 36.98100 20.45500
H  -3.27900 37.48200 22.09600
H  -1.56600 33.09700 20.45500
H  -1.95500 32.21800 21.97100
H  0.58200 33.26000 21.05800
H  0.23200 32.35900 22.49100
H  0.13800 34.08200 22.60000
H  -5.61100 29.45500 25.20700
H  -5.41800 30.52900 23.82500
H  -6.87000 30.61500 24.85000
H  -4.24900 31.25600 30.11800
H  -6.40700 32.87700 33.27500
H  -7.77200 32.04300 32.52800
H  -7.24100 33.67000 31.93800

