158

Mg 49.20500 47.78100 42.75300
C  45.92300 48.38500 41.93700
C  49.22600 45.05300 40.65700
C  52.65500 47.52500 43.13200
C  49.26200 50.92500 44.39300
N  47.80500 46.98500 41.34200
C  46.47200 47.33600 41.19500
C  45.68000 46.32700 40.29400
C  46.75200 45.20400 40.01800
C  48.06900 45.81800 40.63300
C  46.32600 43.82600 40.67800
C  45.18700 47.03600 39.02300
C  43.66000 46.97100 38.70600
H  43.31400 46.42100 37.32500
N  50.67500 46.40400 42.11800
C  50.48500 45.32400 41.33100
C  51.74500 44.54700 41.20100
C  52.75300 45.29000 41.88100
C  52.04300 46.45300 42.43400
C  51.93200 43.21300 40.47600
C  54.21800 44.97300 41.85900
O  54.56800 43.90600 41.42700
C  55.31500 45.87700 42.30800
N  50.72000 49.05900 43.46000
C  52.06900 48.70100 43.58000
C  52.92300 49.87600 44.20400
C  51.75100 50.82900 44.65200
C  50.46000 50.22800 44.18800
C  53.92800 49.44700 45.36700
C  51.96300 52.26700 44.17200
C  51.62800 53.38600 45.16800
N  47.84500 49.33100 43.33400
C  48.00100 50.54600 43.90500
C  46.74300 51.30300 43.83100
C  45.84900 50.42200 43.21500
C  46.61900 49.33600 42.74700
C  46.52900 52.65200 44.47900
C  44.46600 50.21300 42.83300
O  43.46500 50.92900 43.18100
C  44.44100 48.77200 42.10300
C  43.79800 47.83800 43.03000
O  43.92200 47.73900 44.23600
O  42.84200 47.06900 42.44200
C  42.17700 46.07300 43.30200
H  49.10200 44.17000 40.02600
H  53.74400 47.53300 43.20700
H  49.16900 51.89500 44.88600
H  44.81600 45.93300 40.83000
H  47.01600 44.92100 38.99900
H  46.85600 43.64800 41.61300
H  46.47000 43.00600 39.97500
H  45.25000 43.80800 40.85600
H  45.71000 46.57300 38.18600
H  45.48300 48.08400 39.06400
H  43.14500 47.93200 38.71400
H  43.20900 46.21900 39.35300
H  52.46100 42.50100 41.10900
H  52.38600 43.33200 39.49200
H  50.98000 42.70500 40.32600
H  55.31900 46.77700 41.69300
H  56.17600 45.24000 42.10700
H  55.13600 46.13000 43.35300
H  53.40900 50.36300 43.35800
H  51.62100 50.88700 45.73300
H  54.25800 48.41800 45.22200
H  53.69000 49.68100 46.40400
H  54.82400 50.01600 45.11900
H  51.35200 52.45900 43.29100
H  53.02100 52.37400 43.93100
H  51.14000 52.97100 46.04900
H  51.11500 54.07700 44.49800
H  52.56600 53.88100 45.41900
H  47.12800 52.78200 45.38000
H  45.49100 52.75900 44.79400
H  46.71700 53.47800 43.79300
H  44.00400 48.83800 41.10700
H  41.54500 45.51200 42.61300
H  41.59400 46.41700 44.15700
H  42.92400 45.32500 43.56700
Mg 42.29600 41.35400 26.11100
C  41.55600 43.77200 28.53700
C  43.62900 39.43900 28.55400
C  43.51600 39.47500 23.68200
C  41.92000 44.00000 23.71900
N  42.48500 41.62200 28.34800
C  41.94400 42.59900 29.15000
C  41.97100 42.20900 30.67100
C  42.86300 40.98900 30.66500
C  43.01900 40.65700 29.11500
C  44.22500 41.20700 31.39800
C  40.55500 41.88200 31.23200
C  40.57500 41.51200 32.70600
H  39.90700 42.52000 33.67400
N  43.29200 39.65500 26.11700
C  43.77400 38.99200 27.22600
C  44.40500 37.83800 26.81800
C  44.41100 37.77700 25.38100
C  43.69100 38.98700 24.97700
C  45.04100 36.89400 27.84900
C  45.04600 36.78300 24.44100
O  45.14200 36.99400 23.24500
C  45.81000 35.49400 25.00100
N  42.48800 41.66900 23.97600
C  42.97700 40.67100 23.22000
C  42.87900 41.02300 21.73100
C  42.41400 42.47600 21.73400
C  42.18900 42.75900 23.22100
C  44.09900 40.74000 20.83700
C  41.10800 42.56400 20.89200
C  40.68500 43.92800 20.36500
N  41.64100 43.40600 26.06400
C  41.58700 44.34700 25.05100
C  41.24800 45.61900 25.51400
C  41.02700 45.37700 26.89100
C  41.38600 44.07800 27.15100
C  41.04600 46.85000 24.65100
C  40.70800 46.06300 28.16500
O  40.37400 47.21000 28.37200
C  40.96900 44.97100 29.24900
C  41.96800 45.53100 30.24400
O  43.16300 45.64800 30.01000
O  41.40600 45.61100 31.43300
C  42.31800 45.51100 32.59200
H  44.07300 38.84300 29.35400
H  43.60400 38.76800 22.85500
H  41.79100 44.86000 23.05900
H  42.51000 43.00400 31.18700
H  42.45000 40.09500 31.13300
H  44.21500 40.72100 32.37400
H  44.29300 42.27200 31.61600
H  45.02100 40.83900 30.75100
H  40.35100 40.97700 30.65900
H  39.80600 42.63100 30.97500
H  41.61400 41.59700 33.02300
H  40.18300 40.54400 33.02000
H  44.83900 35.86600 27.54900
H  44.56800 36.89300 28.83100
H  46.12600 37.00300 27.83900
H  46.48000 35.82900 25.79300
H  46.37900 35.09500 24.16200
H  45.20200 34.74900 25.51400
H  42.10500 40.37500 21.32000
H  43.18800 43.14400 21.35400
H  44.38400 41.52100 20.13200
H  43.89300 39.92400 20.14400
H  44.92600 40.49900 21.50500
H  40.33400 42.17000 21.55000
H  41.09800 41.81900 20.09600
H  41.23300 44.83300 20.62900
H  39.67100 44.27900 20.55700
H  40.89000 43.92500 19.29400
H  40.02100 46.94400 24.29400
H  41.82700 46.90000 23.89200
H  41.14200 47.71600 25.30600
H  40.07900 44.63900 29.78400
H  43.08400 46.27900 32.70000
H  42.85300 44.56300 32.55400
H  41.67900 45.57700 33.47300

