158

Mg 23.66000 -6.04800 46.55600
C  26.11300 -3.54700 45.80400
C  21.54000 -4.45200 44.38500
C  21.70300 -8.66300 46.90400
C  26.38100 -7.93000 48.08000
N  23.89600 -4.22600 45.23600
C  24.96200 -3.35200 45.12300
C  24.70900 -2.40800 43.98800
C  23.09300 -2.46200 43.76500
C  22.83300 -3.83000 44.49400
C  22.30900 -1.25900 44.40900
C  25.48600 -2.85500 42.74200
C  26.78700 -2.08300 42.50600
H  27.08300 -1.48400 41.14000
N  21.82000 -6.48600 45.83100
C  21.05000 -5.66000 45.03100
C  19.73500 -6.27900 44.84100
C  19.70900 -7.51800 45.54300
C  21.14600 -7.63300 46.15000
C  18.63500 -5.60200 44.06200
C  18.55700 -8.51700 45.58900
O  17.46700 -8.44100 45.00000
C  18.69100 -9.68700 46.42500
N  23.94900 -7.96600 47.43600
C  22.95900 -8.86100 47.42400
C  23.43600 -10.23200 48.01500
C  25.01300 -10.09000 48.11000
C  25.14300 -8.58400 47.88300
C  22.73000 -10.81200 49.22700
C  25.78300 -10.91700 47.09400
C  26.69300 -11.97600 47.83600
N  25.70300 -5.76900 47.07800
C  26.62700 -6.64100 47.68000
C  27.85200 -5.95500 47.88300
C  27.76100 -4.83600 47.04200
C  26.41200 -4.72600 46.64600
C  29.14200 -6.45300 48.57900
C  28.50800 -3.72700 46.55300
O  29.65300 -3.45500 46.68400
C  27.43500 -2.80200 45.92300
C  27.36600 -1.51000 46.67700
O  27.08700 -1.31200 47.88300
O  27.42600 -0.42900 45.87200
C  27.09000 0.92700 46.39100
H  20.78700 -3.97400 43.75400
H  21.12100 -9.57200 47.07100
H  27.15800 -8.58700 48.47500
H  25.02600 -1.42500 44.33600
H  22.80600 -2.48300 42.71400
H  22.96200 -0.46200 44.76500
H  21.65400 -1.64600 45.19000
H  21.66100 -0.94700 43.59000
H  24.85400 -2.96800 41.86100
H  25.72600 -3.90000 42.94100
H  27.62200 -2.77400 42.61400
H  26.84200 -1.29600 43.25900
H  17.78100 -6.25700 43.89000
H  18.89200 -5.07400 43.14300
H  18.28100 -4.91200 44.82800
H  17.73800 -10.21500 46.46100
H  18.90600 -9.22000 47.38600
H  19.43200 -10.40000 46.06300
H  23.16700 -10.97500 47.26400
H  25.29900 -10.25700 49.14900
H  23.31000 -11.55100 49.78000
H  21.75500 -11.25800 49.02900
H  22.52700 -9.99200 49.91600
H  26.38000 -10.29600 46.42600
H  25.12800 -11.51000 46.45700
H  27.71500 -12.03300 47.45900
H  26.42000 -12.95200 47.43500
H  26.64800 -11.88200 48.92100
H  29.02700 -7.22000 49.34400
H  29.57600 -5.58900 49.08200
H  29.73000 -6.89500 47.77400
H  27.81900 -2.54700 44.93500
H  26.24000 0.86200 47.07000
H  27.06800 1.63900 45.56600
H  27.95300 1.12400 47.02700
Mg 43.14300 4.27000 46.98300
C  41.23700 7.25300 46.65500
C  40.26900 2.50300 46.77100
C  45.01600 1.67800 46.27800
C  46.03200 6.30300 46.70400
N  40.99100 4.77800 46.62500
C  40.43200 6.07200 46.66600
C  38.88000 5.95800 46.78800
C  38.62000 4.43300 47.01100
C  40.05800 3.82400 46.91100
C  37.92000 3.98200 48.37200
C  38.02100 6.56500 45.69200
C  38.45800 6.20200 44.25600
H  39.43400 7.16700 43.58900
N  42.67200 2.34900 46.65700
C  41.47000 1.75100 46.59800
C  41.58500 0.33100 46.34300
C  43.03100 0.07800 46.14900
C  43.64000 1.39000 46.40500
C  40.36900 -0.56700 46.17100
C  43.51400 -1.26900 45.82200
O  42.72400 -2.14500 45.63300
C  44.86700 -1.49700 45.61700
N  45.20500 4.03300 46.47200
C  45.73300 2.83400 46.39900
C  47.25200 2.83700 46.30600
C  47.54400 4.35800 46.25900
C  46.19500 4.95300 46.48700
C  48.01100 2.00500 47.38700
C  48.37000 4.83000 45.00000
C  49.91100 4.95300 45.02000
N  43.58500 6.30700 46.83200
C  44.78500 6.96200 46.81500
C  44.54400 8.33600 46.87500
C  43.14800 8.51400 46.77200
C  42.60100 7.22400 46.75300
C  45.53600 9.34700 46.90500
C  42.07400 9.54700 46.86500
O  42.12400 10.76500 46.99700
C  40.69700 8.69200 46.60000
C  39.83400 9.00200 47.73500
O  40.05700 8.70500 48.88900
O  38.64800 9.58800 47.29800
C  37.55100 9.79300 48.22700
H  39.36000 1.90700 46.87100
H  45.59600 0.75300 46.26100
H  46.96800 6.84200 46.53900
H  38.57300 6.53800 47.65800
H  38.06400 3.91300 46.23100
H  37.36500 3.04400 48.35700
H  37.28800 4.77300 48.77600
H  38.74300 3.75400 49.05000
H  38.07200 7.65000 45.78600
H  36.94000 6.46600 45.78700
H  37.51500 6.04300 43.73300
H  38.94000 5.23600 44.10800
H  40.39300 -1.52600 46.68900
H  40.18500 -0.75200 45.11200
H  39.38800 -0.13100 46.36100
H  45.33100 -1.22300 46.56500
H  45.13100 -0.77500 44.84400
H  45.20700 -2.50100 45.36400
H  47.55200 2.45900 45.32900
H  48.26100 4.48100 47.07000
H  48.91900 2.48500 47.75200
H  48.30600 1.06100 46.92800
H  47.32300 1.79400 48.20500
H  47.91900 5.81300 44.86500
H  48.02600 4.19600 44.18300
H  50.38300 4.25200 44.33200
H  50.23900 4.69300 46.02600
H  50.09300 5.99000 44.73800
H  46.09400 9.47300 47.83300
H  45.21700 10.33200 46.56700
H  46.30200 9.05400 46.18600
H  40.32100 8.95200 45.61000
H  37.87400 9.29200 49.13900
H  36.59200 9.41000 47.87900
H  37.42400 10.84700 48.47500

