158

Mg 35.74800 49.59500 25.33900
C  35.39700 47.64300 28.30700
C  34.45600 52.24700 27.07500
C  35.29300 51.03900 22.44800
C  36.79100 46.59000 23.75800
N  35.04500 49.88900 27.40800
C  35.09000 49.00000 28.46500
C  34.67900 49.66500 29.78500
C  34.45800 51.20000 29.40600
C  34.64000 51.13200 27.87700
C  33.19100 51.82900 29.90900
C  35.72400 49.53000 30.91300
C  35.24200 49.10800 32.26800
H  33.78500 49.49100 32.64100
N  35.04600 51.37600 24.80800
C  34.59000 52.44600 25.69400
C  34.23400 53.63500 24.88900
C  34.47500 53.27300 23.50500
C  34.88900 51.80500 23.50900
C  33.73900 54.91500 25.44900
C  34.32800 54.07000 22.19800
O  34.71700 53.67800 21.12000
C  33.48300 55.35000 22.18300
N  36.10700 48.89700 23.41300
C  35.81200 49.70600 22.32600
C  36.39800 49.14000 20.99400
C  36.88900 47.75300 21.52100
C  36.59500 47.72600 22.97500
C  35.58300 49.21900 19.70800
C  38.32000 47.36100 21.13000
C  39.44200 47.93400 21.98200
N  35.97000 47.51000 25.85000
C  36.43700 46.43700 25.12000
C  36.33800 45.15900 25.87900
C  36.01400 45.61900 27.18300
C  35.83400 47.04300 27.09400
C  36.59900 43.71200 25.32500
C  35.80800 45.28600 28.55600
O  35.94500 44.18500 29.07700
C  35.40600 46.56500 29.35000
C  34.08200 46.26800 30.03400
O  32.97000 46.15900 29.58200
O  34.32500 45.97100 31.36300
C  33.36700 45.48600 32.33500
H  34.20900 53.13700 27.65800
H  35.13700 51.38200 21.42300
H  37.01300 45.68400 23.19000
H  33.71800 49.22300 30.04900
H  35.29800 51.78100 29.78800
H  33.49500 52.39500 30.79000
H  32.37900 51.14400 30.15200
H  32.78700 52.46400 29.12000
H  36.22100 50.45700 31.19800
H  36.56300 48.92500 30.56900
H  35.97500 49.47200 32.98800
H  35.33600 48.02200 32.30300
H  32.66700 54.79600 25.60600
H  34.14300 55.72500 24.84100
H  34.09300 55.09300 26.46400
H  34.01800 56.24500 22.49900
H  32.67400 55.17000 22.89200
H  33.04100 55.40100 21.18700
H  37.30900 49.67400 20.72400
H  36.34500 46.94200 21.03500
H  36.12600 49.64400 18.86300
H  34.63000 49.74300 19.78300
H  35.35000 48.21100 19.36500
H  38.47700 47.77800 20.13500
H  38.49100 46.30800 20.90400
H  39.84600 47.11400 22.57500
H  39.20700 48.60400 22.80900
H  40.27700 48.37400 21.43800
H  37.59700 43.64800 24.89000
H  35.84200 43.20300 24.72800
H  36.70700 43.18200 26.27100
H  36.15000 46.83900 30.09800
H  33.67800 44.49300 32.65800
H  32.40700 45.52300 31.82100
H  33.28700 46.07900 33.24600
Mg 25.98900 51.14100 26.91800
C  23.88600 52.03500 29.58700
C  28.17000 49.97700 29.32900
C  28.09100 50.53000 24.48800
C  23.72800 52.59600 24.66700
N  26.06600 51.02800 29.27200
C  25.04000 51.46800 30.11600
C  25.41200 51.15000 31.61000
C  26.97100 50.89700 31.49200
C  27.06600 50.50600 29.98100
C  27.89800 52.15100 31.89800
C  24.66500 49.91300 32.20600
C  23.85700 50.16800 33.48600
H  24.61300 50.91800 34.66300
N  27.89400 50.39600 26.91200
C  28.57200 49.83100 28.01400
C  29.85700 49.25100 27.49200
C  29.90500 49.64000 26.12800
C  28.50400 50.13400 25.78600
C  30.95200 48.74900 28.40500
C  31.06500 49.37900 25.16700
O  31.08900 49.82600 23.98100
C  32.37200 48.78600 25.70200
N  25.95900 51.60500 24.79400
C  26.97200 51.27000 24.06200
C  26.77700 51.63000 22.58000
C  25.26900 52.31300 22.61600
C  24.92200 52.17700 24.08200
C  27.90800 52.66300 22.10600
C  24.22700 51.72700 21.56500
C  23.50400 50.44100 21.92600
N  24.27500 52.22400 27.09700
C  23.44100 52.65100 26.04100
C  22.19200 53.22600 26.62200
C  22.33700 53.00800 28.01200
C  23.61400 52.36600 28.23100
C  21.01500 53.81600 25.83800
C  21.65400 53.03100 29.28500
O  20.54700 53.50900 29.51000
C  22.67800 52.50900 30.38600
C  22.90100 53.68800 31.26400
O  23.55500 54.67200 30.99000
O  22.23000 53.47600 32.44800
C  22.56000 54.43400 33.48400
H  28.87900 49.46800 29.98500
H  28.74300 50.30600 23.64100
H  23.08900 52.97700 23.86700
H  25.29200 52.08000 32.16500
H  27.19500 50.01800 32.09500
H  27.49400 53.04100 32.38200
H  28.22100 52.48600 30.91200
H  28.73600 51.78700 32.49100
H  25.30200 49.03200 32.28400
H  23.92100 49.77400 31.42100
H  23.44000 49.23900 33.87600
H  23.02100 50.77700 33.14300
H  31.31000 47.75300 28.14500
H  30.58600 48.63800 29.42500
H  31.62700 49.60200 28.47800
H  33.05200 48.71300 24.85300
H  32.25300 47.82000 26.19200
H  32.72700 49.57500 26.36500
H  26.78200 50.68300 22.04200
H  25.32800 53.38500 22.43200
H  28.50400 52.34300 21.25100
H  28.68300 52.77100 22.86500
H  27.43500 53.62100 21.89300
H  24.74200 51.53900 20.62300
H  23.57000 52.57000 21.35300
H  23.67700 49.84900 21.02700
H  22.42400 50.58200 21.91800
H  23.85500 49.94100 22.82800
H  21.41000 54.66600 25.28200
H  20.35400 54.26300 26.58100
H  20.52300 53.01300 25.29000
H  22.10200 51.70600 30.84600
H  22.42300 55.48000 33.21000
H  23.63500 54.32400 33.62900
H  22.07100 54.16100 34.41900

