158

Mg 43.79400 3.91000 47.14100
C  41.75300 6.85000 46.96900
C  40.74100 2.01000 47.08200
C  45.39600 1.04600 46.50700
C  46.55400 5.79200 46.71500
N  41.49600 4.39500 47.13600
C  40.95700 5.64900 47.08300
C  39.38100 5.56200 47.23900
C  39.17800 4.03500 47.29300
C  40.55800 3.42200 47.10500
C  38.44400 3.43900 48.56100
C  38.57200 6.27700 46.13100
C  38.67100 5.74600 44.76800
H  38.65000 6.73000 43.61000
N  43.22700 1.79800 46.93500
C  41.94900 1.24300 46.90300
C  42.01200 -0.18000 46.69200
C  43.41700 -0.51500 46.52800
C  44.08900 0.78200 46.56200
C  40.84300 -1.05400 46.39800
C  43.96700 -1.92900 46.24400
O  43.28000 -2.94600 46.19600
C  45.50000 -2.22000 45.91800
N  45.68000 3.52900 46.37900
C  46.13900 2.18600 46.52400
C  47.66400 2.22500 46.55200
C  48.04900 3.75800 46.73200
C  46.71600 4.42700 46.65800
C  48.25600 1.30400 47.63200
C  49.08300 4.31600 45.67100
C  50.49800 4.31500 46.25400
N  44.17300 5.92400 46.69300
C  45.38600 6.58900 46.68100
C  45.18500 7.99200 46.70300
C  43.79500 8.15800 46.89200
C  43.19500 6.87100 46.84500
C  46.25400 8.94000 46.56300
C  42.75700 9.11100 47.00700
O  42.75200 10.34500 47.07400
C  41.47200 8.27400 47.07400
C  40.71600 8.65800 48.33700
O  40.85800 8.10800 49.42300
O  39.88000 9.64800 48.04200
C  39.17300 10.24300 49.13900
H  39.81400 1.44400 47.19000
H  45.97800 0.12800 46.40100
H  47.53000 6.28100 46.68800
H  39.17600 5.99700 48.21700
H  38.58200 3.70200 46.44300
H  38.14000 4.35500 49.06600
H  39.12400 2.79300 49.11600
H  37.54700 2.88200 48.28800
H  38.90700 7.30600 46.00800
H  37.52100 6.23700 46.41900
H  37.70700 5.28300 44.56000
H  39.43500 4.97700 44.65800
H  41.07000 -1.63800 45.50600
H  39.98400 -0.42500 46.16600
H  40.42300 -1.59000 47.24900
H  45.62800 -1.64100 45.00300
H  45.56400 -3.23200 45.51900
H  46.16900 -2.10100 46.77000
H  47.89500 1.79800 45.57600
H  48.45300 3.93800 47.72800
H  49.24900 1.66800 47.89500
H  48.35900 0.26400 47.32100
H  47.67100 1.23500 48.54900
H  48.89400 5.33500 45.33600
H  49.07500 3.65300 44.80500
H  50.44100 4.15000 47.33000
H  50.90600 5.29200 45.99600
H  51.07700 3.46300 45.89700
H  47.15000 8.44300 46.19200
H  46.36600 9.39800 47.54600
H  45.94800 9.65500 45.80000
H  40.83500 8.42700 46.20200
H  39.81000 10.30900 50.02200
H  38.42600 9.50700 49.43600
H  38.58500 11.11500 48.85400
Mg 34.94900 1.23900 30.10700
C  32.72900 2.10900 32.68300
C  37.48200 1.14900 32.35100
C  36.97400 0.46000 27.59800
C  32.29200 1.85100 27.79000
N  35.09800 1.74200 32.28300
C  34.06700 1.91000 33.18000
C  34.58400 1.96100 34.66400
C  36.13700 1.97700 34.45200
C  36.30100 1.65700 32.93100
C  36.99400 3.22500 34.90800
C  33.97500 0.89700 35.56600
C  33.65800 1.40900 37.01300
H  34.57600 2.56800 37.65400
N  36.97700 0.88700 29.97200
C  37.87200 0.84000 30.99400
C  39.19600 0.46700 30.48600
C  39.03600 0.21300 29.12300
C  37.63700 0.52600 28.81600
C  40.47800 0.64500 31.21400
C  40.04100 -0.35500 28.16000
O  39.83200 -0.39600 26.93600
C  41.47100 -0.70100 28.60800
N  34.66000 1.24500 28.00100
C  35.68800 0.77800 27.23400
C  35.20500 0.65600 25.73100
C  33.74600 1.23200 25.73300
C  33.52500 1.46400 27.20100
C  36.07700 1.48800 24.72700
C  32.70600 0.27100 24.99300
C  31.98400 0.89200 23.83700
N  32.94700 1.69300 30.20400
C  32.03000 2.03100 29.16500
C  30.80100 2.45000 29.80200
C  31.05200 2.46300 31.13900
C  32.31200 1.92800 31.38700
C  29.55000 2.94100 29.15600
C  30.41300 2.67200 32.35100
O  29.32800 3.08400 32.59600
C  31.48400 2.40600 33.48100
C  31.55300 3.68300 34.24300
O  31.99500 4.73000 33.84900
O  30.88900 3.49100 35.43500
C  31.04000 4.55300 36.41400
H  38.20700 0.82400 33.10000
H  37.59200 0.03100 26.80800
H  31.59000 2.16100 27.01300
H  34.36900 2.94300 35.08400
H  36.62600 1.10800 34.89300
H  36.21500 3.95700 35.12100
H  37.68300 3.54700 34.12700
H  37.65300 2.91700 35.72000
H  34.77100 0.15300 35.57100
H  33.12100 0.35300 35.16200
H  33.32600 0.61200 37.67900
H  32.69800 1.89800 36.84300
H  41.22100 1.09500 30.55400
H  40.84800 -0.32100 31.55700
H  40.34300 1.33300 32.04800
H  41.38100 -1.30900 29.50800
H  42.06800 0.20400 28.72400
H  41.88400 -1.22300 27.74500
H  35.22100 -0.38200 25.39700
H  33.68700 2.22300 25.28300
H  36.15100 1.09600 23.71300
H  37.09100 1.48100 25.12700
H  35.89100 2.56000 24.65700
H  31.98100 -0.02000 25.75300
H  33.13100 -0.70200 24.74600
H  32.13000 0.17200 23.03300
H  32.31400 1.91200 23.63600
H  30.94400 1.07000 24.11200
H  29.78100 3.37700 28.18300
H  29.19300 3.73100 29.81700
H  28.83400 2.13500 28.99700
H  31.14400 1.56600 34.08700
H  30.17500 4.53900 37.07800
H  31.15800 5.52900 35.94400
H  31.94600 4.38800 36.99700

