158

Mg -2.00600 16.59400 26.16500
C  -2.29400 14.28100 28.75000
C  -2.41600 19.14200 28.49300
C  -1.97200 18.84600 23.61500
C  -1.83100 14.05000 23.82100
N  -2.34300 16.66400 28.37100
C  -2.39300 15.59400 29.28700
C  -2.70100 15.99900 30.72500
C  -2.92700 17.58800 30.48400
C  -2.62500 17.81900 29.02900
C  -4.30000 18.26000 31.02800
C  -1.55600 15.57500 31.73800
C  -0.98300 16.62300 32.71700
H  -0.43800 16.05500 34.05700
N  -2.17500 18.66000 26.10000
C  -2.30400 19.54600 27.12400
C  -2.49500 20.88200 26.62200
C  -2.21700 20.87600 25.25100
C  -2.07300 19.40200 24.93200
C  -2.99000 21.97800 27.45400
C  -2.11200 22.04800 24.33900
O  -2.00200 21.99600 23.13000
C  -2.04500 23.47700 25.06000
N  -2.03400 16.51600 23.97300
C  -1.87900 17.55700 23.18900
C  -1.83600 17.20800 21.78100
C  -1.57800 15.59600 21.90600
C  -1.82100 15.38100 23.31900
C  -3.12300 17.60000 21.00400
C  -0.21500 14.98300 21.39800
C  -0.23200 14.77000 19.85000
N  -2.05600 14.59500 26.19900
C  -1.91900 13.69300 25.12900
C  -2.11600 12.32000 25.67000
C  -2.23800 12.56800 27.10200
C  -2.20800 13.91600 27.32600
C  -2.24300 11.06200 24.95700
C  -2.42000 11.91400 28.39800
O  -2.31300 10.68500 28.72500
C  -2.48900 13.00300 29.45900
C  -1.59800 12.72500 30.54200
O  -0.36000 12.62000 30.42300
O  -2.34000 12.55500 31.70500
C  -1.47000 12.14200 32.77900
H  -2.47600 19.90300 29.27400
H  -1.92800 19.57700 22.80500
H  -1.83400 13.22000 23.11100
H  -3.65500 15.52600 30.95400
H  -2.01500 18.06500 30.84200
H  -3.94400 18.91300 31.82600
H  -4.97800 17.54100 31.48700
H  -4.98100 18.69100 30.29400
H  -0.67800 15.17000 31.23500
H  -1.90100 14.89800 32.51900
H  -1.69700 17.39700 32.99600
H  -0.15100 17.11500 32.21300
H  -2.19700 22.70600 27.62800
H  -3.35100 21.63400 28.42400
H  -3.86500 22.51300 27.08700
H  -3.04700 23.67900 25.43600
H  -1.85100 24.18900 24.25800
H  -1.29700 23.52900 25.85100
H  -0.98400 17.60200 21.22800
H  -2.46900 15.22000 21.40100
H  -2.75100 18.43100 20.40500
H  -3.94800 17.97500 21.61000
H  -3.60200 16.79100 20.45300
H  -0.01500 14.15600 22.08000
H  0.48500 15.81100 21.50900
H  0.41800 15.46600 19.32000
H  -1.20000 14.78700 19.34900
H  0.18600 13.76600 19.76900
H  -1.36500 11.00400 24.31400
H  -3.13800 11.04100 24.33500
H  -2.22200 10.24100 25.67300
H  -3.43500 13.00900 30.00000
H  -0.60400 12.80000 32.85200
H  -1.25400 11.07600 32.71300
H  -2.04400 12.42500 33.66200
Mg -2.10100 34.65900 26.18100
C  -3.53600 32.80300 28.81000
C  -0.58400 36.65100 28.53600
C  -1.02900 36.47200 23.67700
C  -3.82300 32.53700 23.94900
N  -2.32200 34.79200 28.47700
C  -2.73600 33.81300 29.38200
C  -2.29700 34.12200 30.81900
C  -1.38800 35.32900 30.63500
C  -1.42600 35.66800 29.11400
C  -1.73700 36.47600 31.55300
C  -1.68300 32.84800 31.43700
C  -2.36000 32.36500 32.70300
H  -1.41000 32.29600 33.92400
N  -0.89200 36.31200 26.15100
C  -0.35700 36.95200 27.21700
C  0.58100 37.93100 26.65300
C  0.44200 37.91300 25.28100
C  -0.45000 36.82800 24.97000
C  1.38600 38.89600 27.49300
C  1.13000 38.72700 24.23800
O  0.88200 38.58200 23.05700
C  2.19900 39.73800 24.57200
N  -2.45500 34.57800 24.17000
C  -1.91500 35.42300 23.31600
C  -2.27200 35.14700 21.86100
C  -2.87600 33.71600 21.96400
C  -3.16600 33.60600 23.43600
C  -3.24000 36.13500 21.27600
C  -1.92700 32.56500 21.43400
C  -0.45200 32.48000 21.97800
N  -3.54900 33.12800 26.30500
C  -4.04600 32.30400 25.32000
C  -4.73200 31.08200 25.86500
C  -4.53600 31.25500 27.24900
C  -3.81300 32.46300 27.42900
C  -5.28500 29.90700 25.13500
C  -4.83200 30.67100 28.54800
O  -5.44200 29.68300 28.93300
C  -4.20000 31.66100 29.58500
C  -5.35400 32.18600 30.57100
O  -6.11600 33.11400 30.41200
O  -5.28000 31.41100 31.68800
C  -6.14200 31.63500 32.88800
H  0.07200 37.26500 29.15600
H  -0.92500 37.18300 22.85400
H  -4.38200 31.78800 23.38300
H  -3.18200 34.33800 31.41700
H  -0.35800 35.09600 30.90700
H  -0.76800 36.95600 31.68900
H  -2.16300 36.02800 32.45100
H  -2.36000 37.22200 31.06000
H  -0.66300 33.16000 31.66300
H  -1.50500 32.05700 30.70800
H  -2.66200 31.32800 32.55800
H  -3.27700 32.92500 32.89000
H  1.37600 39.89900 27.06600
H  2.39300 38.51100 27.65200
H  1.00900 39.07800 28.49900
H  1.77300 40.67800 24.92300
H  2.54700 40.13200 23.61700
H  2.94400 39.19100 25.14900
H  -1.39300 35.02300 21.22900
H  -3.83900 33.59300 21.46800
H  -3.38100 37.05700 21.84000
H  -4.23200 35.69100 21.19400
H  -2.76500 36.49600 20.36400
H  -1.87100 32.45200 20.35100
H  -2.38100 31.61200 21.70400
H  0.20600 33.10300 21.37300
H  -0.07000 31.46600 21.86200
H  -0.25600 32.83000 22.99100
H  -6.21500 30.05000 24.58400
H  -5.58400 29.14600 25.85700
H  -4.50400 29.49400 24.49800
H  -3.50800 31.08600 30.20000
H  -6.55800 30.67000 33.17800
H  -6.94900 32.34700 32.71500
H  -5.57900 31.97000 33.75900

