158

Mg 2.45800 -1.68300 44.17600
C  4.90500 0.75400 43.33000
C  0.03800 0.52500 42.80400
C  0.36200 -4.16200 44.25600
C  5.10100 -3.78600 45.21200
N  2.47900 0.34100 43.20300
C  3.64200 1.14400 42.96800
C  3.24600 2.45600 42.26200
C  1.67000 2.40400 42.22500
C  1.38400 0.95600 42.75300
C  1.04900 3.53400 43.14500
C  3.95100 2.55800 40.87500
C  4.66000 3.87200 40.58000
H  4.45900 4.34900 39.07800
N  0.42600 -1.78400 43.83000
C  -0.39700 -0.77400 43.34100
C  -1.77300 -1.28300 43.35700
C  -1.69800 -2.71900 43.64800
C  -0.25700 -2.94500 43.94500
C  -2.97400 -0.48000 43.17300
C  -2.94100 -3.62900 43.87400
O  -4.09500 -3.23600 43.64600
C  -2.77000 -5.08600 44.34900
N  2.70700 -3.72200 44.60600
C  1.65100 -4.57500 44.57600
C  2.07500 -5.97800 45.11600
C  3.64100 -5.81400 45.34500
C  3.89600 -4.38700 45.06800
C  1.20500 -6.56600 46.23900
C  4.54600 -6.76800 44.39300
C  5.36800 -7.91000 45.01200
N  4.67500 -1.59600 44.21800
C  5.55800 -2.51600 44.72400
C  6.83200 -1.89200 44.70800
C  6.62200 -0.56800 44.21500
C  5.26000 -0.40900 43.90900
C  8.10200 -2.54900 45.04100
C  7.25900 0.68900 43.90900
O  8.41700 1.04100 43.97100
C  6.15300 1.66400 43.37600
C  6.04400 2.76600 44.32200
O  5.54000 2.62400 45.45200
O  6.69100 3.89000 43.94400
C  6.64400 4.95700 44.96400
H  -0.79400 1.11600 42.41400
H  -0.29400 -5.03500 44.24800
H  5.81700 -4.53300 45.56200
H  3.69800 3.24200 42.86800
H  1.29100 2.52700 41.21000
H  1.73900 4.27500 43.54900
H  0.53100 3.09400 43.99700
H  0.36000 4.08700 42.50700
H  3.25300 2.42100 40.04900
H  4.74700 1.81600 40.80600
H  5.72600 3.75700 40.77100
H  4.25900 4.55500 41.32900
H  -3.30600 -0.81200 42.19000
H  -2.74800 0.57800 43.04100
H  -3.80800 -0.69600 43.84100
H  -3.69600 -5.62300 44.55200
H  -2.10900 -5.19000 45.21000
H  -2.29900 -5.68500 43.57000
H  2.02700 -6.66100 44.26800
H  3.80900 -5.95100 46.41300
H  0.54500 -5.82500 46.68900
H  1.71500 -6.85500 47.15700
H  0.66500 -7.37700 45.75000
H  5.23600 -6.22200 43.75100
H  3.90900 -7.24900 43.65100
H  5.36900 -8.10200 46.08500
H  6.39700 -7.63900 44.77800
H  5.18600 -8.87900 44.54900
H  8.47200 -3.09000 44.17000
H  7.84900 -3.34700 45.73900
H  8.79400 -1.84500 45.50300
H  6.43900 2.10300 42.42000
H  7.40500 4.71600 45.70700
H  5.68100 5.14300 45.43800
H  6.90500 5.85300 44.40100
Mg 47.95300 24.99000 29.76100
C  48.53200 27.47000 32.26000
C  47.04100 22.73900 32.24900
C  47.72600 22.52000 27.50900
C  49.36300 27.19700 27.38100
N  47.67100 25.17200 31.95500
C  47.86100 26.25900 32.75100
C  47.38200 25.99100 34.09800
C  47.00100 24.41200 34.18200
C  47.29500 24.08200 32.72400
C  47.80200 23.59500 35.16500
C  46.33500 26.98700 34.66400
C  46.29200 27.51800 36.10600
H  47.01100 26.97100 37.34300
N  47.37600 22.91500 29.87100
C  47.02400 22.22700 30.94800
C  46.79400 20.82500 30.60600
C  46.93700 20.73400 29.23700
C  47.41200 22.06400 28.80800
C  46.39600 19.71800 31.59400
C  46.73400 19.55700 28.30300
O  46.77200 19.63900 27.08000
C  46.25400 18.30500 28.86000
N  48.61900 24.86200 27.72400
C  48.21700 23.79800 27.00000
C  48.47500 24.08000 25.45800
C  48.91400 25.60200 25.45700
C  49.01000 25.91000 26.87600
C  49.55600 23.23800 24.88100
C  47.88900 26.60800 24.77900
C  46.46300 26.75500 25.36400
N  48.81700 26.94800 29.72500
C  49.43800 27.69400 28.73200
C  49.85300 28.94800 29.25900
C  49.39400 28.90600 30.58400
C  48.87300 27.64200 30.86200
C  50.57800 30.00800 28.50700
C  49.47700 29.71300 31.82700
O  49.89100 30.79100 32.06500
C  48.88000 28.78500 32.99600
C  49.98500 28.55100 33.99200
O  50.87800 27.69900 33.88800
O  49.89900 29.41200 35.03200
C  51.01000 29.29400 36.04700
H  46.69600 22.00500 32.98000
H  47.67300 21.65100 26.85000
H  49.65500 27.95900 26.65600
H  48.31300 26.16400 34.63800
H  45.92900 24.30800 34.35000
H  48.56300 23.05700 34.59900
H  47.11700 22.93800 35.70100
H  48.38900 24.16800 35.88200
H  45.32700 26.58900 34.54300
H  46.30300 27.80400 33.94200
H  45.26200 27.44200 36.45500
H  46.60200 28.55900 36.02000
H  47.23200 19.04200 31.41400
H  45.48300 19.21200 31.28300
H  46.33600 19.99500 32.64700
H  47.02600 17.80800 29.44800
H  46.02500 17.62100 28.04400
H  45.28700 18.49900 29.32400
H  47.52500 23.98400 24.93400
H  49.90400 25.68600 25.00800
H  50.44300 23.79800 24.58500
H  49.22900 22.73400 23.97200
H  49.94700 22.52600 25.60800
H  47.80100 26.31400 23.73300
H  48.31600 27.60500 24.67000
H  46.44400 26.52200 26.42900
H  45.78000 26.03200 24.91600
H  46.07200 27.75600 25.18600
H  50.96600 29.54700 27.59800
H  51.45000 30.42100 29.01400
H  49.93700 30.83300 28.19600
H  47.97800 29.28700 33.34500
H  50.76600 28.47100 36.71900
H  50.89900 30.24300 36.57100
H  52.05500 29.16000 35.76700

