158

Mg 26.16800 -0.76700 29.43100
C  28.14500 -1.14700 32.43400
C  23.53600 -0.37200 31.44700
C  24.44800 -0.24400 26.57900
C  29.02100 -1.66500 27.50800
N  25.89800 -0.92000 31.71800
C  26.86400 -0.82100 32.72800
C  26.22000 -0.64900 34.16300
C  24.64300 -0.72900 33.82600
C  24.68000 -0.66300 32.25400
C  23.91100 -1.96600 34.36000
C  26.80100 0.57600 34.95100
C  27.37200 0.38200 36.30100
H  26.48900 -0.30400 37.35000
N  24.27900 -0.30900 29.05600
C  23.26300 -0.25900 29.99900
C  22.02900 -0.06200 29.35200
C  22.25000 0.06400 27.99700
C  23.71100 -0.12600 27.82200
C  20.64300 0.00500 30.07400
C  21.27800 0.09200 26.79600
O  21.59600 0.23000 25.61100
C  19.78600 0.10600 26.98900
N  26.63800 -1.07800 27.27000
C  25.80100 -0.65300 26.31200
C  26.44400 -0.60500 24.90500
C  27.87200 -1.17200 25.20200
C  27.85300 -1.42700 26.73800
C  25.63600 -1.30200 23.82300
C  28.98800 -0.14200 24.71900
C  30.31600 -0.89600 24.49900
N  28.16400 -1.24400 29.83300
C  29.20000 -1.64600 28.93000
C  30.43000 -1.69000 29.73300
C  30.05600 -1.57200 31.05900
C  28.66400 -1.35500 31.09100
C  31.81200 -1.99200 29.18900
C  30.55200 -1.58800 32.43600
O  31.71300 -1.85300 32.83000
C  29.39700 -1.32200 33.32400
C  29.28100 -2.50900 34.18800
O  28.54900 -3.45400 33.87400
O  30.04100 -2.39300 35.33700
C  29.76400 -3.43800 36.36100
H  22.59100 -0.27200 31.98400
H  23.96500 0.05100 25.64500
H  29.94300 -1.80900 26.94200
H  26.56300 -1.53900 34.69000
H  24.18600 0.21800 34.11200
H  23.46000 -2.59300 33.59100
H  23.16700 -1.55600 35.04200
H  24.61200 -2.57000 34.93700
H  25.90700 1.19900 34.97500
H  27.48900 1.11800 34.30100
H  27.42900 1.34400 36.80900
H  28.29300 -0.20000 36.33100
H  20.22200 0.99300 29.88700
H  20.74300 -0.18400 31.14300
H  20.02400 -0.78200 29.64200
H  19.63900 1.04100 27.52900
H  19.41100 -0.77200 27.51400
H  19.29100 0.20500 26.02400
H  26.57000 0.41800 24.55000
H  28.04800 -2.10100 24.66100
H  26.13100 -2.22000 23.50500
H  25.50200 -0.61000 22.99100
H  24.63500 -1.54000 24.18200
H  29.19800 0.60500 25.48400
H  28.62900 0.35700 23.81900
H  30.91500 -0.67500 25.38200
H  30.70800 -0.71900 23.49800
H  30.28100 -1.98400 24.43900
H  31.98800 -1.40600 28.28600
H  31.87100 -3.01700 28.82500
H  32.52100 -1.82300 29.99900
H  29.57400 -0.43600 33.93400
H  29.60300 -4.45100 35.99000
H  28.94500 -3.21600 37.04500
H  30.58200 -3.36800 37.07800
Mg 29.30200 59.77500 40.84200
C  26.24000 58.36500 40.06200
C  30.81700 56.90000 39.78100
C  32.29900 61.33200 41.11900
C  27.62900 62.77200 41.50300
N  28.59700 57.87100 40.12500
C  27.35100 57.63500 39.70000
C  27.41300 56.28700 38.88900
C  28.69500 55.56400 39.35500
C  29.41500 56.83100 39.73900
C  28.54700 54.53100 40.46400
C  27.26500 56.48100 37.36400
C  26.70600 55.28600 36.57800
H  25.92100 55.70100 35.39100
N  31.28500 59.17300 40.47200
C  31.73200 57.98000 40.05200
C  33.16800 57.95400 39.93000
C  33.62800 59.19200 40.30600
C  32.36600 59.91900 40.69800
C  33.96200 56.73800 39.48000
C  35.05700 59.58300 40.49600
O  35.93600 58.75100 40.31000
C  35.43600 60.98000 40.85700
N  29.85900 61.79800 41.29400
C  31.19700 62.13700 41.39000
C  31.33400 63.66600 41.71600
C  29.79300 63.96600 42.02300
C  29.01000 62.78900 41.54300
C  32.28000 64.05200 42.84400
C  29.17100 65.31500 41.49000
C  28.28400 66.15200 42.42100
N  27.25300 60.41600 41.10000
C  26.79200 61.67700 41.26700
C  25.40400 61.61400 41.18500
C  25.11500 60.29400 40.65500
C  26.27800 59.62900 40.62500
C  24.40300 62.61800 41.44000
C  24.01900 59.37200 40.23400
O  22.81200 59.43500 40.26700
C  24.71800 58.05600 39.84300
C  24.27900 56.91300 40.84900
O  24.32700 57.14600 42.04800
O  23.78200 55.81900 40.21500
C  23.49300 54.73000 41.17100
H  31.18400 55.92300 39.46100
H  33.25600 61.84300 41.24300
H  27.13100 63.70100 41.78700
H  26.58100 55.66100 39.21500
H  29.16200 55.09200 38.49100
H  28.80700 54.94100 41.44000
H  29.19100 53.66100 40.33300
H  27.51200 54.19400 40.40400
H  28.23200 56.76200 36.94700
H  26.52900 57.24900 37.12800
H  26.10200 54.58600 37.15600
H  27.57000 54.69700 36.27000
H  33.34000 55.97900 39.00400
H  34.61200 56.25500 40.20900
H  34.63600 57.17000 38.74000
H  34.95000 61.62600 40.12600
H  36.49400 61.23300 40.92900
H  35.14800 61.08000 41.90300
H  31.76300 64.21000 40.87500
H  29.77200 63.92700 43.11200
H  32.97000 63.26700 43.15500
H  31.72900 64.15100 43.77900
H  32.94100 64.86800 42.55100
H  28.58800 65.03800 40.61200
H  30.02700 65.89200 41.14000
H  28.57700 67.20100 42.37400
H  28.41800 65.85200 43.46000
H  27.21900 66.06000 42.20800
H  23.46200 62.55700 40.89300
H  24.71500 63.54000 40.95100
H  24.38100 62.82200 42.51000
H  24.52200 57.68600 38.83700
H  24.46800 54.29500 41.39000
H  22.90900 53.89000 40.79400
H  23.00900 54.99100 42.11200

