158

Mg 26.67000 49.98500 26.95100
C  24.79600 51.15600 29.70100
C  29.12600 49.24700 29.19500
C  28.52200 49.31400 24.25100
C  24.16000 51.22000 24.90500
N  26.87200 50.18800 29.18900
C  26.02700 50.64600 30.10000
C  26.42600 50.23200 31.55600
C  27.92900 49.69500 31.34800
C  28.01400 49.79400 29.82100
C  29.04300 50.53400 32.05500
C  25.41900 49.21600 32.12000
C  24.45500 49.73500 33.23400
H  24.37600 49.15000 34.56900
N  28.62700 49.46900 26.74700
C  29.49700 49.18300 27.78600
C  30.75900 48.80400 27.15300
C  30.62900 48.82500 25.74800
C  29.18900 49.19500 25.53300
C  31.94200 48.42600 27.95300
C  31.65200 48.63100 24.66700
O  31.33300 48.76800 23.45900
C  33.08400 48.17700 25.06200
N  26.37300 50.25600 24.84200
C  27.26000 49.78300 23.95200
C  26.63700 49.77000 22.50400
C  25.25600 50.44200 22.69200
C  25.23400 50.64400 24.23600
C  27.50500 50.39500 21.32800
C  24.18000 49.43100 22.23600
C  23.57300 49.76900 20.80300
N  24.85300 50.91000 27.18700
C  23.98800 51.45800 26.22400
C  22.85200 52.12500 26.85200
C  23.12500 51.95800 28.19500
C  24.32100 51.22700 28.33800
C  21.74900 52.85900 26.10800
C  22.63000 52.28400 29.53300
O  21.58700 52.85300 29.86400
C  23.61400 51.65700 30.52300
C  23.93200 52.69900 31.59800
O  24.77100 53.57200 31.41900
O  23.05300 52.64200 32.65100
C  23.04200 53.82000 33.48100
H  29.82300 48.77300 29.88900
H  29.19100 49.20600 23.39400
H  23.44500 51.62200 24.18400
H  26.46500 51.14400 32.15100
H  27.99200 48.67300 31.72000
H  28.55100 51.04000 32.88500
H  29.47400 51.27800 31.38400
H  29.86000 49.91600 32.42700
H  25.84200 48.31100 32.55500
H  24.73100 48.92100 31.32800
H  23.48200 49.54200 32.78100
H  24.49200 50.82000 33.33200
H  32.67500 49.21400 27.77900
H  32.27900 47.44800 27.60900
H  31.73900 48.43600 29.02400
H  33.20200 47.51700 25.92100
H  33.47100 49.15800 25.34000
H  33.67400 47.83000 24.21400
H  26.51900 48.75400 22.13000
H  25.20300 51.37700 22.13500
H  28.31100 50.89600 21.86400
H  26.83900 51.05400 20.77100
H  27.75700 49.61200 20.61300
H  23.39700 49.41500 22.99400
H  24.40500 48.36600 22.18100
H  23.48500 48.89600 20.15600
H  24.12000 50.60800 20.37400
H  22.58600 50.19700 20.97600
H  22.12200 53.76400 25.62900
H  20.87200 53.02800 26.73300
H  21.48300 52.19800 25.28300
H  22.95000 50.86100 30.85900
H  22.17000 53.80900 34.13500
H  22.92000 54.75200 32.92900
H  23.91900 53.93200 34.11800
Mg -1.85200 34.77900 25.39400
C  -3.64500 33.34400 28.06500
C  -0.46300 36.81600 27.72200
C  -0.53900 36.59400 22.82900
C  -3.67400 32.84900 23.11900
N  -2.19400 35.15500 27.70300
C  -2.79800 34.32200 28.57400
C  -2.48500 34.56400 30.06700
C  -1.54800 35.82700 29.88400
C  -1.40600 35.98700 28.38000
C  -1.95600 37.15600 30.51100
C  -1.85900 33.34700 30.77700
C  -2.60200 32.76200 32.06800
H  -1.66900 32.61200 33.26900
N  -0.62300 36.38300 25.26400
C  -0.14100 37.07200 26.33600
C  0.84400 38.02300 25.85300
C  0.97100 37.91000 24.47000
C  -0.10900 36.95000 24.17200
C  1.64100 38.97000 26.80800
C  1.85300 38.66900 23.44500
O  1.61400 38.58000 22.22900
C  2.91500 39.69400 23.97500
N  -2.12200 34.75100 23.26200
C  -1.45500 35.55900 22.44100
C  -1.62700 35.13800 20.98200
C  -2.34700 33.71000 21.16700
C  -2.75300 33.75200 22.59000
C  -2.25400 36.17200 20.02600
C  -1.45900 32.35700 20.91500
C  -0.19800 32.26500 21.65400
N  -3.36400 33.45200 25.50300
C  -3.97200 32.67200 24.50600
C  -4.91800 31.81500 25.04300
C  -4.77200 31.97700 26.47800
C  -3.89200 33.03900 26.67400
C  -5.70000 30.66500 24.39900
C  -5.21800 31.51800 27.78900
O  -6.01000 30.66100 28.15500
C  -4.47700 32.35100 28.85600
C  -5.41300 33.03600 29.79700
O  -5.85800 34.15800 29.76500
O  -5.58500 32.14200 30.83600
C  -6.33300 32.70900 32.03700
H  0.27500 37.25600 28.39500
H  -0.13100 37.19300 22.01200
H  -4.20200 32.10100 22.52400
H  -3.41000 34.86900 30.55600
H  -0.62400 35.55900 30.39600
H  -2.27800 37.90400 29.78700
H  -1.15300 37.56300 31.12500
H  -2.77000 36.87300 31.17800
H  -0.85300 33.50300 31.16500
H  -1.80000 32.59000 29.99500
H  -3.20700 31.87300 31.88900
H  -3.30100 33.49100 32.47900
H  1.34900 39.99900 26.59800
H  2.70300 38.88600 26.57700
H  1.62300 38.83100 27.88900
H  3.26200 40.39000 23.21100
H  3.74100 39.20400 24.49100
H  2.32900 40.34600 24.62400
H  -0.64000 34.89500 20.58800
H  -3.30000 33.74900 20.64000
H  -3.13000 35.74900 19.53500
H  -1.57100 36.48600 19.23700
H  -2.66900 37.03000 20.55500
H  -1.19800 32.42300 19.85900
H  -2.12800 31.50900 21.06300
H  0.58400 32.25300 20.89500
H  -0.33200 31.36800 22.25800
H  -0.05300 33.11600 22.32000
H  -6.62400 31.00300 23.93000
H  -5.95600 29.91400 25.14600
H  -5.05000 30.20400 23.65400
H  -3.86800 31.61700 29.38300
H  -7.22200 33.32500 31.90400
H  -5.58900 33.30400 32.56900
H  -6.54700 31.85700 32.68200

