158

Mg 16.02400 52.54300 25.50300
C  18.05200 51.52000 28.37600
C  13.46300 52.95600 27.66300
C  14.16600 53.28900 22.81700
C  18.72300 51.45900 23.48400
N  15.78700 52.11200 27.72000
C  16.73300 51.89000 28.70400
C  16.21100 52.30000 30.13700
C  14.68400 52.36900 29.88000
C  14.62700 52.53800 28.30200
C  13.91600 51.15600 30.49800
C  16.91100 53.62700 30.64600
C  16.76700 53.89800 32.17900
H  16.19000 52.78700 33.04400
N  14.08500 53.10500 25.27900
C  13.17700 53.19700 26.25200
C  11.89800 53.63900 25.77300
C  12.04500 53.73500 24.39300
C  13.47700 53.38400 24.07200
C  10.68900 53.92100 26.56700
C  11.02800 54.23800 23.31700
O  11.42500 54.39800 22.18700
C  9.49500 54.52700 23.60000
N  16.35500 52.32900 23.43900
C  15.42900 52.77800 22.52700
C  16.03100 52.74800 21.09800
C  17.42800 52.09000 21.35200
C  17.52000 51.91400 22.85500
C  15.16700 52.27300 19.93000
C  18.57100 52.83300 20.64500
C  19.29700 53.85200 21.51300
N  17.99600 51.67600 25.78500
C  19.04600 51.33600 24.86100
C  20.08500 50.79500 25.58300
C  19.77000 50.84100 26.90600
C  18.53300 51.44100 27.00400
C  21.43600 50.39400 25.03500
C  20.31400 50.60500 28.17400
O  21.45100 50.19700 28.43800
C  19.21400 50.96000 29.20600
C  18.83500 49.74600 30.07700
O  18.39500 48.65200 29.69500
O  19.14600 50.00000 31.40700
C  18.65100 49.03800 32.43200
H  12.68400 53.06100 28.42100
H  13.59600 53.50200 21.91000
H  19.52100 51.03500 22.87000
H  16.51200 51.44800 30.74600
H  14.31000 53.29100 30.32600
H  13.25500 51.57800 31.25500
H  14.63300 50.55400 31.05600
H  13.36600 50.64600 29.70700
H  16.40500 54.45000 30.14200
H  17.91900 53.71400 30.24000
H  16.07300 54.73700 32.20600
H  17.67000 54.17300 32.72400
H  9.99400 53.08400 26.49000
H  10.28800 54.87500 26.22600
H  10.99500 54.08400 27.60100
H  9.09200 53.74200 24.23900
H  8.89300 54.71700 22.71100
H  9.37000 55.44000 24.18300
H  16.23300 53.81300 20.97900
H  17.31400 51.09000 20.93500
H  14.84800 51.27000 20.21500
H  15.86600 52.29100 19.09400
H  14.31500 52.89300 19.65300
H  18.26200 53.30300 19.71100
H  19.28600 52.04700 20.40100
H  19.26100 54.82200 21.01700
H  20.32800 53.54100 21.68000
H  19.00300 54.15400 22.51800
H  21.58200 49.31500 24.99600
H  22.20300 50.93400 25.59000
H  21.46800 50.64000 23.97300
H  19.56300 51.79200 29.81800
H  17.67600 48.63000 32.16600
H  18.75300 49.47800 33.42500
H  19.34600 48.20100 32.49400
Mg 9.11100 48.41800 25.61800
C  7.21200 48.39900 28.54700
C  11.83200 49.42500 27.39200
C  10.74300 48.68200 22.78500
C  6.28700 47.56300 23.94000
N  9.45100 48.80900 27.74600
C  8.50700 48.75400 28.78800
C  9.27000 49.12200 30.03600
C  10.55500 49.83600 29.52200
C  10.68300 49.21800 28.14600
C  10.43900 51.39100 29.44900
C  9.50300 47.99100 31.11700
C  8.99300 48.28700 32.57500
H  8.58300 47.14700 33.52800
N  11.12700 48.93400 25.14300
C  12.06500 49.26600 26.03200
C  13.33800 49.33600 25.35200
C  13.07300 49.10100 23.97900
C  11.60800 49.02000 23.88200
C  14.58300 49.59900 26.06600
C  14.08800 48.99700 22.81100
O  13.63300 48.92800 21.67600
C  15.56900 48.86700 23.01300
N  8.51300 48.44800 23.58000
C  9.44500 48.32800 22.57900
C  8.77000 48.07800 21.19600
C  7.37900 47.42800 21.68500
C  7.43800 47.82000 23.20200
C  8.43100 49.25200 20.19800
C  7.31100 45.88900 21.45400
C  6.19400 45.47100 20.39600
N  7.13600 47.99300 26.07400
C  6.10800 47.68700 25.28200
C  4.87700 47.44300 26.06500
C  5.27800 47.69600 27.35400
C  6.60700 48.06600 27.27000
C  3.49300 47.03000 25.55800
C  4.79400 47.72100 28.69500
O  3.77300 47.41500 29.24200
C  6.03500 48.28400 29.55000
C  6.17200 47.31700 30.69000
O  6.60800 46.21300 30.67100
O  5.50300 47.87400 31.76500
C  4.90000 46.92500 32.76700
H  12.67600 49.94700 27.84800
H  11.27100 48.65000 21.83000
H  5.41300 47.15300 23.43000
H  8.61900 49.89100 30.45100
H  11.42100 49.46400 30.06900
H  10.79200 51.75700 28.48500
H  11.01800 51.83600 30.25800
H  9.39700 51.70800 29.49600
H  10.57600 47.84900 31.24100
H  9.07100 47.03800 30.81000
H  8.16900 48.99300 32.46600
H  9.84000 48.81200 33.01700
H  14.56200 49.77000 27.14300
H  15.00900 50.46400 25.55800
H  15.19300 48.72200 25.84900
H  15.83400 47.81000 22.98000
H  16.01600 49.23900 23.93500
H  16.07300 49.31300 22.15500
H  9.42700 47.32800 20.75500
H  6.48000 47.94500 21.34800
H  8.83500 49.02900 19.21100
H  8.69300 50.21100 20.64500
H  7.37700 49.30900 19.92400
H  7.11100 45.37800 22.39500
H  8.21000 45.38100 21.10400
H  5.49600 46.30600 20.34200
H  5.83000 44.59700 20.93700
H  6.63100 45.27000 19.41800
H  3.58900 45.95000 25.43800
H  3.10600 47.60300 24.71500
H  2.79700 47.35100 26.33300
H  5.70900 49.22000 30.00400
H  5.77600 46.57700 33.31500
H  4.29700 46.21000 32.20800
H  4.27700 47.44800 33.49200

