158

Mg 48.92400 36.32100 28.16300
C  46.83900 34.52300 30.32700
C  48.87200 39.06700 30.25700
C  50.83100 38.04100 25.98000
C  48.54200 33.75000 25.89300
N  48.00400 36.69600 30.05800
C  47.32700 35.75100 30.83400
C  47.21900 36.29100 32.26100
C  47.56500 37.82500 32.17200
C  48.23300 37.89800 30.75000
C  46.28200 38.74900 32.21600
C  48.33100 35.60100 33.14200
C  47.84100 35.34300 34.61100
H  46.75600 36.24500 35.17000
N  49.63900 38.33300 28.04200
C  49.54900 39.29500 29.04400
C  50.12600 40.51100 28.57900
C  50.79100 40.24100 27.38400
C  50.44800 38.78800 27.09600
C  50.13500 41.78400 29.38500
C  51.80000 41.08800 26.62700
O  52.52300 40.58600 25.77600
C  51.95800 42.55500 26.92800
N  49.66300 35.88900 26.28000
C  50.41500 36.75600 25.57600
C  50.96000 36.11900 24.32900
C  50.32100 34.65600 24.36300
C  49.39000 34.81400 25.54700
C  50.64700 36.89900 22.96200
C  51.31200 33.42200 24.46600
C  51.17500 32.23100 23.41500
N  47.92000 34.47300 28.08200
C  47.85600 33.52500 27.11400
C  47.10500 32.36700 27.66000
C  46.67800 32.73100 28.92800
C  47.16800 34.03400 29.07700
C  46.87900 31.06500 27.00600
C  45.85200 32.32600 30.05300
O  45.28300 31.28300 30.28600
C  45.88100 33.60100 30.96100
C  46.07800 33.24500 32.41500
O  46.98000 32.51300 32.74900
O  44.90500 33.58500 33.16500
C  44.76300 32.78100 34.42300
H  49.00200 39.92200 30.92400
H  51.53700 38.45500 25.25800
H  48.47900 32.93100 25.17400
H  46.22500 35.94500 32.54300
H  48.20200 38.16200 32.99000
H  46.17900 39.43500 33.05700
H  45.34800 38.18800 32.22500
H  46.21800 39.28800 31.27000
H  49.19000 36.27100 33.19900
H  48.76200 34.72000 32.66700
H  48.68200 35.36900 35.30300
H  47.61400 34.27800 34.63100
H  50.09000 42.77800 28.94000
H  51.08900 41.79700 29.91300
H  49.40000 41.77800 30.18900
H  52.33100 42.75600 27.93200
H  51.00800 43.08500 26.85300
H  52.63900 42.82200 26.12000
H  52.01700 35.92800 24.51000
H  49.71900 34.47600 23.47300
H  50.03400 37.77500 23.17500
H  50.12500 36.26600 22.24500
H  51.47500 37.37200 22.43400
H  51.26600 33.05100 25.49000
H  52.34000 33.77600 24.37700
H  50.41400 32.40100 22.65200
H  50.92800 31.29300 23.91400
H  52.14900 32.09900 22.94400
H  47.15100 30.23400 27.65700
H  47.41000 30.81600 26.08700
H  45.81200 30.88700 26.86500
H  44.92300 34.10100 30.82200
H  45.56800 32.11400 34.73000
H  43.79100 32.28900 34.45000
H  44.75100 33.46300 35.27300
Mg 16.62800 53.20500 26.10800
C  19.02000 51.78300 28.23600
C  14.42400 53.39600 28.65900
C  14.28400 54.26600 23.97700
C  18.78400 52.50700 23.34100
N  16.74800 52.73300 28.16200
C  17.87900 52.29100 28.86000
C  17.69200 52.41300 30.35800
C  16.15800 52.63200 30.43700
C  15.70300 52.94800 29.01900
C  15.45200 51.23700 30.91100
C  18.60900 53.54400 30.93500
C  18.80800 53.60300 32.44300
H  18.03800 52.66900 33.36900
N  14.68400 53.92900 26.40200
C  13.91600 53.88400 27.47700
C  12.58600 54.36800 27.25000
C  12.49800 54.60400 25.86400
C  13.81100 54.18400 25.33700
C  11.56300 54.52100 28.29400
C  11.38600 55.08700 25.00300
O  11.50000 55.12300 23.78700
C  10.01400 55.50900 25.60100
N  16.59400 53.47400 24.08700
C  15.48300 53.89600 23.40100
C  15.75700 53.99800 21.87800
C  17.20900 53.53500 21.67300
C  17.62200 53.24600 23.13000
C  14.76300 53.23700 20.97000
C  18.18200 54.63900 21.19000
C  19.00500 54.31100 19.99800
N  18.40800 52.14000 25.79600
C  19.18600 52.00300 24.60300
C  20.45000 51.31300 24.89800
C  20.40800 51.21100 26.36800
C  19.19400 51.75800 26.82700
C  21.48800 50.95800 23.88900
C  21.19800 50.76200 27.54900
O  22.28600 50.24100 27.72600
C  20.36100 51.20600 28.80600
C  19.99300 50.00600 29.58400
O  19.87000 48.84500 29.17100
O  20.07400 50.25200 30.89600
C  19.88200 49.15100 31.83000
H  13.74700 53.39400 29.51600
H  13.68800 54.87300 23.29200
H  19.49200 52.26900 22.54400
H  17.95500 51.50400 30.89900
H  15.92100 53.41000 31.16200
H  14.49000 51.46200 31.37200
H  16.20200 50.66000 31.45200
H  15.47800 50.82500 29.90200
H  18.35600 54.53700 30.56200
H  19.59100 53.43500 30.47500
H  18.65200 54.59500 32.86800
H  19.86300 53.36300 32.58100
H  10.68800 53.95100 27.98300
H  11.22600 55.53600 28.50200
H  11.88500 54.06200 29.22800
H  9.39000 54.74500 26.06500
H  9.46900 55.95700 24.77000
H  10.16400 56.32400 26.30900
H  15.54500 55.01700 21.55600
H  17.32500 52.55100 21.22000
H  14.21800 52.48500 21.54100
H  15.34400 52.76100 20.18000
H  14.03200 53.88500 20.48700
H  18.88300 54.89100 21.98600
H  17.59900 55.51200 20.89400
H  18.57900 54.91000 19.19400
H  19.10800 53.26700 19.70200
H  19.97900 54.76700 20.18000
H  22.38200 50.65400 24.43200
H  21.92200 51.71800 23.23900
H  21.22400 50.05400 23.33900
H  20.90800 51.88700 29.45700
H  20.64300 48.41000 31.58800
H  18.86200 48.77400 31.75400
H  19.97700 49.56600 32.83300

