158

Mg 47.98800 15.97000 29.18700
C  45.94100 15.75100 31.83400
C  50.23300 17.85900 31.05600
C  49.82100 16.36100 26.36800
C  45.42700 14.48800 27.14800
N  48.03400 16.82900 31.19500
C  47.15500 16.41200 32.11300
C  47.79400 16.63500 33.53000
C  48.87700 17.71000 33.23300
C  49.00700 17.56800 31.70200
C  48.50400 19.12700 33.61000
C  48.34600 15.33900 34.23600
C  48.66100 15.42100 35.73500
H  48.43100 16.74600 36.43200
N  49.81600 16.82400 28.86600
C  50.59900 17.49100 29.76000
C  51.94700 17.67400 29.18800
C  51.81700 17.32300 27.79400
C  50.45400 16.82800 27.61400
C  53.18000 18.00500 29.89700
C  52.80900 17.43300 26.57300
O  52.59300 16.86900 25.50300
C  54.09300 18.22800 26.68000
N  47.62400 15.58700 27.08300
C  48.56500 15.83900 26.14900
C  48.13500 15.54900 24.66700
C  46.81800 14.71700 24.97200
C  46.62900 14.90600 26.49900
C  47.75900 16.88800 23.88300
C  46.88100 13.20600 24.63900
C  45.98400 12.61600 23.54100
N  46.07000 15.29300 29.41600
C  45.13500 14.74400 28.54500
C  43.87300 14.49400 29.23100
C  44.20000 14.82900 30.57700
C  45.49100 15.34300 30.60200
C  42.64100 13.91800 28.64500
C  43.65100 14.82200 31.89900
O  42.59000 14.40700 32.30300
C  44.79200 15.35400 32.81500
C  44.28100 16.43800 33.78500
O  43.89100 17.54500 33.46300
O  44.34100 16.03200 35.05800
C  44.03800 17.07200 36.04300
H  51.09400 18.20100 31.63600
H  50.34500 16.52000 25.42400
H  44.64800 13.96800 26.58700
H  47.09900 17.05000 34.25900
H  49.78800 17.32300 33.68900
H  49.43100 19.69700 33.54700
H  48.04900 19.26900 34.59000
H  47.94700 19.50400 32.75200
H  49.28200 15.05700 33.75300
H  47.59700 14.55300 34.14300
H  49.66400 15.03100 35.90800
H  47.95600 14.67800 36.10900
H  53.67100 18.85500 29.42500
H  53.76500 17.11400 29.66900
H  53.11900 18.09200 30.98200
H  54.71300 17.49900 27.20200
H  53.91400 19.15000 27.23400
H  54.40800 18.47400 25.66600
H  48.90000 15.04200 24.07900
H  45.90700 15.10600 24.51800
H  47.65700 17.75200 24.54000
H  46.87600 16.61500 23.30500
H  48.61100 16.97500 23.20800
H  46.70300 12.65800 25.56500
H  47.93100 13.07800 24.37800
H  46.42000 11.68900 23.16800
H  45.75000 13.35000 22.77000
H  45.05700 12.25800 23.98900
H  42.40200 14.28200 27.64500
H  41.82800 14.20500 29.31200
H  42.62100 12.83100 28.57700
H  45.15600 14.50800 33.39800
H  44.79200 17.85200 35.94500
H  44.01500 16.50400 36.97300
H  43.02500 17.46700 35.96100
Mg 41.53000 40.70700 26.67800
C  40.99300 43.11100 29.29600
C  42.62600 38.63800 29.07000
C  42.28700 38.53600 24.10500
C  40.84900 43.11000 24.32600
N  41.81400 40.88200 28.89100
C  41.40600 41.89500 29.77500
C  41.52700 41.51400 31.19800
C  42.35500 40.19700 31.08200
C  42.17100 39.83100 29.62000
C  43.88600 40.29000 31.62300
C  40.20600 41.46900 32.04900
C  40.21700 42.28600 33.39100
H  39.54500 41.62800 34.56000
N  42.26900 38.85900 26.57100
C  42.61600 38.14200 27.68900
C  43.22900 36.86200 27.27000
C  43.12700 36.81900 25.83000
C  42.54200 38.09800 25.40400
C  43.82600 35.79100 28.20400
C  43.59100 35.71700 24.85100
O  43.55700 35.90200 23.61000
C  44.17500 34.36100 25.34900
N  41.51900 40.80200 24.48000
C  41.87700 39.80500 23.64800
C  41.70900 40.18200 22.14300
C  41.18200 41.63900 22.28500
C  41.18800 41.88700 23.79700
C  42.98400 39.99600 21.32200
C  39.74600 41.93700 21.62400
C  39.75800 43.03900 20.52600
N  40.98300 42.64500 26.68500
C  40.76900 43.54100 25.72200
C  40.42400 44.84200 26.23700
C  40.39500 44.71500 27.66400
C  40.83300 43.37300 27.90800
C  40.08900 46.06300 25.42800
C  40.05100 45.35100 28.94500
O  39.50100 46.41700 29.09600
C  40.50700 44.36200 30.06100
C  41.69000 45.13100 30.69300
O  42.77400 45.31000 30.10800
O  41.33000 45.46000 31.95100
C  42.45900 46.02500 32.81300
H  43.00800 37.92400 29.80300
H  42.51300 38.04500 23.15600
H  40.49500 43.91200 23.67500
H  42.13500 42.32000 31.61100
H  41.73600 39.56000 31.71400
H  44.09000 41.13300 32.28400
H  44.53400 40.22000 30.74900
H  44.04100 39.35700 32.16400
H  39.91100 40.44500 32.27400
H  39.38900 41.81000 31.41300
H  39.59100 43.11400 33.06100
H  41.18700 42.75300 33.56000
H  43.93200 36.13700 29.23200
H  44.87200 35.61900 27.94800
H  43.19000 34.90600 28.20900
H  44.52600 33.75000 24.51700
H  43.38100 33.90900 25.94500
H  45.07300 34.41500 25.96300
H  40.97900 39.46200 21.77500
H  41.96800 42.22400 21.80700
H  43.80400 39.77000 22.00300
H  43.26000 40.83500 20.68400
H  42.97500 39.21300 20.56300
H  38.99800 42.18000 22.37900
H  39.31600 41.06300 21.13400
H  39.76100 42.46300 19.60100
H  40.72500 43.53600 20.60900
H  38.94700 43.76600 20.56600
H  39.02300 46.28800 25.45100
H  40.36200 46.00200 24.37500
H  40.64900 46.86500 25.90900
H  39.69300 44.26000 30.77800
H  41.95800 46.89800 33.23200
H  43.35900 46.32200 32.27400
H  42.69100 45.24100 33.53400

