158

Mg 0.86600 42.59200 26.10100
C  2.45900 42.51200 29.23800
C  -2.11000 41.88700 27.63000
C  -0.50100 41.87200 23.05200
C  4.00000 43.00000 24.62600
N  0.27400 42.38700 28.20300
C  1.08800 42.31900 29.31700
C  0.24800 42.00100 30.62100
C  -1.20900 41.70200 30.03100
C  -1.04900 42.01300 28.51000
C  -1.65100 40.27700 30.35000
C  0.30400 43.17700 31.65800
C  0.88900 42.80800 32.99200
H  0.54000 41.52600 33.74000
N  -1.03700 42.12000 25.43600
C  -2.10900 42.00700 26.27400
C  -3.25600 41.94600 25.43500
C  -2.85500 41.92300 24.04300
C  -1.41200 41.88800 24.10500
C  -4.64900 41.87000 26.06500
C  -3.62100 41.77700 22.76900
O  -3.16200 41.61100 21.68900
C  -5.08400 41.91800 22.84900
N  1.58400 42.46200 24.19800
C  0.85800 42.10600 23.12800
C  1.73800 41.98500 21.88400
C  3.08800 42.73600 22.30300
C  2.88600 42.76300 23.83100
C  1.98200 40.49000 21.57000
C  3.23200 44.13100 21.62900
C  2.63400 45.35000 22.46600
N  2.82700 42.74000 26.80300
C  3.97000 42.99400 26.07300
C  5.06100 43.21800 26.93200
C  4.49600 43.01900 28.22000
C  3.16600 42.75200 28.05200
C  6.48000 43.53500 26.56100
C  4.84200 42.96800 29.55800
O  6.01100 43.06600 30.03400
C  3.51300 42.63500 30.33600
C  3.75400 41.31100 30.93500
O  3.75200 40.24100 30.34500
O  4.06300 41.43000 32.23700
C  4.44900 40.24100 33.09500
H  -2.97600 41.42600 28.10800
H  -0.88800 41.88300 22.03100
H  5.00900 43.09700 24.22100
H  0.73800 41.11000 31.01300
H  -1.95100 42.41300 30.39400
H  -1.69400 39.63800 29.46800
H  -2.66000 40.54000 30.67100
H  -1.13100 39.69200 31.10900
H  -0.72500 43.52400 31.75500
H  0.93700 44.00400 31.33500
H  0.51100 43.55600 33.68900
H  1.97300 42.90200 32.93500
H  -4.54100 42.36200 27.03200
H  -4.97200 40.84500 26.24500
H  -5.33400 42.47600 25.47100
H  -5.44300 41.12500 23.50600
H  -5.39700 41.77300 21.81500
H  -5.43800 42.83100 23.32800
H  1.26400 42.46400 21.02700
H  4.02500 42.22500 22.08400
H  1.48000 40.31700 20.61800
H  1.66000 39.82200 22.36900
H  3.03300 40.21100 21.48800
H  2.74200 44.18200 20.65700
H  4.26000 44.29200 21.30500
H  3.41500 45.99800 22.86300
H  1.95600 44.98900 23.24000
H  2.11300 45.98500 21.74900
H  6.47100 44.26900 25.75500
H  7.00100 42.70200 26.09000
H  7.05300 43.91200 27.40900
H  3.17500 43.38600 31.05100
H  5.51400 40.31800 33.31700
H  4.41600 39.30200 32.54300
H  3.75800 39.92100 33.87500
Mg -2.11300 34.51100 27.41100
C  -3.78600 32.50600 29.66000
C  -0.56600 36.07600 30.00900
C  -0.75300 36.46200 25.05800
C  -4.11300 32.98100 24.82100
N  -2.43400 34.53200 29.64700
C  -2.92200 33.39800 30.27000
C  -2.48500 33.40800 31.83600
C  -1.59400 34.69700 31.91000
C  -1.50200 35.08900 30.43900
C  -2.13600 35.89000 32.77300
C  -1.81500 32.04300 32.28500
C  -2.49800 31.44400 33.55300
H  -1.72100 31.43000 34.85200
N  -0.89900 36.14600 27.48900
C  -0.31900 36.53500 28.66600
C  0.72400 37.53700 28.24700
C  0.64500 37.77900 26.81400
C  -0.39500 36.77500 26.39600
C  1.54400 38.27600 29.27800
C  1.43500 38.68000 25.90500
O  1.16100 38.78300 24.70700
C  2.63100 39.42300 26.50700
N  -2.31100 34.58400 25.19800
C  -1.60600 35.51300 24.46800
C  -1.95100 35.51500 23.02600
C  -3.08500 34.33000 22.92200
C  -3.26500 33.98100 24.41200
C  -2.57400 36.85300 22.48300
C  -2.68400 33.06100 22.03300
C  -2.59700 33.25300 20.49400
N  -3.65600 33.09200 27.18700
C  -4.27500 32.56600 26.13100
C  -5.15300 31.53100 26.53300
C  -4.95100 31.34200 27.89300
C  -3.99500 32.35500 28.29800
C  -6.02600 30.79900 25.56700
C  -5.29500 30.62300 29.05600
O  -6.01800 29.63400 29.26900
C  -4.56400 31.32800 30.20600
C  -5.60900 31.76600 31.17400
O  -6.41800 32.68200 30.97500
O  -5.67600 30.97300 32.26400
C  -6.63900 31.26800 33.30300
H  0.17000 36.41500 30.74100
H  -0.26100 36.93200 24.20300
H  -4.68200 32.53900 24.00100
H  -3.37000 33.66500 32.41900
H  -0.58700 34.37800 32.17900
H  -1.26000 36.29300 33.28200
H  -2.67300 35.50200 33.63800
H  -2.71400 36.67700 32.28900
H  -0.77700 32.25200 32.54700
H  -1.67600 31.32900 31.47300
H  -2.46100 30.42000 33.18300
H  -3.49700 31.87300 33.63100
H  2.58900 38.21700 28.97500
H  1.52100 37.99300 30.33000
H  1.19900 39.31000 29.28000
H  3.47200 38.76500 26.72600
H  2.47900 40.11000 27.34000
H  2.95800 40.10600 25.72300
H  -1.09700 35.19800 22.42900
H  -4.06900 34.65500 22.58400
H  -3.49500 36.66000 21.93200
H  -1.80300 37.26100 21.82900
H  -2.83500 37.55200 23.27800
H  -3.45000 32.29000 22.11500
H  -1.76200 32.71800 22.50200
H  -3.02200 32.42800 19.92300
H  -1.54700 33.32500 20.21000
H  -2.95700 34.24800 20.23000
H  -6.74300 30.16700 26.09100
H  -5.44400 30.21700 24.85200
H  -6.58600 31.46600 24.91100
H  -3.95800 30.70300 30.86200
H  -7.25600 32.14700 33.11500
H  -6.00600 31.50500 34.15800
H  -7.33000 30.42500 33.32600

