158

Mg 6.40000 54.79600 40.20700
C  5.21400 51.47100 39.61300
C  9.53100 53.66700 39.61500
C  7.36000 58.06200 39.80100
C  3.11300 55.75700 40.57100
N  7.25100 52.85400 39.50000
C  6.59400 51.60900 39.34400
C  7.62900 50.53200 39.03500
C  8.91600 51.22400 39.55200
C  8.59000 52.64600 39.53300
C  9.54000 50.83200 40.87700
C  7.75800 50.24700 37.45800
C  6.85100 51.07000 36.53400
H  6.28200 50.48800 35.30800
N  8.24100 55.72600 39.90500
C  9.43900 55.07900 39.68300
C  10.48300 56.00900 39.50900
C  9.89100 57.33800 39.46600
C  8.40000 57.08400 39.69600
C  11.94300 55.71100 39.39900
C  10.60500 58.63700 39.20700
O  11.77300 58.56800 38.88800
C  10.07900 59.93700 39.46600
N  5.37200 56.68800 40.13900
C  6.01400 57.88400 40.18000
C  5.01700 59.04500 40.29700
C  3.71400 58.28000 40.59000
C  4.03500 56.82200 40.31100
C  5.48100 60.18500 41.30000
C  2.53200 58.67500 39.67200
C  1.13200 58.60300 40.36000
N  4.59600 53.86400 40.05600
C  3.34600 54.40300 40.37300
C  2.39800 53.40300 40.33700
C  3.08100 52.12800 40.14200
C  4.39800 52.51500 39.93500
C  0.88400 53.58200 40.29100
C  2.92000 50.73000 39.89700
O  1.91900 50.06100 39.74700
C  4.34400 50.24600 39.65600
C  4.46100 49.32600 38.52600
O  4.04900 49.59100 37.41400
O  4.95700 48.12900 38.94000
C  5.16400 47.04800 37.94500
H  10.55100 53.27600 39.59600
H  7.66800 59.08500 39.57700
H  2.12900 56.00400 40.97600
H  7.29700 49.70200 39.66000
H  9.74200 51.02900 38.86800
H  9.54300 51.69300 41.54500
H  10.59000 50.58500 40.72500
H  8.95700 50.03800 41.34400
H  7.45300 49.21400 37.29300
H  8.75700 50.39200 37.04700
H  7.55500 51.89500 36.42700
H  5.94100 51.52200 36.92800
H  12.20200 55.70700 38.34100
H  12.18700 54.73500 39.81900
H  12.59400 56.38500 39.95600
H  10.87900 60.67600 39.49400
H  9.71700 60.05600 40.48800
H  9.25900 60.15700 38.78200
H  4.94800 59.57500 39.34700
H  3.42300 58.37500 41.63600
H  4.59000 60.34100 41.90900
H  5.86100 61.03300 40.73200
H  6.27800 59.84200 41.95900
H  2.51100 57.98200 38.83100
H  2.70600 59.68100 39.29000
H  0.51100 59.42400 40.00100
H  1.15200 58.67600 41.44700
H  0.62000 57.68700 40.06800
H  0.61700 53.75000 39.24800
H  0.64500 54.44100 40.91700
H  0.40600 52.66900 40.64800
H  4.64800 49.70600 40.55200
H  4.42000 46.25400 38.00700
H  6.17700 46.68600 38.11800
H  5.11200 47.52300 36.96500
Mg 16.68000 52.49500 26.00300
C  18.51200 50.86800 28.64100
C  14.18500 52.97800 28.21700
C  14.99900 53.81700 23.50000
C  18.87600 50.97000 23.70400
N  16.46100 52.16800 28.24600
C  17.24100 51.39100 29.08100
C  16.72100 51.38500 30.51100
C  15.27400 51.82700 30.36700
C  15.29900 52.35500 28.86300
C  14.18800 50.77700 30.68100
C  17.57100 52.23100 31.37400
C  17.64600 51.84900 32.86700
H  16.91900 52.80400 33.82300
N  14.92700 53.41400 25.90000
C  14.06600 53.56700 26.96500
C  13.00900 54.48900 26.60000
C  13.16300 54.69300 25.19600
C  14.43500 53.98500 24.83100
C  12.00800 54.95200 27.63100
C  12.31600 55.51300 24.31100
O  12.57400 55.64200 23.09600
C  11.04900 56.18500 24.79200
N  16.93400 52.43900 23.83700
C  16.10200 53.16700 23.03300
C  16.58500 53.15700 21.54200
C  17.87400 52.22300 21.66000
C  17.97900 51.85100 23.15200
C  15.54300 52.55400 20.55800
C  19.29500 52.86100 21.32600
C  19.96200 53.67300 22.46800
N  18.46600 51.30400 26.06900
C  19.17100 50.74900 25.03600
C  20.15800 49.87900 25.59000
C  20.05100 49.98600 26.97500
C  18.92400 50.88900 27.25200
C  21.13800 49.01500 24.79700
C  20.55000 49.52500 28.24600
O  21.52200 48.80300 28.40400
C  19.54800 50.08900 29.37600
C  19.02500 48.88300 30.07100
O  18.06600 48.20800 29.74700
O  19.80600 48.71500 31.21600
C  19.09700 47.86500 32.26200
H  13.23000 52.97400 28.74600
H  14.43100 54.29600 22.70000
H  19.40800 50.45600 22.90100
H  16.70100 50.35000 30.85000
H  15.00500 52.65500 31.02200
H  13.55800 51.13800 31.49300
H  14.68300 49.90400 31.10600
H  13.71500 50.49200 29.74100
H  17.29300 53.27800 31.25000
H  18.59500 52.13000 31.01400
H  18.72000 51.74200 33.02000
H  17.25400 50.84300 33.01400
H  11.94200 56.03300 27.50700
H  12.16700 54.72000 28.68400
H  11.00700 54.57300 27.42600
H  10.45600 56.65400 24.00700
H  11.42000 56.98800 25.42900
H  10.38300 55.44100 25.22900
H  16.97600 54.11400 21.19700
H  17.78900 51.30500 21.07900
H  15.32400 53.33700 19.83300
H  14.59000 52.18600 20.93800
H  15.92000 51.65200 20.07600
H  19.17200 53.57400 20.51000
H  20.05200 52.11500 21.08600
H  20.78500 52.99500 22.69500
H  19.32300 53.87100 23.32900
H  20.48300 54.54900 22.08000
H  21.57900 48.22200 25.40100
H  21.85600 49.65600 24.28700
H  20.55000 48.52500 24.02100
H  20.23600 50.72300 29.93600
H  19.69800 46.98500 32.49100
H  18.13900 47.44500 31.95700
H  18.97400 48.29300 33.25700

