158

Mg 25.62500 0.61900 29.01200
C  27.72800 0.31500 31.98600
C  22.94900 1.00800 31.06600
C  23.84600 0.88300 26.26000
C  28.47500 -0.23300 27.11800
N  25.41000 0.60500 31.24400
C  26.38700 0.60400 32.27100
C  25.62200 0.89600 33.65800
C  24.09400 1.12600 33.30700
C  24.17500 0.85600 31.80200
C  23.05200 0.23300 34.03000
C  26.21900 2.14400 34.37100
C  25.57400 2.47100 35.80100
H  26.68400 2.50200 36.95200
N  23.67000 0.88900 28.70100
C  22.70800 0.95100 29.63900
C  21.45500 1.17900 28.98000
C  21.69300 1.18000 27.62500
C  23.13700 0.93500 27.44700
C  20.16000 1.28400 29.79300
C  20.71000 1.59800 26.43200
O  21.06100 1.58900 25.27100
C  19.22900 1.94300 26.65200
N  26.10000 0.41300 27.03800
C  25.21300 0.64600 26.03000
C  25.76500 0.64000 24.63600
C  27.22200 0.23000 24.90400
C  27.28400 0.08000 26.43500
C  24.97600 -0.18200 23.59800
C  28.25900 1.19800 24.26300
C  28.96700 0.81300 22.92800
N  27.64700 0.10600 29.39800
C  28.62900 -0.21700 28.50300
C  29.78900 -0.72100 29.25800
C  29.51000 -0.40900 30.60100
C  28.19200 0.09300 30.64100
C  30.99200 -1.35200 28.69200
C  30.06900 -0.40000 31.93700
O  31.17300 -0.78700 32.29200
C  28.92700 0.00200 32.87800
C  28.63900 -1.02300 33.88300
O  27.85400 -1.97300 33.68000
O  29.49800 -0.88700 34.96300
C  29.33700 -2.01200 35.98100
H  22.13600 1.26900 31.74700
H  23.36400 1.24800 25.35000
H  29.15200 -0.66400 26.37700
H  25.77800 0.01100 34.27300
H  23.70300 2.13400 33.45100
H  22.22700 0.90500 34.27000
H  23.42100 -0.07500 35.00800
H  22.78900 -0.61300 33.39600
H  26.13700 3.04200 33.75800
H  27.28700 2.02500 34.55400
H  24.84200 1.69500 36.02500
H  25.11800 3.45900 35.73800
H  19.81900 2.28500 29.52800
H  20.29400 1.18200 30.87000
H  19.40100 0.59900 29.41600
H  18.76500 2.48300 25.82700
H  19.09400 2.62200 27.49300
H  18.73500 0.98300 26.80300
H  25.71400 1.70600 24.41300
H  27.38700 -0.74500 24.44700
H  24.81100 0.51300 22.77500
H  24.04800 -0.61400 23.97300
H  25.59600 -1.02900 23.30500
H  29.12000 1.28600 24.92500
H  27.81900 2.19400 24.21300
H  28.64300 -0.12900 22.48600
H  30.05300 0.86400 23.00800
H  28.64000 1.63700 22.29400
H  31.19300 -0.87100 27.73500
H  30.60200 -2.35000 28.49000
H  31.83000 -1.23300 29.37800
H  29.27500 0.90000 33.38800
H  29.05400 -1.56400 36.93300
H  30.24600 -2.61200 36.02500
H  28.64600 -2.83800 35.81400
Mg 9.25700 47.90000 25.70300
C  6.75900 48.16400 28.08500
C  11.38300 49.43900 27.98800
C  11.64200 47.50600 23.55400
C  6.82900 47.23700 23.27700
N  9.04800 48.81200 27.68200
C  8.01100 48.55100 28.53600
C  8.36400 48.88800 30.05800
C  9.72900 49.62700 29.85800
C  10.07800 49.26800 28.39900
C  9.75600 51.06100 30.24300
C  8.44500 47.68000 31.04100
C  9.17800 47.68700 32.33300
H  8.56500 47.08800 33.55500
N  11.29700 48.32700 25.80800
C  11.99900 48.97200 26.78100
C  13.34600 49.12600 26.34300
C  13.51900 48.43200 25.10000
C  12.11200 48.03800 24.77600
C  14.43800 49.87000 27.16300
C  14.65700 48.19200 24.18900
O  14.54600 47.74300 23.04000
C  16.02000 48.38200 24.68700
N  9.23900 47.62800 23.71100
C  10.37900 47.37500 23.07400
C  10.21700 47.04700 21.58300
C  8.68300 46.96100 21.49700
C  8.19700 47.30600 22.93300
C  10.85800 48.08300 20.55100
C  8.03800 45.61600 21.08900
C  8.63900 44.33800 21.75100
N  7.17500 47.66800 25.65400
C  6.32300 47.33300 24.56200
C  4.97400 47.31200 25.12800
C  5.11900 47.57800 26.47400
C  6.47400 47.81800 26.78000
C  3.76200 47.05600 24.34000
C  4.33400 47.78600 27.68000
O  3.13200 47.80900 27.84600
C  5.37200 48.15500 28.79400
C  5.32800 47.11000 29.79800
O  5.84800 45.99300 29.68800
O  4.59900 47.56900 30.85900
C  4.47200 46.73000 32.11200
H  12.06500 49.88300 28.71600
H  12.37000 47.26800 22.77500
H  6.13200 46.97800 22.47700
H  7.54400 49.55800 30.31800
H  10.46400 49.26300 30.57700
H  10.40300 51.59300 29.54600
H  10.21300 51.25400 31.21300
H  8.81600 51.60600 30.15800
H  8.99100 46.94800 30.44600
H  7.44200 47.33200 31.28700
H  9.33000 48.76300 32.41700
H  10.16600 47.25000 32.18500
H  13.91700 50.49700 27.88600
H  15.04300 50.48600 26.49800
H  15.21100 49.25500 27.62400
H  16.77600 48.18400 23.92800
H  16.24300 47.75200 25.54800
H  16.07000 49.44700 24.91700
H  10.78900 46.12000 21.62500
H  8.30200 47.78100 20.88900
H  11.46500 48.85100 21.02900
H  10.21200 48.63300 19.86700
H  11.47600 47.47200 19.89300
H  8.23400 45.63600 20.01700
H  6.95200 45.68900 21.14500
H  7.84500 43.87800 22.34000
H  9.57100 44.35200 22.31700
H  8.86100 43.72500 20.87800
H  3.93400 47.38700 23.31600
H  2.90100 47.59500 24.73400
H  3.50100 46.00000 24.26700
H  5.20600 49.14700 29.21400
H  4.47200 45.67000 31.85800
H  3.54200 46.93500 32.64100
H  5.36400 46.94300 32.70100

