158

Mg -2.30700 17.37200 27.31700
C  -2.85900 14.96900 29.95500
C  -2.62800 19.85800 29.49800
C  -1.97800 19.37000 24.62700
C  -2.63700 14.52300 25.07200
N  -2.96600 17.39800 29.51100
C  -3.02200 16.31600 30.39900
C  -3.18600 16.86900 31.80800
C  -3.15800 18.41800 31.60800
C  -2.84100 18.56700 30.11300
C  -4.38200 19.22400 32.19900
C  -2.16600 16.37800 32.94300
C  -1.59400 17.40900 33.95700
H  -1.26300 16.91300 35.36500
N  -2.11200 19.38800 27.12300
C  -2.42400 20.24400 28.14300
C  -2.22200 21.61700 27.60400
C  -1.80900 21.49400 26.22700
C  -1.99100 20.03500 25.91500
C  -2.23000 22.85200 28.43300
C  -1.28200 22.48900 25.27900
O  -1.02600 22.28800 24.08700
C  -1.26900 23.88500 25.78400
N  -2.58700 16.99600 25.18800
C  -2.34600 18.04200 24.32800
C  -2.54400 17.55300 22.90700
C  -2.47000 15.99000 23.07000
C  -2.55000 15.78800 24.54900
C  -3.76000 18.17000 22.11600
C  -1.22400 15.42100 22.42100
C  0.09900 15.75500 23.05500
N  -2.55500 15.28200 27.41200
C  -2.62900 14.27500 26.41400
C  -2.71700 12.97500 26.98900
C  -2.72500 13.23100 28.38200
C  -2.75400 14.63000 28.57100
C  -2.74700 11.64900 26.30800
C  -2.78300 12.59500 29.71600
O  -2.56700 11.45800 30.08300
C  -2.94100 13.71400 30.77100
C  -1.82800 13.38900 31.74400
O  -0.65700 13.60600 31.59600
O  -2.37600 12.78400 32.84100
C  -1.55600 12.61300 34.01400
H  -2.61400 20.62900 30.27200
H  -1.74200 20.03100 23.79100
H  -2.63700 13.72200 24.32900
H  -4.17400 16.53300 32.12400
H  -2.24500 18.85700 32.01000
H  -4.96200 18.50100 32.77100
H  -5.08600 19.61000 31.46200
H  -4.03500 20.07900 32.78000
H  -1.27400 15.88300 32.55800
H  -2.69700 15.63800 33.54100
H  -2.25600 18.26100 34.10900
H  -0.63200 17.70700 33.54000
H  -2.42900 22.63900 29.48300
H  -3.13200 23.37900 28.12200
H  -1.35200 23.49400 28.36300
H  -2.22600 24.11500 26.25300
H  -1.05500 24.51400 24.91900
H  -0.53100 24.10300 26.55500
H  -1.61800 17.85100 22.41400
H  -3.35600 15.47600 22.69500
H  -3.76800 19.23500 22.34900
H  -4.71700 17.69300 22.32800
H  -3.60700 17.99300 21.05100
H  -1.10400 15.73400 21.38400
H  -1.25400 14.33600 22.51700
H  0.61100 16.34700 22.29600
H  0.71700 14.86500 23.17400
H  0.05700 16.30600 23.99400
H  -3.29900 11.61000 25.36900
H  -3.15100 10.87800 26.96500
H  -1.70300 11.35300 26.20400
H  -3.92400 13.53600 31.20700
H  -2.26600 12.31800 34.78700
H  -1.04400 13.50700 34.37100
H  -0.91700 11.73500 33.91900
Mg 24.66100 -3.95800 45.58200
C  26.84800 -1.89700 44.07300
C  22.17500 -2.96000 43.68800
C  22.96600 -6.96800 46.19700
C  27.40100 -5.51000 47.26000
N  24.47000 -2.45500 44.22100
C  25.47800 -1.74500 43.59100
C  24.97000 -0.89900 42.42100
C  23.41900 -0.95700 42.61100
C  23.36600 -2.21200 43.54200
C  22.62100 0.15500 43.26700
C  25.51000 -1.13500 40.97000
C  24.83400 -0.33400 39.84600
H  25.19200 -0.71600 38.40000
N  22.78700 -4.78400 45.15300
C  21.87400 -4.17400 44.36000
C  20.65500 -4.86300 44.44900
C  20.80900 -6.02300 45.22500
C  22.23800 -5.92500 45.59800
C  19.41100 -4.43900 43.66100
C  19.79600 -7.08100 45.69600
O  18.62900 -7.06000 45.19400
C  20.14600 -8.03300 46.80100
N  25.27000 -6.20800 46.32400
C  24.34900 -7.17100 46.55400
C  24.87100 -8.30700 47.38700
C  26.40200 -7.79500 47.70400
C  26.42200 -6.47600 47.02900
C  23.95200 -8.67500 48.62700
C  27.45600 -8.79900 47.14200
C  27.85200 -9.99600 48.04900
N  26.67200 -3.63400 45.86900
C  27.66100 -4.36700 46.51300
C  28.95000 -3.71300 46.37800
C  28.71400 -2.74700 45.37900
C  27.27500 -2.73900 45.15200
C  30.27500 -4.07800 47.03300
C  29.29500 -1.81400 44.47100
O  30.50100 -1.60400 44.35900
C  28.06200 -1.09900 43.61200
C  28.05300 0.32700 43.94500
O  27.68100 0.79500 45.03600
O  28.65600 1.03800 42.93300
C  29.13700 2.33700 43.39100
H  21.33300 -2.58900 43.10100
H  22.37300 -7.82000 46.53500
H  28.28900 -5.89400 47.76600
H  25.41100 0.07400 42.63900
H  22.84400 -1.23100 41.72700
H  23.07300 1.03300 43.72800
H  22.07500 -0.28400 44.10200
H  21.96100 0.59600 42.52100
H  25.38600 -2.21600 40.90800
H  26.57700 -0.91800 40.91800
H  25.10400 0.70600 40.02700
H  23.74400 -0.35200 39.87700
H  19.42100 -5.03300 42.74800
H  19.64700 -3.43300 43.31400
H  18.47600 -4.55100 44.21200
H  19.15300 -8.38500 47.07900
H  20.54300 -7.52600 47.68100
H  20.64800 -8.93300 46.44500
H  24.92100 -9.14600 46.69200
H  26.49900 -7.76600 48.78900
H  23.50100 -9.64100 48.40000
H  23.07800 -8.03800 48.76500
H  24.63000 -8.71700 49.47900
H  28.31600 -8.14000 47.02500
H  27.19000 -9.16500 46.15000
H  27.77600 -10.93000 47.49200
H  27.17200 -10.01900 48.90100
H  28.84000 -9.87300 48.49100
H  30.07500 -4.14300 48.10300
H  30.91100 -3.20900 46.86600
H  30.68900 -5.04800 46.75800
H  28.18700 -1.11900 42.52900
H  28.66800 3.02500 42.68800
H  30.19700 2.21900 43.16500
H  28.95000 2.65400 44.41700

