158

Mg 30.56400 58.23800 40.60000
C  27.93700 56.07400 39.61800
C  32.76100 55.87400 39.32100
C  32.98400 60.58500 40.64800
C  28.21200 60.83400 40.69800
N  30.32900 56.14300 39.61700
C  29.23600 55.47300 39.30900
C  29.55700 54.13900 38.56500
C  31.04500 53.97200 38.96500
C  31.40100 55.39900 39.37300
C  31.31800 53.07000 40.24400
C  29.35000 54.29400 37.04800
C  28.25700 53.32200 36.46700
H  27.33200 53.92400 35.40700
N  32.64900 58.22300 40.02500
C  33.31800 57.18500 39.44900
C  34.65900 57.61700 39.21400
C  34.76400 58.99800 39.55200
C  33.38700 59.32900 40.10300
C  35.69500 56.79700 38.58300
C  36.01700 59.87200 39.34400
O  37.07000 59.31200 38.95400
C  36.07500 61.40700 39.52800
N  30.53200 60.50900 40.63600
C  31.68800 61.11400 40.88400
C  31.49700 62.55100 41.39800
C  29.93900 62.69400 41.28100
C  29.50800 61.24000 40.88200
C  32.15700 62.80200 42.80700
C  29.42500 63.81700 40.32200
C  28.76200 64.94800 41.13300
N  28.48400 58.44600 40.43800
C  27.66400 59.56100 40.47100
C  26.29900 59.18200 40.38400
C  26.28400 57.77400 40.05000
C  27.69700 57.39300 40.05000
C  25.19500 60.15400 40.42600
C  25.53800 56.61100 39.63900
O  24.33400 56.38400 39.45800
C  26.55100 55.39900 39.52800
C  26.28200 54.43600 40.59500
O  26.11500 54.74300 41.77000
O  26.11200 53.19800 40.09200
C  25.65900 52.15900 40.96400
H  33.40000 55.11900 38.85800
H  33.85900 61.16100 40.95800
H  27.41100 61.56100 40.84000
H  29.06600 53.25700 38.97600
H  31.67400 53.71400 38.11300
H  30.41100 53.14000 40.84500
H  32.21300 53.39300 40.77600
H  31.62500 52.04400 40.04500
H  30.21400 54.12000 36.40700
H  29.00500 55.31000 36.85600
H  27.60600 53.03500 37.29200
H  28.81300 52.54900 35.93800
H  36.72700 57.07700 38.79400
H  35.49200 56.84900 37.51300
H  35.63800 55.73600 38.82300
H  36.28900 61.63900 40.57200
H  35.05700 61.77700 39.40600
H  36.85400 61.98900 39.03600
H  32.15300 63.17900 40.79500
H  29.44200 62.84000 42.24000
H  32.73400 61.91100 43.05500
H  31.28900 62.94700 43.45100
H  32.70800 63.74000 42.74200
H  28.65500 63.46600 39.63500
H  30.27200 64.20400 39.75700
H  28.64100 65.79500 40.45800
H  29.35900 65.21000 42.00700
H  27.74600 64.65000 41.39200
H  25.12900 60.50700 41.45500
H  24.34700 59.51400 40.18500
H  25.22800 61.02200 39.76700
H  26.55200 54.84800 38.58700
H  25.49600 51.31700 40.29100
H  24.80200 52.58400 41.48600
H  26.43300 51.81900 41.65100
Mg 17.27000 51.86900 26.86400
C  19.31100 50.23100 29.25400
C  14.87900 52.39400 29.20000
C  15.32100 52.72100 24.37100
C  19.71100 50.59900 24.39600
N  17.08600 51.19900 28.87000
C  18.08500 50.72300 29.67500
C  17.71400 50.79700 31.08300
C  16.17200 51.13100 31.04000
C  15.98800 51.68400 29.63700
C  15.20000 49.92500 31.23500
C  18.58000 52.02800 31.65800
C  19.21500 51.79800 33.07500
H  18.64000 52.45600 34.36100
N  15.38100 52.55500 26.78600
C  14.52100 52.73700 27.83600
C  13.31000 53.44300 27.36200
C  13.53800 53.61000 25.94900
C  14.78900 52.92500 25.65000
C  12.18700 53.68700 28.29100
C  12.51000 54.34400 24.95400
O  12.85400 54.40700 23.76200
C  11.14900 54.94000 25.48500
N  17.50000 51.66600 24.69200
C  16.53600 52.17900 23.90400
C  16.99000 52.14700 22.45700
C  18.55000 51.75400 22.49000
C  18.61400 51.39000 23.96200
C  15.96500 51.30000 21.55300
C  19.47600 52.96200 22.00500
C  20.24900 52.69500 20.71300
N  19.18300 50.78700 26.74700
C  19.97700 50.32900 25.76400
C  21.05600 49.43800 26.31200
C  20.86000 49.50300 27.66300
C  19.74900 50.32600 27.89400
C  22.14400 48.74000 25.54100
C  21.31100 48.88400 28.90700
O  22.24000 48.13700 29.13400
C  20.40100 49.43800 29.99900
C  19.78100 48.13700 30.57800
O  18.87700 47.44300 30.06800
O  20.44100 47.88100 31.74000
C  19.87100 46.84800 32.53800
H  14.11700 52.50400 29.97400
H  14.74900 53.08000 23.51300
H  20.34600 50.01800 23.72300
H  17.82600 49.86900 31.64300
H  15.82800 51.84600 31.78700
H  14.20000 50.30100 31.45100
H  15.44600 49.35600 32.13200
H  15.17700 49.29500 30.34600
H  17.90400 52.87000 31.80800
H  19.37900 52.31500 30.97400
H  20.29300 51.95800 33.05100
H  19.18600 50.74000 33.33700
H  11.28600 53.34700 27.78100
H  12.06400 54.76400 28.41300
H  12.27500 53.17800 29.25100
H  11.48500 55.54000 26.33100
H  10.41200 54.18100 25.74800
H  10.76700 55.47400 24.61500
H  16.96100 53.15800 22.05200
H  18.80600 50.83600 21.96000
H  15.42300 51.94800 20.86500
H  15.19100 50.83800 22.16600
H  16.45900 50.48000 21.03300
H  20.23100 52.94800 22.79100
H  19.04300 53.96300 22.00900
H  20.40800 53.66800 20.24900
H  19.77000 51.97500 20.05000
H  21.23200 52.31700 20.99300
H  21.64700 48.04300 24.86700
H  22.83800 48.31700 26.26600
H  22.74500 49.42900 24.94700
H  20.95300 49.98300 30.76500
H  19.37900 46.07500 31.94600
H  19.30500 47.27400 33.36600
H  20.77900 46.35300 32.88100

