158

Mg 1.75700 -2.16900 45.13600
C  5.02400 -1.05500 44.64500
C  0.72100 0.67000 43.37200
C  -1.47000 -3.45900 44.92900
C  2.88500 -5.28700 46.08400
N  2.78200 -0.39900 44.22400
C  4.13600 -0.08700 44.14800
C  4.39900 1.34600 43.68700
C  2.98700 1.78600 43.28000
C  2.10500 0.63100 43.64000
C  2.48800 3.21300 43.73000
C  5.55400 1.39700 42.60700
C  5.63300 0.39200 41.38200
H  5.42500 1.03200 39.99800
N  -0.12100 -1.41200 44.37900
C  -0.31500 -0.23300 43.68700
C  -1.72100 -0.04600 43.35900
C  -2.37700 -1.15200 43.91600
C  -1.33700 -2.11900 44.47200
C  -2.13200 1.13000 42.50900
C  -3.91900 -1.36800 43.90500
O  -4.62900 -0.54900 43.30600
C  -4.60900 -2.44500 44.63400
N  0.76400 -4.14000 45.47500
C  -0.53500 -4.37500 45.51100
C  -0.82000 -5.81800 45.97500
C  0.62900 -6.36200 46.24200
C  1.51100 -5.15500 45.94800
C  -1.85700 -5.95200 47.07100
C  0.97500 -7.58800 45.37600
C  0.87500 -8.91600 46.20000
N  3.57400 -3.02800 45.46400
C  3.88500 -4.26000 45.90800
C  5.38700 -4.36900 46.01200
C  5.88500 -3.12300 45.57800
C  4.72400 -2.36400 45.23600
C  6.06700 -5.62200 46.31500
C  7.02800 -2.33700 45.41800
O  8.19500 -2.65300 45.58200
C  6.52200 -0.98600 44.80600
C  6.88300 0.16100 45.79600
O  6.48700 0.27000 46.94900
O  7.80400 1.01200 45.23500
C  8.21400 2.24400 45.99500
H  0.41000 1.56900 42.83600
H  -2.49000 -3.84800 44.94400
H  3.32200 -6.25000 46.35800
H  4.62100 1.86500 44.61900
H  3.09600 1.77200 42.19600
H  1.61100 3.08400 44.36500
H  2.35300 3.85300 42.85800
H  3.25700 3.72600 44.30800
H  6.57000 1.48000 42.99000
H  5.34900 2.37400 42.17100
H  4.93400 -0.42700 41.55400
H  6.64300 -0.01000 41.30700
H  -2.07000 0.91600 41.44200
H  -1.54300 2.03300 42.67000
H  -3.18000 1.34600 42.71500
H  -5.63000 -2.13000 44.84600
H  -4.11100 -2.76300 45.55000
H  -4.63800 -3.21900 43.86700
H  -1.31700 -6.30200 45.13500
H  0.58500 -6.62300 47.30000
H  -2.78900 -6.32400 46.64500
H  -2.09500 -5.02800 47.59800
H  -1.63300 -6.77700 47.74700
H  1.98100 -7.48500 44.97000
H  0.25200 -7.65300 44.56300
H  0.46100 -8.74000 47.19200
H  1.81500 -9.44400 46.36200
H  0.21500 -9.60500 45.67300
H  6.22300 -6.28600 45.46400
H  5.41000 -5.98100 47.10600
H  7.06400 -5.36200 46.67100
H  7.03500 -0.91600 43.84700
H  7.30700 2.79600 46.24300
H  8.78100 2.88600 45.32000
H  8.59000 1.96200 46.97900
Mg 27.14000 50.30100 25.91300
C  24.94800 51.30300 28.53200
C  29.42900 49.55000 28.29100
C  29.28100 49.61200 23.40700
C  24.95200 51.73600 23.54100
N  27.12800 50.45000 28.17600
C  26.13200 50.78700 29.00200
C  26.52900 50.62700 30.50300
C  27.99400 50.13100 30.38800
C  28.19700 49.92800 28.87600
C  29.06600 51.09900 30.97400
C  25.49100 49.69600 31.27600
C  24.74600 50.23900 32.53400
H  24.42100 49.26200 33.71500
N  29.09900 49.58400 25.85400
C  29.87200 49.33400 26.94800
C  31.16200 48.90800 26.58100
C  31.15700 48.90800 25.12100
C  29.80900 49.31300 24.75400
C  32.17200 48.31000 27.50700
C  32.24900 48.75500 24.06000
O  32.07100 48.94900 22.86100
C  33.67800 48.54400 24.52200
N  27.16100 50.73800 23.74300
C  28.07800 50.18600 22.91900
C  27.70400 50.31300 21.46600
C  26.24500 50.88300 21.52300
C  26.06200 51.12800 23.01700
C  28.74700 51.09800 20.58300
C  25.03100 50.11000 20.93400
C  24.37300 50.68700 19.68300
N  25.31500 51.37700 25.95000
C  24.55900 51.86900 24.91800
C  23.34200 52.41100 25.44300
C  23.48700 52.16700 26.84300
C  24.63200 51.52800 27.12900
C  22.37200 53.16800 24.77100
C  22.80500 52.44600 28.18000
O  21.75400 53.00400 28.34600
C  23.79100 51.94200 29.31400
C  24.10900 53.05700 30.23200
O  24.96700 53.86600 30.07400
O  23.38600 53.13000 31.41900
C  23.90000 53.99700 32.52200
H  30.13400 49.27500 29.07800
H  29.81300 49.13600 22.58000
H  24.18100 51.99700 22.81300
H  26.57900 51.57400 31.04000
H  28.27500 49.18800 30.85700
H  29.69200 51.43000 30.14500
H  29.80000 50.51200 31.52600
H  28.66000 51.88600 31.61000
H  26.10100 48.83600 31.55100
H  24.79400 49.19100 30.60800
H  23.78600 50.64500 32.21300
H  25.34500 51.02000 33.00100
H  33.01800 47.85600 26.99200
H  31.77200 47.45600 28.05500
H  32.46700 49.07200 28.22800
H  33.93200 49.41000 25.13400
H  34.28200 48.53800 23.61500
H  33.79100 47.61800 25.08600
H  27.71300 49.32400 21.00700
H  26.38300 51.86100 21.06300
H  29.17200 51.84500 21.25300
H  28.37100 51.56700 19.67400
H  29.53700 50.40400 20.29500
H  24.28300 49.97900 21.71600
H  25.37000 49.10500 20.68400
H  24.46300 49.96500 18.87100
H  24.97000 51.49000 19.25000
H  23.34000 51.03100 19.72000
H  22.28200 52.92000 23.71300
H  22.68700 54.21100 24.73500
H  21.37700 53.22800 25.21200
H  23.33200 51.17500 29.93700
H  23.40200 54.96100 32.41500
H  24.97600 54.13700 32.61600
H  23.59500 53.55300 33.47000

