158

Mg 53.61200 23.70000 44.74200
C  51.10500 25.81700 43.75700
C  52.01700 21.10800 43.05800
C  56.48600 21.69000 45.14300
C  55.45700 26.38500 45.79100
N  51.98000 23.56200 43.34600
C  51.02600 24.56200 43.13800
C  50.14100 24.17000 41.98900
C  50.07600 22.61900 42.08500
C  51.39700 22.35900 42.91800
C  48.85500 21.98900 42.81500
C  50.71500 24.60800 40.57400
C  49.71100 24.51500 39.43800
H  50.15600 25.02900 38.04600
N  54.15000 21.65300 44.39400
C  53.31600 20.77100 43.60600
C  54.00800 19.52500 43.52900
C  55.26900 19.63300 44.26400
C  55.32900 21.03100 44.65600
C  53.36700 18.21100 42.84400
C  56.30000 18.46400 44.36000
O  56.07600 17.41300 43.88100
C  57.49400 18.54600 45.25600
N  55.71200 23.98600 45.47100
C  56.69000 23.05700 45.48000
C  58.04700 23.68800 45.88800
C  57.67400 25.23300 46.06400
C  56.19100 25.21500 45.71200
C  58.63800 22.98100 47.09200
C  58.47200 26.14600 45.02700
C  60.02800 25.97700 44.71100
N  53.29200 25.59000 45.02300
C  54.11100 26.57800 45.48600
C  53.30500 27.84400 45.60100
C  52.12500 27.57600 45.03300
C  52.20000 26.21400 44.59600
C  53.78300 29.02800 46.35200
C  50.88800 28.10700 44.58900
O  50.42300 29.21400 44.76300
C  50.15400 26.94500 43.75800
C  49.69300 27.38100 42.39500
O  50.38200 27.89100 41.53900
O  48.34500 27.19600 42.40000
C  47.73800 27.73700 41.18400
H  51.47800 20.28300 42.59000
H  57.40300 21.09800 45.17300
H  56.05500 27.25400 46.07400
H  49.12000 24.53600 42.09200
H  50.15900 22.19200 41.08500
H  48.04400 22.69000 43.01000
H  49.32500 21.61100 43.72300
H  48.42400 21.15900 42.25700
H  51.55800 23.95400 40.35000
H  51.06600 25.64000 40.57600
H  49.02100 25.32700 39.66400
H  49.07000 23.63700 39.51800
H  52.75200 17.65800 43.55400
H  54.07700 17.63800 42.24800
H  52.62900 18.52700 42.10600
H  57.55600 19.20000 46.12600
H  58.28200 18.60300 44.50600
H  57.73900 17.56300 45.65900
H  58.65500 23.66000 44.98400
H  57.85200 25.66200 47.05100
H  58.43100 21.91200 47.13700
H  58.33600 23.41800 48.04400
H  59.71600 23.14200 47.11100
H  58.31500 27.16400 45.38300
H  57.92900 26.11200 44.08300
H  60.72400 26.80800 44.83000
H  60.13300 25.71200 43.65900
H  60.41700 25.08500 45.20200
H  54.83900 29.25400 46.20700
H  53.60100 28.85100 47.41200
H  53.23000 29.90200 46.00700
H  49.32700 26.62600 44.39100
H  47.84800 28.82100 41.17300
H  46.76300 27.30800 41.41500
H  48.13400 27.27800 40.27700
Mg 16.03400 52.52200 27.02300
C  17.76300 50.84500 29.63100
C  13.60100 53.16100 29.24300
C  14.28500 53.68300 24.40400
C  18.22300 50.94100 24.80300
N  15.82300 52.14400 29.18500
C  16.61400 51.45900 30.06100
C  16.24300 51.51300 31.55700
C  14.79400 52.12500 31.34000
C  14.70700 52.51100 29.83400
C  13.65900 51.14400 31.69400
C  17.26200 52.27900 32.47500
C  17.52700 51.68600 33.86600
H  16.73400 52.21000 35.02500
N  14.20800 53.45200 26.84200
C  13.33700 53.58800 27.89900
C  12.23700 54.47000 27.42000
C  12.34800 54.55700 25.97000
C  13.64300 53.88400 25.70400
C  11.06400 54.95200 28.33000
C  11.47300 55.09300 24.97500
O  11.70000 55.03000 23.79500
C  10.21600 55.79300 25.41800
N  16.17000 52.33800 24.91800
C  15.37000 52.90400 23.99500
C  16.00000 52.86200 22.60100
C  17.18200 51.92200 22.78600
C  17.19800 51.76700 24.29700
C  14.95500 52.44900 21.48900
C  18.56000 52.53900 22.08400
C  19.15100 53.71100 22.83100
N  17.71400 51.21500 27.13400
C  18.51300 50.74900 26.18600
C  19.71400 50.17700 26.78700
C  19.44300 50.18800 28.16800
C  18.21400 50.78900 28.31200
C  20.89500 49.43700 26.14600
C  19.96100 49.87800 29.40700
O  21.11700 49.54400 29.74800
C  18.92700 50.32900 30.51000
C  18.55100 49.18600 31.38500
O  17.91400 48.20500 31.12700
O  19.10200 49.44700 32.65500
C  19.02200 48.34100 33.62100
H  12.78100 53.33200 29.94500
H  13.93600 54.14100 23.47600
H  18.91600 50.47600 24.10000
H  16.20300 50.47300 31.88100
H  14.75300 53.05300 31.91000
H  12.95400 51.64600 32.35600
H  14.07700 50.18500 32.00000
H  13.08900 50.87500 30.80500
H  16.92500 53.30100 32.64800
H  18.18800 52.47500 31.93500
H  18.58400 51.71800 34.12700
H  17.26200 50.63200 33.77800
H  11.18400 54.79700 29.40300
H  10.18900 54.39000 28.00500
H  10.83500 55.97500 28.03000
H  10.41300 56.63900 26.07700
H  9.78100 55.07900 26.11700
H  9.54600 56.03900 24.59400
H  16.18200 53.93100 22.49400
H  16.91300 50.92700 22.43400
H  13.97100 52.15200 21.85200
H  15.33500 51.64600 20.85700
H  14.79000 53.26400 20.78400
H  18.39700 52.80600 21.04000
H  19.13200 51.61500 22.16400
H  19.05900 54.73200 22.46100
H  20.18900 53.52200 23.10400
H  18.64700 53.82900 23.79000
H  20.59200 49.23400 25.11900
H  21.02700 48.44300 26.57500
H  21.87200 49.91700 26.08800
H  19.40500 51.19600 30.96700
H  18.02900 47.96800 33.87300
H  19.49200 48.69700 34.53800
H  19.60100 47.47000 33.31400

