158

Mg -2.15200 17.31000 25.63900
C  -2.60200 14.91900 28.35500
C  -2.91200 19.77700 27.89200
C  -2.04300 19.35700 23.12300
C  -2.05400 14.55000 23.40300
N  -2.73900 17.25800 27.88000
C  -2.85400 16.23000 28.75200
C  -3.19400 16.68900 30.11600
C  -3.56800 18.19500 29.92100
C  -3.11500 18.48400 28.46200
C  -4.98500 18.71500 30.18800
C  -2.12100 16.43300 31.28000
C  -2.47300 17.06700 32.72000
H  -2.33700 16.07300 33.81500
N  -2.27400 19.31500 25.51600
C  -2.52100 20.18000 26.58700
C  -2.38100 21.48600 26.00900
C  -2.05200 21.41700 24.62800
C  -2.10400 19.97400 24.32700
C  -2.59100 22.76900 26.85800
C  -1.75000 22.55400 23.53700
O  -1.55300 22.43100 22.34700
C  -1.71800 24.00800 23.97000
N  -2.20100 16.95800 23.55000
C  -2.04700 18.01300 22.72200
C  -1.78500 17.62600 21.23700
C  -1.84700 15.98100 21.40500
C  -1.95400 15.78100 22.86900
C  -2.86200 18.15100 20.25900
C  -0.71400 15.10600 20.77400
C  0.63500 15.15200 21.45500
N  -2.37200 15.19100 25.79400
C  -2.21900 14.26300 24.78400
C  -2.15600 12.91300 25.36800
C  -2.42600 13.12600 26.75800
C  -2.41300 14.54400 26.98200
C  -2.15600 11.62400 24.58900
C  -2.65900 12.44000 27.98500
O  -2.77000 11.25400 28.26900
C  -2.63200 13.55200 29.11100
C  -1.53800 13.29000 29.97300
O  -0.41500 13.34800 29.58400
O  -1.91500 12.92800 31.20200
C  -0.75800 12.60900 32.07600
H  -3.10100 20.59300 28.59200
H  -1.83600 20.03100 22.28900
H  -1.66400 13.69200 22.85200
H  -4.11500 16.18300 30.40400
H  -2.88200 18.69500 30.60400
H  -4.90200 19.34200 31.07600
H  -5.62600 17.87900 30.46600
H  -5.46700 19.21300 29.34600
H  -1.15800 16.77000 30.89600
H  -1.98700 15.38200 31.53300
H  -3.52900 17.32800 32.66300
H  -1.88600 17.97200 32.87500
H  -3.47600 23.34400 26.58600
H  -1.67800 23.34000 26.69300
H  -2.47200 22.48900 27.90500
H  -2.73500 24.38900 24.06300
H  -1.16800 24.55300 23.20200
H  -1.13200 24.15700 24.87700
H  -0.75400 17.89200 21.00500
H  -2.80300 15.73100 20.94600
H  -2.28300 18.52700 19.41600
H  -3.41200 18.96700 20.72800
H  -3.65700 17.45400 19.99100
H  -0.57600 15.32900 19.71600
H  -1.12600 14.09900 20.83600
H  0.61500 15.91400 22.23500
H  1.43300 15.56900 20.84100
H  0.93300 14.19400 21.88000
H  -2.72200 11.72200 23.66300
H  -2.74700 10.88400 25.12900
H  -1.15600 11.21700 24.44000
H  -3.55900 13.48400 29.68100
H  -0.28600 11.66800 31.79600
H  -1.10300 12.36000 33.08000
H  -0.06900 13.40900 32.34800
Mg -5.45000 25.32200 25.59500
C  -3.82500 26.69200 28.44500
C  -6.77900 22.88500 27.59700
C  -6.82900 23.95800 22.77300
C  -3.36200 27.44800 23.59200
N  -5.40900 24.91300 27.75600
C  -4.80800 25.70400 28.71900
C  -5.36700 25.28300 30.10500
C  -5.89300 23.83000 29.81900
C  -5.94700 23.79800 28.29200
C  -4.84000 22.79600 30.33600
C  -6.42400 26.21700 30.78100
C  -6.17500 26.39200 32.24200
H  -5.64500 25.19200 33.08700
N  -6.64600 23.71100 25.26300
C  -7.09000 22.83900 26.24100
C  -8.18200 22.08500 25.64900
C  -8.17200 22.32400 24.24700
C  -7.16600 23.36400 24.01400
C  -9.02000 21.08700 26.44500
C  -8.94100 21.74900 23.12500
O  -8.79600 22.03100 21.92900
C  -10.13000 20.75500 23.39100
N  -5.20100 25.68800 23.45400
C  -5.87400 25.00000 22.47900
C  -5.48500 25.47000 21.03600
C  -4.43500 26.60200 21.33800
C  -4.26400 26.55700 22.90700
C  -4.94600 24.28700 20.22600
C  -4.91600 27.99500 20.77200
C  -3.76300 28.97100 20.24100
N  -3.98000 26.82800 25.88000
C  -3.23600 27.58300 25.01000
C  -2.36200 28.48600 25.75900
C  -2.61000 28.11100 27.08500
C  -3.60000 27.15300 27.10300
C  -1.40300 29.39100 25.32000
C  -2.26600 28.50700 28.45500
O  -1.53800 29.41600 28.82900
C  -3.09900 27.62800 29.40100
C  -2.07800 26.96400 30.26800
O  -1.07000 26.37900 29.85100
O  -2.39300 27.15500 31.54900
C  -1.56800 26.37100 32.50300
H  -7.27900 22.20300 28.28800
H  -7.35300 23.64600 21.86800
H  -2.75300 28.12900 22.99300
H  -4.55100 25.32200 30.82800
H  -6.83400 23.71200 30.35700
H  -4.11800 23.34200 30.94400
H  -4.52600 22.07300 29.58300
H  -5.33900 22.15000 31.05800
H  -7.39600 25.75200 30.61600
H  -6.32300 27.24000 30.41900
H  -7.17100 26.57200 32.64900
H  -5.62000 27.31900 32.38200
H  -8.93700 21.15000 27.53000
H  -8.74800 20.11200 26.04000
H  -10.07200 21.25600 26.21700
H  -10.59900 20.26400 22.53900
H  -10.80800 21.41700 23.93000
H  -9.79000 20.02900 24.13000
H  -6.38200 25.74800 20.48300
H  -3.43400 26.30200 21.02700
H  -5.84400 23.88300 19.75800
H  -4.47200 23.55900 20.88400
H  -4.18000 24.52000 19.48700
H  -5.36300 28.49700 21.63000
H  -5.65600 27.79500 19.99700
H  -3.64200 29.59600 21.12600
H  -3.95700 29.43300 19.27400
H  -2.87200 28.35000 20.14100
H  -0.74400 28.94500 24.57600
H  -0.80800 29.75700 26.15700
H  -2.00300 30.22500 24.95500
H  -3.84000 28.22200 29.93700
H  -2.18000 25.91600 33.28200
H  -0.70900 26.89700 32.92000
H  -1.11900 25.47300 32.07900

