158

Mg 24.38700 -5.53900 45.77900
C  26.55500 -3.57200 43.87400
C  21.92600 -4.93700 43.40200
C  22.65900 -8.15100 46.92300
C  27.23800 -6.75100 47.52700
N  24.27800 -4.46200 43.80900
C  25.28400 -3.64100 43.31500
C  24.86600 -2.95300 42.06400
C  23.32600 -3.20800 41.96400
C  23.14100 -4.26200 43.10900
C  22.49300 -1.89400 41.91900
C  25.72200 -3.33600 40.77600
C  26.46100 -2.12000 40.24000
H  26.17300 -1.69500 38.85200
N  22.51500 -6.32700 45.33600
C  21.63400 -5.88900 44.36200
C  20.39500 -6.59400 44.42600
C  20.57200 -7.56900 45.50400
C  21.98400 -7.39200 45.97700
C  19.13200 -6.31300 43.63200
C  19.46300 -8.47000 45.97100
O  18.35000 -8.52300 45.47600
C  19.67600 -9.18400 47.31300
N  24.87200 -7.31000 46.91000
C  23.95300 -8.14400 47.36000
C  24.48200 -9.15400 48.35800
C  25.92100 -8.69200 48.63400
C  26.01100 -7.42400 47.63500
C  23.56400 -9.36600 49.57600
C  27.09400 -9.71000 48.23800
C  28.16100 -9.95000 49.40900
N  26.51300 -5.11000 45.85500
C  27.45700 -5.56700 46.70200
C  28.71100 -4.84400 46.41700
C  28.36400 -4.01500 45.29900
C  27.07200 -4.26400 44.96700
C  30.06600 -5.13700 47.07900
C  28.88400 -3.12100 44.39500
O  30.02600 -2.63000 44.27700
C  27.73000 -2.70600 43.45200
C  27.50100 -1.23900 43.67000
O  26.91900 -0.66800 44.60600
O  28.12500 -0.50200 42.64100
C  28.37300 0.96400 42.88400
H  21.08300 -4.69600 42.75100
H  22.04600 -8.95400 47.33700
H  28.03000 -7.16800 48.15300
H  24.82400 -1.88100 42.26000
H  23.05100 -3.81600 41.10200
H  21.65400 -2.05600 42.59600
H  22.12000 -1.85300 40.89500
H  23.03900 -0.96600 42.08300
H  25.05200 -3.78200 40.04200
H  26.42300 -4.13600 41.01300
H  27.52100 -2.34000 40.37200
H  26.25800 -1.21800 40.81700
H  19.44900 -5.85400 42.69600
H  18.43900 -5.62600 44.11900
H  18.52800 -7.20500 43.46900
H  18.72800 -9.56700 47.69300
H  20.14000 -8.47500 47.99900
H  20.36500 -10.02500 47.24400
H  24.52100 -10.15400 47.92400
H  25.95200 -8.25500 49.63200
H  23.25300 -10.40900 49.64900
H  22.78300 -8.60600 49.60200
H  24.19400 -9.30400 50.46300
H  27.54400 -9.48600 47.27100
H  26.50200 -10.62200 48.15300
H  27.84400 -9.45200 50.32500
H  29.09300 -9.50600 49.06000
H  28.22000 -11.02400 49.58700
H  29.92100 -4.93100 48.14000
H  30.87400 -4.49700 46.72600
H  30.36700 -6.18100 46.99100
H  28.00800 -2.97300 42.43300
H  28.70900 1.30900 41.90600
H  29.22100 1.04000 43.56600
H  27.60500 1.63200 43.27500
Mg -2.21800 34.90000 26.64100
C  -3.96500 33.13600 29.31700
C  -0.97800 37.02400 29.03600
C  -0.70200 36.43500 24.26700
C  -3.84200 32.74800 24.54300
N  -2.55100 35.08600 28.93700
C  -3.24200 34.33900 29.81900
C  -3.05400 34.79800 31.24300
C  -2.14500 36.06800 31.06600
C  -1.97500 36.18600 29.52900
C  -2.58500 37.38400 31.83600
C  -2.47800 33.71000 32.27800
C  -1.99900 34.22600 33.68500
H  -3.07700 34.25300 34.72200
N  -0.91100 36.51600 26.64400
C  -0.52600 37.34500 27.71000
C  0.36600 38.39300 27.27200
C  0.54700 38.19300 25.84700
C  -0.33400 37.00500 25.51100
C  1.02000 39.39500 28.18000
C  1.30000 38.95600 24.86400
O  1.31900 38.70500 23.64500
C  2.03100 40.11200 25.43600
N  -2.29000 34.69300 24.63600
C  -1.52700 35.39700 23.82400
C  -1.64800 34.98400 22.33100
C  -2.75000 33.85400 22.50100
C  -3.05100 33.77500 23.99700
C  -1.78700 36.10700 21.24300
C  -2.32900 32.49700 21.87700
C  -1.37600 31.64300 22.74600
N  -3.85600 33.33700 26.77000
C  -4.23500 32.50400 25.79900
C  -5.07100 31.46400 26.35100
C  -5.00500 31.65900 27.77400
C  -4.19600 32.76800 27.98500
C  -5.94200 30.52600 25.60400
C  -5.43800 31.17200 29.04100
O  -6.12100 30.22400 29.29400
C  -4.69100 32.09000 30.13500
C  -5.72100 32.57800 31.10900
O  -6.47700 33.51300 30.94000
O  -5.76900 31.78600 32.19600
C  -6.82700 31.95700 33.19100
H  -0.47500 37.52500 29.86500
H  -0.04000 36.86500 23.51300
H  -4.34600 32.08600 23.83600
H  -4.04500 35.13700 31.54400
H  -1.14500 35.87200 31.45300
H  -1.96900 37.58900 32.71300
H  -3.63700 37.28400 32.10000
H  -2.61300 38.18500 31.09700
H  -1.66800 33.13500 31.82800
H  -3.27600 32.99500 32.47900
H  -1.74400 35.28400 33.61600
H  -1.13500 33.68600 34.07100
H  2.08600 39.48400 27.97100
H  0.94100 38.93200 29.16400
H  0.54900 40.37500 28.10600
H  1.39500 40.77900 26.01700
H  2.39900 40.72200 24.61100
H  2.93800 39.83600 25.97500
H  -0.72700 34.45400 22.08700
H  -3.65700 34.29400 22.08500
H  -2.58400 35.86600 20.53900
H  -0.84200 36.16400 20.70300
H  -1.93300 37.05900 21.75300
H  -1.80300 32.73300 20.95200
H  -3.20200 31.93000 21.55300
H  -0.90700 32.23600 23.53200
H  -0.57400 31.34900 22.06800
H  -1.75600 30.70000 23.14000
H  -6.85000 30.41000 26.19600
H  -5.37300 29.62300 25.38200
H  -6.21000 31.01700 24.66900
H  -3.97400 31.40700 30.59100
H  -7.70100 32.58800 33.02300
H  -6.30800 32.40000 34.04100
H  -7.20900 30.97700 33.47800

