158

Mg 1.45800 -1.80300 42.93200
C  4.98200 -1.08000 42.57900
C  0.85700 0.94600 40.87100
C  -1.68400 -2.84800 42.62200
C  2.40000 -4.94300 44.10000
N  2.76800 -0.24100 41.91600
C  4.17500 -0.20700 41.84500
C  4.60600 0.88900 40.86100
C  3.30300 1.64300 40.44800
C  2.25000 0.76000 41.19800
C  3.16100 3.21500 40.72000
C  5.29700 0.24000 39.71600
C  6.39500 1.10300 38.94300
H  6.16100 1.35600 37.44400
N  -0.24400 -0.90900 42.14700
C  -0.28300 0.22300 41.33200
C  -1.62600 0.49200 40.94300
C  -2.40900 -0.59800 41.45700
C  -1.44800 -1.52600 42.13900
C  -2.01600 1.75800 40.30900
C  -3.92600 -0.82800 41.14300
O  -4.58500 -0.06000 40.45800
C  -4.54300 -2.00800 41.79100
N  0.48500 -3.63700 43.20400
C  -0.82800 -3.75900 43.18900
C  -1.23800 -5.22400 43.44300
C  0.05800 -5.82200 44.07100
C  1.06700 -4.74200 43.75700
C  -2.55000 -5.37600 44.25600
C  0.40200 -7.36200 43.75400
C  1.52600 -7.60200 42.79900
N  3.21400 -2.76100 43.36600
C  3.41100 -4.04200 43.88600
C  4.76300 -4.21900 44.22500
C  5.47200 -3.07000 43.75100
C  4.47000 -2.20500 43.22500
C  5.40400 -5.40500 44.94700
C  6.77700 -2.50000 43.53900
O  7.88000 -2.92800 43.73300
C  6.43400 -1.13500 42.76700
C  6.89100 -0.07700 43.73800
O  6.44200 0.16000 44.86200
O  7.97900 0.59400 43.29200
C  8.52300 1.75100 44.09000
H  0.64100 1.81800 40.25100
H  -2.60500 -3.41400 42.46700
H  2.42300 -5.84900 44.70900
H  5.22500 1.64000 41.35200
H  3.06800 1.59900 39.38400
H  2.27400 3.46000 41.30300
H  3.23900 3.76300 39.78100
H  4.06500 3.47800 41.27000
H  4.60500 -0.19600 38.99600
H  5.95000 -0.57000 40.04200
H  7.39900 0.69300 39.05000
H  6.38100 2.06700 39.45200
H  -1.33700 2.57600 40.55100
H  -3.02300 2.00100 40.64700
H  -2.16000 1.59100 39.24100
H  -4.21000 -2.90800 41.27400
H  -5.62100 -1.92200 41.92400
H  -4.24000 -2.12600 42.83200
H  -1.51000 -5.64200 42.47400
H  -0.05700 -5.76100 45.15300
H  -3.44300 -5.12500 43.68300
H  -2.63700 -4.73500 45.13300
H  -2.61500 -6.39500 44.63900
H  -0.47800 -7.90800 43.41500
H  0.69500 -7.82500 44.69600
H  1.15700 -8.35900 42.10800
H  2.38300 -8.06500 43.28800
H  1.80300 -6.74700 42.18200
H  4.79500 -5.98900 45.63700
H  6.26800 -5.01900 45.48800
H  5.79000 -6.14600 44.24600
H  6.99600 -1.16700 41.83300
H  9.51600 1.60000 44.51500
H  7.95100 2.05500 44.96600
H  8.53700 2.57500 43.37700
Mg 17.42000 51.40600 26.02300
C  19.32400 49.55700 28.16100
C  15.11200 51.98400 28.49400
C  15.33900 52.81400 23.62400
C  19.48600 50.39200 23.32500
N  17.25300 50.77600 28.11800
C  18.22300 50.12300 28.80500
C  18.08300 50.36500 30.28000
C  16.56300 50.77600 30.37700
C  16.30100 51.23700 28.94300
C  15.57300 49.63800 30.83500
C  19.10700 51.33900 30.93900
C  19.44700 51.28200 32.44200
H  18.48900 50.53000 33.34500
N  15.39800 52.22200 26.05900
C  14.70800 52.49500 27.22200
C  13.44800 53.08800 26.83000
C  13.50500 53.30700 25.37700
C  14.82700 52.72400 24.96900
C  12.39000 53.47100 27.85500
C  12.48000 53.90600 24.41100
O  12.62100 54.11100 23.21100
C  11.13500 54.35400 24.92500
N  17.43400 51.57800 23.83000
C  16.50800 52.29900 23.07100
C  16.82300 52.45300 21.62300
C  18.12200 51.62600 21.40500
C  18.41000 51.20300 22.94800
C  15.63300 51.92500 20.69500
C  19.24600 52.42500 20.67600
C  20.42100 51.61700 20.14900
N  19.11400 50.36000 25.79000
C  19.74800 49.89500 24.64900
C  20.86100 49.06100 24.98400
C  20.78700 48.93500 26.43600
C  19.66100 49.64200 26.82800
C  21.86000 48.53200 24.00400
C  21.40500 48.39300 27.61000
O  22.33400 47.61700 27.62000
C  20.60600 48.88900 28.82000
C  20.23700 47.71500 29.66100
O  19.47700 46.85000 29.42400
O  20.76800 47.92200 30.91100
C  20.35200 46.94700 31.99800
H  14.46700 52.22300 29.34300
H  14.76600 53.34500 22.86100
H  20.15200 50.10200 22.50900
H  18.18700 49.38900 30.75300
H  16.44200 51.59000 31.09200
H  15.33700 49.58700 31.89800
H  16.02600 48.67300 30.60700
H  14.66500 49.64600 30.23300
H  18.90500 52.34400 30.57000
H  20.07600 51.08300 30.51000
H  19.60200 52.26500 32.88600
H  20.44500 50.87700 32.61100
H  11.31000 53.37300 27.74800
H  12.55100 54.54100 27.98900
H  12.59600 53.03700 28.83300
H  11.23600 55.22200 25.57700
H  10.54900 53.51100 25.28900
H  10.55100 54.64900 24.05300
H  17.09300 53.50000 21.48800
H  17.99000 50.66600 20.90500
H  15.20900 51.06800 21.22000
H  16.08500 51.66400 19.73900
H  14.86200 52.64600 20.42300
H  19.63700 53.10400 21.43400
H  18.78900 52.99700 19.86800
H  21.40100 51.86000 20.55700
H  20.40500 51.66800 19.06000
H  20.38900 50.54700 20.35400
H  21.28400 48.08600 23.19400
H  22.48100 47.88400 24.62300
H  22.46200 49.36000 23.62900
H  21.19400 49.62200 29.37300
H  19.29300 46.71100 31.90200
H  20.34800 47.59600 32.87400
H  21.11600 46.18100 32.12900

