158

Mg -1.54600 16.90700 26.08400
C  -1.92700 14.81400 28.85000
C  -1.78300 19.61500 28.14300
C  -1.87400 18.79900 23.24700
C  -1.70300 14.11000 23.91700
N  -1.76400 17.09600 28.24100
C  -1.80800 16.14300 29.21200
C  -2.02200 16.76600 30.58900
C  -1.99500 18.31400 30.26500
C  -1.94700 18.39600 28.79900
C  -3.17400 19.07000 30.84600
C  -1.18900 16.34400 31.76300
C  -0.88100 17.31500 32.86700
H  -0.39000 16.78700 34.18900
N  -1.69300 18.92000 25.73300
C  -1.75300 19.91300 26.70300
C  -1.73900 21.17400 26.04700
C  -1.85100 20.99400 24.65800
C  -1.86300 19.55200 24.48700
C  -1.65600 22.47000 26.83600
C  -2.03100 21.93900 23.53800
O  -2.11400 21.61100 22.34000
C  -2.13000 23.39500 23.84700
N  -1.80500 16.53500 23.88500
C  -1.81900 17.47300 22.96000
C  -1.88800 16.98400 21.46300
C  -1.53100 15.50100 21.73100
C  -1.58000 15.37200 23.29000
C  -3.25000 17.22500 20.77600
C  -0.15400 15.14100 21.21500
C  1.12600 15.85300 21.87600
N  -1.75100 14.96000 26.28500
C  -1.82500 13.94800 25.36000
C  -2.07800 12.62700 26.03500
C  -1.98300 12.93100 27.41200
C  -1.81100 14.35600 27.47600
C  -2.30500 11.33200 25.33100
C  -1.95300 12.36800 28.79800
O  -1.95700 11.19300 29.12100
C  -2.05600 13.56700 29.71000
C  -0.95900 13.29400 30.73900
O  0.23400 13.59900 30.72400
O  -1.50400 12.48500 31.81800
C  -0.51700 11.77300 32.57500
H  -1.79600 20.55400 28.70000
H  -2.00900 19.28500 22.27800
H  -1.80100 13.29900 23.19200
H  -3.06300 16.53200 30.81400
H  -1.02500 18.66500 30.61800
H  -3.82100 19.41600 30.03900
H  -2.80700 19.93100 31.40500
H  -3.72300 18.51800 31.60900
H  -0.16800 16.14500 31.43600
H  -1.63100 15.43000 32.16100
H  -1.76000 17.93000 33.05800
H  -0.15500 18.07000 32.56400
H  -0.78500 23.01500 26.47000
H  -1.54500 22.29000 27.90500
H  -2.45200 23.18100 26.61900
H  -1.28800 23.79500 24.41200
H  -3.12000 23.44400 24.30100
H  -2.24200 23.92300 22.90000
H  -1.10600 17.54300 20.95000
H  -2.26500 14.95700 21.13700
H  -3.92500 17.64100 21.52300
H  -3.72300 16.37000 20.29300
H  -3.09400 18.03200 20.06000
H  -0.13300 15.39500 20.15600
H  0.00200 14.07300 21.36200
H  1.73100 14.98700 22.14600
H  0.73400 16.27100 22.80300
H  1.53400 16.51800 21.11500
H  -1.37300 10.76900 25.37800
H  -2.70800 11.40500 24.32100
H  -3.06600 10.88900 25.97400
H  -3.01800 13.36900 30.18400
H  0.35800 12.39900 32.75000
H  0.00800 10.98700 32.03200
H  -0.90500 11.40700 33.52600
Mg -1.80600 34.29900 26.24400
C  -3.37000 32.71400 28.95800
C  -0.96300 36.88300 28.45400
C  -0.64800 36.02000 23.70000
C  -3.38600 32.02600 24.03900
N  -2.20100 34.71600 28.41300
C  -2.66000 33.81600 29.37700
C  -2.43900 34.29300 30.84500
C  -1.91800 35.76000 30.59000
C  -1.65400 35.82300 29.05400
C  -2.83100 36.97600 31.12900
C  -1.43600 33.28000 31.51800
C  -2.09000 32.51800 32.68300
H  -1.20800 32.40000 33.92000
N  -0.81100 36.09800 26.13200
C  -0.59300 37.01300 27.07200
C  0.25900 38.17800 26.56800
C  0.45500 37.92300 25.14100
C  -0.38200 36.65500 24.92200
C  0.62500 39.36300 27.49900
C  1.12000 38.71500 24.06000
O  1.07100 38.27700 22.96600
C  1.94500 39.91600 24.42000
N  -2.20900 34.21100 24.23300
C  -1.41200 34.86400 23.40000
C  -1.70500 34.51500 21.92300
C  -2.33200 33.09600 22.10100
C  -2.61200 33.07600 23.54500
C  -2.70200 35.59900 21.26000
C  -1.40600 31.98900 21.49900
C  -0.28100 31.55200 22.35900
N  -3.23100 32.74000 26.41500
C  -3.74700 31.87100 25.42100
C  -4.51300 30.89300 26.14500
C  -4.33900 31.11700 27.45800
C  -3.63300 32.29200 27.60000
C  -5.19000 29.70800 25.41200
C  -4.60300 30.58600 28.79300
O  -5.19900 29.55500 29.15700
C  -3.95600 31.54700 29.79200
C  -5.03400 31.95400 30.77600
O  -5.77000 32.94300 30.71200
O  -5.06100 30.95200 31.76800
C  -6.06400 31.23300 32.79900
H  -0.65400 37.69800 29.11000
H  -0.15000 36.41600 22.81200
H  -3.61700 31.33000 23.22900
H  -3.41800 34.20400 31.31700
H  -0.99900 35.92000 31.15400
H  -2.46200 37.56300 31.97100
H  -3.83800 36.65100 31.39100
H  -2.96500 37.76600 30.39000
H  -0.66700 33.93000 31.93500
H  -1.08100 32.55900 30.78200
H  -2.28800 31.49600 32.36000
H  -3.07100 32.83300 33.04000
H  1.51400 39.13100 28.08500
H  -0.16700 39.48400 28.23800
H  0.79500 40.27100 26.91900
H  2.73100 39.48200 25.03700
H  1.32900 40.67900 24.89600
H  2.29700 40.18600 23.42400
H  -0.75100 34.45600 21.39900
H  -3.32700 33.07400 21.65500
H  -2.23600 36.09700 20.40900
H  -2.83600 36.41500 21.97000
H  -3.63100 35.11200 20.96400
H  -1.11900 32.31100 20.49800
H  -2.10300 31.15300 21.53800
H  -0.43400 30.55100 22.76100
H  -0.20100 32.13700 23.27600
H  0.63400 31.45000 21.77600
H  -4.71100 29.66200 24.43400
H  -6.20200 30.07400 25.23800
H  -5.00200 28.82300 26.02100
H  -3.20900 30.98300 30.35100
H  -5.76600 32.07000 33.43100
H  -6.26600 30.38100 33.44700
H  -7.00000 31.49100 32.30400

