158

Mg 46.31600 3.68400 47.56000
C  43.85400 6.04500 46.71000
C  43.79100 1.17400 47.22600
C  48.80900 1.45600 47.39200
C  48.72400 6.31700 47.01500
N  44.02300 3.66200 47.10300
C  43.27300 4.72300 46.81100
C  41.77700 4.29200 46.59900
C  41.77000 2.77600 46.93200
C  43.26800 2.49500 47.19400
C  40.85200 2.27200 48.01300
C  41.17000 4.72700 45.23700
C  39.97400 5.75000 45.19400
H  40.17600 6.77000 44.15800
N  46.33200 1.63200 47.43000
C  45.18000 0.74600 47.28100
C  45.67400 -0.66000 47.13800
C  47.11400 -0.52800 47.01900
C  47.50600 0.91800 47.34700
C  44.75600 -1.88600 47.06300
C  48.04400 -1.69700 46.75400
O  47.56000 -2.87600 46.72500
C  49.46900 -1.56800 46.48300
N  48.41000 3.83900 47.17800
C  49.22000 2.74600 47.42300
C  50.75300 3.14600 47.33600
C  50.68900 4.70000 47.48300
C  49.15100 5.00100 47.26900
C  51.62800 2.28300 48.42100
C  51.54500 5.37800 46.31000
C  52.66500 6.42800 46.57200
N  46.34900 5.71600 47.07800
C  47.38300 6.61300 46.89800
C  46.83200 7.89400 46.61800
C  45.44200 7.75700 46.62800
C  45.19300 6.37500 46.83700
C  47.71100 9.15100 46.29500
C  44.19200 8.37900 46.41100
O  43.96200 9.53700 46.09500
C  43.07200 7.35300 46.57000
C  42.26100 7.68300 47.79100
O  42.40000 7.17900 48.89400
O  41.29700 8.57200 47.51900
C  40.43800 8.99800 48.66700
H  43.05700 0.39900 46.99600
H  49.69300 0.81700 47.45200
H  49.47100 7.10100 46.87500
H  41.17700 4.85500 47.31400
H  41.48000 2.30400 45.99300
H  40.26100 3.07300 48.45900
H  41.48000 1.82900 48.78600
H  40.21300 1.48200 47.62100
H  40.84900 3.87100 44.64400
H  41.99800 5.25900 44.76900
H  39.94600 6.12500 46.21700
H  39.07400 5.15400 45.04200
H  45.10300 -2.36700 46.14900
H  43.73200 -1.55400 46.89300
H  44.72200 -2.60600 47.88100
H  49.92700 -2.43500 46.00800
H  49.84900 -1.38900 47.48900
H  49.73900 -0.64800 45.96400
H  51.05100 2.77400 46.35600
H  50.94500 5.08300 48.47100
H  51.05400 1.73100 49.16500
H  52.17900 3.00000 49.02900
H  52.37500 1.69100 47.89200
H  50.85100 5.81800 45.59400
H  52.10100 4.59900 45.78800
H  52.47800 6.69000 47.61300
H  52.70100 7.26800 45.87800
H  53.60400 5.91000 46.37500
H  48.50300 9.12700 47.04300
H  47.10200 10.04900 46.39600
H  48.02500 9.11700 45.25200
H  42.43400 7.35400 45.68600
H  39.51100 8.42600 48.68500
H  40.25800 10.03300 48.37700
H  40.94500 8.86600 49.62300
Mg 39.99700 40.74400 26.79300
C  39.59100 43.03500 29.27300
C  41.18500 38.45100 29.22800
C  40.70700 38.55600 24.29900
C  39.09600 43.10100 24.37800
N  40.26300 40.73200 28.96900
C  39.73700 41.70800 29.78100
C  39.68200 41.19800 31.17700
C  40.44100 39.85100 31.14900
C  40.67300 39.66100 29.66200
C  41.83200 39.71100 31.83200
C  38.29100 41.19400 32.05100
C  38.49200 42.05500 33.37700
H  37.82800 41.48900 34.60900
N  40.76900 38.86000 26.81400
C  41.24500 38.09900 27.85500
C  41.72600 36.79300 27.47500
C  41.55100 36.80400 26.06000
C  40.90800 38.10400 25.67200
C  42.35600 35.72100 28.45400
C  41.73200 35.61900 25.05800
O  41.30600 35.70300 23.88700
C  42.36200 34.41400 25.46500
N  39.95000 40.77400 24.64200
C  40.19700 39.74300 23.83700
C  40.05100 40.07300 22.31800
C  39.26800 41.44300 22.49000
C  39.40400 41.83700 23.94800
C  41.47300 40.18200 21.49500
C  37.81600 41.31800 21.95500
C  36.83900 40.67800 22.94500
N  39.49900 42.66500 26.72800
C  39.21500 43.57100 25.68500
C  39.05100 44.91900 26.23400
C  39.23200 44.75200 27.62100
C  39.42100 43.33900 27.88200
C  38.81900 46.19200 25.49100
C  39.15800 45.45300 28.82300
O  38.88200 46.63100 29.04600
C  39.35700 44.31700 30.02400
C  40.55000 44.87000 30.86000
O  41.73000 44.82500 30.53600
O  40.08300 45.13000 32.05100
C  40.88700 45.68200 33.09500
H  41.49500 37.72000 29.97800
H  41.14000 37.92300 23.52100
H  38.76300 43.86000 23.66700
H  40.34900 41.92500 31.64100
H  39.74200 39.06800 31.44200
H  41.86400 40.42800 32.65100
H  42.69300 39.88800 31.18800
H  41.97500 38.74600 32.31900
H  37.96700 40.17400 32.25900
H  37.54700 41.61400 31.37400
H  38.05900 43.02200 33.12000
H  39.56900 42.08400 33.54600
H  41.88300 34.75500 28.28000
H  42.12900 35.90400 29.50500
H  43.42800 35.64700 28.27000
H  42.61300 33.72200 24.66100
H  41.65400 33.76500 25.98100
H  43.26700 34.52600 26.06100
H  39.51100 39.24100 21.86600
H  39.75700 42.26600 21.96900
H  41.60400 41.23500 21.24400
H  41.40000 39.69000 20.52500
H  42.39200 39.92100 22.01800
H  37.79000 40.73900 21.03200
H  37.51800 42.29400 21.57200
H  37.15900 40.37600 23.94200
H  36.39000 39.79200 22.49700
H  36.02300 41.39000 23.06900
H  37.73900 46.25300 25.35700
H  39.33100 46.20700 24.52900
H  39.12300 47.01600 26.13600
H  38.45100 44.11400 30.59400
H  41.91000 45.84700 32.75700
H  40.87700 44.79500 33.72700
H  40.38400 46.56300 33.49200

