158

Mg 40.78200 40.88600 26.65200
C  40.31500 43.26300 29.17000
C  41.50000 38.59800 29.12700
C  41.64100 38.75100 24.23200
C  40.55300 43.44000 24.26300
N  41.04100 40.95300 28.96900
C  40.56900 42.00600 29.75300
C  40.62300 41.62900 31.23000
C  41.12400 40.13600 31.15400
C  41.23400 39.87000 29.68700
C  42.45800 39.81000 31.94400
C  39.29400 41.81600 31.97800
C  39.16100 42.84700 33.04700
H  38.52400 42.51300 34.37900
N  41.54500 38.97100 26.70200
C  41.82400 38.20300 27.79800
C  42.32200 36.86600 27.41700
C  42.31700 36.92000 25.99700
C  41.82600 38.19600 25.55600
C  42.74800 35.75500 28.38800
C  42.83400 35.82400 25.00300
O  42.90200 35.99600 23.77600
C  43.45900 34.54600 25.52400
N  41.00900 41.05300 24.53100
C  41.29100 40.02400 23.74300
C  41.18100 40.27800 22.20300
C  40.55400 41.74900 22.32200
C  40.69000 42.11500 23.77800
C  42.61400 40.14300 21.55100
C  39.05800 41.83300 21.88200
C  38.14500 40.60800 22.14800
N  40.39300 42.98500 26.64300
C  40.39400 43.88400 25.59800
C  40.19900 45.14100 26.11000
C  40.17900 45.02300 27.50600
C  40.28600 43.61200 27.76300
C  40.22200 46.41500 25.28000
C  39.96300 45.68200 28.77700
O  39.65500 46.82900 29.06500
C  40.06500 44.58900 29.87100
C  41.07700 44.98000 30.89600
O  42.23800 44.73200 30.78300
O  40.43700 45.79900 31.83500
C  41.39000 46.39100 32.80700
H  41.64300 37.76500 29.81700
H  41.86500 38.04400 23.43000
H  40.48300 44.21000 23.49100
H  41.23800 42.33200 31.79100
H  40.40300 39.41600 31.54000
H  42.23600 39.01900 32.66100
H  42.67400 40.65200 32.60200
H  43.33400 39.59100 31.33300
H  38.72600 40.93900 32.28900
H  38.68200 42.23700 31.18100
H  38.53700 43.69100 32.75100
H  40.13400 43.31000 33.21200
H  43.62200 35.25900 27.96500
H  42.01900 34.94600 28.42700
H  43.15600 36.06000 29.35100
H  42.91300 33.89800 26.21000
H  44.34700 34.90500 26.04500
H  43.54300 33.94500 24.61900
H  40.50600 39.63000 21.64400
H  41.09700 42.36700 21.60800
H  43.39700 40.14600 22.30900
H  42.73600 40.96800 20.84900
H  42.69000 39.34400 20.81400
H  39.03300 42.06900 20.81800
H  38.51500 42.70400 22.24800
H  37.84800 40.00500 21.29000
H  37.15800 40.82000 22.55900
H  38.64300 39.95900 22.86900
H  40.44500 46.24900 24.22500
H  41.03000 47.09900 25.53900
H  39.27200 46.92500 25.43400
H  39.13800 44.53900 30.44200
H  41.90000 45.60300 33.36200
H  40.78800 46.89400 33.56300
H  42.01900 47.16700 32.37000
Mg -9.97300 40.25700 42.59400
C  -9.05000 37.03600 41.71600
C  -7.18200 41.53900 41.14900
C  -11.52700 43.13800 42.31800
C  -13.21400 38.78300 43.31500
N  -8.27800 39.30700 41.61600
C  -8.07600 38.02300 41.33000
C  -6.66400 37.78400 40.70200
C  -6.08700 39.25500 40.69300
C  -7.20000 40.10300 41.20400
C  -4.78600 39.41700 41.42700
C  -6.73100 37.20100 39.18900
C  -5.61800 36.24300 38.74600
H  -4.56100 36.67500 37.67400
N  -9.35600 42.08500 42.05700
C  -8.13200 42.43000 41.57100
C  -8.02900 43.86600 41.48600
C  -9.28400 44.40400 41.69500
C  -10.13100 43.19400 42.05100
C  -6.75700 44.54100 40.96700
C  -9.62100 45.88100 41.64500
O  -8.80500 46.72600 41.29600
C  -10.91700 46.51300 42.03900
N  -12.05000 40.88700 42.96500
C  -12.40800 42.13500 42.63400
C  -13.91800 42.43100 42.70300
C  -14.50900 41.03200 43.21300
C  -13.20000 40.18000 43.13300
C  -14.31600 43.53200 43.72600
C  -15.59600 40.45700 42.33700
C  -16.85000 39.90800 43.06200
N  -10.98600 38.25700 42.68500
C  -12.28200 37.83400 42.90800
C  -12.38200 36.34400 42.92600
C  -11.09800 36.03400 42.49500
C  -10.31000 37.17500 42.30800
C  -13.54100 35.48400 43.27300
C  -10.18400 34.95300 42.17800
O  -10.35900 33.74100 42.25800
C  -8.95500 35.56100 41.58100
C  -7.83300 35.01000 42.29200
O  -7.52800 35.24500 43.44700
O  -7.24500 34.18000 41.39800
C  -6.25500 33.34700 41.99700
H  -6.29400 41.84900 40.59500
H  -12.04700 44.07000 42.08700
H  -14.21200 38.49300 43.65000
H  -5.96500 37.15600 41.25500
H  -5.79800 39.60600 39.70300
H  -4.12300 38.57400 41.23100
H  -4.98100 39.46900 42.49800
H  -4.24800 40.26100 40.99500
H  -6.68300 37.99300 38.44200
H  -7.62200 36.63300 38.92000
H  -6.18000 35.38000 38.39000
H  -5.03800 36.04600 39.64700
H  -6.88200 44.72100 39.90000
H  -5.98000 43.78900 41.10300
H  -6.51300 45.46400 41.49400
H  -11.64500 46.07100 41.35900
H  -10.87900 47.58000 41.82000
H  -11.12700 46.32400 43.09200
H  -14.20900 42.64200 41.67400
H  -14.79500 41.07000 44.26400
H  -14.77900 43.02900 44.57500
H  -15.06700 44.21200 43.32200
H  -13.45600 44.10500 44.07100
H  -15.31000 39.65800 41.65400
H  -15.93500 41.33400 41.78600
H  -16.97100 38.84700 42.84200
H  -17.69000 40.49500 42.69000
H  -16.87700 40.13900 44.12700
H  -14.32200 36.04800 43.78200
H  -13.27600 34.63200 43.89900
H  -14.00600 35.11100 42.36000
H  -8.88900 35.24100 40.54200
H  -6.39800 33.00800 43.02300
H  -5.28000 33.78800 41.79400
H  -6.25200 32.45600 41.36800

