158

Mg 27.10300 51.41900 27.02700
C  24.89500 52.49000 29.34700
C  29.19200 50.30600 29.57000
C  29.27100 50.43000 24.67900
C  25.14100 52.96600 24.53100
N  26.96400 51.36600 29.22200
C  25.93000 51.79200 29.99900
C  26.21600 51.63200 31.50800
C  27.67800 51.06700 31.46100
C  27.99300 50.87700 29.97400
C  28.78200 51.87400 32.18800
C  25.19800 50.62800 32.18300
C  24.44300 51.14600 33.43800
H  25.26400 51.26900 34.77900
N  29.01000 50.54700 27.11300
C  29.64300 50.06000 28.19000
C  30.85300 49.42300 27.77500
C  30.85800 49.35500 26.38600
C  29.60900 50.10200 25.97500
C  31.89600 48.95500 28.81800
C  31.84900 48.70700 25.48400
O  31.66700 48.61900 24.24900
C  33.14800 48.28900 25.98700
N  27.22000 51.68500 24.93700
C  28.20800 51.16100 24.14000
C  27.88300 51.25500 22.66800
C  26.63400 52.21100 22.62200
C  26.36400 52.40300 24.09300
C  29.10600 51.87800 21.93500
C  25.41100 51.67700 21.81800
C  24.79100 50.38900 22.43100
N  25.27100 52.46900 26.89900
C  24.55100 53.00000 25.79000
C  23.34900 53.53800 26.27600
C  23.40800 53.39100 27.68100
C  24.63700 52.74500 27.98700
C  22.29200 54.27700 25.58000
C  22.71700 53.65700 29.00700
O  21.70300 54.25400 29.23100
C  23.66900 52.98100 30.08300
C  24.07900 53.98100 31.07500
O  25.04500 54.66500 31.02100
O  23.16300 54.02100 32.06500
C  23.47700 54.93800 33.22500
H  29.94600 50.08400 30.32700
H  29.88300 50.05900 23.85400
H  24.62400 53.55300 23.76900
H  26.20100 52.58900 32.02900
H  27.72000 50.04900 31.84600
H  29.30600 52.43100 31.41100
H  29.53100 51.20500 32.61200
H  28.33300 52.57700 32.89100
H  25.64500 49.68400 32.49400
H  24.41900 50.48600 31.43300
H  23.56300 50.54600 33.66700
H  24.00300 52.12100 33.22600
H  32.49500 49.83500 29.05100
H  32.52700 48.12000 28.51100
H  31.40700 48.64400 29.74100
H  33.88200 48.32400 25.18100
H  33.13400 47.27000 26.37300
H  33.45600 48.99200 26.76100
H  27.59200 50.26400 22.32100
H  26.90600 53.20000 22.25400
H  29.75500 52.23400 22.73500
H  28.80500 52.68600 21.26800
H  29.53400 51.04200 21.38300
H  25.73900 51.36500 20.82700
H  24.64000 52.44400 21.73800
H  23.70400 50.43800 22.36800
H  25.12800 50.18900 23.44800
H  25.13500 49.48200 21.93200
H  22.05500 53.82700 24.61600
H  22.54800 55.31900 25.39200
H  21.50000 54.28000 26.32900
H  23.08000 52.25200 30.64000
H  24.34100 54.57200 33.78100
H  22.58600 55.14600 33.81800
H  23.72000 55.92000 32.82100
Mg -4.06800 25.60500 25.93300
C  -2.73700 26.90000 28.91700
C  -6.18600 23.68500 27.76100
C  -4.70000 24.01200 23.18100
C  -1.42200 27.28800 24.22800
N  -4.42100 25.40100 28.11600
C  -3.81900 26.05300 29.09200
C  -4.60800 25.83000 30.39500
C  -5.45800 24.58300 30.08600
C  -5.40500 24.54000 28.55200
C  -4.98900 23.28300 30.72200
C  -5.54100 27.07500 30.64400
C  -5.97000 27.23600 32.15900
H  -5.53900 26.19400 33.21600
N  -5.37800 24.15100 25.48300
C  -6.21900 23.54300 26.34100
C  -7.08600 22.58800 25.63400
C  -6.74100 22.73200 24.22100
C  -5.55800 23.67200 24.24100
C  -8.19700 21.78800 26.22000
C  -7.26700 22.11000 22.90700
O  -6.97300 22.55800 21.83000
C  -8.50200 21.26900 23.03700
N  -3.19300 25.57800 23.96000
C  -3.61100 24.78000 23.04600
C  -2.84400 24.90000 21.75000
C  -1.87000 26.19400 22.02800
C  -2.15800 26.40300 23.51300
C  -2.17000 23.57700 21.24100
C  -2.26800 27.44100 21.10500
C  -1.17500 28.29300 20.51700
N  -2.50300 26.91800 26.39100
C  -1.59400 27.59500 25.58700
C  -0.75200 28.55600 26.36800
C  -1.19400 28.22700 27.69700
C  -2.22800 27.26100 27.65400
C  0.31100 29.47100 25.84800
C  -1.00300 28.59600 29.08700
O  -0.17000 29.34200 29.59700
C  -1.96000 27.73900 29.95800
C  -1.11600 26.87700 30.91800
O  -0.52000 25.83100 30.63400
O  -1.50600 27.24700 32.22600
C  -1.13600 26.28500 33.23200
H  -6.84200 23.00100 28.30400
H  -4.81300 23.42700 22.26600
H  -0.66600 27.93500 23.78000
H  -3.88700 25.66700 31.19500
H  -6.48400 24.77900 30.39700
H  -4.60100 23.47300 31.72300
H  -4.27300 22.82000 30.04200
H  -5.83400 22.60900 30.86000
H  -6.34800 27.02200 29.91300
H  -5.01700 28.01700 30.48400
H  -7.05600 27.30400 32.23100
H  -5.50400 28.20700 32.32900
H  -9.12200 22.21700 25.83400
H  -8.03400 21.80300 27.29700
H  -8.02900 20.73600 25.99000
H  -8.62200 20.75500 22.08300
H  -9.31000 21.96300 23.27200
H  -8.38900 20.48800 23.78900
H  -3.61200 25.10900 21.00500
H  -0.82900 25.88800 21.92700
H  -2.56100 23.32500 20.25500
H  -2.36800 22.85800 22.03700
H  -1.12100 23.78100 21.02900
H  -2.84600 28.22600 21.59200
H  -2.87500 27.08700 20.27200
H  -0.17300 27.90500 20.70100
H  -1.17200 29.28300 20.97400
H  -1.38900 28.35800 19.45000
H  0.72700 30.22300 26.51800
H  -0.10000 30.00700 24.99200
H  1.06100 28.73900 25.54800
H  -2.52800 28.45500 30.55200
H  -1.68900 25.35000 33.13600
H  -1.32100 26.65800 34.23900
H  -0.06300 26.09600 33.22000

