158

Mg 41.11400 41.98500 27.32000
C  40.55700 44.32500 29.79700
C  42.11700 39.79300 29.73100
C  42.32300 39.86900 24.90600
C  40.59200 44.48600 24.93700
N  41.42200 42.12500 29.43700
C  41.05800 43.14900 30.31600
C  41.05700 42.74700 31.82800
C  41.87100 41.38300 31.74500
C  41.84800 41.06700 30.26600
C  43.21600 41.42500 32.47500
C  39.75100 42.68200 32.63000
C  39.75300 43.59900 33.88600
H  39.18400 43.00800 35.13400
N  41.96600 40.05300 27.36100
C  42.21000 39.28100 28.44100
C  42.70500 37.89600 28.04200
C  42.74300 37.87800 26.61000
C  42.30000 39.30600 26.23100
C  43.00600 36.85200 29.02800
C  43.11000 36.84200 25.65700
O  43.14600 36.96300 24.48700
C  43.58500 35.49400 26.17000
N  41.49100 42.18700 25.29800
C  41.91900 41.08900 24.46600
C  41.68300 41.40200 22.97600
C  40.94700 42.79400 23.05200
C  40.96000 43.16400 24.56100
C  42.93400 41.31600 22.10400
C  39.62700 42.71500 22.27700
C  38.52300 41.92300 22.95100
N  40.66200 44.00200 27.28000
C  40.46400 44.98100 26.25500
C  39.95700 46.23200 26.81900
C  40.02700 46.01000 28.18900
C  40.46900 44.72500 28.44800
C  39.38000 47.42000 26.05100
C  39.85400 46.64500 29.45900
O  39.57800 47.79400 29.70000
C  40.07600 45.54900 30.61200
C  41.02200 46.12800 31.68900
O  42.22000 46.36900 31.57000
O  40.30100 46.50000 32.72900
C  40.90200 47.13700 33.86000
H  42.29900 38.99500 30.45300
H  42.66700 39.20600 24.11000
H  40.35400 45.25300 24.19700
H  41.65500 43.56000 32.24000
H  41.30700 40.65200 32.32500
H  43.57600 42.39600 32.81500
H  43.91800 41.03600 31.73700
H  43.12000 40.75300 33.32800
H  39.45000 41.68800 32.96100
H  38.96800 43.15400 32.03700
H  39.04700 44.38900 33.62900
H  40.67100 44.12900 34.14300
H  43.11800 37.24600 30.03900
H  43.94900 36.36500 28.78000
H  42.09400 36.26300 29.12200
H  42.84300 34.94400 26.74900
H  44.58100 35.64100 26.58700
H  43.71700 34.86900 25.28700
H  41.09000 40.58000 22.57300
H  41.60300 43.51700 22.56800
H  42.67200 41.09200 21.07000
H  43.60600 40.53900 22.47100
H  43.43600 42.25700 21.87900
H  39.82000 42.28300 21.29500
H  39.29300 43.73600 22.09300
H  37.68100 42.61200 22.89000
H  38.78200 41.61300 23.96300
H  38.19900 41.04000 22.39900
H  38.50400 47.79000 26.58400
H  39.12400 47.01200 25.07400
H  40.24400 48.08200 25.98500
H  39.10700 45.33600 31.06200
H  41.59300 47.92600 33.56600
H  41.43600 46.41300 34.47600
H  40.11900 47.53200 34.50800
Mg 16.17400 51.34300 25.43300
C  17.93600 50.53600 28.27800
C  13.42500 52.10700 27.17000
C  14.58200 51.83900 22.50400
C  18.92800 49.92400 23.67400
N  15.76000 51.17900 27.45500
C  16.68100 51.07500 28.48400
C  16.03800 51.60300 29.84100
C  14.49200 51.66000 29.56400
C  14.51000 51.68800 27.94600
C  13.74600 50.49600 30.10200
C  16.73300 52.89100 30.35700
C  16.53100 53.31000 31.80300
H  15.89000 52.40100 32.82000
N  14.17300 51.85000 24.88300
C  13.15200 52.22400 25.76400
C  11.94200 52.61900 25.03400
C  12.20500 52.28800 23.62300
C  13.71400 52.00100 23.61200
C  10.62300 52.80300 25.75800
C  11.20200 52.09700 22.43800
O  11.58200 51.71700 21.33400
C  9.73900 52.22800 22.66300
N  16.64100 51.02600 23.36700
C  15.87800 51.33300 22.37200
C  16.51600 51.16100 20.99700
C  17.91600 50.61800 21.39400
C  17.84000 50.55000 22.93600
C  15.58100 50.30900 20.05300
C  19.05000 51.58100 20.90700
C  20.22800 50.91200 20.12600
N  18.07600 50.50700 25.83400
C  19.10100 50.01600 25.05700
C  20.29700 49.68800 25.76100
C  19.85400 49.87300 27.13100
C  18.55400 50.38200 27.06600
C  21.57200 49.11500 25.13100
C  20.26100 49.81800 28.50000
O  21.36100 49.61900 28.95200
C  18.98600 50.22300 29.30300
C  18.52900 49.22100 30.30100
O  17.93800 48.19100 30.00600
O  18.84900 49.70500 31.56200
C  18.41400 48.98300 32.74000
H  12.64200 52.50900 27.81700
H  14.03100 52.06500 21.58900
H  19.65800 49.43900 23.02100
H  16.23500 50.82300 30.57700
H  14.03600 52.58500 29.91700
H  14.15200 49.89000 30.91200
H  13.31900 49.93400 29.27100
H  12.95000 50.98500 30.66400
H  16.27400 53.66800 29.74600
H  17.79100 52.83800 30.10100
H  15.95100 54.22800 31.70600
H  17.53300 53.49000 32.19200
H  10.69400 53.24700 26.75200
H  10.13800 51.83100 25.84700
H  10.03500 53.57000 25.25400
H  9.54300 53.24400 23.00700
H  9.49100 51.49600 23.43200
H  9.23500 52.08100 21.70800
H  16.52600 52.17800 20.60300
H  18.07300 49.61900 20.98700
H  16.16300 49.53600 19.55100
H  15.19500 50.93400 19.24700
H  14.72600 49.80200 20.50000
H  19.46100 52.00000 21.82500
H  18.66800 52.40700 20.30700
H  20.08900 49.83700 20.01300
H  21.21600 51.12200 20.53800
H  20.27200 51.27700 19.10000
H  21.67900 49.45900 24.10300
H  21.57300 48.02500 25.15800
H  22.40800 49.53600 25.69100
H  19.24000 51.19700 29.72200
H  19.02400 49.32200 33.57700
H  18.71000 47.93800 32.64000
H  17.37200 49.14200 33.01700

