158

Mg 10.67900 47.86800 25.37800
C  8.78500 47.91100 28.37600
C  13.16400 49.61500 27.03900
C  12.46100 47.56700 22.75000
C  7.68900 46.59000 23.75400
N  10.93300 48.58400 27.54000
C  10.08500 48.46900 28.59200
C  10.67900 49.05300 29.85700
C  11.85000 49.98900 29.26100
C  12.01100 49.34300 27.86300
C  11.35700 51.45500 29.09400
C  11.38200 47.97400 30.76200
C  11.16500 48.26200 32.27600
H  10.96700 47.07500 33.26500
N  12.58800 48.47100 24.93600
C  13.46300 49.19200 25.76700
C  14.76800 49.34300 25.12800
C  14.58100 48.78900 23.82100
C  13.16100 48.22400 23.79300
C  16.00500 49.84200 25.81100
C  15.70400 48.65500 22.68100
O  15.35100 48.39500 21.49400
C  17.13300 48.98900 22.91100
N  10.00000 47.39800 23.49800
C  11.08400 47.21800 22.60900
C  10.65500 46.62900 21.27500
C  9.14400 46.24900 21.57000
C  8.88500 46.71200 23.04200
C  10.72300 47.59100 20.00000
C  8.93600 44.68000 21.33700
C  9.82600 43.69900 22.15500
N  8.61100 47.43300 25.89100
C  7.59200 46.93100 25.10900
C  6.44300 46.74100 25.97400
C  6.83800 47.14800 27.31500
C  8.16000 47.57500 27.12600
C  5.06000 46.29000 25.50400
C  6.47800 47.32100 28.72800
O  5.38700 47.03400 29.25000
C  7.75300 47.72300 29.49100
C  8.06600 46.59200 30.38700
O  8.80000 45.63300 30.12500
O  7.42600 46.75000 31.59700
C  7.62200 45.81900 32.69700
H  13.75500 50.36500 27.56900
H  13.14300 47.41700 21.91100
H  6.94500 46.12500 23.10500
H  9.96500 49.68100 30.38900
H  12.83200 49.85800 29.71500
H  11.96200 52.09400 29.73700
H  10.28500 51.51400 29.27900
H  11.43000 51.81700 28.06800
H  12.46900 47.96500 30.69400
H  11.01600 46.96200 30.59000
H  10.27000 48.87200 32.40100
H  12.11600 48.63500 32.65600
H  16.84700 49.15900 25.69500
H  15.84900 50.04400 26.87100
H  16.19900 50.80600 25.34100
H  17.15400 49.83000 23.60500
H  17.56800 49.15400 21.92500
H  17.58500 48.13900 23.42200
H  11.31500 45.79000 21.05300
H  8.45300 46.89100 21.02400
H  11.10900 48.56700 20.29400
H  9.75600 47.86300 19.57900
H  11.36200 47.05300 19.30000
H  9.18000 44.48600 20.29200
H  7.92000 44.35500 21.55900
H  10.09400 44.24100 23.06200
H  10.64800 43.23400 21.61000
H  9.11800 42.91800 22.43200
H  5.11200 45.82200 24.52000
H  4.48400 47.21600 25.52300
H  4.59800 45.61900 26.22700
H  7.73200 48.63400 30.08900
H  7.24800 44.84800 32.37200
H  7.17300 46.19100 33.61800
H  8.68800 45.68900 32.88200
Mg -10.77500 37.27200 42.01800
C  -8.51500 34.73500 41.47300
C  -8.89500 39.45200 40.13800
C  -13.25800 39.46000 42.31400
C  -12.83800 34.86500 43.54600
N  -9.00900 37.01900 40.81600
C  -8.23800 35.87300 40.66400
C  -6.93700 36.16000 39.94500
C  -7.06600 37.70400 39.61800
C  -8.44700 38.10800 40.20300
C  -5.90700 38.58700 40.12100
C  -6.72700 35.14400 38.78900
C  -5.25000 34.84200 38.66600
H  -4.36200 35.33200 37.52800
N  -11.06300 39.25200 41.29400
C  -10.15400 39.92300 40.56600
C  -10.67900 41.25100 40.40600
C  -11.91700 41.34200 41.08900
C  -12.12800 39.99900 41.60000
C  -9.99000 42.40000 39.77400
C  -12.66400 42.57300 41.37900
O  -12.23000 43.61300 40.95000
C  -13.92900 42.59000 42.09100
N  -12.87200 37.12700 42.60100
C  -13.69100 38.20200 42.72700
C  -15.01700 37.92400 43.37300
C  -14.88900 36.38900 43.60900
C  -13.40400 36.09900 43.21600
C  -15.24800 38.74000 44.63900
C  -15.96900 35.47700 42.83100
C  -16.86000 34.50300 43.65000
N  -10.73000 35.21500 42.51000
C  -11.57600 34.39800 43.25100
C  -10.94100 33.09800 43.54800
C  -9.75300 33.21700 42.77300
C  -9.65000 34.50800 42.29800
C  -11.54500 31.93900 44.25600
C  -8.45700 32.56100 42.45800
O  -7.98200 31.52500 42.84300
C  -7.65400 33.49500 41.60500
C  -6.25300 33.60000 42.09400
O  -5.33600 32.78400 41.88700
O  -6.17900 34.78800 42.86600
C  -4.79400 35.04800 43.33600
H  -8.40000 40.12100 39.43000
H  -14.06100 40.19500 42.39700
H  -13.39500 34.07300 44.05200
H  -6.12000 36.01100 40.65000
H  -7.16000 37.83500 38.54000
H  -5.36300 39.04700 39.29600
H  -5.13200 38.01400 40.63000
H  -6.43800 39.23400 40.82000
H  -7.08400 35.58600 37.85900
H  -7.39400 34.28400 38.84800
H  -5.21700 33.75500 38.58700
H  -4.70600 35.24000 39.52300
H  -8.98600 42.20000 39.39800
H  -9.72100 43.04500 40.61000
H  -10.58700 43.01800 39.10400
H  -14.29700 43.61600 42.10700
H  -13.75300 42.30400 43.12800
H  -14.64100 41.93100 41.59400
H  -15.86200 38.12800 42.71500
H  -14.94500 36.06500 44.64800
H  -14.35600 39.19900 45.06500
H  -15.90400 38.13400 45.26400
H  -15.89000 39.59400 44.42500
H  -15.51100 34.79400 42.11600
H  -16.65900 36.15800 42.33300
H  -17.87900 34.87800 43.54900
H  -16.55200 34.49400 44.69500
H  -16.76700 33.48700 43.26500
H  -12.45100 32.24900 44.77800
H  -10.87300 31.50500 44.99500
H  -11.83600 31.17000 43.54000
H  -7.61400 32.83700 40.73600
H  -4.79800 35.91100 44.00100
H  -4.21400 35.15600 42.41900
H  -4.51200 34.30200 44.07900

