158

Mg 8.39400 3.91200 27.70300
C  9.40700 2.05100 30.36200
C  6.19900 5.67000 29.87200
C  7.01200 5.45400 25.05300
C  9.57200 1.43300 25.45900
N  7.64900 3.68900 29.88400
C  8.54400 3.11200 30.73900
C  8.30300 3.60900 32.22700
C  7.16400 4.65500 32.07300
C  6.93600 4.65400 30.54100
C  5.83000 4.41000 32.94500
C  9.58200 4.09000 32.93000
C  9.47500 5.22100 33.95600
H  10.36100 5.13800 35.26500
N  6.96400 5.46900 27.49600
C  6.25000 6.07500 28.46700
C  5.51000 7.14700 27.93600
C  5.83000 7.20900 26.51500
C  6.65000 6.00600 26.32000
C  4.62000 8.07100 28.76500
C  5.45500 8.19600 25.42800
O  5.93000 8.21700 24.35100
C  4.67800 9.45900 25.85400
N  8.33700 3.56400 25.48400
C  7.69300 4.36700 24.63000
C  7.65700 3.86200 23.16000
C  8.71000 2.64900 23.24300
C  8.81400 2.46500 24.79800
C  6.26500 3.31100 22.66900
C  10.16600 3.06000 22.76400
C  10.82300 1.95400 21.94300
N  9.44300 2.06200 27.75800
C  9.88500 1.22100 26.81800
C  10.63800 0.18100 27.51400
C  10.54500 0.47500 28.89200
C  9.82300 1.66700 29.01700
C  11.24600 -0.93000 26.82000
C  10.95500 0.08000 30.23600
O  11.73300 -0.78100 30.64000
C  10.20200 1.08400 31.22500
C  9.39600 0.24700 32.16200
O  8.32600 -0.30200 31.97300
O  9.99000 0.33700 33.37700
C  9.43700 -0.41700 34.55100
H  5.77500 6.37100 30.59400
H  6.65700 5.92900 24.13600
H  10.06200 0.76200 24.75100
H  7.81300 2.79600 32.76300
H  7.55300 5.64800 32.29700
H  6.13800 4.01000 33.91100
H  5.18400 3.74400 32.37300
H  5.32100 5.34900 33.16200
H  10.24100 4.40000 32.11800
H  10.05200 3.20600 33.36000
H  8.44900 5.32700 34.30800
H  9.82100 6.10800 33.42400
H  4.60300 7.77000 29.81200
H  3.59100 8.02200 28.40900
H  4.88900 9.12600 28.80200
H  5.10700 9.67300 26.83400
H  3.61700 9.24200 25.97100
H  4.81500 10.26300 25.13100
H  8.09500 4.57100 22.45800
H  8.23800 1.78000 22.78400
H  5.48500 3.74700 23.29400
H  6.02500 2.25100 22.75400
H  6.30000 3.74500 21.67000
H  10.82900 3.34900 23.57900
H  10.07000 3.93100 22.11500
H  10.19900 1.06200 21.88100
H  11.82900 1.64200 22.22100
H  10.93500 2.25500 20.90200
H  12.28900 -0.69500 26.60600
H  10.82300 -1.19900 25.85200
H  11.19600 -1.68900 27.60000
H  10.89600 1.63300 31.86200
H  10.19500 -1.07300 34.97900
H  8.52500 -0.98900 34.38200
H  9.15800 0.38600 35.23400
Mg -4.58300 25.51300 25.77300
C  -3.67000 27.05500 28.80700
C  -6.65200 23.51800 27.57500
C  -5.06500 23.63200 23.06500
C  -2.36600 27.52500 24.21000
N  -5.07100 25.37200 28.00600
C  -4.60000 26.03600 29.03600
C  -5.17200 25.53200 30.35200
C  -6.10400 24.29100 29.97700
C  -5.94300 24.37200 28.43900
C  -5.49800 22.92700 30.36400
C  -5.84800 26.73200 31.16700
C  -5.46800 26.94000 32.57400
H  -5.25000 25.74400 33.42500
N  -5.80700 23.82700 25.37600
C  -6.60800 23.23700 26.18800
C  -7.40600 22.26900 25.44500
C  -6.96000 22.22100 24.08600
C  -5.92700 23.29200 24.11400
C  -8.45600 21.42400 26.09000
C  -7.31400 21.31300 22.89300
O  -6.84600 21.40900 21.71600
C  -8.10500 20.13100 23.16900
N  -3.89000 25.64200 23.85300
C  -4.21200 24.77000 22.83900
C  -3.43400 25.18000 21.55600
C  -2.86300 26.56500 21.92100
C  -3.08100 26.64200 23.39900
C  -2.45500 24.09100 21.03200
C  -3.65300 27.73900 21.22100
C  -3.03700 28.49800 20.01200
N  -3.35200 27.04400 26.26400
C  -2.43100 27.77200 25.54100
C  -1.73000 28.77500 26.37800
C  -2.26600 28.55100 27.63300
C  -3.18100 27.47900 27.55500
C  -0.56100 29.61800 26.02700
C  -2.00800 28.86000 29.03400
O  -1.21600 29.59400 29.59900
C  -2.96100 27.92400 29.80000
C  -2.19300 27.18700 30.83200
O  -1.63700 26.10200 30.61700
O  -2.18100 27.89500 32.00700
C  -1.26400 27.42400 33.04000
H  -7.30500 22.90700 28.20200
H  -5.21300 23.04500 22.15600
H  -1.78900 28.20100 23.57500
H  -4.39000 25.16500 31.01700
H  -7.18300 24.38700 30.10200
H  -4.49200 23.02800 30.77000
H  -5.48000 22.32100 29.45900
H  -6.27900 22.57600 31.03900
H  -6.88200 26.39000 31.12600
H  -5.77600 27.69300 30.65800
H  -6.33100 27.41800 33.03700
H  -4.59300 27.57700 32.70100
H  -7.99600 20.54800 26.54800
H  -9.29100 21.12700 25.45600
H  -9.00100 21.98600 26.84900
H  -8.19300 19.55500 22.24700
H  -9.07600 20.58400 23.37300
H  -7.66900 19.50100 23.94300
H  -4.22400 25.16400 20.80400
H  -1.78500 26.49100 21.77900
H  -2.32800 23.29900 21.76900
H  -1.41800 24.42400 20.98400
H  -2.86600 23.72900 20.08900
H  -3.80900 28.53700 21.94700
H  -4.64500 27.34600 20.99900
H  -2.92100 29.57300 20.14900
H  -3.61600 28.20200 19.13700
H  -1.99600 28.18400 19.93300
H  -0.21600 30.25300 26.84300
H  -0.87700 30.18000 25.14800
H  0.18900 28.88000 25.74400
H  -3.62000 28.51200 30.43900
H  -0.36300 28.01700 32.88300
H  -1.00300 26.36800 32.95800
H  -1.55700 27.68200 34.05700

