158

Mg 54.39800 23.89800 44.27900
C  51.68100 26.16500 43.69700
C  52.37200 21.29000 43.34800
C  57.09800 21.94000 43.98600
C  56.43600 26.70500 44.98400
N  52.29800 23.77700 43.51700
C  51.34200 24.78000 43.41300
C  49.99300 24.14300 43.00300
C  50.23000 22.63800 43.31900
C  51.74900 22.50300 43.33900
C  49.59500 22.13800 44.70000
C  49.77900 24.35600 41.44600
C  50.99500 24.30500 40.50900
H  50.78600 24.62700 39.02300
N  54.65500 21.84500 43.76500
C  53.68600 20.93700 43.51600
C  54.26400 19.64800 43.36200
C  55.67900 19.77300 43.47200
C  55.91900 21.20800 43.84400
C  53.63900 18.35300 42.92500
C  56.68000 18.71000 43.21800
O  56.36700 17.66800 42.62500
C  58.13600 18.83500 43.67200
N  56.59600 24.33000 44.13600
C  57.47700 23.27800 44.17700
C  58.95300 23.95100 44.39100
C  58.62900 25.44700 44.64400
C  57.09600 25.46700 44.70700
C  59.61900 23.24600 45.69400
C  59.21300 26.41000 43.53600
C  58.62500 26.27400 42.10800
N  54.20200 25.98100 44.44800
C  55.04200 26.97700 44.81700
C  54.31000 28.16900 45.02700
C  52.98500 27.89400 44.57500
C  52.97000 26.57600 44.14600
C  54.87700 29.46600 45.48500
C  51.72000 28.52400 44.44700
O  51.35800 29.62400 44.76800
C  50.80800 27.40600 43.82700
C  50.35700 27.92700 42.48900
O  50.91200 27.76800 41.46700
O  49.35700 28.78500 42.65900
C  48.82700 29.33500 41.38000
H  51.62000 20.52000 43.16600
H  58.05500 21.42400 43.88600
H  57.03500 27.53900 45.35600
H  49.24900 24.55000 43.68800
H  49.75200 21.94600 42.62600
H  50.35300 21.53200 45.19600
H  48.68800 21.54200 44.59700
H  49.52300 22.92500 45.45100
H  49.44300 25.39000 41.37300
H  49.03500 23.63000 41.11700
H  51.29400 23.29300 40.78500
H  51.81200 24.95600 40.82200
H  54.07600 17.94600 42.01200
H  52.58500 18.44200 42.66100
H  53.71700 17.65500 43.75900
H  58.52200 17.82100 43.77700
H  58.20600 19.36100 44.62400
H  58.68400 19.39500 42.91400
H  59.64400 23.69700 43.58700
H  59.16100 25.70500 45.56000
H  58.90700 22.51600 46.08100
H  59.84800 23.90500 46.53100
H  60.61200 22.85500 45.47300
H  60.30000 26.37500 43.61100
H  59.16400 27.45500 43.84300
H  57.87000 27.02600 41.87800
H  58.34500 25.23200 41.95500
H  59.45700 26.51400 41.44600
H  55.89400 29.69800 45.16800
H  54.75800 29.30700 46.55700
H  54.17700 30.25600 45.21300
H  49.89400 27.15000 44.36400
H  47.87800 29.85400 41.51500
H  48.65400 28.43900 40.78500
H  49.37400 30.15000 40.90500
Mg 26.83700 49.23300 26.60400
C  24.83100 50.57500 29.22300
C  29.17800 48.38300 28.97000
C  28.81700 48.49800 24.00900
C  24.46800 50.33000 24.36400
N  26.91100 49.47100 28.89900
C  25.93900 49.95500 29.72100
C  26.26000 49.57500 31.19800
C  27.67500 48.94600 31.05800
C  27.94000 48.85900 29.54200
C  28.90200 49.65900 31.76500
C  25.22000 48.59800 31.77000
C  24.70400 48.78800 33.17200
H  25.47400 49.64200 34.12800
N  28.75400 48.63000 26.54000
C  29.55600 48.25600 27.59600
C  30.83400 47.75100 27.13400
C  30.73200 47.81500 25.72700
C  29.39500 48.35400 25.37600
C  31.97900 47.19400 28.01200
C  31.74200 47.51900 24.71300
O  31.67000 47.74400 23.52500
C  33.04300 46.84200 25.09700
N  26.60200 49.33600 24.47900
C  27.53600 48.87400 23.62800
C  27.02400 48.91800 22.20200
C  25.47900 49.28800 22.42600
C  25.50600 49.67300 23.84000
C  27.74000 49.97200 21.31000
C  24.44500 48.25500 22.04600
C  23.16900 48.80800 21.41200
N  25.13600 50.45700 26.70800
C  24.30800 50.82600 25.67900
C  23.19000 51.56800 26.18800
C  23.34600 51.48800 27.61600
C  24.55700 50.85400 27.85000
C  21.95000 52.15000 25.38200
C  22.75600 51.87900 28.88700
O  21.66500 52.38200 29.21400
C  23.73500 51.23100 29.98500
C  24.22600 52.25100 30.95800
O  25.04800 53.09300 30.78400
O  23.38500 52.28700 32.05200
C  23.66800 53.26400 33.11200
H  29.88200 47.97500 29.69900
H  29.40900 47.99800 23.24000
H  23.55600 50.44000 23.77300
H  26.25600 50.48500 31.79800
H  27.52000 47.96600 31.51000
H  29.29800 49.12300 32.62800
H  28.53900 50.60800 32.15900
H  29.65000 49.92800 31.01900
H  25.40700 47.53500 31.61900
H  24.34300 48.72600 31.13600
H  24.30700 47.84900 33.55800
H  23.78600 49.37500 33.15500
H  32.26000 46.22900 27.59200
H  31.60600 47.11300 29.03400
H  32.81400 47.88600 27.90400
H  33.56200 47.57800 25.71100
H  33.64400 46.72800 24.19500
H  32.81400 45.85900 25.50800
H  27.19200 47.92900 21.77600
H  25.24100 50.22000 21.91300
H  27.06700 50.76500 20.98500
H  28.20300 49.41900 20.49300
H  28.55800 50.45300 21.84600
H  24.26400 47.62800 22.91900
H  24.97100 47.59500 21.35500
H  22.28500 48.76500 22.04800
H  22.94500 48.20500 20.53200
H  23.30300 49.84600 21.10600
H  22.27800 52.64400 24.46700
H  21.35100 52.79100 26.02900
H  21.24400 51.41400 24.99800
H  23.20600 50.59800 30.69800
H  22.65100 53.54500 33.38800
H  24.28300 54.10300 32.78500
H  24.09100 52.78800 33.99700

