158

Mg 28.16900 58.39200 42.14300
C  25.87000 56.20500 40.71800
C  30.69100 56.90600 40.43500
C  30.06200 60.79800 43.27600
C  25.33100 60.14300 43.43400
N  28.23900 56.83300 40.74300
C  27.18400 56.07900 40.25100
C  27.64500 55.19800 39.14500
C  29.19400 55.06500 39.49200
C  29.37600 56.39400 40.20900
C  29.65800 53.73700 40.17100
C  27.29000 55.79900 37.74800
C  27.05000 54.74000 36.63700
H  26.52400 55.29600 35.31700
N  30.21100 58.72600 41.98600
C  31.09300 57.98000 41.26700
C  32.37100 58.59900 41.41400
C  32.24400 59.73300 42.28200
C  30.81900 59.75500 42.56700
C  33.46200 58.19500 40.55400
C  33.29300 60.79300 42.71400
O  34.41400 60.62800 42.24100
C  33.10300 61.95400 43.59000
N  27.71800 60.23100 43.07500
C  28.68200 61.02500 43.49500
C  28.11800 62.26900 44.25800
C  26.59200 62.13000 44.10400
C  26.54600 60.73800 43.49600
C  28.62700 62.26000 45.72300
C  25.97800 63.27500 43.20400
C  26.02600 64.73100 43.84000
N  26.02600 58.24600 42.24900
C  25.04800 58.96200 42.87500
C  23.72600 58.38500 42.60000
C  23.97000 57.33100 41.69300
C  25.36000 57.25100 41.58500
C  22.38600 58.96200 42.96600
C  23.37200 56.23600 40.88500
O  22.18300 55.94400 40.67400
C  24.59100 55.39100 40.34400
C  24.63300 53.93600 40.82300
O  25.29900 53.49100 41.74000
O  23.80000 53.17800 40.03100
C  23.90400 51.70500 40.08800
H  31.37000 56.31400 39.81800
H  30.69200 61.62000 43.62300
H  24.50300 60.76700 43.77800
H  27.06300 54.27900 39.20700
H  29.70000 55.11500 38.52800
H  30.36800 53.30300 39.46700
H  28.83100 53.07000 40.41300
H  30.18200 53.89000 41.11400
H  28.04500 56.49900 37.38900
H  26.34700 56.33400 37.86200
H  26.31000 54.08400 37.09500
H  27.91300 54.08100 36.54000
H  33.29000 57.21100 40.11800
H  34.45900 58.13100 40.98900
H  33.53300 58.93600 39.75800
H  32.54300 62.76500 43.12300
H  34.08100 62.26900 43.95400
H  32.66300 61.57000 44.51000
H  28.45400 63.12500 43.67300
H  26.07600 62.25500 45.05700
H  29.70500 62.13600 45.62700
H  28.23700 61.38900 46.25000
H  28.46900 63.19600 46.25800
H  24.95200 62.95800 43.01300
H  26.54300 63.24700 42.27200
H  25.03700 65.17800 43.94300
H  26.58300 65.30400 43.09800
H  26.51600 64.80300 44.81100
H  22.29300 60.02700 42.75000
H  22.31000 58.91400 44.05200
H  21.48700 58.40300 42.70500
H  24.53600 55.28300 39.26100
H  22.89400 51.54100 39.71100
H  24.03200 51.24000 41.06600
H  24.56000 51.26400 39.33700
Mg 0.97700 42.17600 25.97100
C  2.12000 42.31700 29.32000
C  -1.99600 41.18300 27.05000
C  0.19600 41.54700 22.78800
C  4.26300 42.98100 24.92400
N  0.24400 41.77100 27.98100
C  0.77400 42.01400 29.19900
C  -0.27300 41.88300 30.28200
C  -1.56100 41.34900 29.63500
C  -1.13100 41.45000 28.11800
C  -1.88200 39.87500 30.02900
C  -0.39700 43.27700 30.93500
C  -0.42900 43.29500 32.52800
H  -0.54400 41.90800 33.29900
N  -0.69200 41.43500 25.01000
C  -1.81100 41.04100 25.66100
C  -2.80700 40.66100 24.73100
C  -2.20200 40.87400 23.41700
C  -0.82800 41.35700 23.72400
C  -4.21800 40.22300 25.11200
C  -2.68800 40.57100 22.00800
O  -2.12600 40.93300 20.96900
C  -4.02900 39.79400 21.81400
N  2.13500 42.31300 24.15600
C  1.51600 42.03300 22.96400
C  2.46100 42.08700 21.76900
C  3.73200 42.74500 22.36000
C  3.38300 42.69900 23.88400
C  2.79800 40.70900 21.16500
C  3.90900 44.22100 21.95900
C  4.03200 44.57200 20.52200
N  2.82700 42.60500 26.90500
C  4.03800 42.99300 26.35400
C  5.00000 43.19000 27.42400
C  4.23300 43.03700 28.61600
C  2.98100 42.60100 28.22700
C  6.46600 43.54100 27.26000
C  4.29600 43.22900 30.04300
O  5.13900 43.64200 30.78400
C  2.92700 42.62000 30.54600
C  3.26700 41.35300 31.34600
O  3.16800 40.18300 30.98900
O  3.41000 41.67300 32.66900
C  3.25700 40.78400 33.83400
H  -3.01700 41.00900 27.39700
H  0.00500 41.25100 21.75400
H  5.28800 43.21900 24.63300
H  0.11800 41.13800 30.97500
H  -2.34300 42.05900 29.90800
H  -2.08100 39.35400 29.09200
H  -2.73500 39.82500 30.70500
H  -1.06500 39.33900 30.51300
H  -1.25500 43.79000 30.49900
H  0.45200 43.92300 30.71000
H  -1.31500 43.82400 32.87800
H  0.46800 43.76200 32.93400
H  -4.58800 39.34700 24.58000
H  -4.85100 41.08200 24.88900
H  -4.23200 39.95700 26.16900
H  -3.75700 38.75700 22.01300
H  -4.17500 40.05600 20.76600
H  -4.76900 40.31700 22.42000
H  2.09900 42.75200 20.98500
H  4.56600 42.07400 22.15300
H  2.25200 40.60900 20.22700
H  2.49600 39.83000 21.73500
H  3.85900 40.64900 20.92400
H  4.58100 44.74100 22.64100
H  2.94000 44.62100 22.25800
H  3.12800 45.12300 20.26100
H  4.28000 43.69900 19.91800
H  4.89900 45.22400 20.41000
H  7.03300 42.61100 27.22500
H  6.74500 44.11800 28.14200
H  6.52900 44.09100 26.32100
H  2.47700 43.42200 31.13200
H  2.73600 39.87200 33.54400
H  2.71800 41.26800 34.64800
H  4.20400 40.53000 34.31000

