158

Mg 6.74700 56.51400 41.83000
C  5.94100 53.10000 41.35500
C  9.79800 55.94700 40.29400
C  7.20200 59.84600 41.60300
C  3.39600 56.94400 42.87200
N  7.72900 54.74500 40.91800
C  7.16700 53.46600 40.74700
C  8.11900 52.48800 40.02600
C  9.43800 53.38600 40.09600
C  8.97500 54.81300 40.43200
C  10.50500 52.91900 41.11300
C  7.67700 52.14200 38.58900
C  8.24400 50.78700 38.12000
H  7.51900 50.11900 36.94400
N  8.28000 57.71700 41.13300
C  9.45100 57.28800 40.54100
C  10.28500 58.44800 40.27700
C  9.59800 59.56400 40.70000
C  8.33200 59.06700 41.20000
C  11.67000 58.36600 39.68800
C  10.12600 61.03500 40.62800
O  11.28400 61.22600 40.17300
C  9.40600 62.21900 41.17800
N  5.36900 58.16200 41.94200
C  5.91100 59.47300 42.02600
C  4.77500 60.47000 42.23900
C  3.74500 59.53500 42.92800
C  4.15700 58.09000 42.52700
C  5.11800 61.86500 42.85300
C  2.26400 59.79100 42.52700
C  1.33400 60.08200 43.73000
N  5.03900 55.30500 42.08000
C  3.78800 55.61900 42.66500
C  3.12600 54.34500 43.06000
C  3.91600 53.34900 42.54300
C  5.10500 53.95800 41.97000
C  1.76200 54.25000 43.61800
C  4.02900 51.91100 42.37500
O  3.24400 51.05700 42.70400
C  5.37700 51.67000 41.57600
C  4.89700 51.01200 40.36600
O  4.10100 51.43100 39.58200
O  5.33900 49.74500 40.34900
C  4.75300 48.82900 39.43600
H  10.73700 55.71100 39.78900
H  7.21000 60.91900 41.40100
H  2.48100 57.17800 43.41900
H  8.22400 51.64100 40.70400
H  10.02800 53.30800 39.18300
H  11.48900 52.83900 40.65000
H  10.24700 51.90300 41.41000
H  10.53000 53.46300 42.05700
H  8.03400 52.96400 37.96800
H  6.59800 52.10000 38.43500
H  8.00400 50.13000 38.95600
H  9.33000 50.88000 38.09000
H  11.90500 57.41700 39.20700
H  12.44900 58.55300 40.42700
H  11.82300 59.02300 38.83100
H  9.13000 61.98900 42.20800
H  8.53400 62.47300 40.57700
H  10.03600 63.10200 41.07300
H  4.39800 60.67500 41.23700
H  3.98400 59.79100 43.96000
H  4.26700 62.28700 43.38800
H  5.42000 62.49700 42.01800
H  6.00200 61.58100 43.42300
H  2.02500 58.95400 41.87200
H  2.19900 60.68400 41.90400
H  0.93400 61.09100 43.82600
H  1.91800 60.03000 44.64900
H  0.49000 59.39500 43.79300
H  1.14800 53.55300 43.04800
H  1.29600 55.23200 43.54500
H  1.89400 53.92100 44.64900
H  6.04200 51.10300 42.22700
H  5.13400 49.08200 38.44700
H  3.67200 48.95900 39.37700
H  5.06400 47.81700 39.69700
Mg 0.45200 43.16900 25.25700
C  2.88000 42.29500 27.65500
C  -1.86400 43.27600 27.81300
C  -1.90500 43.38800 22.97900
C  2.79900 42.48600 22.70100
N  0.53500 42.70600 27.43300
C  1.62700 42.40900 28.23700
C  1.19800 42.30800 29.70800
C  -0.37800 42.29000 29.59700
C  -0.65900 42.76000 28.19400
C  -0.97900 40.89900 29.72600
C  1.63400 43.54400 30.57800
C  1.41300 43.44900 32.06300
H  1.18800 42.12600 32.66700
N  -1.60300 43.52600 25.37300
C  -2.35900 43.56700 26.49400
C  -3.76100 43.99900 26.15300
C  -3.82300 43.92700 24.73400
C  -2.47100 43.56800 24.26100
C  -4.73500 44.49600 27.18300
C  -5.00700 44.09100 23.89200
O  -4.93800 43.75000 22.71500
C  -6.26100 44.31900 24.50000
N  0.49500 43.01800 23.10600
C  -0.64100 43.22400 22.43800
C  -0.37200 43.11100 20.93700
C  1.19300 42.94700 20.80300
C  1.59100 42.94600 22.26000
C  -1.12500 41.95100 20.23000
C  1.86200 44.13200 20.03300
C  2.18000 45.45400 20.76600
N  2.40500 42.62900 25.15200
C  3.23000 42.42600 24.04000
C  4.56200 42.33400 24.49500
C  4.48300 42.20700 25.89500
C  3.11200 42.40800 26.23100
C  5.80300 42.23500 23.76600
C  5.28100 42.01200 27.12000
O  6.45500 41.89000 27.29300
C  4.25000 42.09200 28.29300
C  4.41200 40.95400 29.23700
O  4.06100 39.82200 28.94100
O  5.01500 41.23500 30.37000
C  5.02900 40.14800 31.47100
H  -2.60800 43.51200 28.57600
H  -2.60600 43.37000 22.14100
H  3.54300 42.20400 21.95300
H  1.63600 41.42500 30.17400
H  -0.84700 42.97400 30.30400
H  -0.22900 40.15700 29.99800
H  -1.48500 40.59800 28.80900
H  -1.67900 40.88900 30.56200
H  0.97900 44.36700 30.29000
H  2.66600 43.81700 30.35800
H  0.53000 44.02500 32.34000
H  2.23500 43.89600 32.62300
H  -4.27900 44.47000 28.17200
H  -5.62400 43.87300 27.28300
H  -5.17000 45.45400 26.89900
H  -7.04800 44.32300 23.74500
H  -6.23200 45.18100 25.16700
H  -6.36000 43.44500 25.14400
H  -0.65800 44.04900 20.46000
H  1.49700 42.08700 20.20500
H  -0.49700 41.13000 19.88500
H  -1.64800 42.21900 19.31100
H  -1.74100 41.52200 21.02000
H  1.19100 44.34600 19.20100
H  2.71600 43.73900 19.48100
H  2.15700 45.34400 21.85000
H  1.46900 46.24900 20.54100
H  3.14800 45.82900 20.43400
H  5.82300 42.74600 22.80300
H  5.93600 41.16700 23.59300
H  6.63200 42.58200 24.38200
H  4.43700 43.03800 28.80100
H  4.11500 39.55400 31.48400
H  5.17500 40.63400 32.43600
H  5.89900 39.52200 31.27300

