158

Mg 41.25800 9.00800 29.30300
C  42.89500 10.48600 32.00700
C  39.07300 7.57900 31.57500
C  39.53000 7.49400 26.70100
C  43.72000 10.00000 27.22400
N  41.13100 8.95700 31.52600
C  41.84500 9.71200 32.46300
C  41.36800 9.53300 33.92500
C  40.14300 8.55000 33.74200
C  40.10600 8.33500 32.16900
C  40.18900 7.16800 34.48700
C  41.05500 10.89900 34.61000
C  39.96100 10.94300 35.71400
H  40.48100 11.38500 37.10500
N  39.55700 7.81100 29.16500
C  38.81900 7.33000 30.21900
C  37.75300 6.47000 29.68400
C  37.74900 6.56300 28.25700
C  38.99400 7.24100 28.00000
C  36.83800 5.70900 30.66900
C  36.68800 6.01800 27.20300
O  36.96500 6.06200 26.02200
C  35.38800 5.40400 27.62900
N  41.61100 8.69300 27.34400
C  40.79000 8.09200 26.41600
C  41.44300 8.12800 24.99400
C  42.70400 8.95000 25.12900
C  42.70500 9.22800 26.66600
C  41.49400 6.84300 24.18100
C  42.83900 10.14300 24.16200
C  42.22100 11.54200 24.51200
N  42.88800 10.06400 29.51600
C  43.89300 10.34400 28.58900
C  45.05100 10.91900 29.22600
C  44.57000 11.10500 30.55100
C  43.35800 10.52600 30.65700
C  46.28400 11.40300 28.55900
C  44.93900 11.74100 31.79300
O  45.89100 12.44800 31.96600
C  43.85600 11.37800 32.81600
C  44.49400 10.68600 33.92800
O  44.85000 9.53400 33.94400
O  44.54700 11.52400 35.00200
C  45.14700 10.87500 36.15700
H  38.41600 7.12500 32.32000
H  39.17800 7.04900 25.76800
H  44.54000 10.33600 26.58500
H  42.15500 9.04800 34.50200
H  39.14900 8.91300 34.00200
H  41.02000 7.20500 35.19200
H  40.54600 6.52000 33.68600
H  39.26000 6.83400 34.95000
H  40.79500 11.59800 33.81500
H  41.93700 11.46100 34.91600
H  39.43000 9.99300 35.77600
H  39.12100 11.54000 35.36100
H  36.06400 6.37900 31.04300
H  37.38200 5.42200 31.56800
H  36.47600 4.79800 30.19200
H  35.49300 4.57800 28.33300
H  34.79300 5.12500 26.75900
H  34.87600 6.22600 28.13000
H  40.71700 8.73900 24.45800
H  43.59700 8.32800 25.08100
H  42.49800 6.84000 23.75800
H  40.80400 6.86900 23.33700
H  41.24900 5.98700 24.81000
H  42.58000 9.90600 23.13000
H  43.91700 10.30000 24.17800
H  41.56000 11.45200 25.37400
H  41.68200 12.02300 23.69600
H  43.09200 12.12800 24.80400
H  46.50300 12.47100 28.57100
H  46.32000 11.09800 27.51300
H  47.14100 10.94300 29.05000
H  43.34900 12.31200 33.05500
H  44.41800 10.21600 36.62900
H  45.33700 11.63600 36.91400
H  46.12100 10.38600 36.15600
Mg 49.09400 45.47100 42.33600
C  45.63400 45.86600 41.69800
C  48.84600 42.33900 41.06200
C  52.37600 45.45200 42.14400
C  49.24100 48.94800 43.15100
N  47.41300 44.24300 41.54000
C  46.10000 44.59900 41.32300
C  45.41100 43.59400 40.42200
C  46.29500 42.29600 40.59100
C  47.59600 42.98200 41.10900
C  45.73300 41.26000 41.58100
C  45.27400 44.00100 38.87600
C  43.98200 43.57900 38.04000
H  44.12900 42.78900 36.69300
N  50.41300 44.05500 41.91000
C  50.10600 42.78800 41.42400
C  51.32600 41.97700 41.31000
C  52.40600 42.86600 41.52500
C  51.73500 44.18200 41.94100
C  51.32900 40.48200 40.85800
C  53.81900 42.52600 41.33100
O  54.14700 41.49900 40.67400
C  54.91000 43.44400 41.80000
N  50.67400 47.02800 42.57700
C  51.92300 46.78900 42.27700
C  52.82700 48.07400 42.42900
C  51.78100 49.05500 43.01300
C  50.48800 48.35400 42.91300
C  54.06700 48.02100 43.31300
C  51.88500 50.51800 42.32000
C  51.41900 51.74500 43.14300
N  47.74300 47.09600 42.42700
C  47.94100 48.37300 42.93100
C  46.71400 49.03900 42.98600
C  45.76200 48.10400 42.53600
C  46.43300 46.91500 42.20900
C  46.60400 50.50300 43.31100
C  44.36000 47.94100 42.16500
O  43.46800 48.71400 42.19800
C  44.29300 46.49500 41.51700
C  43.10300 45.79200 42.09500
O  42.46000 44.91100 41.51900
O  43.01700 46.15700 43.38300
C  41.89900 45.48800 44.14700
H  48.81900 41.34700 40.60800
H  53.44700 45.51300 41.93700
H  49.24700 49.96400 43.55100
H  44.42200 43.29100 40.76600
H  46.41700 41.80100 39.62800
H  45.52300 40.33700 41.04200
H  44.78500 41.59900 41.99900
H  46.39700 41.02600 42.41400
H  46.01500 43.45200 38.29600
H  45.46200 45.04800 38.63900
H  43.56000 44.54900 37.77500
H  43.25500 43.05000 38.65700
H  51.54100 40.25700 39.81300
H  50.34300 40.02600 40.94600
H  52.00000 39.87200 41.46400
H  55.22500 44.22600 41.10800
H  55.79500 42.83400 41.97800
H  54.45100 43.79300 42.72500
H  53.19700 48.28800 41.42600
H  51.86900 49.27300 44.07700
H  54.08800 47.07400 43.85300
H  53.85200 48.73400 44.10900
H  55.00300 48.19600 42.78300
H  51.16600 50.50300 41.50100
H  52.84100 50.79200 41.87400
H  52.07800 52.56400 42.85700
H  51.39000 51.47700 44.19900
H  50.37900 52.02000 42.96400
H  47.37300 50.71500 44.05400
H  45.62500 50.83800 43.65400
H  46.88100 51.25400 42.57100
H  44.05700 46.60600 40.45900
H  42.03700 45.47600 45.22800
H  41.67700 44.48200 43.78900
H  41.05300 46.13000 43.90500

