158

Mg 47.60000 16.48200 28.75500
C  45.73700 16.25600 31.67500
C  49.91700 18.50600 30.58300
C  49.11600 17.16100 25.87200
C  45.01300 14.96300 27.04200
N  47.71800 17.28900 30.82500
C  46.90200 16.97500 31.87300
C  47.31600 17.53800 33.25000
C  48.58900 18.42300 32.79800
C  48.76200 18.06900 31.31100
C  48.39100 19.95000 33.04900
C  47.78000 16.32700 34.20000
C  47.19900 16.36900 35.57500
H  46.94300 17.77800 36.22300
N  49.28200 17.67400 28.31100
C  50.12100 18.41500 29.19500
C  51.23000 18.93400 28.45000
C  51.00400 18.46600 27.07500
C  49.80200 17.66500 26.99600
C  52.41000 19.65600 29.06300
C  51.95000 18.62300 25.80700
O  51.75500 18.14700 24.73600
C  53.18900 19.61500 25.90900
N  47.06100 16.14800 26.82400
C  47.88500 16.49800 25.79600
C  47.36000 16.16100 24.40000
C  46.22400 15.18700 24.78000
C  46.06300 15.45900 26.27300
C  46.81100 17.30600 23.54900
C  46.55800 13.70600 24.50600
C  45.72000 13.04900 23.41600
N  45.72200 15.72800 29.23800
C  44.80700 15.07000 28.44600
C  43.64600 14.64000 29.24400
C  43.97300 15.10200 30.51800
C  45.25400 15.69600 30.46200
C  42.50900 13.90500 28.83500
C  43.47100 15.14300 31.92600
O  42.50400 14.55300 32.43900
C  44.67400 15.95000 32.67600
C  44.04900 17.09500 33.28200
O  43.96000 18.24200 32.84600
O  43.51000 16.72600 34.49300
C  42.74600 17.77400 35.10100
H  50.67700 19.07800 31.12000
H  49.53400 17.32600 24.87600
H  44.24200 14.40400 26.50800
H  46.55800 18.23700 33.60300
H  49.52900 18.07200 33.22500
H  48.62200 20.40500 32.08500
H  49.13900 20.35100 33.73300
H  47.36700 20.23500 33.29100
H  48.82700 16.31800 34.50300
H  47.65000 15.39900 33.64300
H  47.85500 15.75600 36.19300
H  46.25000 15.85300 35.43200
H  53.32100 19.09200 28.86100
H  52.34900 19.74900 30.14700
H  52.54400 20.64300 28.61900
H  52.85500 20.63200 26.11400
H  53.54900 19.52800 24.88400
H  54.01800 19.19500 26.47800
H  48.15400 15.70300 23.81000
H  45.29400 15.40500 24.25600
H  45.75000 17.13700 23.36500
H  47.35100 17.37400 22.60500
H  46.82500 18.19400 24.18100
H  46.41300 13.11400 25.40900
H  47.56800 13.40300 24.23000
H  46.41100 12.35900 22.93100
H  45.29000 13.72500 22.67800
H  44.90500 12.40200 23.74000
H  41.64500 14.56500 28.91800
H  42.21000 13.09400 29.49800
H  42.67800 13.63700 27.79200
H  44.94300 15.16200 33.37900
H  43.38900 18.61800 35.35000
H  42.26200 17.52300 36.04500
H  41.94100 18.16200 34.47700
Mg 10.08400 47.36900 25.94800
C  8.21600 47.14200 28.76300
C  12.68900 48.86300 27.62100
C  11.85800 47.28600 23.10600
C  7.16600 46.56200 24.10300
N  10.35100 47.95100 27.99200
C  9.51700 47.66700 29.01800
C  10.12100 48.13000 30.34700
C  11.39500 48.96700 29.84900
C  11.48100 48.62200 28.36500
C  11.23300 50.49800 30.13300
C  10.50100 47.09100 31.42300
C  9.84100 47.14200 32.86600
H  9.93100 45.95100 33.75700
N  12.16100 47.97700 25.40500
C  13.03800 48.39700 26.32700
C  14.32800 48.56700 25.62900
C  14.12500 48.15000 24.26100
C  12.66200 47.78200 24.18700
C  15.55000 49.11100 26.37200
C  15.08900 47.95900 23.13800
O  14.70600 47.47100 22.07000
C  16.55400 48.24900 23.39800
N  9.58900 47.00900 23.82500
C  10.51900 46.93300 22.82400
C  9.90700 46.62700 21.43000
C  8.41300 46.50600 21.79200
C  8.34500 46.79900 23.32600
C  10.15800 47.62100 20.34200
C  7.75400 45.20200 21.34200
C  7.23200 45.19400 19.92200
N  8.09700 46.81800 26.30900
C  7.08200 46.53500 25.47400
C  5.89200 46.32900 26.20100
C  6.31000 46.47500 27.55200
C  7.65300 46.89900 27.52300
C  4.45000 46.26400 25.68300
C  5.85400 46.55000 28.92200
O  4.77200 46.34900 29.41800
C  7.11400 46.97700 29.83400
C  7.40700 45.77900 30.70400
O  8.08300 44.81200 30.39000
O  6.62700 45.79000 31.85100
C  6.69600 44.70500 32.77500
H  13.54100 49.17100 28.23100
H  12.37400 47.02800 22.17900
H  6.24200 46.42800 23.53800
H  9.52300 48.84500 30.91300
H  12.22500 48.46700 30.34900
H  10.67400 51.09300 29.41100
H  12.22700 50.91900 30.28100
H  10.78100 50.58400 31.12100
H  11.57300 47.12400 31.62100
H  10.33400 46.07100 31.07800
H  8.84900 47.59000 32.80300
H  10.51800 47.86300 33.32300
H  16.18900 48.23900 26.51300
H  15.29500 49.51300 27.35300
H  16.10400 49.88000 25.83500
H  16.75900 47.76900 24.35400
H  16.65900 49.28800 23.71100
H  17.23900 48.01100 22.58300
H  10.20100 45.69100 20.95600
H  8.00900 47.36700 21.25900
H  10.02900 48.64500 20.69400
H  9.42700 47.32000 19.59200
H  11.15900 47.34700 20.00900
H  6.95500 44.84600 21.99300
H  8.47300 44.38900 21.43300
H  7.96700 44.79900 19.22000
H  7.06300 46.20200 19.54200
H  6.30900 44.62000 19.99800
H  4.37200 45.55900 24.85500
H  4.17500 47.25900 25.33200
H  3.75800 45.99600 26.48200
H  6.99800 47.89700 30.40600
H  7.17400 45.19400 33.62400
H  7.26000 43.83500 32.44100
H  5.69200 44.47100 33.13100

