158

Mg 6.91600 56.55600 41.62700
C  5.95400 53.11700 41.49400
C  10.02600 55.66200 40.46000
C  7.37700 59.67200 41.10400
C  3.46600 57.31700 42.65800
N  7.85700 54.54800 41.09900
C  7.23000 53.30300 41.01000
C  8.28700 52.30100 40.42300
C  9.66400 53.06400 40.64900
C  9.17100 54.54400 40.77600
C  10.57300 52.68900 41.93600
C  7.84200 51.86700 38.98800
C  8.57900 50.71700 38.38100
H  8.59400 50.65400 36.87300
N  8.55800 57.56900 41.00800
C  9.72900 57.04200 40.50700
C  10.55700 58.15500 40.21700
C  9.81500 59.38100 40.34100
C  8.51200 58.90100 40.83200
C  11.95700 57.91500 39.78700
C  10.30000 60.73300 39.98800
O  11.42800 60.85700 39.44500
C  9.49800 62.00600 40.10600
N  5.48300 58.22500 41.68000
C  6.09900 59.44800 41.52600
C  5.20100 60.56100 42.10100
C  3.87400 59.83300 42.44900
C  4.31700 58.35900 42.26300
C  5.78600 61.35200 43.25000
C  2.71300 60.27900 41.57500
C  1.48200 60.95600 42.32800
N  5.07600 55.54300 41.92100
C  3.81800 55.96000 42.39000
C  3.04100 54.78100 42.76400
C  3.84500 53.70400 42.41500
C  5.01500 54.20900 41.85000
C  1.75700 54.71000 43.43700
C  3.92100 52.25000 42.52900
O  3.18500 51.42500 43.02400
C  5.29200 51.83800 41.89200
C  5.05700 50.85600 40.79500
O  4.35900 51.11000 39.81500
O  5.66100 49.66900 41.05300
C  5.50300 48.81700 39.87300
H  11.06800 55.40700 40.25900
H  7.55600 60.71000 40.81600
H  2.50300 57.71800 42.98000
H  8.35700 51.42200 41.06400
H  10.22600 52.92500 39.72500
H  10.01800 51.86000 42.37400
H  10.54700 53.48800 42.67600
H  11.59500 52.61600 41.56500
H  7.88400 52.71700 38.30600
H  6.83900 51.44700 39.06400
H  8.25300 49.78600 38.84400
H  9.58500 50.98500 38.70400
H  12.39700 57.22500 40.50800
H  12.64700 58.75600 39.85900
H  11.85800 57.52600 38.77400
H  9.14700 62.14200 41.12900
H  8.65500 62.08100 39.41900
H  10.19100 62.78300 39.78200
H  5.01800 61.28100 41.30300
H  3.56400 59.99000 43.48300
H  6.71400 60.82600 43.47500
H  5.29500 61.20900 44.21300
H  5.84500 62.42000 43.03900
H  2.31200 59.47700 40.95400
H  3.02400 61.12300 40.96000
H  0.49700 60.91500 41.86400
H  1.88200 61.96500 42.43200
H  1.38700 60.56400 43.34100
H  0.94100 55.09500 42.82500
H  1.86100 55.34500 44.31700
H  1.58500 53.70800 43.83100
H  5.77200 51.30400 42.71100
H  4.45500 48.55500 39.73000
H  6.06300 47.93600 40.18800
H  5.89400 49.28700 38.97000
Mg -4.71000 24.88500 25.89800
C  -2.89500 26.44500 28.51000
C  -5.74400 22.63400 28.13800
C  -6.36400 23.56000 23.47800
C  -3.11000 27.13100 23.59900
N  -4.38200 24.69000 28.05300
C  -3.73700 25.46100 28.90800
C  -4.07600 25.15900 30.39300
C  -4.71200 23.78900 30.22100
C  -5.03000 23.67700 28.69900
C  -3.79800 22.64000 30.70000
C  -5.09600 26.25700 30.88800
C  -5.02300 26.43000 32.44500
H  -4.62300 25.24700 33.33500
N  -5.95700 23.33100 25.82300
C  -6.18600 22.45900 26.80500
C  -6.88600 21.29000 26.27300
C  -7.15200 21.52100 24.88800
C  -6.50300 22.84300 24.68500
C  -7.47300 20.16700 27.20700
C  -7.97400 20.77300 23.87000
O  -8.26500 21.27700 22.79500
C  -8.54000 19.38100 24.18300
N  -4.89400 25.48400 23.85500
C  -5.60800 24.67200 23.08000
C  -5.41300 24.85400 21.57000
C  -4.45400 26.09600 21.58900
C  -4.14200 26.31500 23.10200
C  -4.76600 23.59500 20.95100
C  -5.03800 27.31400 20.89200
C  -4.20500 27.76200 19.70800
N  -3.25400 26.41700 25.96600
C  -2.73200 27.24400 24.96000
C  -1.81700 28.22400 25.60100
C  -1.89100 27.99400 26.96000
C  -2.70600 26.81700 27.16700
C  -1.15400 29.33600 24.90500
C  -1.31900 28.43300 28.27200
O  -0.48100 29.30400 28.51300
C  -2.11000 27.48400 29.37200
C  -1.12500 26.79200 30.22600
O  -0.24700 26.06900 29.92100
O  -1.44600 27.11700 31.52900
C  -0.58300 26.72300 32.66100
H  -6.19400 21.91500 28.82500
H  -6.88100 23.15500 22.60600
H  -2.74800 27.77800 22.79800
H  -3.20600 25.19000 31.04900
H  -5.58100 23.72400 30.87500
H  -4.41900 22.01600 31.34300
H  -3.02700 22.96900 31.39700
H  -3.37200 22.06800 29.87500
H  -6.11700 26.03300 30.57900
H  -4.87600 27.24400 30.48100
H  -5.99400 26.69100 32.86800
H  -4.25600 27.17400 32.65800
H  -6.79500 19.31400 27.22400
H  -8.48300 20.06100 26.81200
H  -7.56900 20.64600 28.18100
H  -7.72700 18.71800 24.47700
H  -8.98600 19.06900 23.23800
H  -9.25800 19.37500 25.00300
H  -6.42100 24.99700 21.18000
H  -3.50400 25.85900 21.10900
H  -4.70600 22.74900 21.63600
H  -3.78200 23.71000 20.49700
H  -5.38900 23.37600 20.08400
H  -5.10600 28.16900 21.56400
H  -6.06800 27.18200 20.56000
H  -4.82600 28.36900 19.04900
H  -3.96900 26.88800 19.10000
H  -3.36100 28.31900 20.11500
H  -0.08400 29.24000 25.08800
H  -1.34700 30.35600 25.23800
H  -1.28700 29.15600 23.83800
H  -2.73100 28.17300 29.94600
H  0.22300 27.45300 32.73700
H  -0.05100 25.81200 32.38400
H  -0.98800 26.68500 33.67200

