158

Mg 48.71400 35.49100 26.66400
C  46.95200 33.89400 29.18600
C  49.07700 38.22400 28.65200
C  49.94700 37.18500 23.97900
C  47.94400 32.80700 24.63400
N  48.01400 35.93100 28.72900
C  47.51300 35.10000 29.62500
C  47.57900 35.65600 31.04600
C  47.96600 37.11600 30.73300
C  48.43200 37.12700 29.25200
C  46.77800 38.10500 31.12800
C  48.71900 34.88000 31.82800
C  48.77400 34.92100 33.31700
H  47.65700 35.78600 34.01900
N  49.36500 37.42900 26.36100
C  49.54600 38.41600 27.33400
C  50.19300 39.61700 26.78000
C  50.35300 39.41600 25.41400
C  49.81100 37.98700 25.14400
C  50.46900 40.81500 27.67000
C  50.91700 40.30800 24.36600
O  50.95000 39.95500 23.19700
C  51.26300 41.65800 24.69100
N  49.08700 34.99400 24.67500
C  49.64300 35.86300 23.75200
C  49.93900 35.10100 22.47400
C  49.12000 33.75600 22.66200
C  48.74000 33.78900 24.09200
C  49.43500 35.82800 21.09500
C  49.88000 32.39400 22.23100
C  49.52900 31.71200 20.92300
N  47.78300 33.61200 26.85100
C  47.47300 32.66300 25.94000
C  46.69000 31.59000 26.49000
C  46.47000 32.02300 27.87000
C  47.11400 33.31100 27.94500
C  46.03400 30.40400 25.85700
C  45.76600 31.75800 29.08000
O  45.13100 30.77300 29.39700
C  46.01800 32.95200 30.01500
C  46.41700 32.39300 31.33600
O  47.30400 31.59200 31.50100
O  45.55000 32.75500 32.32900
C  45.73500 31.95100 33.52900
H  49.42800 38.93000 29.40800
H  50.31500 37.64000 23.05700
H  47.67600 32.03900 23.90500
H  46.59600 35.62100 31.51600
H  48.90900 37.43800 31.17500
H  45.98400 37.57900 31.65700
H  46.43700 38.61400 30.22600
H  47.34200 38.70000 31.84600
H  49.69400 35.26700 31.53200
H  48.60000 33.84400 31.51000
H  49.79000 35.09000 33.67500
H  48.60400 33.86800 33.54300
H  50.61900 40.52300 28.70900
H  49.61000 41.48500 27.69800
H  51.37800 41.38900 27.48700
H  51.49400 42.14400 23.74300
H  52.06100 41.48900 25.41500
H  50.33700 42.03300 25.12700
H  51.02300 34.98900 22.45900
H  48.14900 33.93200 22.20000
H  48.86800 35.12600 20.48500
H  50.40300 35.96800 20.61300
H  48.88800 36.76200 21.23100
H  49.79400 31.59500 22.96700
H  50.93700 32.64700 22.31000
H  50.27300 32.06900 20.21200
H  48.61800 32.14300 20.50700
H  49.22100 30.66800 20.97300
H  45.21200 30.73800 25.22300
H  45.72200 29.72300 26.64900
H  46.64300 29.84600 25.14600
H  45.08000 33.48100 30.18500
H  46.78500 31.91600 33.81800
H  45.33800 30.95600 33.32800
H  45.12100 32.29000 34.36400
Mg -12.12600 17.03300 42.14500
C  -8.95100 15.49300 41.78300
C  -10.80000 19.74900 40.59500
C  -15.22200 18.21700 41.89200
C  -13.36800 13.88500 43.17800
N  -10.08500 17.51800 41.25200
C  -8.88800 16.79800 41.25500
C  -7.68400 17.59500 40.53800
C  -8.38500 19.04200 40.52000
C  -9.81000 18.81100 40.82400
C  -7.86400 20.25000 41.44800
C  -7.18600 16.96800 39.20100
C  -5.75400 16.55300 39.17100
H  -5.52900 15.32700 38.20200
N  -12.90100 18.81300 41.43000
C  -12.19400 19.86500 40.85300
C  -13.01900 21.01100 40.72100
C  -14.34300 20.55500 41.14800
C  -14.22600 19.10200 41.43900
C  -12.53800 22.36000 40.27000
C  -15.57000 21.44300 41.33700
O  -15.39700 22.65200 41.08200
C  -16.90400 20.95600 41.80600
N  -14.04200 16.17600 42.48600
C  -15.16100 16.91700 42.38500
C  -16.39300 16.06000 42.66100
C  -15.75800 14.69400 43.08600
C  -14.26000 14.95700 42.92400
C  -17.54800 16.65600 43.60300
C  -16.39500 13.50900 42.40700
C  -15.85200 13.03200 41.03600
N  -11.33700 15.03500 42.62400
C  -11.98400 13.89800 43.07700
C  -10.96900 12.86500 43.23400
C  -9.82400 13.39600 42.76000
C  -10.08400 14.70700 42.32300
C  -11.24900 11.46000 43.80100
C  -8.41000 13.10500 42.49800
O  -7.75600 12.11600 42.71400
C  -7.83100 14.43000 41.80600
C  -6.51600 14.64800 42.51800
O  -6.41100 14.96600 43.71400
O  -5.56500 14.10900 41.70700
C  -4.24400 13.93600 42.37200
H  -10.23000 20.61000 40.23900
H  -16.20300 18.69600 41.91000
H  -13.87300 12.93900 43.38600
H  -6.85900 17.78100 41.22500
H  -8.27100 19.32400 39.47300
H  -8.59200 20.70000 42.12300
H  -7.43800 21.04500 40.83600
H  -6.96900 19.84700 41.92200
H  -7.34100 17.79200 38.50400
H  -7.82900 16.14300 38.89300
H  -5.46800 16.35700 40.20400
H  -5.03800 17.23500 38.71000
H  -12.85400 22.55300 39.24500
H  -11.45800 22.47200 40.36300
H  -12.84100 23.13200 40.97700
H  -17.58500 21.80800 41.80800
H  -16.76400 20.55500 42.80900
H  -17.24900 20.18500 41.11800
H  -16.78300 15.92300 41.65200
H  -15.87300 14.68300 44.17000
H  -17.21000 17.65200 43.88900
H  -17.67900 16.10900 44.53600
H  -18.51500 16.55700 43.11000
H  -17.41400 13.83500 42.19600
H  -16.46200 12.62200 43.03700
H  -16.57500 12.98600 40.22200
H  -15.41100 12.04000 41.13400
H  -15.08000 13.69200 40.64000
H  -11.27800 10.60100 43.13100
H  -12.08200 11.50900 44.50200
H  -10.49500 11.06300 44.48000
H  -7.62300 14.16400 40.76900
H  -3.53800 13.74400 41.56300
H  -4.34400 13.09800 43.06100
H  -4.02300 14.88300 42.86500

