158

Mg 1.70300 -1.12900 43.88200
C  4.99400 0.02300 43.28600
C  0.60100 1.88500 42.75800
C  -1.38800 -2.47900 43.90400
C  3.11300 -4.24200 44.73600
N  2.72300 0.72800 43.19700
C  4.06900 0.95300 42.99700
C  4.33100 2.41400 42.64700
C  2.87600 3.01400 42.68300
C  1.94900 1.78600 42.82900
C  2.59300 4.14100 43.80100
C  5.02800 2.49300 41.23900
C  5.81100 3.70700 40.86500
H  5.52100 4.52200 39.55300
N  -0.14400 -0.32500 43.47900
C  -0.43800 0.93800 43.04300
C  -1.88900 1.08500 42.90200
C  -2.43900 -0.20900 43.19200
C  -1.27900 -1.06900 43.59900
C  -2.54200 2.35200 42.57000
C  -3.92000 -0.56900 43.19600
O  -4.73400 0.31900 42.76400
C  -4.53500 -1.84400 43.78400
N  0.90800 -3.11900 44.17800
C  -0.39800 -3.36200 44.26600
C  -0.68500 -4.85600 44.70200
C  0.78700 -5.39500 44.95100
C  1.68800 -4.20000 44.62200
C  -1.72500 -5.02300 45.83300
C  1.32200 -6.50900 44.08300
C  1.68500 -7.89200 44.77500
N  3.59400 -1.98400 43.99400
C  3.97600 -3.22600 44.48200
C  5.40900 -3.24700 44.51200
C  5.80900 -2.02000 44.06300
C  4.74500 -1.30500 43.70300
C  6.17900 -4.43300 44.85400
C  6.95000 -1.15600 43.88900
O  8.15700 -1.32000 44.05800
C  6.48400 0.16800 43.24800
C  7.00000 1.25200 44.14100
O  6.62400 1.39500 45.29100
O  7.86400 2.13800 43.53700
C  8.32100 3.31200 44.39700
H  0.22400 2.83500 42.37400
H  -2.42400 -2.72000 44.15100
H  3.60800 -5.14800 45.09300
H  4.93000 2.94500 43.38700
H  2.71600 3.47800 41.71000
H  3.49400 4.36200 44.37400
H  1.89600 3.82400 44.57700
H  2.31900 5.09100 43.34100
H  4.23200 2.49500 40.49400
H  5.57100 1.57600 41.01200
H  6.83800 3.44100 40.61600
H  5.87000 4.39100 41.71100
H  -1.82200 3.14700 42.37600
H  -3.20800 2.55000 43.41000
H  -3.25700 2.24000 41.75500
H  -5.59500 -1.59600 43.72600
H  -4.20600 -2.09200 44.79300
H  -4.30000 -2.72500 43.18600
H  -0.96900 -5.52400 43.88900
H  1.02300 -5.56100 46.00300
H  -2.26000 -4.09600 46.03800
H  -1.17500 -5.40300 46.69400
H  -2.57800 -5.67700 45.64600
H  2.15100 -6.33000 43.39800
H  0.54700 -6.83800 43.39100
H  0.79400 -8.46000 45.04300
H  2.23700 -7.74800 45.70300
H  2.31600 -8.53200 44.15800
H  5.97700 -5.26100 44.17500
H  6.05500 -4.71100 45.90100
H  7.23800 -4.17600 44.84000
H  6.89500 0.23200 42.24000
H  8.52900 3.13900 45.45300
H  7.58500 4.10200 44.54600
H  9.18600 3.77500 43.92200
Mg 1.03200 42.71100 26.27300
C  3.40300 42.63300 28.98500
C  -1.51700 42.22800 28.48100
C  -1.07500 42.59100 23.58600
C  3.75100 42.85700 24.13400
N  1.05700 42.55700 28.47700
C  2.01000 42.55700 29.37500
C  1.39400 42.47500 30.80000
C  -0.10700 42.11900 30.60900
C  -0.21600 42.23900 29.08200
C  -0.76300 40.84600 31.19900
C  1.68900 43.78100 31.53700
C  1.24400 43.79500 33.06400
H  0.90900 42.44400 33.63000
N  -1.01200 42.44100 26.13800
C  -1.90200 42.41300 27.12100
C  -3.25000 42.36600 26.57400
C  -3.17000 42.40500 25.18400
C  -1.69000 42.49900 24.89500
C  -4.44000 42.31900 27.39400
C  -4.30000 42.57000 24.15700
O  -4.07600 42.94600 23.01900
C  -5.67700 42.35500 24.62600
N  1.33800 42.68500 24.22300
C  0.30200 42.56600 23.32600
C  0.71800 42.69600 21.89600
C  2.25000 42.72800 22.05400
C  2.48600 42.76900 23.54900
C  0.36300 41.44400 21.04800
C  2.86500 43.89000 21.30600
C  3.28900 45.14600 22.08200
N  3.25000 42.81700 26.48800
C  4.13000 42.85600 25.50300
C  5.52800 42.88800 26.06900
C  5.26200 42.77600 27.49800
C  3.86500 42.76300 27.62300
C  6.77800 43.04400 25.31700
C  5.86300 42.69100 28.78800
O  7.01700 42.59400 29.06300
C  4.65800 42.65200 29.84900
C  4.88800 41.53600 30.75200
O  4.85200 40.39100 30.31000
O  5.14000 41.98000 32.02300
C  5.41200 40.87800 32.93800
H  -2.35400 42.10900 29.17300
H  -1.73600 42.54600 22.71800
H  4.47200 43.03600 23.33400
H  1.89600 41.58500 31.17800
H  -0.71700 42.88500 31.08800
H  -1.17700 40.34700 30.32300
H  -1.54700 41.05700 31.92700
H  -0.02500 40.23800 31.72200
H  1.09200 44.57600 31.09000
H  2.75600 43.99300 31.46200
H  0.35500 44.41700 33.17100
H  2.10200 44.11400 33.65500
H  -5.12200 41.49900 27.16700
H  -5.07100 43.16900 27.13300
H  -4.38200 42.53200 28.46200
H  -6.23700 42.39000 23.69200
H  -6.07700 43.11800 25.29500
H  -5.82100 41.35900 25.04700
H  0.30300 43.62500 21.50600
H  2.58500 41.71900 21.81200
H  -0.13000 40.72500 21.70300
H  1.17100 40.94000 20.51800
H  -0.44200 41.78500 20.39700
H  2.14800 44.25500 20.57000
H  3.71900 43.44900 20.79300
H  2.77600 45.27600 23.03500
H  3.07900 46.01000 21.45200
H  4.37400 45.24500 22.11900
H  6.68100 43.97200 24.75300
H  6.88500 42.24500 24.58400
H  7.63700 43.02800 25.98800
H  4.61100 43.57000 30.43500
H  4.94800 41.07400 33.90400
H  6.49200 40.77200 33.04300
H  5.09000 39.90000 32.58200

