158

Mg 2.14200 -1.15200 43.69100
C  5.48800 -0.05100 43.28200
C  1.17900 1.78900 42.23400
C  -0.98200 -2.47300 43.51300
C  3.38900 -4.10300 44.92100
N  3.26000 0.55900 42.77600
C  4.59100 0.83900 42.66700
C  4.86600 2.23300 42.11500
C  3.47700 2.89700 41.97800
C  2.58600 1.65500 42.37900
C  3.19700 4.15300 42.85800
C  5.70400 2.22300 40.74600
C  5.21700 1.27600 39.61000
H  6.13600 0.15400 38.98000
N  0.39900 -0.45600 42.99500
C  0.17800 0.76000 42.42000
C  -1.13800 0.90000 41.99800
C  -1.83100 -0.25300 42.52000
C  -0.81300 -1.13600 43.04100
C  -1.67300 2.08600 41.28500
C  -3.31100 -0.41000 42.39800
O  -4.04100 0.49000 41.96600
C  -4.04900 -1.72900 42.79700
N  1.36500 -3.09700 43.88900
C  -0.00000 -3.39700 43.93000
C  -0.27200 -4.73600 44.57100
C  1.16700 -5.19100 45.00100
C  2.04600 -4.03100 44.57700
C  -1.35100 -4.93400 45.73100
C  1.61700 -6.55300 44.36300
C  2.49900 -7.43500 45.22700
N  4.05600 -1.95300 44.00800
C  4.38800 -3.14100 44.63100
C  5.84800 -3.17400 44.82800
C  6.32000 -1.97600 44.37400
C  5.19500 -1.28000 43.86500
C  6.72100 -4.34900 45.39600
C  7.47000 -1.10700 44.30100
O  8.61700 -1.35400 44.62400
C  6.96600 0.16400 43.60300
C  7.02700 1.25900 44.60100
O  7.64700 2.27900 44.38200
O  6.36200 0.96800 45.73100
C  6.25400 2.07700 46.71700
H  0.85300 2.73700 41.80000
H  -2.01400 -2.81400 43.62700
H  3.73200 -4.92500 45.55200
H  5.44400 2.92600 42.72600
H  3.09900 3.24100 41.01500
H  3.20800 3.87400 43.91200
H  2.25800 4.63000 42.57800
H  4.01600 4.85600 42.70900
H  6.67100 1.86300 41.09700
H  5.75200 3.23000 40.33100
H  4.78200 1.78300 38.74800
H  4.31300 0.81200 40.00600
H  -2.00700 1.63600 40.34900
H  -0.98400 2.88400 41.00900
H  -2.58000 2.59700 41.60600
H  -3.60700 -2.60900 42.33000
H  -5.11000 -1.67200 42.55400
H  -4.05700 -1.95900 43.86200
H  -0.49300 -5.41900 43.75100
H  1.15200 -5.27700 46.08800
H  -0.87900 -5.46000 46.56100
H  -2.21400 -5.48200 45.35500
H  -1.66600 -3.91700 45.96600
H  2.15700 -6.29300 43.45300
H  0.76500 -7.13300 44.00800
H  3.53100 -7.50400 44.88200
H  2.19600 -8.47300 45.36300
H  2.56900 -7.06300 46.24900
H  7.57100 -4.72400 44.82700
H  6.11000 -5.24800 45.48400
H  7.15700 -4.12300 46.36900
H  7.56800 0.53100 42.77100
H  6.42000 3.05100 46.25800
H  6.92500 1.93500 47.56400
H  5.26400 2.10900 47.17200
Mg 40.94600 7.81300 29.66200
C  42.60200 9.49500 32.35800
C  38.53700 6.75900 31.93800
C  39.70000 5.93400 27.29600
C  43.70800 8.68000 27.55700
N  40.66100 8.03700 31.87300
C  41.42000 8.82200 32.73200
C  40.82500 8.84500 34.15200
C  39.62600 7.88200 33.93500
C  39.62900 7.48900 32.51100
C  39.38800 6.68100 34.88600
C  40.53800 10.33500 34.54400
C  39.89000 10.68600 35.87900
H  40.67400 11.58200 36.94300
N  39.30400 6.58500 29.61500
C  38.40000 6.33900 30.58200
C  37.30800 5.55200 30.10100
C  37.59600 5.46900 28.72100
C  38.94000 5.98900 28.46700
C  36.10400 5.02800 30.93500
C  36.71200 4.88300 27.65200
O  37.00300 4.79800 26.47100
C  35.32000 4.65200 27.98400
N  41.69900 7.24800 27.70100
C  40.96000 6.39500 26.93300
C  41.51900 6.30400 25.42300
C  42.82500 7.25200 25.55200
C  42.75200 7.79000 27.00200
C  41.66900 4.80800 24.80500
C  42.92200 8.36300 24.48900
C  42.06100 9.59400 24.66500
N  42.80300 8.86300 29.88500
C  43.73100 9.14000 28.89600
C  44.74800 9.94500 29.49100
C  44.37700 10.08600 30.88600
C  43.11900 9.48700 31.01400
C  45.92100 10.40200 28.68300
C  44.71600 10.75300 32.13200
O  45.71200 11.33200 32.46600
C  43.61400 10.35900 33.14900
C  44.23800 9.51100 34.16900
O  45.22600 8.79600 34.01300
O  43.74800 9.89000 35.39900
C  44.34000 9.32900 36.61000
H  37.68700 6.43600 32.54300
H  39.26800 5.31000 26.51100
H  44.49400 9.07300 26.90800
H  41.54700 8.39600 34.83500
H  38.79600 8.55400 34.15500
H  40.21900 6.39400 35.53100
H  39.19100 5.75100 34.35400
H  38.45000 6.77000 35.43400
H  39.93800 10.69300 33.70800
H  41.43600 10.94600 34.46800
H  39.67900 9.72800 36.35600
H  39.01200 11.27900 35.62600
H  36.30400 4.91700 32.00100
H  35.96100 3.98200 30.66400
H  35.26800 5.69500 30.72400
H  34.78500 4.37300 27.07700
H  34.87900 5.45900 28.56900
H  35.45800 3.73200 28.55400
H  40.74400 6.77600 24.82000
H  43.76600 6.70900 25.45600
H  41.10800 4.71400 23.87500
H  41.23600 4.01800 25.41800
H  42.72500 4.54700 24.73000
H  42.72200 8.01300 23.47600
H  43.98000 8.62400 24.50000
H  42.78100 10.29900 25.08000
H  41.33600 9.47400 25.47000
H  41.66000 9.97300 23.72400
H  46.63000 9.58800 28.53300
H  46.45100 11.07900 29.35300
H  45.70900 10.85800 27.71600
H  43.36500 11.35800 33.50800
H  45.35300 9.61200 36.89300
H  44.33100 8.25200 36.44400
H  43.63500 9.52300 37.41900

