158

Mg 25.84000 0.79800 29.63400
C  27.92300 0.52400 32.56400
C  23.11100 0.83000 31.66000
C  24.00000 1.08500 26.85200
C  28.61600 -0.08000 27.76500
N  25.63000 0.70700 31.84200
C  26.56800 0.75500 32.84400
C  25.90200 0.89800 34.20300
C  24.37700 0.81500 33.94200
C  24.38500 0.69700 32.39700
C  23.63400 -0.37200 34.68300
C  26.37400 2.12000 35.06500
C  26.62200 1.87500 36.53000
H  26.27200 2.97300 37.52900
N  23.83200 1.01200 29.30400
C  22.87500 1.02500 30.27500
C  21.58100 1.27100 29.63000
C  21.81100 1.41400 28.23100
C  23.22200 1.14400 28.05400
C  20.25200 1.48400 30.39700
C  20.87900 1.83200 27.10700
O  21.22600 2.04200 25.91800
C  19.49900 2.35300 27.41300
N  26.29600 0.58200 27.63000
C  25.31400 0.73000 26.66100
C  25.98300 0.75900 25.30800
C  27.44500 0.42900 25.60400
C  27.50500 0.30500 27.07600
C  25.26500 -0.04300 24.18800
C  28.39700 1.48700 25.07300
C  28.28800 2.86800 25.83000
N  27.83300 0.26800 30.01800
C  28.83000 -0.03500 29.16600
C  30.03100 -0.35600 29.92600
C  29.71400 -0.03200 31.22800
C  28.40600 0.31800 31.25400
C  31.40100 -0.76000 29.30200
C  30.34300 0.01900 32.53900
O  31.49000 -0.13600 32.91500
C  29.16100 0.41200 33.47400
C  29.14000 -0.56800 34.64600
O  28.61100 -1.70500 34.70100
O  29.80000 0.02700 35.68500
C  29.97000 -0.66100 36.94000
H  22.27800 0.94000 32.35700
H  23.43400 1.19800 25.92500
H  29.43400 -0.48900 27.16900
H  26.13900 -0.04800 34.69000
H  23.93700 1.75100 34.28400
H  23.63500 -1.33400 34.17000
H  22.58000 -0.10800 34.76300
H  24.11100 -0.53900 35.64900
H  25.60900 2.89600 35.05400
H  27.30200 2.48800 34.62500
H  27.67400 1.72200 36.76800
H  26.03400 1.01700 36.85700
H  20.47500 1.35600 31.45600
H  19.59600 0.68500 30.05100
H  19.67700 2.39800 30.24300
H  19.72700 3.26000 27.97300
H  18.95000 1.65400 28.04400
H  18.93800 2.68800 26.54100
H  25.87300 1.81200 25.04800
H  27.74900 -0.56300 25.27000
H  24.29800 -0.38400 24.56100
H  25.90600 -0.84400 23.82000
H  25.02600 0.65900 23.39000
H  28.18900 1.61900 24.01100
H  29.36600 0.98900 25.10400
H  29.28800 3.26300 26.01000
H  27.70700 2.78300 26.74900
H  27.77300 3.55200 25.15600
H  31.33500 -1.82000 29.05800
H  32.21000 -0.54000 29.99900
H  31.50900 -0.20000 28.37300
H  29.45200 1.34600 33.95600
H  30.04000 -1.71600 36.67500
H  29.23900 -0.40000 37.70600
H  30.90900 -0.33000 37.38500
Mg 26.37200 51.20300 25.42300
C  23.87700 52.02400 27.86800
C  28.56900 50.42700 27.80500
C  28.60900 50.79300 22.91100
C  24.21800 52.53700 23.06800
N  26.25100 51.41800 27.59500
C  25.09400 51.54800 28.38000
C  25.51400 51.38200 29.84600
C  27.03700 50.97500 29.80700
C  27.34900 50.95800 28.32300
C  27.99300 51.84100 30.73000
C  24.55600 50.45100 30.63400
C  24.12500 50.93400 32.04000
H  24.02200 49.99500 33.23000
N  28.21400 50.54100 25.33400
C  28.96500 50.27100 26.41100
C  30.25500 49.89500 26.01300
C  30.32300 49.87200 24.57800
C  29.00100 50.37200 24.17100
C  31.38800 49.59900 27.03200
C  31.52400 49.76900 23.68300
O  31.41000 49.85600 22.49800
C  32.84600 49.46200 24.43100
N  26.47500 51.83500 23.39000
C  27.43600 51.44900 22.54000
C  27.18600 51.73700 21.02700
C  25.72600 52.21100 21.08500
C  25.45200 52.19100 22.63000
C  28.16100 52.78400 20.41700
C  24.73500 51.14500 20.51300
C  23.81700 51.71300 19.45500
N  24.42800 52.05100 25.36100
C  23.67100 52.44700 24.36600
C  22.29000 52.75200 24.78000
C  22.40500 52.64700 26.17200
C  23.68600 52.22600 26.50900
C  21.20200 53.17600 23.89400
C  21.68200 52.87300 27.38700
O  20.53200 53.28200 27.55100
C  22.65600 52.53400 28.59300
C  22.94300 53.68500 29.51800
O  23.65000 54.63000 29.30300
O  22.31400 53.38300 30.74600
C  22.45000 54.46500 31.77700
H  29.15800 49.95900 28.59600
H  29.29200 50.62900 22.07400
H  23.61900 52.91300 22.23700
H  25.54700 52.36500 30.31600
H  27.10700 49.92400 30.08500
H  28.51200 52.66700 30.24300
H  28.69500 51.23700 31.30600
H  27.41100 52.21000 31.57500
H  25.06500 49.48800 30.67600
H  23.64400 50.25200 30.07100
H  23.11500 51.31100 31.88000
H  24.80800 51.76100 32.23500
H  32.30100 50.19500 27.02200
H  31.75900 48.57400 27.00600
H  31.08000 49.72100 28.07100
H  33.28500 50.31600 24.94700
H  33.40900 49.31100 23.51000
H  32.75100 48.49700 24.92900
H  27.39800 50.89200 20.37200
H  25.63800 53.14700 20.53300
H  28.52100 52.53400 19.41900
H  29.02100 52.85800 21.08300
H  27.66800 53.75600 20.42600
H  24.11300 50.60000 21.22200
H  25.42400 50.45000 20.03300
H  23.74900 50.94900 18.68100
H  24.15200 52.64900 19.00900
H  22.82300 51.87100 19.87300
H  21.64500 53.90700 23.22000
H  20.32400 53.50800 24.44800
H  20.86400 52.31800 23.31300
H  22.13800 51.78900 29.19700
H  22.75500 53.88500 32.64800
H  21.49100 54.96200 31.92200
H  23.32400 55.10500 31.65900

