158

Mg 6.40600 53.82000 40.03100
C  5.50500 50.46900 40.02800
C  9.65200 52.86000 39.42500
C  7.11300 56.91800 39.18400
C  2.96900 54.57200 40.30400
N  7.43400 51.84500 39.54500
C  6.89900 50.64400 39.77400
C  7.99500 49.51000 39.65000
C  9.22600 50.39700 40.03800
C  8.77800 51.80200 39.50700
C  9.62300 50.33900 41.56600
C  8.10000 48.88300 38.23800
C  7.29100 49.44800 37.05300
H  8.11700 49.80400 35.75700
N  8.14800 54.76000 39.29800
C  9.39600 54.22400 39.21600
C  10.35900 55.20000 38.75900
C  9.64700 56.46100 38.71300
C  8.21500 56.10800 39.04000
C  11.78100 54.90300 38.41700
C  10.32700 57.81200 38.49900
O  11.47600 57.94600 38.22400
C  9.43200 59.04900 38.50700
N  5.19300 55.50800 39.84400
C  5.76800 56.62700 39.38400
C  4.73300 57.76300 39.50100
C  3.41000 57.02600 39.80500
C  3.83000 55.61200 39.99200
C  5.15500 58.96700 40.42100
C  2.22700 57.33300 38.77400
C  0.95000 57.81100 39.41200
N  4.57800 52.78100 40.18900
C  3.27800 53.23500 40.39500
C  2.35000 52.10700 40.72000
C  3.19200 51.00900 40.53100
C  4.49500 51.44100 40.23800
C  0.98900 52.17100 41.21300
C  3.17300 49.58500 40.61200
O  2.33300 48.76700 40.96300
C  4.73000 49.17400 40.24700
C  4.70700 48.33000 39.11100
O  4.13300 48.49800 38.00700
O  5.41100 47.18200 39.46800
C  5.57500 46.16400 38.39700
H  10.70600 52.57600 39.46300
H  7.16000 57.99500 39.00800
H  1.95600 54.90800 40.53400
H  7.92300 48.68300 40.35600
H  10.06600 49.94300 39.51200
H  10.71300 50.34600 41.53300
H  9.32500 49.50000 42.19500
H  9.21000 51.20600 42.08100
H  7.76200 47.86400 38.42800
H  9.15800 48.82600 37.98200
H  6.81600 50.38400 37.34800
H  6.59700 48.65000 36.78900
H  11.93100 55.06400 37.34900
H  12.06400 53.93300 38.82600
H  12.33100 55.65300 38.98500
H  10.07400 59.92000 38.64200
H  8.90700 59.09800 39.46000
H  8.78200 59.07200 37.63100
H  4.69900 58.09800 38.46400
H  3.22800 57.25500 40.85600
H  4.26700 59.37900 40.90200
H  5.59600 59.71600 39.76300
H  5.88900 58.66100 41.16600
H  1.98800 56.36100 38.34300
H  2.53400 58.09100 38.05200
H  0.12700 57.70800 38.70500
H  0.91700 58.82200 39.81800
H  0.76100 57.10600 40.22100
H  0.73500 53.20800 40.99700
H  0.97900 52.03200 42.29400
H  0.31200 51.52100 40.65800
H  5.28200 48.69000 41.05300
H  4.55600 45.81600 38.22500
H  6.25600 45.35600 38.66400
H  5.99100 46.69700 37.54300
Mg 17.15800 51.80400 26.01600
C  19.02900 50.41200 28.69200
C  14.74200 52.91100 28.33700
C  15.32700 52.63600 23.51000
C  19.35400 50.04400 23.85800
N  16.92000 51.60000 28.26000
C  17.92100 51.16500 29.10300
C  17.57100 51.54200 30.51700
C  16.11100 52.06100 30.42000
C  15.88400 52.19100 28.91500
C  15.04000 51.11900 31.01300
C  18.61100 52.56900 31.19700
C  18.71100 52.56100 32.80600
H  17.70200 51.72500 33.59800
N  15.21500 52.68100 25.94100
C  14.45500 53.10100 26.94200
C  13.25200 53.65600 26.38000
C  13.39200 53.63000 24.95600
C  14.68400 52.93500 24.73500
C  12.07200 54.14400 27.25900
C  12.38900 54.02500 23.89400
O  12.68600 54.06400 22.70600
C  11.10800 54.55600 24.29500
N  17.35400 51.42400 23.91700
C  16.51600 52.05900 23.02700
C  16.92500 51.74500 21.56400
C  18.30500 51.07200 21.79200
C  18.32900 50.79400 23.24300
C  15.89200 50.87400 20.72700
C  19.64600 51.81900 21.39500
C  19.57200 53.36300 21.55300
N  18.90900 50.54800 26.14000
C  19.68700 49.92800 25.22700
C  20.75200 49.20000 25.88100
C  20.54700 49.35500 27.24800
C  19.41700 50.21400 27.40700
C  21.70700 48.42800 25.07500
C  21.07400 48.99200 28.57700
O  21.96200 48.24800 28.85500
C  20.14800 49.74400 29.55100
C  19.53500 48.80600 30.66700
O  18.45500 48.20900 30.55200
O  20.44100 48.71800 31.72400
C  20.07500 47.98100 32.95200
H  13.98800 53.23900 29.05600
H  14.84700 53.02700 22.61100
H  20.11000 49.63300 23.18600
H  17.55200 50.60100 31.06600
H  16.04000 53.08100 30.79600
H  14.28800 51.72300 31.52200
H  15.46000 50.44100 31.75500
H  14.44900 50.47600 30.36000
H  18.29900 53.60700 31.07900
H  19.61000 52.43100 30.78400
H  18.62500 53.59500 33.14000
H  19.74100 52.32700 33.07600
H  11.26400 53.46300 26.99500
H  11.74800 55.15800 27.02200
H  12.03800 54.03000 28.34300
H  11.29400 55.55900 24.67900
H  10.57700 53.87200 24.95600
H  10.47900 54.55100 23.40500
H  16.94300 52.71800 21.07400
H  18.27500 50.09300 21.31200
H  14.92600 50.67400 21.19000
H  16.28400 49.89200 20.46200
H  15.83200 51.46000 19.81000
H  19.78700 51.60300 20.33600
H  20.46000 51.45100 22.02000
H  20.47900 53.66000 22.08000
H  18.73700 53.50400 22.24000
H  19.46100 53.95800 20.64600
H  22.30500 49.11900 24.48200
H  21.33400 47.81400 24.25600
H  22.29900 47.91100 25.83000
H  20.58600 50.52100 30.17700
H  18.99300 48.04600 33.07200
H  20.58600 48.45300 33.79100
H  20.37200 46.93500 33.03300

