158

Mg 24.08800 -4.85300 45.40500
C  25.99500 -2.25500 44.00500
C  21.52100 -4.18300 43.33100
C  22.70500 -7.55400 46.51600
C  27.08900 -5.82500 47.05700
N  23.85100 -3.39600 43.85600
C  24.67600 -2.41700 43.45000
C  24.02800 -1.47400 42.40800
C  22.49900 -1.91100 42.48600
C  22.58400 -3.24800 43.31000
C  21.50600 -0.90500 43.20300
C  24.77400 -1.78800 41.06700
C  25.40400 -0.63200 40.22600
H  25.11700 -0.60700 38.74400
N  22.28300 -5.78300 45.01500
C  21.30800 -5.32900 44.12300
C  20.16000 -6.16100 44.19800
C  20.45200 -7.11200 45.18700
C  21.82900 -6.82700 45.66200
C  18.91500 -5.83000 43.35100
C  19.49700 -8.23600 45.55700
O  18.35500 -8.37300 45.07200
C  19.92900 -9.37800 46.52000
N  24.96100 -6.56400 46.42000
C  24.02800 -7.45700 46.90200
C  24.65100 -8.41000 47.90300
C  25.93000 -7.69300 48.25200
C  26.08200 -6.66700 47.12100
C  23.79200 -8.97300 49.09400
C  27.17600 -8.66100 48.41800
C  27.88500 -8.86900 49.76200
N  26.14800 -4.20300 45.47500
C  27.21600 -4.75800 46.15600
C  28.34800 -3.86500 46.03600
C  27.92500 -2.90000 45.15100
C  26.57600 -3.12600 44.92300
C  29.71800 -4.00000 46.64300
C  28.40600 -1.74100 44.43300
O  29.49000 -1.22300 44.30200
C  27.06600 -1.33700 43.64300
C  26.74900 0.06500 44.08000
O  26.43100 0.51000 45.17400
O  27.02800 0.85000 42.98000
C  27.22300 2.29500 43.16200
H  20.69000 -3.91300 42.67600
H  22.22300 -8.34400 47.09600
H  27.95800 -6.03500 47.68400
H  24.23400 -0.42800 42.63500
H  22.09700 -2.02500 41.48000
H  22.10100 -0.14300 43.70700
H  20.86900 -1.41100 43.92800
H  20.81500 -0.51200 42.45800
H  24.02500 -2.34700 40.50700
H  25.54800 -2.53900 41.23100
H  26.46300 -0.80200 40.41900
H  25.06700 0.34600 40.57100
H  18.00800 -6.29500 43.73500
H  19.00800 -6.29200 42.36800
H  18.72300 -4.76100 43.26100
H  19.12300 -10.09900 46.65500
H  20.14300 -8.96900 47.50800
H  20.79000 -9.94200 46.16100
H  24.94700 -9.32300 47.38600
H  25.75700 -7.04900 49.11400
H  22.92800 -8.33200 49.26700
H  24.46900 -8.96300 49.94800
H  23.35700 -9.94100 48.84500
H  27.93400 -8.40000 47.68000
H  26.98000 -9.70400 48.16800
H  27.60400 -9.86300 50.11000
H  27.50300 -8.12900 50.46600
H  28.94600 -8.72400 49.56200
H  29.45600 -4.02200 47.70100
H  30.33200 -3.10800 46.52100
H  30.19600 -4.95100 46.40500
H  27.26600 -1.44400 42.57700
H  26.71100 2.72800 44.02100
H  26.89800 2.79300 42.24800
H  28.28400 2.54200 43.16300
Mg 40.65700 9.31200 29.27000
C  42.49600 10.00100 32.08100
C  38.31000 7.70700 31.21400
C  39.14100 8.49500 26.36000
C  43.34400 10.64100 27.26700
N  40.53900 8.75800 31.32800
C  41.30400 9.31400 32.35800
C  40.65700 9.15100 33.72600
C  39.54900 8.15200 33.41700
C  39.44400 8.15700 31.90300
C  39.84800 6.82200 34.12200
C  40.11300 10.48300 34.34400
C  40.19200 10.51900 35.83900
H  40.88800 11.56500 36.70200
N  39.06900 8.11500 28.85200
C  38.19300 7.56600 29.79600
C  37.13700 6.82400 29.08800
C  37.22800 7.28600 27.73200
C  38.51000 7.97400 27.57700
C  36.04900 6.08100 29.85500
C  36.12300 7.35500 26.66800
O  36.38200 7.81400 25.59600
C  34.78300 6.81100 26.99400
N  41.24000 9.58100 27.01000
C  40.36000 9.20700 26.09700
C  40.93100 9.65300 24.69200
C  42.33600 10.33200 24.99300
C  42.32900 10.21600 26.49400
C  41.03200 8.50900 23.73000
C  42.54100 11.74400 24.39800
C  41.46000 12.80600 24.86900
N  42.53600 10.03400 29.58000
C  43.38900 10.76400 28.67800
C  44.40600 11.46800 29.50400
C  44.11800 11.05900 30.77700
C  42.97000 10.29200 30.79900
C  45.57400 12.29700 29.03700
C  44.55200 11.38700 32.14700
O  45.53600 12.10300 32.54500
C  43.46100 10.63300 33.05900
C  44.11600 9.74400 33.95500
O  44.63400 8.69800 33.66700
O  44.18700 10.19900 35.21700
C  44.99400 9.58500 36.24500
H  37.56900 7.19600 31.83200
H  38.58900 8.31600 25.43500
H  44.17400 11.01300 26.66300
H  41.48200 8.82400 34.35800
H  38.63000 8.50400 33.88600
H  39.24700 6.11400 33.55200
H  39.57800 6.85200 35.17800
H  40.90800 6.62100 33.96800
H  39.09700 10.78700 34.09000
H  40.72700 11.32400 34.02200
H  40.55700 9.54400 36.16000
H  39.15400 10.40900 36.15600
H  35.11900 6.64200 29.93700
H  36.49600 5.80200 30.80900
H  35.70700 5.18900 29.33000
H  34.83200 6.03100 27.75300
H  34.56400 6.30500 26.05400
H  34.17700 7.70400 27.14600
H  40.37500 10.48400 24.25800
H  43.12000 9.62400 24.72300
H  41.26000 7.54600 24.18600
H  41.91000 8.78900 23.14700
H  40.15100 8.55300 23.09100
H  42.67100 11.74900 23.31500
H  43.46800 12.09000 24.85700
H  41.98400 13.75300 24.73900
H  41.07300 12.51300 25.84500
H  40.62900 12.86400 24.16600
H  45.74400 13.19100 29.63800
H  45.31200 12.65800 28.04200
H  46.48400 11.70300 28.95700
H  42.89800 11.34700 33.66000
H  44.55100 9.44200 37.23100
H  45.76200 10.34300 36.39600
H  45.50900 8.65900 35.99000

