158

Mg 0.57100 6.69900 24.17100
C  1.52500 8.82800 26.78000
C  0.46100 4.00200 26.40100
C  -0.21000 4.68200 21.68200
C  0.88700 9.41900 21.96500
N  1.16600 6.41000 26.19900
C  1.33700 7.40900 27.10100
C  1.57200 6.86600 28.48200
C  1.42000 5.32700 28.28100
C  0.97800 5.18500 26.87000
C  2.72300 4.54400 28.54100
C  0.52500 7.41300 29.48400
C  1.05800 7.73600 30.93300
H  2.22800 6.84400 31.47400
N  0.13500 4.65700 24.08900
C  0.13900 3.75400 25.09000
C  -0.29600 2.45900 24.57600
C  -0.44000 2.60400 23.18300
C  -0.17800 4.05500 22.92000
C  -0.44300 1.24300 25.43800
C  -0.73300 1.55500 22.16800
O  -0.70100 1.73900 21.00700
C  -0.89600 0.07000 22.63600
N  0.29600 7.03300 22.06100
C  -0.04600 6.02200 21.25700
C  -0.03600 6.45300 19.73100
C  0.22600 8.01800 19.87200
C  0.53000 8.16800 21.38000
C  1.08100 5.76500 19.08700
C  -0.96500 8.92300 19.36800
C  -0.59900 9.67700 18.14500
N  1.11900 8.68200 24.26000
C  1.10900 9.70200 23.35100
C  1.50500 10.92400 23.98900
C  1.65000 10.63000 25.33700
C  1.41000 9.29500 25.46800
C  1.80300 12.23300 23.27700
C  1.93800 11.19400 26.60400
O  2.13100 12.33400 26.95400
C  1.73400 10.04700 27.68900
C  2.95800 9.96500 28.39700
O  4.03500 9.56800 28.01600
O  2.77900 10.36100 29.71500
C  3.91900 10.28200 30.63700
H  0.36300 3.13200 27.05400
H  -0.48200 3.99500 20.87800
H  0.90200 10.30400 21.32500
H  2.53600 7.06600 28.95000
H  0.59700 4.78400 28.74600
H  3.05300 4.16400 27.57500
H  2.46500 3.71600 29.20100
H  3.45900 4.98600 29.21400
H  -0.17800 6.62800 29.76300
H  0.08400 8.29200 29.01500
H  0.23800 7.58400 31.63500
H  1.42400 8.74900 30.76400
H  -1.41500 0.77100 25.29300
H  -0.46700 1.37100 26.52000
H  0.37500 0.59300 25.12800
H  -1.77900 -0.01000 23.27000
H  0.04400 -0.35400 22.98800
H  -1.16400 -0.47800 21.73300
H  -1.00100 6.16000 19.31600
H  1.18100 8.22100 19.38700
H  2.00100 5.80600 19.67000
H  1.14500 6.19100 18.08600
H  0.74500 4.73000 19.02700
H  -1.38100 9.59300 20.12000
H  -1.78800 8.27900 19.05700
H  -1.17500 10.59000 18.29700
H  -0.81300 9.17700 17.20000
H  0.41700 10.06900 18.17800
H  1.50000 12.20300 22.23000
H  2.87000 12.44900 23.33100
H  1.29200 13.04200 23.79900
H  0.91300 10.23700 28.38100
H  4.47400 9.37000 30.41900
H  3.52700 10.22000 31.65200
H  4.55200 11.17000 30.65000
Mg 46.95000 15.95100 29.16900
C  44.87300 15.80200 32.15900
C  49.24500 17.85400 30.94200
C  48.49900 16.68100 26.32000
C  44.22700 14.76300 27.52100
N  47.03200 16.62200 31.26400
C  46.13600 16.40300 32.32000
C  46.75400 16.84000 33.63300
C  47.93600 17.73200 33.16000
C  48.08200 17.45500 31.65300
C  47.61500 19.26600 33.51000
C  47.05300 15.55500 34.45000
C  46.61400 15.48100 35.91000
H  46.19800 16.83800 36.47800
N  48.73500 16.94800 28.70800
C  49.54900 17.59700 29.62000
C  50.80200 17.91000 28.88000
C  50.58000 17.58500 27.50600
C  49.27900 17.00400 27.41200
C  52.09300 18.34400 29.62200
C  51.50100 17.77300 26.36900
O  51.17100 17.44500 25.25300
C  52.79500 18.52800 26.48600
N  46.39000 15.92900 27.23500
C  47.17500 16.21200 26.18400
C  46.54800 15.83900 24.83800
C  45.52000 14.82400 25.30100
C  45.30700 15.22300 26.80600
C  45.95100 16.88400 23.91600
C  45.96300 13.28600 25.09900
C  44.81500 12.63100 24.12800
N  44.99600 15.36500 29.70400
C  44.03300 14.85500 28.86500
C  42.90700 14.37300 29.62500
C  43.14700 14.75200 30.94200
C  44.40200 15.36700 30.91200
C  41.73300 13.53900 29.19200
C  42.54500 14.78600 32.30700
O  41.47000 14.36000 32.68600
C  43.73400 15.39900 33.18400
C  43.14300 16.60100 33.91600
O  43.37800 17.75900 33.60000
O  42.36800 16.17100 34.94100
C  41.71700 17.15900 35.78900
H  49.95300 18.48600 31.48200
H  48.87500 16.89900 25.31800
H  43.42300 14.21700 27.02300
H  45.91400 17.35300 34.10300
H  48.80400 17.42300 33.74100
H  46.81300 19.31300 34.24700
H  47.27900 19.71600 32.57600
H  48.54200 19.75400 33.81200
H  48.07500 15.26800 34.20100
H  46.50100 14.71200 34.03500
H  47.50200 15.12500 36.43200
H  45.79800 14.78500 36.10900
H  52.93400 18.09100 28.97700
H  52.09000 17.85100 30.59400
H  52.04800 19.39300 29.91600
H  53.14700 18.80400 25.49200
H  53.49200 17.88300 27.02100
H  52.73500 19.43100 27.09400
H  47.33100 15.34600 24.26100
H  44.52800 14.97400 24.87600
H  46.10500 17.88000 24.33100
H  44.91500 16.68700 23.63900
H  46.58000 16.70300 23.04400
H  46.05300 12.87600 26.10500
H  46.90700 13.06800 24.59900
H  45.21100 11.77100 23.58800
H  44.45600 13.29400 23.34200
H  44.00300 12.18800 24.70400
H  41.27400 13.24700 30.13700
H  42.06700 12.69300 28.59100
H  41.05600 14.17000 28.61700
H  44.00600 14.56700 33.83300
H  42.22000 18.12600 35.78100
H  41.85000 16.71600 36.77600
H  40.64200 17.33800 35.76000

