158

Mg 41.08300 9.02700 28.92200
C  42.74600 10.34500 31.75600
C  38.95000 7.31200 31.04500
C  39.32100 8.01900 26.34600
C  43.64500 10.34600 26.95600
N  40.91100 8.71400 31.21400
C  41.62100 9.50200 32.14500
C  41.02100 9.27600 33.54600
C  39.80100 8.30700 33.24000
C  39.89500 8.08200 31.77300
C  39.80000 6.90900 34.01300
C  40.56500 10.66700 34.22400
C  40.16100 10.62500 35.71700
H  41.12500 11.19400 36.72800
N  39.42800 7.79800 28.67800
C  38.69700 7.18200 29.67000
C  37.54400 6.51400 29.16600
C  37.57100 6.75900 27.77800
C  38.77500 7.51400 27.55800
C  36.63600 5.61300 30.08300
C  36.55400 6.33000 26.72700
O  36.79200 6.63400 25.54500
C  35.32200 5.59800 27.09100
N  41.57300 9.00700 26.92900
C  40.61800 8.60200 26.02300
C  41.10500 8.90100 24.58200
C  42.41700 9.77000 24.76700
C  42.57000 9.68800 26.28500
C  41.24800 7.77900 23.54300
C  42.47100 11.17300 24.15900
C  41.84100 12.36300 24.86200
N  42.84700 10.13700 29.19100
C  43.76800 10.56900 28.33800
C  44.75500 11.39900 29.06800
C  44.35700 11.39000 30.40100
C  43.26300 10.55100 30.45600
C  45.96100 12.16100 28.48000
C  44.67800 11.84800 31.69800
O  45.59200 12.50100 32.16100
C  43.56500 11.36600 32.64100
C  44.19200 10.62500 33.84200
O  44.31000 9.39800 34.03900
O  44.75300 11.54900 34.66800
C  45.43000 10.95200 35.88500
H  38.16900 6.92900 31.70400
H  38.66000 7.91300 25.48400
H  44.41800 10.83800 26.36300
H  41.83200 8.87200 34.15300
H  38.88500 8.84100 33.49300
H  39.19500 7.03700 34.91000
H  40.77500 6.56500 34.36100
H  39.42100 6.14200 33.33800
H  39.72400 11.09600 33.67900
H  41.46800 11.27600 34.25600
H  39.89900 9.62100 36.04900
H  39.27300 11.25700 35.73500
H  36.29400 6.37200 30.78700
H  37.44900 5.02000 30.50100
H  35.87500 4.95700 29.65800
H  35.60700 4.60600 27.44100
H  34.72500 5.58500 26.17900
H  34.61800 6.17000 27.69600
H  40.47100 9.68100 24.16100
H  43.32700 9.26600 24.43900
H  42.29900 7.51900 23.41500
H  40.75900 8.15200 22.64300
H  40.57600 6.98500 23.86900
H  42.11200 11.02700 23.14000
H  43.51700 11.36300 23.91400
H  41.45900 12.10300 25.84900
H  41.00700 12.74400 24.27300
H  42.64300 13.09000 24.98700
H  45.66500 12.80300 27.65000
H  46.69300 11.47800 28.04800
H  46.49000 12.77100 29.21200
H  42.96000 12.22000 32.94400
H  44.64500 10.53800 36.51800
H  45.96600 11.75500 36.39200
H  46.16100 10.18400 35.63200
Mg 48.21300 25.86800 27.84600
C  48.92400 28.06600 30.25800
C  47.11600 23.44700 30.14500
C  47.58200 23.58900 25.27900
C  49.50100 28.06700 25.44300
N  47.88100 25.79400 29.87600
C  48.29600 26.79800 30.68300
C  48.00900 26.51900 32.18300
C  47.75400 24.96700 32.12700
C  47.55600 24.70900 30.63800
C  48.67300 24.01400 32.90600
C  46.78600 27.42100 32.67700
C  46.16500 27.00400 33.99500
H  46.04000 28.05600 35.14200
N  47.44400 23.83100 27.74500
C  47.09000 23.03900 28.77700
C  46.55700 21.72000 28.31600
C  46.74200 21.77800 26.93200
C  47.26700 23.13800 26.56200
C  45.88400 20.71400 29.19000
C  46.43700 20.60800 25.95600
O  46.65100 20.63900 24.79400
C  45.97500 19.35000 26.46600
N  48.59600 25.84600 25.65500
C  48.09600 24.84200 24.84600
C  48.09100 25.28600 23.39200
C  48.85800 26.57200 23.39600
C  49.04200 26.87400 24.91900
C  48.60500 24.24500 22.37500
C  48.21400 27.74500 22.61900
C  48.89800 28.28500 21.38400
N  49.09900 27.66600 27.81200
C  49.59500 28.44800 26.77700
C  50.10700 29.70900 27.31500
C  49.80100 29.65100 28.70000
C  49.25600 28.37300 28.93300
C  50.66400 30.96800 26.60200
C  49.91300 30.34500 29.98200
O  50.27000 31.50900 30.17100
C  49.34800 29.35600 31.06500
C  50.38200 29.03800 32.14500
O  51.44300 28.47300 32.02800
O  49.92600 29.61200 33.34200
C  50.74600 29.36500 34.54000
H  46.79100 22.72400 30.89600
H  47.30700 22.95600 24.43300
H  49.77100 28.84800 24.73000
H  48.88900 26.77600 32.77300
H  46.80200 24.73800 32.60600
H  49.03900 23.18300 32.30300
H  48.21500 23.60200 33.80500
H  49.52700 24.56400 33.30400
H  46.03400 27.49400 31.89200
H  47.24100 28.39300 32.86900
H  46.70100 26.15000 34.40900
H  45.19600 26.57700 33.73600
H  46.56000 19.86200 29.25700
H  44.98100 20.38100 28.67900
H  45.63200 21.07100 30.18900
H  45.90500 18.57900 25.69900
H  45.00300 19.43300 26.95200
H  46.76300 18.99800 27.13200
H  47.11300 25.48600 22.95400
H  49.85100 26.52500 22.94900
H  49.05800 23.39400 22.88500
H  49.37300 24.63200 21.70600
H  47.76800 23.74800 21.88500
H  48.07400 28.59600 23.28600
H  47.24800 27.42700 22.22800
H  49.63400 27.65500 20.88300
H  49.33300 29.18200 21.82500
H  48.17400 28.53100 20.60700
H  50.13100 31.91600 26.68400
H  50.56100 30.80200 25.52900
H  51.69900 31.23200 26.81400
H  48.44800 29.82300 31.46500
H  51.04800 30.36200 34.86100
H  51.61500 28.71800 34.41700
H  50.11200 28.88900 35.28700

