158

Mg 2.22900 -1.68200 44.48800
C  5.75600 -1.12600 44.28700
C  1.81700 0.93700 42.35700
C  -0.98000 -2.57100 44.20100
C  2.91500 -4.75500 46.04000
N  3.69400 -0.28700 43.47200
C  5.05600 -0.25200 43.50800
C  5.57600 0.74500 42.37100
C  4.23800 1.53800 41.92700
C  3.14700 0.64700 42.62200
C  4.16500 3.04700 42.43100
C  6.16800 -0.09500 41.16800
C  7.58600 0.25700 40.76400
H  7.91400 0.69200 39.36300
N  0.66700 -0.82200 43.62700
C  0.64500 0.16700 42.70300
C  -0.71900 0.47100 42.27800
C  -1.59100 -0.39100 42.92000
C  -0.65100 -1.30900 43.66600
C  -1.10300 1.64800 41.27900
C  -3.05000 -0.41200 42.84000
O  -3.58200 0.44500 42.15200
C  -3.96900 -1.36300 43.59800
N  1.16700 -3.48400 44.90500
C  -0.18200 -3.61800 44.76800
C  -0.75000 -5.03600 45.19800
C  0.49200 -5.61100 45.90700
C  1.57100 -4.57400 45.60900
C  -1.98600 -4.86800 46.15300
C  0.93600 -7.04300 45.41100
C  1.50700 -7.10500 44.05000
N  3.95200 -2.65300 45.17800
C  4.02400 -3.91600 45.78700
C  5.39300 -4.16300 46.10300
C  6.11000 -3.10000 45.53800
C  5.17300 -2.22400 45.00400
C  5.94300 -5.33000 46.82200
C  7.49200 -2.56100 45.42600
O  8.49100 -3.03500 45.92400
C  7.23900 -1.29500 44.46400
C  7.85500 -0.09900 45.17200
O  7.38100 0.50600 46.13200
O  9.03000 0.32800 44.49700
C  9.49000 1.69400 44.95400
H  1.62200 1.85300 41.79700
H  -1.99300 -2.97700 44.16500
H  3.04600 -5.64400 46.66100
H  6.31400 1.34500 42.90300
H  4.08500 1.44300 40.85200
H  3.26700 3.06100 43.04800
H  3.97800 3.70700 41.58400
H  5.02700 3.31300 43.04100
H  5.58300 0.08000 40.26500
H  6.03600 -1.14000 41.44900
H  8.16100 -0.66000 40.89500
H  7.95400 0.99600 41.47600
H  -1.78800 2.33200 41.77900
H  -1.69700 1.23900 40.46200
H  -0.20000 2.10900 40.87700
H  -3.70200 -1.25500 44.64900
H  -3.72000 -2.38400 43.30900
H  -5.00100 -1.25500 43.26500
H  -1.05100 -5.57200 44.29800
H  0.32900 -5.55000 46.98300
H  -1.85200 -5.35100 47.12100
H  -2.91800 -5.20800 45.70200
H  -2.01900 -3.79300 46.33100
H  0.03600 -7.65300 45.49600
H  1.75300 -7.29900 46.08600
H  2.59000 -7.18900 44.14900
H  1.38300 -6.21600 43.43200
H  1.09500 -7.91900 43.45400
H  6.45300 -6.06200 46.19600
H  5.13300 -5.80800 47.37200
H  6.56200 -5.03100 47.66800
H  7.76600 -1.45700 43.52300
H  10.26200 2.19000 44.36600
H  9.78800 1.64600 46.00200
H  8.66100 2.40100 45.00700
Mg 37.12300 49.70700 24.73100
C  37.34000 48.07300 27.84000
C  35.65000 52.35900 26.43400
C  36.83200 51.33900 21.78300
C  38.02700 46.82700 23.08600
N  36.53600 50.05400 26.96700
C  36.87800 49.35300 28.05000
C  36.48000 49.98400 29.38600
C  35.85700 51.36300 28.81400
C  36.00600 51.29700 27.31100
C  34.49100 51.71100 29.34600
C  37.63900 50.10200 30.36000
C  37.59000 49.45000 31.76700
H  36.21900 49.69700 32.34300
N  36.40100 51.63200 24.16300
C  35.80800 52.56100 25.02000
C  35.51100 53.73400 24.20400
C  35.87100 53.45500 22.82900
C  36.46900 52.10500 22.89900
C  34.84000 54.97000 24.85600
C  35.64600 54.35700 21.56600
O  35.85800 53.91600 20.43100
C  35.04000 55.67000 21.80500
N  37.48200 49.16300 22.75000
C  37.29700 50.00600 21.73400
C  37.57800 49.34700 20.36100
C  37.92800 47.88200 20.78200
C  37.87200 48.00000 22.28000
C  36.38000 49.56500 19.30100
C  39.32600 47.40500 20.14100
C  40.58300 47.60500 21.06100
N  37.58300 47.77400 25.27600
C  37.97600 46.71300 24.48500
C  38.19400 45.59000 25.38300
C  37.96000 46.06700 26.66600
C  37.64100 47.39900 26.57500
C  38.62700 44.21800 24.95400
C  38.04800 45.72300 28.01700
O  38.38800 44.65900 28.54700
C  37.60400 47.00200 28.84500
C  36.34400 46.58500 29.55900
O  35.18400 46.52000 29.05700
O  36.75700 46.14100 30.86100
C  35.72200 45.45500 31.65300
H  35.23700 53.19900 26.99600
H  36.88600 51.91600 20.85800
H  38.48600 45.94900 22.62600
H  35.71700 49.34500 29.83000
H  36.47200 52.21700 29.09600
H  34.17300 50.93300 30.04100
H  33.78900 51.70300 28.51200
H  34.51300 52.64700 29.90300
H  37.73100 51.14900 30.64900
H  38.54000 49.66700 29.92600
H  38.44000 49.84200 32.32700
H  37.76000 48.40000 31.52800
H  35.13900 55.92600 24.42600
H  35.00400 54.96200 25.93400
H  33.79300 54.75100 24.64900
H  34.02500 55.55800 22.18600
H  34.93200 56.19000 20.85300
H  35.69300 56.19900 22.50000
H  38.45900 49.81400 19.92000
H  37.11200 47.21400 20.50900
H  35.53900 49.87600 19.92000
H  36.13500 48.62800 18.79900
H  36.58200 50.36800 18.59300
H  39.37400 47.92300 19.18300
H  39.27300 46.33100 19.95900
H  40.57300 48.39900 21.80800
H  41.37000 47.94700 20.38900
H  40.98000 46.66900 21.45300
H  38.12900 43.50000 25.60600
H  39.69700 44.04100 25.06200
H  38.28800 43.81400 24.00000
H  38.43300 47.12500 29.54200
H  35.15700 44.76300 31.02900
H  35.11000 46.18900 32.17800
H  36.24700 44.83000 32.37600

