158

Mg 47.69400 23.92200 28.11500
C  48.69400 25.99700 30.60100
C  46.74600 21.53000 30.42000
C  47.04800 21.84400 25.54300
C  49.12100 26.14700 25.74300
N  47.65700 23.79900 30.30500
C  48.05500 24.84500 31.10900
C  47.61900 24.51300 32.54100
C  47.28100 23.01900 32.47100
C  47.27600 22.71300 30.96100
C  48.10600 22.00600 33.25700
C  46.67600 25.52800 33.22000
C  47.32600 26.03300 34.47300
H  46.72800 27.29600 35.17600
N  46.98300 21.92000 28.00500
C  46.68900 21.11600 29.06700
C  46.22100 19.87300 28.53100
C  45.94500 20.04800 27.14400
C  46.61400 21.30700 26.82200
C  45.96700 18.72800 29.43400
C  45.30900 19.07600 26.17100
O  45.23700 19.39200 24.96700
C  44.59700 17.74200 26.47200
N  48.02300 24.01100 26.00500
C  47.58000 23.05700 25.14100
C  47.86200 23.34800 23.65200
C  48.29100 24.82900 23.67300
C  48.53300 25.00000 25.21700
C  48.99700 22.42600 23.02100
C  47.35600 25.86400 23.08900
C  47.98900 26.88200 22.06000
N  48.61200 25.66600 28.10200
C  49.13200 26.42400 27.09400
C  49.70000 27.63500 27.64100
C  49.51900 27.49700 29.02200
C  48.85600 26.29600 29.25000
C  50.42700 28.83700 26.94000
C  49.80200 28.18300 30.30100
O  50.44400 29.23200 30.56300
C  49.11800 27.33900 31.39600
C  50.13300 27.14300 32.44800
O  50.92100 26.17300 32.47800
O  50.13400 28.13300 33.36400
C  50.92400 27.97400 34.65600
H  46.34100 20.92400 31.23300
H  46.84300 21.20700 24.68100
H  49.46900 26.87200 25.00400
H  48.56900 24.60600 33.06600
H  46.32900 22.90600 32.99000
H  47.52900 21.62800 34.10000
H  49.12600 22.35300 33.42200
H  48.11800 21.15400 32.57800
H  45.75700 25.03900 33.54200
H  46.33000 26.20800 32.44200
H  48.37700 26.32400 34.47600
H  47.36600 25.30400 35.28200
H  44.88800 18.66400 29.57600
H  46.40200 18.83700 30.42800
H  46.38500 17.80800 29.02600
H  45.05500 17.33700 27.37500
H  44.59600 16.89500 25.78600
H  43.60100 17.92300 26.87700
H  46.94600 23.24800 23.06900
H  49.29300 24.95600 23.26400
H  49.67200 22.05800 23.79300
H  49.74700 22.94100 22.42100
H  48.67300 21.47600 22.59700
H  46.97400 26.46200 23.91700
H  46.37800 25.49600 22.77900
H  47.47900 26.72800 21.10900
H  49.07700 26.82000 22.08500
H  47.67800 27.89200 22.32500
H  51.43200 28.79800 27.36100
H  50.00400 29.82600 27.12000
H  50.63600 28.80200 25.87100
H  48.27300 27.91000 31.78100
H  51.65900 28.77700 34.70900
H  51.43600 27.02500 34.81600
H  50.27000 28.13600 35.51300
Mg 26.64500 50.09700 26.91600
C  24.43100 51.38100 29.17700
C  28.85200 49.30800 29.33200
C  28.58500 48.88300 24.48700
C  24.48100 51.45000 24.39500
N  26.60900 50.33000 29.04600
C  25.51500 50.72700 29.80200
C  25.82600 50.49900 31.30700
C  27.36000 50.06100 31.31000
C  27.68000 50.03600 29.81000
C  28.32600 50.83100 32.22000
C  24.76100 49.51700 31.97200
C  24.24500 49.89300 33.34800
H  24.12000 48.80200 34.38200
N  28.46600 49.10100 26.93500
C  29.27000 48.89300 28.06300
C  30.44900 48.19000 27.65200
C  30.24600 47.92100 26.22500
C  29.07500 48.65700 25.80900
C  31.63100 47.92700 28.66300
C  31.17900 47.10100 25.30800
O  31.02200 47.03100 24.12400
C  32.34500 46.30400 26.02400
N  26.58200 50.26900 24.69700
C  27.53000 49.60200 23.96100
C  27.23900 49.70800 22.40500
C  25.76100 50.36000 22.45800
C  25.54200 50.69500 23.92700
C  28.32800 50.46300 21.55900
C  24.69600 49.46600 21.77900
C  23.69400 48.65900 22.61600
N  24.84100 51.38200 26.76100
C  24.09300 51.85700 25.69400
C  22.83100 52.49500 26.15400
C  22.97200 52.37400 27.55700
C  24.10800 51.64000 27.80400
C  21.75200 53.14600 25.36300
C  22.31800 52.66000 28.83600
O  21.25100 53.29300 29.00000
C  23.31400 52.11100 29.97100
C  23.83000 53.32800 30.69500
O  24.89900 53.86200 30.59400
O  22.94800 53.63200 31.68500
C  23.42100 54.68100 32.66800
H  29.49900 48.87000 30.09600
H  29.10500 48.39600 23.65900
H  23.81000 51.81900 23.61700
H  25.72900 51.46300 31.80500
H  27.36700 49.06900 31.76300
H  29.17100 51.19200 31.63400
H  28.60400 50.22900 33.08400
H  27.97800 51.69800 32.78100
H  25.16500 48.50700 31.90200
H  23.90000 49.61600 31.31200
H  23.27300 50.36800 33.22100
H  24.87900 50.69800 33.71800
H  32.44000 47.23800 28.42100
H  31.20500 47.66400 29.63100
H  32.07700 48.89500 28.88800
H  31.92300 45.73500 26.85300
H  33.02200 47.05400 26.43400
H  32.79100 45.57300 25.35100
H  27.27700 48.69800 21.99600
H  25.81300 51.30100 21.91000
H  29.05200 50.78600 22.30800
H  27.92800 51.33600 21.04300
H  28.93300 49.84900 20.89200
H  25.10000 48.85200 20.97400
H  24.06000 50.22100 21.31700
H  22.81900 49.30000 22.51300
H  24.01200 48.60300 23.65700
H  23.57100 47.66500 22.18700
H  21.20300 52.31200 24.92600
H  22.30200 53.76600 24.65500
H  21.15500 53.72800 26.06500
H  22.66000 51.52000 30.61200
H  23.93800 55.46700 32.11700
H  24.27400 54.39300 33.28300
H  22.64500 55.00100 33.36300

