158

Mg 9.31100 48.20800 26.08200
C  6.87000 48.71600 28.57300
C  11.52400 49.83500 28.11300
C  11.50400 48.03800 23.58700
C  6.65500 47.76000 23.77100
N  9.13400 49.26300 28.03900
C  8.17900 49.16400 28.92000
C  8.61700 49.44600 30.33000
C  9.93000 50.31300 30.04100
C  10.22800 49.73000 28.61300
C  9.88800 51.85000 30.10800
C  8.86000 48.18700 31.24300
C  8.05100 48.16900 32.54600
H  8.00700 46.77100 33.36000
N  11.32600 48.72100 25.92300
C  12.03700 49.40700 26.84700
C  13.39700 49.41400 26.37400
C  13.42400 48.80300 25.08100
C  12.06000 48.52700 24.77400
C  14.51600 49.82400 27.29000
C  14.58000 48.54200 24.15700
O  14.45300 48.25000 22.93700
C  16.02600 48.67700 24.64900
N  9.06700 48.15300 23.86200
C  10.14500 47.79400 23.13500
C  9.72800 47.20500 21.71100
C  8.12400 47.31600 21.79900
C  7.91700 47.75200 23.27100
C  10.39500 47.96400 20.50500
C  7.35500 46.05600 21.37700
C  6.71800 46.06600 19.95500
N  7.20000 48.09700 26.13300
C  6.28800 47.95600 25.14600
C  4.95300 47.92400 25.67400
C  5.16100 48.10100 27.10300
C  6.54900 48.19500 27.30000
C  3.74000 47.75000 24.90100
C  4.52200 48.28000 28.29600
O  3.32700 48.35100 28.63400
C  5.62400 48.60700 29.34800
C  5.56700 47.40100 30.22400
O  6.31100 46.43300 30.25400
O  4.48900 47.56700 31.08400
C  4.35900 46.47800 32.01500
H  12.17800 50.54000 28.63100
H  12.30000 47.71500 22.91300
H  5.81400 47.41300 23.16800
H  7.88300 50.15000 30.72100
H  10.85000 50.00900 30.54000
H  8.84800 52.13800 30.26400
H  10.26500 52.31700 29.19800
H  10.50700 52.11800 30.96300
H  9.91800 48.14200 31.50300
H  8.66800 47.27800 30.67300
H  7.02600 48.30900 32.20200
H  8.44200 49.03600 33.07900
H  14.12500 50.23500 28.22100
H  15.21700 50.56200 26.90100
H  15.01100 48.91800 27.64100
H  16.12500 48.14900 25.59800
H  16.24000 49.69100 24.98800
H  16.73900 48.36600 23.88600
H  10.01100 46.15200 21.71200
H  7.74500 48.09300 21.13500
H  10.87600 47.15900 19.94900
H  11.06800 48.75400 20.83900
H  9.53000 48.41200 20.01600
H  6.62000 45.90700 22.16800
H  8.02500 45.19700 21.35700
H  6.34300 47.07200 19.76700
H  5.87200 45.38600 19.85600
H  7.47300 45.82900 19.20500
H  3.79900 46.72200 24.54100
H  3.79800 48.48300 24.09600
H  2.83900 47.83600 25.50800
H  5.25900 49.48200 29.88600
H  3.50600 46.56200 32.68900
H  5.20200 46.42100 32.70400
H  4.34400 45.50600 31.52200
Mg 0.43600 43.04800 25.83900
C  2.46000 43.27300 28.56200
C  -2.29000 42.20600 28.01300
C  -1.58100 42.72400 23.12700
C  3.10500 44.03700 23.75300
N  0.06800 42.89800 28.01100
C  1.08800 43.10400 28.95900
C  0.56900 43.07400 30.34700
C  -0.79100 42.22600 30.19200
C  -1.06800 42.49500 28.61400
C  -0.81200 40.72900 30.53800
C  0.40100 44.37500 30.97900
C  0.58800 44.44900 32.54800
H  0.32600 43.19600 33.39800
N  -1.72200 42.63200 25.62300
C  -2.60400 42.25000 26.64500
C  -3.84700 41.87500 25.97500
C  -3.59000 41.87200 24.58600
C  -2.27100 42.49400 24.35300
C  -4.98800 41.34200 26.77600
C  -4.43300 41.45000 23.42100
O  -4.25000 41.80800 22.28100
C  -5.72500 40.70700 23.79600
N  0.70100 43.48400 23.71100
C  -0.31000 43.27600 22.85800
C  0.25600 43.40100 21.49000
C  1.70700 43.99200 21.60600
C  1.84900 43.91300 23.13400
C  0.27200 42.07000 20.73400
C  1.82000 45.52900 21.13400
C  3.06800 45.82000 20.25900
N  2.42900 43.42400 26.01100
C  3.40700 43.75100 25.13300
C  4.68500 43.86300 25.78300
C  4.32500 43.65300 27.17300
C  2.93600 43.43200 27.27400
C  6.01300 44.26300 25.17200
C  4.93800 43.70600 28.45700
O  6.13100 43.80500 28.84000
C  3.68600 43.47000 29.42900
C  3.91800 42.36500 30.33100
O  3.63600 41.22000 30.16800
O  4.29000 42.96100 31.50100
C  4.34700 42.02600 32.61900
H  -3.07300 41.85100 28.68500
H  -2.17200 42.45800 22.24800
H  3.79000 44.56200 23.08300
H  1.27900 42.46300 30.90400
H  -1.67200 42.72800 30.59200
H  -1.56100 40.21100 29.94000
H  -0.97700 40.70300 31.61500
H  0.17600 40.31500 30.33500
H  -0.59100 44.75600 30.73800
H  1.23400 45.00000 30.65700
H  -0.02400 45.24500 32.97200
H  1.56100 44.88800 32.77100
H  -5.93500 41.83000 26.54500
H  -4.90200 41.72300 27.79300
H  -5.05200 40.25700 26.85800
H  -5.35000 39.98100 24.51800
H  -6.07300 40.13300 22.93700
H  -6.55300 41.40700 23.90800
H  -0.44500 44.08400 21.01000
H  2.55800 43.45200 21.19100
H  -0.28900 42.31700 19.83300
H  -0.20800 41.30100 21.33900
H  1.26300 41.73800 20.42500
H  2.00100 46.11700 22.03400
H  0.94500 45.98100 20.66700
H  3.57900 44.88600 20.02600
H  3.73000 46.46400 20.83800
H  2.71100 46.26400 19.33000
H  5.92700 44.41800 24.09700
H  6.73500 43.45000 25.25700
H  6.40400 45.13800 25.69100
H  3.44400 44.37800 29.98100
H  4.48800 42.65700 33.49700
H  5.18700 41.34700 32.47600
H  3.41500 41.46200 32.61000

