158

Mg 47.15500 44.73500 43.06600
C  43.70200 43.80300 42.60500
C  48.06600 41.41200 42.47200
C  50.34700 45.71300 42.82400
C  46.09000 48.08900 42.99800
N  46.00600 42.86200 42.69000
C  44.64600 42.67700 42.61600
C  44.25900 41.25000 42.65900
C  45.63800 40.47200 42.84600
C  46.60600 41.60800 42.65700
C  45.74700 39.59900 44.10300
C  43.47300 40.90300 41.36100
C  43.92400 41.68200 40.07700
H  43.59600 41.04000 38.71400
N  48.99500 43.73600 42.61800
C  49.14300 42.39000 42.48900
C  50.63500 42.13300 42.35500
C  51.26600 43.40600 42.41700
C  50.18100 44.35800 42.61900
C  51.26900 40.65200 42.21300
C  52.72100 43.55900 42.16000
O  53.43700 42.55000 42.01200
C  53.38000 44.93000 41.94900
N  48.07800 46.61600 43.02700
C  49.43200 46.76300 43.03400
C  49.95600 48.25500 43.12900
C  48.53800 48.99000 43.02700
C  47.47700 47.82500 42.92700
C  50.68800 48.53500 44.44000
C  48.56700 49.94000 41.77200
C  48.99400 51.33700 42.09100
N  45.31100 45.77900 42.93000
C  45.02600 47.11900 42.83500
C  43.62200 47.45000 42.70900
C  42.99300 46.14300 42.70700
C  44.11200 45.15800 42.80400
C  42.93300 48.79300 42.67100
C  41.82700 45.36100 42.65300
O  40.60400 45.70000 42.66000
C  42.24600 43.86600 42.71900
C  41.78700 43.38700 44.00900
O  41.00600 42.42300 44.09400
O  42.27600 44.09000 45.09400
C  41.93700 43.56400 46.35100
H  48.34100 40.36100 42.58300
H  51.41300 45.94900 42.80900
H  45.68200 49.09700 42.90000
H  43.64600 41.07400 43.54200
H  45.76100 39.83300 41.97100
H  44.75500 39.28200 44.42200
H  46.25900 40.31000 44.75100
H  46.32700 38.69400 43.92200
H  42.46600 41.27200 41.55200
H  43.44600 39.82200 41.22600
H  45.01300 41.63800 40.09200
H  43.41000 42.64300 40.11500
H  52.15000 40.46100 41.60000
H  50.41300 40.05900 41.89200
H  51.47100 40.31600 43.23000
H  52.80400 45.51600 41.23300
H  54.37700 44.76400 41.54100
H  53.40200 45.51800 42.86700
H  50.55300 48.55200 42.26700
H  48.33000 49.56100 43.93200
H  51.75900 48.62000 44.25600
H  50.65000 47.65300 45.07900
H  50.37400 49.46500 44.91500
H  47.64400 49.86800 41.19600
H  49.26300 49.50800 41.05200
H  49.08500 51.48500 43.16700
H  48.12400 51.89100 41.73800
H  49.86300 51.62200 41.49900
H  43.61200 49.61400 42.43800
H  42.34500 49.09400 43.53800
H  42.30200 48.78500 41.78300
H  41.78500 43.32900 41.89000
H  41.81100 42.48100 46.36200
H  40.96600 43.95400 46.65700
H  42.63100 43.84600 47.14200
Mg 47.56000 34.32600 28.22400
C  45.76500 32.48300 30.47900
C  47.49600 37.02800 30.33700
C  48.59600 36.46600 25.62400
C  47.11000 31.82000 25.82700
N  46.61400 34.74500 30.04100
C  46.06300 33.75700 30.89500
C  45.98500 34.29400 32.30100
C  46.12800 35.86300 32.01900
C  46.83300 35.87400 30.74200
C  44.70900 36.55900 31.95700
C  47.04900 33.67400 33.32700
C  47.88200 34.59700 34.18300
H  47.06800 35.34600 35.31400
N  48.17200 36.38000 28.07100
C  48.13400 37.26400 29.11800
C  48.80300 38.50400 28.77200
C  49.11100 38.37600 27.38700
C  48.61400 37.03700 26.93800
C  49.06700 39.71100 29.80500
C  49.74300 39.40100 26.50500
O  50.04800 39.16200 25.35400
C  50.11900 40.70200 27.00700
N  47.67400 34.23300 25.99100
C  48.17300 35.17500 25.18600
C  48.36600 34.74400 23.73700
C  48.28100 33.16900 23.91400
C  47.66200 33.02800 25.36600
C  47.27200 35.29400 22.82200
C  49.57600 32.37000 23.78800
C  49.50400 31.03700 23.02300
N  46.69400 32.42100 28.11900
C  46.60500 31.54200 27.10100
C  45.89000 30.35200 27.53300
C  45.50200 30.68000 28.88400
C  46.09700 31.92000 29.14200
C  45.46500 29.23500 26.64700
C  44.84200 30.22800 30.13300
O  44.34800 29.18400 30.41100
C  44.82600 31.50400 31.14600
C  45.18300 31.14400 32.57900
O  46.08300 30.42800 32.96700
O  44.20500 31.68500 33.42700
C  44.21000 31.27600 34.82000
H  47.54100 37.87500 31.02500
H  49.14200 37.00500 24.84700
H  47.13200 30.94600 25.17200
H  45.03500 33.96500 32.72200
H  46.83800 36.32100 32.70800
H  44.85200 37.31700 31.18700
H  44.46500 37.01600 32.91700
H  43.92600 35.87600 31.62900
H  47.73400 33.05200 32.75100
H  46.53200 33.00700 34.01700
H  48.58500 35.15100 33.56000
H  48.59500 34.03900 34.79100
H  48.74400 40.69700 29.46900
H  50.14300 39.85800 29.90400
H  48.67100 39.49300 30.79700
H  50.82700 40.55000 27.82200
H  49.26900 41.26600 27.39000
H  50.59500 41.29000 26.22200
H  49.32500 35.11700 23.37600
H  47.58900 32.77600 23.17000
H  46.71000 36.05400 23.36600
H  46.54600 34.62400 22.36200
H  47.63800 35.71600 21.88700
H  49.86200 32.16400 24.82000
H  50.37000 32.98300 23.36400
H  50.03100 31.10100 22.07100
H  48.45200 30.79100 22.87700
H  49.83300 30.23800 23.68800
H  45.56900 28.27100 27.14400
H  45.93500 29.28000 25.66400
H  44.43300 29.32300 26.30700
H  43.86500 32.01800 31.12300
H  43.77300 32.14100 35.31700
H  45.19500 31.23000 35.28500
H  43.72100 30.36400 35.16400

