158

Mg 16.41600 -1.77200 27.86900
C  15.56100 0.37900 30.40100
C  18.55500 -3.37900 30.25500
C  17.80900 -3.68400 25.34600
C  14.84200 0.20600 25.64600
N  17.00700 -1.51200 30.14400
C  16.35700 -0.67100 30.89800
C  16.79400 -0.77400 32.34000
C  17.89200 -1.87700 32.16100
C  17.83600 -2.30300 30.73500
C  19.37500 -1.58200 32.61200
C  15.45200 -1.12800 33.20100
C  15.57000 -1.06800 34.66200
H  16.82000 -0.36600 35.30000
N  17.87900 -3.41700 27.82900
C  18.58200 -3.91900 28.90600
C  19.29100 -5.11600 28.42900
C  19.04600 -5.29800 27.04600
C  18.19400 -4.12600 26.63800
C  19.93700 -6.09300 29.39400
C  19.43900 -6.28600 26.06100
O  18.92900 -6.28100 24.93300
C  20.34600 -7.46900 26.46300
N  16.54400 -1.63100 25.73700
C  17.00300 -2.66600 24.90600
C  16.86700 -2.17100 23.43200
C  15.78200 -1.01400 23.55900
C  15.69000 -0.77200 25.09600
C  18.19800 -1.78600 22.87100
C  14.42200 -1.38300 22.95500
C  13.97100 -0.50800 21.86800
N  15.36700 -0.03700 27.89800
C  14.75500 0.67900 26.94100
C  13.96000 1.70500 27.47400
C  14.25800 1.68700 28.86500
C  15.10400 0.52500 29.06500
C  13.14000 2.70500 26.72700
C  14.05400 2.36100 30.05900
O  13.47700 3.40300 30.26600
C  14.87400 1.61100 31.17300
C  15.92100 2.52800 31.75400
O  16.88200 3.00800 31.19200
O  15.48300 2.83300 32.98200
C  16.27000 3.58200 33.88600
H  19.23100 -3.83900 30.97800
H  18.21800 -4.24400 24.50200
H  14.27800 0.73200 24.87200
H  17.27700 0.11600 32.74400
H  17.64500 -2.69000 32.84400
H  19.41000 -0.82200 33.39200
H  19.82800 -1.12700 31.73100
H  19.89900 -2.48000 32.93900
H  15.35700 -2.18400 32.94800
H  14.56000 -0.60100 32.86400
H  15.46500 -2.08800 35.03100
H  14.80700 -0.42100 35.09400
H  19.79100 -7.11500 29.04500
H  19.46100 -5.97700 30.36800
H  20.98900 -5.86200 29.56100
H  20.94200 -7.68900 25.57700
H  19.77100 -8.35900 26.72100
H  21.06300 -7.15900 27.22300
H  16.52000 -3.06000 22.90400
H  16.13100 -0.14100 23.00700
H  18.34300 -0.71700 22.71500
H  18.31200 -2.18900 21.86500
H  19.05100 -2.12800 23.45700
H  13.61300 -1.50200 23.67500
H  14.62000 -2.29700 22.39600
H  14.42800 -0.87200 20.94800
H  14.25400 0.52500 22.07300
H  12.88600 -0.54400 21.76400
H  13.00600 2.38200 25.69400
H  13.73000 3.61900 26.78800
H  12.14400 2.77800 27.16400
H  14.13800 1.34300 31.93200
H  17.29200 3.57200 33.50500
H  16.16800 3.19200 34.89900
H  15.89900 4.60600 33.88800
Mg 41.73400 40.77500 27.02200
C  41.29500 43.42300 29.32700
C  42.73900 38.85900 29.63500
C  42.69500 38.51100 24.71300
C  41.20500 43.13900 24.45400
N  41.96700 41.14900 29.24900
C  41.64100 42.23700 29.95500
C  41.58400 41.95200 31.43500
C  42.27200 40.56000 31.51200
C  42.43300 40.17600 30.07500
C  43.64400 40.56000 32.27300
C  40.13400 42.04800 31.94300
C  39.88100 43.03800 33.05100
H  39.05400 42.61400 34.33000
N  42.34200 38.96100 27.17800
C  42.61700 38.28200 28.35000
C  42.92400 36.92900 28.02500
C  42.86000 36.81100 26.61200
C  42.57600 38.11500 26.11500
C  43.22200 35.86500 29.20100
C  42.95100 35.56200 25.74300
O  42.93000 35.57400 24.53200
C  42.96400 34.19200 26.45000
N  41.92000 40.77600 24.93500
C  42.46600 39.80000 24.17000
C  42.32800 40.06600 22.61600
C  41.66200 41.48100 22.61900
C  41.51700 41.81600 24.14700
C  43.57500 39.84400 21.64100
C  40.38500 41.58800 21.86500
C  39.09500 40.79300 22.40300
N  41.32700 42.87500 26.85500
C  41.16200 43.67100 25.73000
C  40.91300 45.00100 26.15500
C  40.80100 44.91700 27.54800
C  41.17900 43.65400 27.90100
C  40.61700 46.18600 25.25500
C  40.57300 45.68100 28.75000
O  40.19300 46.83600 28.81700
C  40.89300 44.73200 29.93800
C  41.97600 45.40300 30.76800
O  43.09000 45.74400 30.39800
O  41.46800 45.62900 32.07300
C  42.49900 46.14100 33.07000
H  42.85900 38.20800 30.50300
H  42.95400 37.76400 23.96100
H  40.95700 43.82500 23.64100
H  42.15800 42.76600 31.87900
H  41.75000 39.69400 31.91900
H  43.97000 41.50900 32.70000
H  44.38600 40.11900 31.60700
H  43.49200 39.93200 33.15000
H  39.99500 41.01500 32.26300
H  39.53100 42.20500 31.04900
H  39.32500 43.79200 32.49500
H  40.80200 43.47400 33.43700
H  43.52300 36.31000 30.14900
H  44.05300 35.21900 28.92000
H  42.45500 35.16800 29.54000
H  42.13300 34.18400 27.15500
H  43.91400 34.15600 26.98300
H  42.99400 33.41900 25.68200
H  41.50800 39.45300 22.24300
H  42.34000 42.21400 22.18200
H  43.26600 39.26500 20.77000
H  44.40900 39.34000 22.12800
H  43.94200 40.73500 21.13200
H  40.48700 41.13800 20.87800
H  40.15200 42.65300 21.84700
H  38.83200 39.97000 21.73900
H  38.22900 41.42400 22.60200
H  39.33500 40.33300 23.36200
H  40.32500 45.87700 24.25100
H  41.58000 46.66500 25.07700
H  39.83600 46.87800 25.57200
H  40.00100 44.59500 30.54900
H  43.50800 46.06600 32.66200
H  42.41600 45.52200 33.96300
H  42.40000 47.19200 33.34000

