158

Mg 42.98500 41.64900 25.81300
C  42.24900 43.84900 28.32600
C  44.20300 39.51700 28.01800
C  43.89000 39.82700 23.10800
C  41.87500 44.17300 23.39300
N  43.28600 41.75100 27.92000
C  42.86500 42.70400 28.79400
C  42.92600 42.24800 30.25600
C  43.71700 40.85700 30.13600
C  43.75600 40.72000 28.59200
C  45.07600 40.79400 30.92800
C  41.52300 42.15800 30.90000
C  41.51700 41.54700 32.29600
H  41.00500 42.28100 33.55700
N  43.91400 39.91800 25.63200
C  44.27100 39.15900 26.67200
C  44.70400 37.83000 26.15800
C  44.56300 37.92100 24.75200
C  44.10500 39.29600 24.41000
C  45.10400 36.78400 27.10200
C  44.76900 36.77600 23.76700
O  44.58600 36.96600 22.56100
C  45.20800 35.43100 24.25800
N  42.81800 42.01700 23.54200
C  43.39200 41.04600 22.70200
C  43.33100 41.53000 21.21400
C  42.47100 42.85700 21.36200
C  42.37300 43.03300 22.87600
C  44.77500 41.81000 20.57300
C  41.02000 42.72500 20.72600
C  40.08200 41.69900 21.48200
N  42.29600 43.65500 25.80600
C  41.79200 44.49600 24.78900
C  41.32100 45.73700 25.38900
C  41.44900 45.56100 26.80400
C  42.03300 44.26600 26.97000
C  40.80900 46.90500 24.60600
C  41.25900 46.10700 28.09200
O  40.84600 47.21500 28.40700
C  41.85200 45.04800 29.15300
C  42.88600 45.64900 29.94200
O  43.89400 46.23100 29.57300
O  42.52100 45.37600 31.26700
C  43.50500 45.82200 32.35000
H  44.47700 38.77200 28.76700
H  44.13700 39.18600 22.25900
H  41.52200 44.98100 22.74800
H  43.52600 42.94700 30.83800
H  43.10700 40.03400 30.50800
H  45.28300 41.72600 31.45400
H  45.83600 40.52800 30.19400
H  44.97200 40.01800 31.68600
H  40.83600 41.60200 30.26200
H  41.08600 43.11700 31.18100
H  42.50500 41.14300 32.51700
H  40.88900 40.65700 32.28200
H  45.30000 37.12400 28.11900
H  46.05700 36.37700 26.76400
H  44.48100 35.89000 27.06600
H  44.44500 34.95000 24.87000
H  46.14400 35.60200 24.78800
H  45.33100 34.78100 23.39100
H  42.90600 40.78800 20.53800
H  42.97100 43.76400 21.02000
H  44.98000 42.88100 20.55600
H  44.81700 41.32900 19.59600
H  45.51700 41.32700 21.20900
H  41.14100 42.51600 19.66300
H  40.51500 43.69100 20.71000
H  39.31300 42.24000 22.03200
H  40.59600 41.07700 22.21600
H  39.60400 41.06800 20.73300
H  40.25700 46.62400 23.70900
H  41.64200 47.52500 24.27400
H  40.11900 47.47200 25.23200
H  40.91800 44.81400 29.66300
H  44.42000 46.32900 32.04100
H  43.89300 44.87400 32.72200
H  42.97600 46.39400 33.11200
Mg 30.53000 57.11200 40.10200
C  27.75200 54.98700 39.33300
C  32.61900 54.52700 38.99700
C  33.07800 59.27700 40.12300
C  28.22300 59.74800 40.69100
N  30.20000 55.05700 39.11900
C  29.01300 54.34000 39.05700
C  29.26100 52.86700 38.60400
C  30.82300 52.70400 38.77500
C  31.26100 54.17800 38.96500
C  31.23600 51.81700 39.96400
C  28.79100 52.60800 37.14100
C  28.46500 53.74900 36.13300
H  28.56400 53.34800 34.62000
N  32.57300 56.87800 39.72400
C  33.18700 55.78100 39.26900
C  34.64000 56.00700 39.13400
C  34.85800 57.25400 39.67000
C  33.46800 57.88600 39.84400
C  35.68600 54.84200 38.85000
C  36.18300 57.85800 39.96600
O  37.18700 57.24700 39.70000
C  36.40900 59.21500 40.48900
N  30.63200 59.27400 40.29200
C  31.83500 59.92100 40.32200
C  31.64800 61.39600 40.59500
C  30.07200 61.59800 40.85200
C  29.58400 60.10300 40.56700
C  32.55100 61.93600 41.70800
C  29.27500 62.69100 39.97900
C  29.52600 64.09500 40.48500
N  28.44800 57.46700 39.96700
C  27.70600 58.54200 40.22900
C  26.29200 58.22200 40.00100
C  26.27200 56.74700 39.68000
C  27.68000 56.38700 39.67300
C  25.12900 59.23400 40.21300
C  25.40100 55.66200 39.46300
O  24.14800 55.61800 39.55100
C  26.29700 54.39200 39.23400
C  25.93400 53.28400 40.13500
O  26.47800 52.93800 41.15900
O  24.94400 52.51100 39.52000
C  24.68900 51.19500 40.07500
H  33.22900 53.64200 38.80400
H  33.94500 59.94100 40.14500
H  27.53300 60.56200 40.92400
H  28.74200 52.24400 39.33200
H  31.23500 52.27600 37.86100
H  31.94100 51.02800 39.70400
H  30.39200 51.33500 40.45900
H  31.67500 52.43100 40.75000
H  27.94200 51.93000 37.22400
H  29.60400 51.99600 36.75100
H  29.23500 54.48500 36.36700
H  27.47600 54.15500 36.34200
H  36.58500 55.16700 38.32600
H  35.12400 54.10200 38.28100
H  36.06600 54.32000 39.72900
H  35.75800 59.34000 41.35400
H  36.35700 60.05100 39.79100
H  37.45700 59.26200 40.78400
H  31.89700 61.92000 39.67200
H  29.90700 61.75300 41.91800
H  33.49200 61.39200 41.63900
H  32.05800 61.80400 42.67100
H  32.92500 62.94000 41.50800
H  28.20000 62.53000 40.05600
H  29.58100 62.71300 38.93300
H  30.33100 64.05800 41.21800
H  28.61100 64.62400 40.75300
H  30.11500 64.67900 39.77800
H  24.32200 59.00000 39.51900
H  25.54200 60.22100 40.00400
H  24.75100 59.34200 41.23000
H  26.03600 54.16800 38.20000
H  23.73300 51.29900 40.58700
H  25.42100 50.86800 40.81300
H  24.74300 50.54600 39.20100

