158

Mg 41.41300 7.67300 29.62400
C  42.85200 8.97300 32.52900
C  38.99700 6.19200 31.69000
C  40.09000 6.11200 26.90400
C  44.16500 8.68700 27.74300
N  40.93400 7.64800 31.93300
C  41.72000 8.27800 32.88500
C  41.13500 7.96500 34.30200
C  39.93600 6.98400 33.94800
C  39.97900 6.85100 32.44200
C  39.93900 5.65500 34.72400
C  40.66800 9.24300 35.14000
C  40.80800 9.26200 36.72600
H  40.92100 10.58400 37.29400
N  39.67800 6.54600 29.29800
C  38.83900 6.00500 30.27800
C  37.77600 5.32200 29.59200
C  37.99000 5.43800 28.24800
C  39.29000 6.06200 28.08600
C  36.64100 4.53900 30.37600
C  37.05000 5.09600 27.13200
O  37.42300 4.98200 25.96700
C  35.65400 4.69200 27.44500
N  42.03000 7.44000 27.58000
C  41.26900 6.81000 26.68300
C  41.88600 6.99600 25.26200
C  43.06300 7.97700 25.44500
C  43.06700 8.06700 26.96900
C  42.25200 5.61400 24.62600
C  42.94000 9.39900 24.84900
C  41.76700 10.33300 25.28100
N  43.10800 8.68700 29.97400
C  44.18100 8.98800 29.14300
C  45.12300 9.75000 29.92600
C  44.63800 9.81900 31.21700
C  43.42800 9.07400 31.22300
C  46.44600 10.33400 29.54100
C  44.76700 10.42200 32.50500
O  45.64400 11.15800 32.88600
C  43.61900 9.83300 33.44300
C  44.32100 9.19400 34.51400
O  44.79000 8.06700 34.45000
O  44.19300 9.96000 35.62000
C  44.84200 9.66700 36.87200
H  38.20500 5.71500 32.27200
H  39.62600 5.57300 26.07500
H  44.98400 9.07200 27.13200
H  41.91900 7.47300 34.87700
H  39.04900 7.47200 34.35200
H  40.79100 5.65200 35.40400
H  40.14700 4.90600 33.96000
H  38.97600 5.45800 35.19700
H  39.64600 9.40700 34.80100
H  41.26900 10.03800 34.69800
H  41.68700 8.74100 37.10500
H  39.89900 8.75900 37.05500
H  36.91400 4.38300 31.42000
H  36.27900 3.62700 29.90200
H  35.74600 5.14000 30.53800
H  35.09300 4.63700 26.51300
H  35.15000 5.29900 28.19800
H  35.79700 3.66200 27.77100
H  41.09500 7.47200 24.68200
H  44.02200 7.56600 25.12800
H  42.22900 4.87700 25.42900
H  43.27300 5.64400 24.24400
H  41.67300 5.35700 23.73900
H  42.96900 9.32900 23.76200
H  43.85800 9.93400 25.09400
H  42.15300 11.09900 25.95400
H  41.01500 9.68200 25.72900
H  41.31600 10.77200 24.39100
H  47.03100 9.42100 29.43700
H  46.86000 11.03200 30.27000
H  46.35400 10.77800 28.55000
H  43.02600 10.68400 33.77700
H  45.12200 8.62100 36.75000
H  44.13600 9.61600 37.70100
H  45.70200 10.26200 37.17800
Mg -0.73000 44.25900 26.33900
C  1.77400 43.64400 28.75300
C  -3.07000 43.81300 28.91100
C  -3.20300 44.64600 24.06300
C  1.69000 44.28700 23.81100
N  -0.64200 43.67900 28.49600
C  0.49500 43.64900 29.30300
C  0.10100 43.51600 30.80000
C  -1.43500 43.30200 30.72900
C  -1.76700 43.59800 29.30600
C  -1.92800 42.05100 31.35600
C  0.50900 44.73900 31.77200
C  0.44600 44.52000 33.27900
H  0.39800 43.12200 33.95700
N  -2.89500 44.23700 26.44800
C  -3.64300 44.07800 27.61200
C  -5.03300 44.35200 27.28800
C  -5.09600 44.64000 25.87700
C  -3.68300 44.43300 25.38900
C  -6.11500 44.32800 28.29500
C  -6.32600 45.03500 25.00400
O  -6.28100 45.02600 23.78400
C  -7.54500 45.57300 25.70000
N  -0.76900 44.28100 24.21700
C  -1.90600 44.60300 23.53300
C  -1.62800 44.81000 22.03100
C  -0.12400 44.90600 22.03300
C  0.32700 44.35000 23.40600
C  -2.20900 43.67600 21.11300
C  0.43400 46.29200 21.78800
C  1.57700 46.32100 20.71200
N  1.37900 44.00300 26.25200
C  2.18700 44.02700 25.13400
C  3.55600 43.80200 25.55800
C  3.45800 43.71700 26.96900
C  2.10500 43.76100 27.34900
C  4.75200 43.97200 24.56300
C  4.20200 43.52800 28.20200
O  5.37200 43.39400 28.35900
C  3.14000 43.46200 29.42800
C  3.29600 42.25900 30.20200
O  3.09400 41.10200 29.79100
O  3.85300 42.51900 31.45900
C  4.18900 41.43700 32.34200
H  -3.85300 43.80800 29.67200
H  -3.88300 44.82800 23.22900
H  2.40400 44.36100 22.98700
H  0.73000 42.66800 31.06800
H  -1.92600 44.10200 31.28400
H  -1.22100 41.63400 32.07300
H  -1.93300 41.30200 30.56400
H  -2.96900 42.10200 31.67700
H  -0.02400 45.63300 31.44900
H  1.53400 44.89800 31.43700
H  -0.31000 45.18800 33.69200
H  1.40200 44.97400 33.54100
H  -7.03700 44.14300 27.74400
H  -6.09200 45.22700 28.91000
H  -5.94400 43.37400 28.79400
H  -8.14300 46.06500 24.93300
H  -7.14500 46.40600 26.27800
H  -8.20000 44.90100 26.25400
H  -1.99100 45.77100 21.66700
H  0.19200 44.11200 21.35600
H  -2.41600 44.00400 20.09400
H  -3.07500 43.12600 21.47900
H  -1.49500 42.85500 21.04600
H  0.92200 46.68700 22.67800
H  -0.28200 47.10600 21.68000
H  1.30900 46.83600 19.79000
H  1.81500 45.28900 20.45700
H  2.46800 46.78000 21.14000
H  4.75300 43.22400 23.77000
H  5.63100 43.85700 25.19800
H  4.74100 44.97300 24.13200
H  3.44600 44.33200 30.00800
H  5.27800 41.43000 32.29400
H  3.79500 40.45300 32.08700
H  3.80900 41.63700 33.34400

