158

Mg 48.31600 34.82100 26.28800
C  46.21100 33.36000 28.85400
C  48.59500 37.52000 28.31200
C  49.47800 36.40500 23.72300
C  47.40700 32.02100 24.34600
N  47.47700 35.26900 28.36100
C  46.83600 34.52000 29.23700
C  46.90900 35.02200 30.70600
C  47.33600 36.51700 30.39900
C  47.90400 36.39700 28.95400
C  46.34100 37.73300 30.61300
C  48.05100 34.24700 31.47200
C  47.80300 33.99200 32.99000
H  46.89000 34.89500 33.70000
N  49.14800 36.66000 26.13400
C  49.16400 37.63500 27.03400
C  49.93100 38.75800 26.49300
C  50.24200 38.45600 25.18100
C  49.59900 37.17300 24.97000
C  50.26200 39.92800 27.36200
C  51.02100 39.29600 24.14800
O  51.04100 39.04900 22.95400
C  51.74100 40.57400 24.56100
N  48.21800 34.41500 24.15100
C  48.85400 35.21100 23.32600
C  49.39000 34.34200 22.13500
C  48.87800 32.85500 22.46000
C  48.13700 33.10300 23.74800
C  49.02000 34.89500 20.75600
C  49.98200 31.82000 22.61900
C  50.04500 30.60700 21.60600
N  47.15700 32.96500 26.50500
C  46.81500 32.02600 25.67200
C  46.00900 31.01000 26.25800
C  45.75000 31.51400 27.48000
C  46.37800 32.78400 27.59800
C  45.52400 29.70500 25.72200
C  45.11200 31.22700 28.73200
O  44.60400 30.18800 29.13500
C  45.29300 32.42400 29.62600
C  45.74500 31.84200 30.94800
O  46.80300 31.20400 31.15200
O  44.73300 32.06500 31.82700
C  44.81200 31.46300 33.18600
H  48.91300 38.30900 28.99600
H  50.07400 36.91500 22.96300
H  47.31300 31.12100 23.73400
H  46.05200 34.89500 31.36700
H  48.18900 36.85100 30.99000
H  46.81500 38.65900 30.94000
H  45.57600 37.57400 31.37400
H  45.91400 37.90900 29.62600
H  48.99900 34.78500 31.42900
H  48.23800 33.31900 30.93200
H  48.77100 34.29200 33.39100
H  47.61100 32.94800 33.23700
H  51.30000 40.20400 27.18000
H  50.15500 39.76500 28.43400
H  49.52300 40.68900 27.11300
H  52.39700 41.06200 23.84000
H  52.40700 40.19000 25.33400
H  51.06500 41.37100 24.87200
H  50.47800 34.36600 22.19100
H  48.28200 32.46000 21.63800
H  48.77800 35.94900 20.89300
H  48.11400 34.50400 20.29400
H  49.82000 34.82200 20.02000
H  49.99200 31.50500 23.66300
H  50.94300 32.32900 22.55200
H  50.95200 30.71300 21.01100
H  49.20900 30.59000 20.90600
H  50.04800 29.72300 22.24300
H  46.01700 29.53900 24.76400
H  44.46400 29.63700 25.47500
H  45.63200 28.95700 26.50700
H  44.29800 32.84900 29.76000
H  45.76200 30.97900 33.41000
H  43.94800 30.82400 33.37000
H  44.65000 32.25000 33.92300
Mg 6.21900 54.03100 40.87300
C  5.24200 50.69300 40.67500
C  9.28400 53.09600 39.64900
C  6.89400 57.22900 40.16900
C  2.78400 54.82400 41.61300
N  7.15000 52.09600 40.31700
C  6.57500 50.84100 40.36000
C  7.58100 49.76000 39.92800
C  8.92900 50.55900 40.03700
C  8.46300 52.03100 39.97800
C  9.93500 50.12400 41.18400
C  7.41300 49.14400 38.48000
C  6.62300 49.91800 37.43800
H  7.39900 50.67900 36.32200
N  7.91800 55.07600 40.03300
C  9.12200 54.45100 39.68000
C  10.07800 55.42800 39.31200
C  9.39800 56.67100 39.31600
C  7.97900 56.38700 39.78900
C  11.53600 55.10200 38.97100
C  9.95600 57.96400 38.96100
O  11.10600 58.07000 38.61600
C  9.09600 59.27000 38.87800
N  4.88300 55.77000 40.69700
C  5.53300 56.99300 40.55200
C  4.47500 58.11000 40.70400
C  3.18000 57.31800 41.13800
C  3.64700 55.86800 41.17600
C  4.89200 59.08600 41.82900
C  1.84900 57.54100 40.28400
C  0.47000 57.64200 40.92600
N  4.32400 53.00200 41.12100
C  3.06000 53.49200 41.54000
C  2.20100 52.39900 41.79700
C  3.00800 51.28000 41.47900
C  4.27600 51.71000 41.05200
C  0.79200 52.40400 42.19900
C  3.06900 49.81000 41.45500
O  2.20900 48.94300 41.83500
C  4.49800 49.33600 40.94200
C  4.38700 48.48000 39.76000
O  3.79900 48.83300 38.74700
O  5.04600 47.32300 40.06300
C  5.03300 46.25800 39.02100
H  10.25600 52.64900 39.42900
H  7.06900 58.30200 40.27100
H  1.78900 55.16400 41.91100
H  7.54700 48.92500 40.62700
H  9.57500 50.46500 39.16400
H  10.79300 49.56800 40.80500
H  9.44800 49.50500 41.93700
H  10.33600 50.98200 41.72300
H  6.93700 48.16400 38.50800
H  8.32400 49.00600 37.89900
H  6.14400 50.69200 38.03800
H  5.75600 49.38000 37.05500
H  11.71000 54.02600 38.99700
H  12.24700 55.36800 39.75200
H  11.75600 55.41000 37.94900
H  8.13400 58.98100 38.45500
H  9.62300 60.03700 38.31100
H  9.08700 59.77100 39.84600
H  4.54700 58.54000 39.70500
H  2.87900 57.55400 42.15900
H  5.35500 59.94200 41.33700
H  5.63100 58.54600 42.41900
H  4.14900 59.42200 42.55200
H  1.90600 56.65600 39.65100
H  2.03600 58.43800 39.69300
H  -0.02000 58.44400 40.37400
H  0.59600 57.91900 41.97300
H  -0.05500 56.68800 40.89200
H  0.26200 52.15600 41.27900
H  0.47900 53.34200 42.65900
H  0.63100 51.60500 42.92200
H  4.98400 48.86600 41.79700
H  5.92500 45.66800 39.23000
H  5.05900 46.61900 37.99300
H  4.04700 45.79900 39.09700

