158

Mg 45.51700 3.68700 47.48800
C  43.21800 6.16600 46.88200
C  43.02700 1.32900 47.01900
C  47.92100 1.32400 46.98000
C  48.05200 6.04900 47.19700
N  43.43400 3.76500 46.83700
C  42.62300 4.92100 46.67300
C  41.17600 4.64000 46.53500
C  41.12400 3.04500 46.81000
C  42.60100 2.65000 46.94900
C  40.14800 2.58000 47.96700
C  40.60700 5.01300 45.15100
C  39.54900 6.10100 45.13400
H  39.67000 7.18800 44.05500
N  45.53200 1.71300 47.22900
C  44.35100 0.93100 47.06500
C  44.80800 -0.46100 47.10900
C  46.19500 -0.48300 47.00700
C  46.60200 0.89200 47.09700
C  43.85500 -1.61600 47.03700
C  46.97300 -1.80000 46.73200
O  46.38500 -2.86600 46.74100
C  48.47700 -1.86100 46.36300
N  47.74200 3.69300 47.10500
C  48.47200 2.58600 46.91100
C  49.93500 2.88300 46.58900
C  50.06400 4.39800 46.85000
C  48.54500 4.74700 47.03600
C  51.05900 1.98800 47.27900
C  50.80000 5.15500 45.74500
C  52.33400 5.22500 45.79300
N  45.67800 5.71000 47.31300
C  46.77700 6.53900 47.40800
C  46.35400 7.94600 47.36200
C  44.89500 7.81700 47.12800
C  44.60100 6.46800 47.15000
C  47.18900 9.08600 47.49000
C  43.65000 8.56500 47.01100
O  43.49400 9.77400 47.13500
C  42.54600 7.53800 46.73200
C  41.56400 7.76100 47.74400
O  41.64100 7.39800 48.94800
O  40.47900 8.36900 47.20000
C  39.34800 8.63500 48.10200
H  42.30900 0.50700 46.99500
H  48.58300 0.47100 47.14300
H  48.90100 6.73100 47.12500
H  40.68000 5.27600 47.26800
H  40.87700 2.57200 45.85900
H  39.62200 1.73000 47.53200
H  39.47400 3.43000 48.06200
H  40.65600 2.29600 48.88900
H  40.15500 4.11500 44.73100
H  41.44700 5.32300 44.53000
H  39.40100 6.50800 46.13400
H  38.64900 5.51000 44.96300
H  42.80900 -1.31200 47.07000
H  44.09900 -2.36100 47.79500
H  44.00300 -2.07200 46.05800
H  48.69700 -2.78600 45.82900
H  48.98200 -1.76600 47.32400
H  48.72800 -1.03100 45.70200
H  50.02100 2.75800 45.51000
H  50.47600 4.52800 47.85100
H  51.67700 1.40500 46.59700
H  50.67900 1.28900 48.02300
H  51.79500 2.60900 47.78800
H  50.54700 6.21500 45.76000
H  50.50700 4.78000 44.76500
H  52.80400 4.51800 45.11000
H  52.73100 4.96400 46.77400
H  52.68300 6.21000 45.48300
H  46.68900 9.90400 46.97300
H  48.14300 8.87700 47.00500
H  47.36300 9.37800 48.52500
H  42.20500 7.77300 45.72300
H  38.78000 9.43700 47.63000
H  39.59500 8.85800 49.14000
H  38.69900 7.76200 48.02800
Mg 48.32300 45.39400 42.14500
C  44.95100 46.16100 41.16000
C  47.80100 42.26500 40.82600
C  51.50500 44.85500 42.32100
C  48.82000 48.88000 42.50100
N  46.63200 44.46300 41.06300
C  45.38400 44.94700 40.75100
C  44.52500 43.92600 40.06600
C  45.31400 42.61600 40.32900
C  46.67500 43.17400 40.73800
C  44.72800 41.68700 41.42600
C  44.22100 44.08400 38.55700
C  43.05900 43.24700 37.99800
H  43.34500 42.51000 36.64500
N  49.49900 43.77800 41.80100
C  49.08300 42.54000 41.25000
C  50.22300 41.62900 41.17700
C  51.35200 42.37500 41.66800
C  50.79900 43.73000 42.06900
C  50.11200 40.20300 40.67600
C  52.67400 41.78100 42.01300
O  52.91000 40.59700 41.80600
C  53.73300 42.49600 42.73200
N  49.95500 46.67600 42.42200
C  51.21600 46.15600 42.48600
C  52.25400 47.21100 42.54300
C  51.40300 48.54500 42.46200
C  49.96100 48.00600 42.55100
C  53.44800 47.26300 43.58100
C  51.61000 49.56800 41.26500
C  51.57800 51.10100 41.60900
N  47.09300 47.16500 42.10700
C  47.45600 48.45000 42.42100
C  46.20300 49.17000 42.54700
C  45.18000 48.37400 41.98900
C  45.80300 47.15100 41.70200
C  46.01900 50.52100 43.12600
C  43.80300 48.24400 41.67500
O  42.85600 48.95300 41.75900
C  43.66600 46.84800 40.88100
C  42.51400 45.96700 41.39300
O  41.52700 45.61300 40.74600
O  42.81000 45.52400 42.66800
C  41.97100 44.54200 43.24900
H  47.67800 41.25200 40.43700
H  52.59200 44.74600 42.30600
H  48.74700 49.94700 42.72500
H  43.56300 43.95800 40.57700
H  45.29700 42.00800 39.42400
H  45.30500 41.69000 42.35100
H  44.53300 40.72100 40.96000
H  43.70000 42.02500 41.55400
H  45.08300 43.76100 37.97300
H  43.96200 45.12400 38.36100
H  42.21400 43.87100 37.70600
H  42.81700 42.52000 38.77400
H  49.26300 39.93300 40.04900
H  49.85200 39.63200 41.56700
H  50.95900 39.76000 40.15200
H  53.36600 43.02800 43.61000
H  54.15100 43.24200 42.05700
H  54.50000 41.78500 43.03800
H  52.70800 47.06300 41.56300
H  51.48200 49.05300 43.42300
H  54.41800 47.14300 43.09900
H  53.31700 46.39400 44.22600
H  53.51000 48.11200 44.26200
H  50.72400 49.35500 40.66700
H  52.48000 49.23400 40.69900
H  52.58100 51.47400 41.40100
H  51.22600 51.16400 42.63900
H  50.85400 51.61400 40.97500
H  46.53400 50.63700 44.08000
H  44.96800 50.75200 43.29700
H  46.44000 51.23700 42.42000
H  43.43600 47.08500 39.84200
H  42.03100 44.42600 44.33100
H  42.18500 43.58400 42.77500
H  40.91600 44.80400 43.16300

