158

Mg 24.82600 1.64900 30.15100
C  26.95200 1.04900 32.79300
C  22.10800 1.53400 32.26700
C  22.79800 1.71700 27.33500
C  27.49000 1.00400 27.86300
N  24.54600 1.29100 32.36800
C  25.57300 1.30100 33.23600
C  25.08900 1.64800 34.61500
C  23.53600 1.55700 34.48800
C  23.35600 1.49600 32.96400
C  22.78500 0.32100 35.12500
C  25.60500 3.03400 35.05400
C  26.76100 2.99900 36.09100
H  26.42500 3.94300 37.29900
N  22.70700 1.58400 29.86200
C  21.79900 1.47500 30.81900
C  20.46400 1.47100 30.24800
C  20.63500 1.58700 28.84000
C  22.09700 1.71400 28.63900
C  19.22300 1.28200 31.09700
C  19.50100 1.77700 27.74200
O  19.65500 2.23600 26.59600
C  18.11500 1.25900 28.08700
N  25.10200 1.56700 27.91800
C  24.14000 1.64900 27.02000
C  24.63700 1.74900 25.62200
C  26.18400 1.64800 25.81500
C  26.26900 1.43800 27.29200
C  24.05000 0.81500 24.56100
C  26.93800 2.86900 25.15500
C  26.96500 4.14600 26.05200
N  26.89700 1.07600 30.23700
C  27.78700 0.93600 29.23800
C  29.10100 0.71700 29.88100
C  28.81000 0.68800 31.26700
C  27.40000 0.88000 31.46000
C  30.45700 0.62000 29.18000
C  29.36900 0.61200 32.65300
O  30.55700 0.59200 32.98800
C  28.17200 0.91800 33.66100
C  28.05500 -0.23000 34.57900
O  27.54700 -1.26700 34.36000
O  28.64400 0.04500 35.77200
C  28.36100 -0.93800 36.88600
H  21.26700 1.67400 32.94900
H  22.19800 1.74600 26.42400
H  28.29400 0.91300 27.12900
H  25.34300 0.89100 35.35800
H  22.97400 2.44600 34.77400
H  23.37400 -0.35000 35.75000
H  22.30500 -0.31600 34.38100
H  22.04800 0.78400 35.78100
H  24.76600 3.65500 35.36800
H  25.92800 3.64700 34.21200
H  27.66200 3.42400 35.64900
H  27.00300 1.97800 36.38500
H  18.47800 2.00000 30.75600
H  19.42000 1.56200 32.13200
H  18.81400 0.27500 31.18300
H  18.06400 0.28700 28.57900
H  17.59600 1.28800 27.12900
H  17.70700 2.04700 28.72000
H  24.51900 2.76300 25.23800
H  26.42200 0.67500 25.38400
H  23.53300 1.28800 23.72700
H  23.45500 0.10900 25.14000
H  24.86300 0.21600 24.15000
H  26.61000 3.13200 24.14900
H  27.96900 2.54100 25.02700
H  26.33800 4.08000 26.94200
H  26.60000 4.92500 25.38300
H  27.99000 4.42700 26.29600
H  30.54200 1.32900 28.35600
H  30.57800 -0.38200 28.76800
H  31.17800 0.88300 29.95400
H  28.40800 1.82300 34.22100
H  27.44800 -0.56200 37.34800
H  29.24900 -0.92200 37.51900
H  28.15600 -1.93700 36.50100
Mg 53.97600 24.68800 44.58100
C  51.32300 26.73700 44.13800
C  51.69600 22.04700 43.62000
C  56.54200 22.66800 43.99200
C  56.07600 27.40200 45.19100
N  51.77500 24.37900 43.90400
C  50.96700 25.46800 43.87300
C  49.51300 25.01000 43.54600
C  49.53900 23.49200 43.98200
C  51.05900 23.29000 43.80600
C  48.94900 23.15300 45.40500
C  49.18700 25.19800 42.04300
C  50.37900 25.30300 41.05900
H  49.96800 24.99900 39.57200
N  54.13600 22.62200 44.05900
C  53.10100 21.73100 43.72100
C  53.69900 20.47700 43.37500
C  55.08500 20.53100 43.67700
C  55.30400 21.99900 43.95900
C  52.86200 19.22100 43.04100
C  56.15900 19.46000 43.57400
O  55.84000 18.32100 43.34100
C  57.59800 19.64900 44.01400
N  55.99500 25.03600 44.40100
C  56.89600 24.04500 44.16700
C  58.38100 24.53900 44.31100
C  58.18700 26.10500 44.55900
C  56.64600 26.22800 44.73300
C  59.21400 23.92900 45.51200
C  58.86400 27.04500 43.44500
C  58.10500 27.11200 42.15900
N  53.77800 26.66300 44.82700
C  54.69100 27.68100 45.12800
C  53.92900 28.92200 45.27400
C  52.64900 28.56400 44.86000
C  52.60100 27.19300 44.60400
C  54.54000 30.17100 45.71900
C  51.32700 29.12800 44.63900
O  50.99700 30.28400 44.66200
C  50.41100 27.95600 44.20100
C  49.72700 28.46500 42.95900
O  50.24900 28.55800 41.84300
O  48.39600 28.77100 43.27100
C  47.64300 29.12400 42.07000
H  51.08900 21.16600 43.40100
H  57.41700 22.04000 43.80900
H  56.80000 28.16300 45.49100
H  48.85500 25.63700 44.14900
H  48.90300 23.00300 43.24300
H  49.68400 22.75600 46.10500
H  48.09100 22.49100 45.29100
H  48.54600 24.02700 45.91700
H  48.49100 26.03700 42.06200
H  48.60400 24.33600 41.71900
H  51.21700 24.65200 41.31000
H  50.74900 26.32700 41.10700
H  51.86200 19.46300 42.68200
H  52.70500 18.70200 43.98700
H  53.47900 18.70600 42.30500
H  58.06200 18.68700 44.23200
H  57.62500 20.19500 44.95700
H  58.24000 20.14900 43.28900
H  58.86800 24.40700 43.34500
H  58.54500 26.46600 45.52400
H  60.16100 23.62600 45.06500
H  58.67800 23.06200 45.89600
H  59.45000 24.71400 46.23100
H  59.86600 26.62900 43.33700
H  58.97800 28.05500 43.84000
H  57.16000 26.57000 42.12500
H  58.65500 26.83800 41.25900
H  57.79700 28.14600 42.00500
H  54.18500 30.93600 45.02800
H  55.62700 30.14400 45.78500
H  54.03700 30.38400 46.66300
H  49.68600 27.90400 45.01200
H  48.14900 29.81000 41.39100
H  46.79700 29.75000 42.35300
H  47.29300 28.29700 41.45200

