158

Mg 17.12800 -2.19300 28.11700
C  15.88200 -0.03100 30.44800
C  19.06800 -3.60400 30.58300
C  18.81900 -3.93500 25.90800
C  15.64200 -0.37800 25.67400
N  17.57100 -1.73100 30.20400
C  16.75300 -0.97200 30.96700
C  17.04800 -1.14800 32.42100
C  18.33400 -1.96700 32.43200
C  18.39200 -2.46300 31.01400
C  19.61200 -1.15500 32.77700
C  15.87700 -1.68800 33.33600
C  15.78200 -1.48000 34.88900
H  17.00700 -0.80300 35.67800
N  18.46000 -3.77700 28.26400
C  19.14300 -4.20900 29.33700
C  19.83200 -5.38700 29.06500
C  19.80400 -5.56200 27.62600
C  18.97200 -4.40600 27.22700
C  20.48200 -6.20700 30.13600
C  20.45600 -6.55500 26.66400
O  20.44300 -6.53000 25.44300
C  21.23500 -7.65700 27.22600
N  17.24000 -2.15300 26.15200
C  17.96200 -3.01000 25.40100
C  17.75600 -2.74900 23.85400
C  16.67700 -1.60000 23.88000
C  16.47800 -1.39900 25.31600
C  19.15700 -2.49100 23.07500
C  15.46700 -1.80400 22.84100
C  15.23700 -0.57100 21.90600
N  15.93200 -0.58100 27.99500
C  15.31900 0.03800 26.95800
C  14.43600 1.11200 27.40700
C  14.70600 1.12200 28.79600
C  15.56500 0.06600 29.09100
C  13.62600 1.98900 26.55100
C  14.35300 1.83000 30.03900
O  13.74400 2.91900 30.17100
C  15.08900 1.00600 31.19900
C  16.04400 1.98200 31.70400
O  17.01100 2.39800 31.12700
O  15.56900 2.52400 32.87600
C  16.47000 3.40300 33.56400
H  19.60600 -4.05000 31.42200
H  19.34700 -4.59300 25.21500
H  15.04700 0.24600 25.00400
H  17.29900 -0.17800 32.85100
H  18.18500 -2.71600 33.21000
H  20.36000 -1.56900 32.10000
H  20.08900 -1.35400 33.73600
H  19.47300 -0.07700 32.70700
H  15.81400 -2.77000 33.22000
H  14.87200 -1.32200 33.12800
H  15.52700 -2.42800 35.36200
H  14.92400 -0.82500 35.04300
H  20.47600 -5.83500 31.16100
H  21.50300 -6.46400 29.85500
H  19.98400 -7.17600 30.14100
H  22.10500 -7.27100 27.75800
H  21.61400 -8.19500 26.35800
H  20.52900 -8.27500 27.78200
H  17.26200 -3.65600 23.50700
H  17.28500 -0.73600 23.61100
H  19.37400 -1.42400 23.03500
H  18.98900 -2.91800 22.08600
H  19.98600 -2.97100 23.59600
H  14.56900 -1.82900 23.45800
H  15.59000 -2.75000 22.31400
H  14.38200 -0.00200 22.26900
H  15.10500 -0.92300 20.88300
H  16.10600 0.08600 21.94700
H  14.22600 2.84400 26.24000
H  12.77500 2.29300 27.16000
H  13.23700 1.37400 25.73900
H  14.52300 0.70900 32.08200
H  16.98500 2.77800 34.29300
H  15.76800 4.10600 34.01100
H  17.22100 3.94300 32.98700
Mg 16.81700 52.08500 25.99800
C  18.42200 50.48400 28.70100
C  14.71100 53.37000 28.25400
C  15.36800 53.38500 23.45100
C  19.16900 50.31900 23.84200
N  16.51000 51.86100 28.30300
C  17.29600 51.18000 29.17600
C  16.82000 51.41900 30.67400
C  15.50400 52.25700 30.38300
C  15.56300 52.55900 28.92500
C  14.09800 51.71300 30.80200
C  17.87600 52.29500 31.37000
C  18.28500 51.82700 32.88200
H  17.61200 52.56800 33.95800
N  15.17600 53.21100 25.80500
C  14.50900 53.72500 26.87400
C  13.42800 54.55500 26.39900
C  13.64600 54.67200 25.00100
C  14.73200 53.73600 24.66100
C  12.47000 55.34300 27.19700
C  12.84800 55.38500 23.91500
O  13.14500 55.39200 22.71100
C  11.55000 56.21800 24.24500
N  17.07100 51.70200 23.92100
C  16.40000 52.47300 23.07800
C  16.90500 52.34200 21.64300
C  18.21200 51.46800 21.79000
C  18.17100 51.13200 23.26400
C  15.88500 52.10100 20.47600
C  19.55300 52.28600 21.42200
C  19.84000 53.62600 22.08300
N  18.48200 50.69300 26.16300
C  19.34300 50.11900 25.20000
C  20.41900 49.47300 25.88700
C  20.12300 49.52700 27.23500
C  18.92000 50.22100 27.34400
C  21.56100 48.89300 25.12500
C  20.55800 49.25000 28.61600
O  21.49300 48.65300 29.01700
C  19.43500 49.85900 29.62100
C  18.82000 48.90700 30.51800
O  17.92300 48.13600 30.23000
O  19.53300 48.97800 31.65400
C  19.14900 48.12100 32.77700
H  13.99300 53.87500 28.90200
H  14.97900 53.74300 22.49600
H  19.92700 49.87800 23.19100
H  16.59000 50.51700 31.24100
H  15.49500 53.26700 30.79300
H  13.78800 51.17100 29.90800
H  13.43300 52.51300 31.12800
H  14.23100 51.03100 31.64200
H  17.41200 53.24000 31.65500
H  18.79000 52.54400 30.83300
H  19.34700 52.02200 33.02700
H  18.12400 50.75100 32.95700
H  11.45700 54.94000 27.19600
H  12.56100 56.35300 26.79700
H  12.79900 55.33400 28.23600
H  10.89400 55.60900 24.86700
H  11.21800 56.52300 23.25200
H  11.70400 57.07400 24.90200
H  17.23100 53.33300 21.32600
H  18.13000 50.55500 21.20000
H  15.76100 52.96600 19.82500
H  14.90800 52.00000 20.94900
H  16.03900 51.17700 19.91800
H  19.64300 52.28100 20.33600
H  20.38700 51.63800 21.69100
H  20.22700 54.28100 21.30200
H  20.49100 53.43700 22.93600
H  18.91500 54.01600 22.50700
H  21.21400 48.17600 24.38100
H  22.21800 48.40400 25.84400
H  22.05100 49.71400 24.60100
H  19.80200 50.67600 30.24300
H  18.26600 47.49700 32.64100
H  18.93000 48.64000 33.71100
H  19.97400 47.48200 33.09100

