158

Mg 1.09500 43.95600 25.15500
C  3.03500 43.81000 28.06800
C  -1.72000 43.10100 27.19600
C  -0.79000 43.20100 22.35000
C  3.79600 44.16000 23.30200
N  0.77100 43.57200 27.48600
C  1.74200 43.61600 28.42300
C  1.09700 43.31700 29.77500
C  -0.44700 42.94100 29.42000
C  -0.51700 43.20900 27.94700
C  -0.94000 41.52400 29.78000
C  1.15800 44.60500 30.69600
C  0.47000 44.48400 32.12800
H  0.34500 43.10700 32.84400
N  -1.01500 43.59400 24.77600
C  -1.93200 43.37000 25.80000
C  -3.21500 43.34900 25.18200
C  -3.03100 43.10800 23.72800
C  -1.54200 43.25700 23.52100
C  -4.54200 43.53400 26.00400
C  -4.10400 43.01600 22.71400
O  -3.94700 43.06900 21.50600
C  -5.51600 43.05700 23.20000
N  1.43800 43.68000 23.03400
C  0.51800 43.49500 22.00300
C  1.16700 43.45700 20.61800
C  2.63200 43.87400 20.95800
C  2.64700 43.94900 22.54800
C  1.17000 42.04800 19.89300
C  3.00500 45.25500 20.23600
C  2.53100 46.71500 20.82900
N  3.02000 44.02700 25.53900
C  3.98800 44.29300 24.67800
C  5.26300 44.44100 25.43900
C  4.88200 44.17600 26.75100
C  3.47700 43.96300 26.77700
C  6.58600 44.66500 24.86700
C  5.42000 43.95200 28.09200
O  6.58700 43.77800 28.43500
C  4.27900 43.84600 29.05300
C  4.29600 42.55400 29.81700
O  4.04700 41.46900 29.34300
O  4.58600 42.73600 31.17400
C  4.69500 41.55100 32.03400
H  -2.55200 42.82900 27.84900
H  -1.35300 42.83000 21.49100
H  4.69100 44.32100 22.69800
H  1.49400 42.50100 30.37800
H  -1.19900 43.53600 29.93800
H  -1.87700 41.65400 30.32200
H  -0.23700 41.07800 30.48300
H  -1.20700 41.00500 28.86000
H  0.72800 45.43400 30.13400
H  2.18700 44.83900 30.97000
H  -0.56000 44.81100 31.98100
H  1.10500 45.12700 32.73700
H  -5.13900 44.33700 25.57100
H  -4.46800 43.71900 27.07500
H  -5.10600 42.60500 25.92400
H  -5.67100 42.21300 23.87100
H  -6.13700 42.82300 22.33500
H  -5.77200 44.01200 23.66000
H  0.59400 44.20400 20.06900
H  3.31300 43.04600 20.76100
H  0.60600 41.38700 20.55000
H  2.09800 41.57800 19.56500
H  0.49900 42.21400 19.05100
H  2.60900 45.26000 19.22100
H  4.06700 45.34400 20.00700
H  2.25000 47.38100 20.01300
H  3.37300 47.18700 21.33500
H  1.66500 46.77000 21.49000
H  6.83700 45.72500 24.90200
H  6.68100 44.28000 23.85100
H  7.27300 44.01200 25.40500
H  4.31300 44.64100 29.79800
H  5.64700 41.04600 31.87000
H  3.84000 40.90900 31.82200
H  4.63300 41.90000 33.06500
Mg -1.59200 34.94500 26.54400
C  -3.35600 33.44200 29.09400
C  -0.31500 37.15900 29.00100
C  -0.16500 36.78700 24.17300
C  -3.06800 32.97000 24.23300
N  -1.88900 35.30500 28.80300
C  -2.46900 34.41300 29.67000
C  -2.12400 34.74800 31.18000
C  -1.52400 36.23500 31.03400
C  -1.14800 36.19700 29.54800
C  -2.39700 37.45300 31.52900
C  -1.19900 33.76900 31.92500
C  -1.90200 32.91700 32.99200
H  -1.31800 32.92100 34.39700
N  -0.38900 36.65200 26.58400
C  0.11100 37.37000 27.69700
C  0.84400 38.57600 27.23900
C  0.86400 38.47300 25.87100
C  0.08600 37.31100 25.44100
C  1.25700 39.71500 28.10300
C  1.46900 39.42000 24.85600
O  1.31200 39.37300 23.61500
C  2.44600 40.39700 25.28800
N  -1.86000 35.05600 24.47100
C  -0.97600 35.74600 23.69200
C  -0.81200 35.15400 22.28200
C  -1.60400 33.84800 22.39300
C  -2.22900 33.97600 23.73500
C  -1.23800 36.10800 21.07800
C  -0.78600 32.53000 22.31500
C  0.17900 32.07000 23.44500
N  -2.93700 33.52200 26.59400
C  -3.46300 32.76600 25.60800
C  -4.39500 31.80600 26.11400
C  -4.40000 31.98700 27.51100
C  -3.49200 33.08900 27.76800
C  -5.02200 30.67900 25.37000
C  -4.87600 31.58900 28.83000
O  -5.70600 30.73400 29.07700
C  -4.13300 32.41800 29.87700
C  -5.25000 33.10400 30.66600
O  -5.65400 34.21600 30.44100
O  -5.58800 32.22300 31.65000
C  -6.79800 32.70100 32.40000
H  0.08000 37.93000 29.66600
H  0.39400 37.17300 23.31800
H  -3.55800 32.30000 23.52400
H  -3.12900 34.73800 31.60400
H  -0.62400 36.33800 31.63900
H  -3.27400 37.20200 32.12500
H  -2.65600 38.08800 30.68100
H  -1.77600 38.12400 32.12100
H  -0.35000 34.31000 32.34300
H  -0.70800 33.17700 31.15200
H  -1.82700 31.88200 32.65700
H  -2.94300 33.21000 33.12600
H  2.34200 39.81000 28.14900
H  0.87100 39.56800 29.11200
H  0.80400 40.64700 27.76500
H  1.95400 41.31800 25.59900
H  3.19500 40.54900 24.51000
H  2.77700 39.72000 26.07600
H  0.26300 34.98700 22.21300
H  -2.53000 33.79200 21.82000
H  -0.38100 36.10800 20.40400
H  -1.25800 37.09000 21.54900
H  -2.18000 35.78500 20.63400
H  -0.06700 32.67300 21.50900
H  -1.55900 31.80900 22.04700
H  0.49800 32.88200 24.09800
H  1.05300 31.67600 22.92700
H  -0.26800 31.22000 23.96100
H  -4.87800 29.80200 26.00000
H  -4.59500 30.64400 24.36700
H  -6.09800 30.85200 25.33700
H  -3.59600 31.72000 30.52000
H  -7.53000 33.34200 31.91000
H  -6.43700 33.25100 33.26900
H  -7.43500 31.90100 32.77700

