158

Mg 17.92800 -1.91200 28.01300
C  16.69600 0.06600 30.69100
C  19.89000 -3.63900 30.20300
C  19.45900 -3.37800 25.45600
C  16.49700 0.47400 25.75100
N  18.35700 -1.67700 30.24000
C  17.66200 -0.90700 31.12100
C  17.99900 -1.39300 32.57700
C  19.22200 -2.34600 32.33400
C  19.11700 -2.59600 30.86400
C  20.60500 -1.80000 32.68600
C  16.85400 -2.16000 33.33500
C  16.31100 -1.44900 34.62300
H  17.19000 -0.85800 35.62100
N  19.36100 -3.41800 27.78000
C  20.02100 -4.02400 28.84100
C  20.73300 -5.17000 28.32200
C  20.60400 -5.18700 26.94800
C  19.79000 -3.96900 26.67500
C  21.41100 -6.07100 29.25000
C  21.12300 -6.00300 25.86800
O  20.64400 -6.02100 24.73100
C  22.25300 -6.85600 26.14400
N  17.94100 -1.53600 25.92100
C  18.76100 -2.26800 25.10600
C  18.81700 -1.72300 23.73500
C  17.78500 -0.57000 23.79900
C  17.33200 -0.54400 25.22900
C  20.16100 -1.26800 23.09900
C  16.53500 -0.64400 22.81400
C  16.38700 0.53400 21.78600
N  16.70500 -0.17700 28.14400
C  16.05000 0.60300 27.15500
C  15.17200 1.46500 27.80700
C  15.33500 1.34000 29.13800
C  16.36900 0.29000 29.34100
C  14.45700 2.59800 27.01400
C  14.93000 1.87800 30.43200
O  14.14700 2.79600 30.67400
C  15.67400 0.91700 31.54400
C  16.38400 1.77600 32.48900
O  17.44000 2.36300 32.27100
O  15.58900 1.95600 33.60300
C  16.13600 3.01400 34.52100
H  20.29300 -4.38800 30.88800
H  19.89700 -3.88600 24.59400
H  16.10400 1.24100 25.08100
H  18.18000 -0.46900 33.12700
H  19.18700 -3.35400 32.74600
H  20.71600 -0.74600 32.94100
H  21.24600 -2.02700 31.83500
H  20.86500 -2.17500 33.67600
H  17.16500 -3.15700 33.64900
H  15.94800 -2.25200 32.73500
H  15.95500 -2.34700 35.12900
H  15.37700 -0.90200 34.50000
H  22.30600 -5.64900 29.70700
H  21.73000 -6.95800 28.70200
H  20.78300 -6.41800 30.07000
H  22.63200 -7.20200 25.18300
H  21.78300 -7.69400 26.66000
H  23.03900 -6.26500 26.61500
H  18.44600 -2.55500 23.13600
H  18.29800 0.34900 23.51600
H  20.01400 -1.12700 22.02800
H  20.90100 -2.05400 23.25100
H  20.40200 -0.27200 23.47100
H  15.59200 -0.68700 23.35800
H  16.50200 -1.62600 22.34300
H  15.47000 0.46400 21.20000
H  17.28300 0.58700 21.16700
H  16.35200 1.44900 22.37600
H  13.80400 2.18100 26.24800
H  15.25500 3.22100 26.61000
H  13.82800 3.27800 27.58800
H  14.95200 0.36900 32.14900
H  15.38200 3.22600 35.27900
H  16.35100 3.95800 34.02000
H  17.05100 2.68600 35.01500
Mg 27.05100 50.61200 25.94100
C  25.54200 51.91900 28.85100
C  29.73300 49.82300 28.10000
C  28.51500 49.14800 23.38400
C  24.70200 52.09400 23.96500
N  27.46600 50.68200 28.26500
C  26.64100 51.18700 29.24600
C  27.13100 50.93000 30.66900
C  28.58600 50.53800 30.34100
C  28.61200 50.30500 28.82600
C  29.58800 51.49400 30.95400
C  26.30900 49.80100 31.48700
C  25.60700 50.13600 32.84300
H  26.43200 50.89700 33.96700
N  28.83800 49.65300 25.72000
C  29.81500 49.50900 26.72200
C  30.93000 48.83500 26.10800
C  30.58600 48.36200 24.81400
C  29.25500 49.03800 24.58000
C  32.25500 48.52700 26.95200
C  31.28900 47.42400 23.86900
O  30.80300 47.03100 22.78700
C  32.66400 46.93900 24.24100
N  26.80700 50.80800 23.87000
C  27.40600 49.91200 23.06200
C  26.70900 49.98500 21.64000
C  25.41900 50.80300 21.96500
C  25.68000 51.27300 23.34200
C  27.61900 50.76900 20.72200
C  24.17200 49.91000 21.96300
C  22.87700 50.58600 21.41000
N  25.54200 51.81700 26.21700
C  24.55000 52.24800 25.35100
C  23.47200 52.93600 26.06900
C  23.81700 52.83700 27.38200
C  25.06900 52.10200 27.48600
C  22.28900 53.53900 25.52600
C  23.41500 53.15100 28.72300
O  22.40700 53.72700 29.12900
C  24.53100 52.59500 29.72000
C  25.15800 53.66400 30.53500
O  26.14700 54.31000 30.23700
O  24.40000 53.79100 31.69800
C  24.82700 54.84400 32.67300
H  30.52700 49.67900 28.83600
H  28.82200 48.44000 22.61100
H  23.80900 52.31600 23.37800
H  27.05300 51.82700 31.28400
H  28.84400 49.53900 30.69100
H  30.33600 50.98300 31.56000
H  29.05900 52.23300 31.55500
H  29.88200 51.90700 29.98900
H  26.96300 48.95300 31.69000
H  25.52000 49.42500 30.83500
H  25.24600 49.15000 33.13600
H  24.79300 50.80500 32.56200
H  32.26000 49.22600 27.78800
H  33.11900 48.76600 26.33300
H  32.22500 47.50000 27.31600
H  32.69700 46.35000 25.15800
H  33.36500 47.75300 24.42900
H  32.95400 46.25900 23.44000
H  26.50600 48.99000 21.24400
H  25.35000 51.66800 21.30500
H  27.67700 50.38200 19.70500
H  28.65000 50.54100 20.99500
H  27.64100 51.85900 20.74900
H  24.08700 49.49100 22.96600
H  24.41300 48.99400 21.42300
H  22.65800 49.97000 20.53700
H  23.01900 51.62600 21.11600
H  22.00900 50.49700 22.06200
H  21.43600 52.86100 25.55000
H  22.32100 53.68800 24.44600
H  22.00900 54.41900 26.10400
H  24.03500 51.96100 30.45500
H  25.03100 55.72700 32.06800
H  25.78600 54.58400 33.12100
H  23.94600 55.04700 33.28300

