158

Mg 24.35700 -5.77800 45.52500
C  26.55700 -3.36700 44.27400
C  21.89300 -4.54300 43.44200
C  22.64000 -8.75800 45.97800
C  27.04600 -7.22200 47.22900
N  24.30900 -4.13700 44.06600
C  25.29600 -3.21200 43.72500
C  24.80700 -2.23700 42.66900
C  23.27500 -2.54600 42.68000
C  23.14500 -3.87300 43.40600
C  22.29500 -1.49200 43.23900
C  25.48000 -2.51700 41.29600
C  25.55800 -1.36200 40.34400
H  26.28300 -1.56100 38.97800
N  22.47400 -6.49100 44.94000
C  21.58700 -5.76600 44.18500
C  20.35000 -6.42800 44.19300
C  20.48100 -7.69700 44.84800
C  21.94000 -7.73100 45.31700
C  19.07000 -5.95100 43.42400
C  19.29000 -8.64500 45.06300
O  18.14100 -8.38400 44.71300
C  19.49600 -9.93000 45.86700
N  24.81500 -7.76100 46.29800
C  23.96500 -8.81100 46.39800
C  24.58300 -10.02800 47.07400
C  25.97800 -9.47500 47.52900
C  25.91900 -8.05100 47.03600
C  23.82700 -10.64400 48.27500
C  27.18000 -10.26900 46.94500
C  27.50600 -11.54700 47.69500
N  26.31600 -5.38900 45.90600
C  27.27400 -5.96700 46.67900
C  28.48300 -5.14400 46.71600
C  28.21900 -4.09600 45.78600
C  26.90500 -4.30700 45.29400
C  29.77500 -5.38500 47.49800
C  28.88000 -2.98700 45.13900
O  29.99100 -2.49500 45.14900
C  27.73400 -2.48400 44.14400
C  27.60600 -1.02100 44.28800
O  28.03700 -0.23600 43.49900
O  26.91700 -0.72900 45.48700
C  26.39500 0.62700 45.68500
H  20.95000 -4.14700 43.05800
H  21.99300 -9.63600 46.04000
H  27.71800 -7.60700 47.99900
H  25.00200 -1.19200 42.91000
H  22.91300 -2.57700 41.65200
H  21.49900 -1.93900 43.83400
H  21.82000 -0.91800 42.44300
H  22.88900 -0.89800 43.93300
H  24.99000 -3.34600 40.78500
H  26.49600 -2.86000 41.49400
H  25.82100 -0.43500 40.85300
H  24.50000 -1.16900 40.17000
H  19.28400 -5.18500 42.67900
H  18.49500 -5.32100 44.10300
H  18.62100 -6.71500 42.78900
H  19.90100 -10.69100 45.20000
H  18.56500 -10.28800 46.30600
H  20.08600 -9.61600 46.72800
H  24.73900 -10.86200 46.39000
H  26.01600 -9.39700 48.61600
H  24.46400 -10.70500 49.15700
H  23.49500 -11.67200 48.13300
H  22.91000 -10.09500 48.48900
H  28.07800 -9.65700 46.85200
H  26.88900 -10.68800 45.98200
H  28.55000 -11.57200 48.00700
H  27.30100 -12.30500 46.94000
H  26.89800 -11.82500 48.55600
H  30.19700 -4.38200 47.56700
H  30.33300 -6.15200 46.96000
H  29.55400 -5.70400 48.51600
H  28.27900 -2.60200 43.20800
H  26.36700 0.82200 46.75700
H  25.35900 0.61900 45.34300
H  26.96300 1.42700 45.21000
Mg 43.78100 4.03300 47.68900
C  41.52300 6.74000 47.05300
C  41.22300 1.90600 47.75900
C  45.99300 1.51200 47.15600
C  46.37200 6.46000 46.81300
N  41.64300 4.31300 47.15600
C  40.89000 5.44900 47.05600
C  39.38700 5.19500 47.00300
C  39.33000 3.76800 47.70100
C  40.85400 3.27900 47.68500
C  38.75600 3.79500 49.19200
C  38.88200 5.29300 45.47900
C  37.67600 6.28200 45.25000
H  37.08400 6.50900 43.90300
N  43.71000 2.04000 47.58100
C  42.48200 1.39100 47.57300
C  42.75400 -0.06300 47.54500
C  44.13400 -0.24500 47.21600
C  44.69800 1.08500 47.33000
C  41.77100 -1.21800 47.58500
C  44.74200 -1.58700 46.82100
O  44.15000 -2.65900 46.79600
C  46.18900 -1.61900 46.21300
N  45.84700 3.97300 47.15500
C  46.56500 2.79600 47.12300
C  48.02800 3.05200 46.77900
C  48.16400 4.61900 46.72600
C  46.72300 5.08300 46.87300
C  49.03500 2.34500 47.72700
C  48.83300 5.17700 45.55000
C  49.71900 6.40600 45.76400
N  43.96800 6.15900 47.34700
C  45.06900 6.96300 47.02000
C  44.65300 8.36100 46.99800
C  43.26200 8.28200 47.05000
C  42.87100 6.93900 47.16200
C  45.49600 9.49900 46.88500
C  42.04600 9.11600 47.04000
O  41.85700 10.27400 46.75100
C  40.90900 8.11800 47.02800
C  40.04500 8.32300 48.20000
O  40.13600 8.08700 49.40300
O  38.86900 8.83200 47.61700
C  37.61500 8.94600 48.47700
H  40.36100 1.23600 47.77700
H  46.77800 0.75400 47.13600
H  47.22000 7.10700 46.57600
H  38.90200 5.99800 47.55800
H  38.67600 3.25700 46.99500
H  38.62700 4.82700 49.52000
H  39.49600 3.39200 49.88300
H  37.79600 3.29200 49.07400
H  38.52500 4.36600 45.03000
H  39.68400 5.75200 44.90200
H  38.10600 7.23800 45.55100
H  37.01800 5.93200 46.04500
H  41.83400 -1.64500 46.58400
H  40.76700 -0.93800 47.90300
H  42.02800 -1.95300 48.34800
H  46.87800 -1.34300 47.01100
H  46.33100 -0.78900 45.52100
H  46.44000 -2.55600 45.71600
H  48.06400 2.68800 45.75200
H  48.60600 4.96700 47.66000
H  48.67600 1.83900 48.62300
H  49.67800 3.04600 48.25700
H  49.74200 1.70500 47.20000
H  48.08100 5.52200 44.84100
H  49.37600 4.34300 45.10500
H  50.69700 6.10300 45.38900
H  49.77000 6.70700 46.81000
H  49.39700 7.24400 45.14700
H  45.24200 10.12100 47.74300
H  45.33400 10.09400 45.98600
H  46.53700 9.17600 46.86900
H  40.27200 8.09900 46.14400
H  36.73100 8.77800 47.86200
H  37.54100 9.95700 48.87900
H  37.62600 8.19900 49.27100

