158

Mg -1.98400 17.72400 27.74600
C  -3.04300 15.74500 30.39200
C  -3.04300 20.49700 29.44900
C  -1.81100 19.46400 24.81800
C  -1.82400 14.75600 25.76700
N  -2.79800 18.13200 29.69300
C  -3.18000 17.11700 30.65000
C  -3.66200 17.88400 31.90900
C  -3.76000 19.42300 31.56400
C  -3.16700 19.35600 30.19900
C  -5.14600 19.94300 31.76200
C  -2.71300 17.71100 33.11400
C  -3.34800 17.65300 34.50500
H  -2.44400 17.29900 35.63700
N  -2.11400 19.72400 27.32500
C  -2.56200 20.70400 28.16100
C  -2.53700 21.96200 27.47400
C  -2.02300 21.72300 26.17000
C  -1.98900 20.23300 26.04600
C  -2.91300 23.33100 28.16600
C  -1.61600 22.63900 24.99800
O  -1.17100 22.21200 23.91900
C  -1.74800 24.08000 25.14000
N  -1.84800 17.15800 25.63900
C  -1.68500 18.10500 24.64300
C  -1.48100 17.46300 23.21500
C  -1.36700 15.97900 23.61600
C  -1.63900 15.98700 25.14100
C  -2.62100 17.76200 22.23700
C  -0.09300 15.25800 23.23500
C  1.15100 15.77400 23.94100
N  -2.24400 15.58800 28.01800
C  -2.09900 14.52700 27.13000
C  -2.32200 13.30500 27.79600
C  -2.66800 13.73400 29.08800
C  -2.50900 15.11800 29.22400
C  -2.30100 12.01800 27.18600
C  -3.07300 13.21300 30.40600
O  -3.23800 12.10500 30.84600
C  -3.31600 14.52500 31.26700
C  -2.55900 14.35100 32.54300
O  -1.35900 14.57100 32.77600
O  -3.51600 14.02100 33.50600
C  -3.00800 13.84400 34.88600
H  -3.47000 21.39600 29.89800
H  -1.78200 20.04200 23.89200
H  -1.79700 13.95500 25.02600
H  -4.59300 17.44300 32.26400
H  -3.19600 20.08600 32.22100
H  -5.52900 20.00100 30.74300
H  -5.07200 20.92900 32.22000
H  -5.81400 19.36100 32.39700
H  -2.01800 18.54900 33.16700
H  -2.00800 16.90900 32.90000
H  -4.05000 16.82000 34.53200
H  -3.82300 18.60100 34.75800
H  -2.25700 24.13800 27.83700
H  -2.76400 23.19400 29.23700
H  -3.91500 23.58700 27.82000
H  -2.78600 24.36300 25.31300
H  -1.45300 24.54800 24.20000
H  -1.14600 24.54100 25.92300
H  -0.54800 17.77600 22.74600
H  -2.15700 15.42600 23.10700
H  -2.97500 18.71300 22.63500
H  -3.47300 17.08200 22.19900
H  -2.24000 17.92600 21.22900
H  0.23400 15.30900 22.19700
H  -0.28800 14.20200 23.42300
H  1.05300 16.76200 24.39200
H  1.95800 15.94700 23.22900
H  1.41500 14.97600 24.63500
H  -1.94700 12.16000 26.16500
H  -3.36000 11.78000 27.28500
H  -1.67100 11.39600 27.82300
H  -4.38100 14.47500 31.49400
H  -2.31300 14.67500 35.00800
H  -2.57400 12.85700 35.04200
H  -3.77100 14.04000 35.64000
Mg 47.41000 16.60700 27.83000
C  45.52100 16.30600 30.75000
C  49.48100 18.86400 29.45500
C  49.23700 16.97200 25.01900
C  44.92900 15.08300 26.11700
N  47.46800 17.44800 29.84200
C  46.71200 17.02900 30.94900
C  47.30700 17.48500 32.30500
C  48.37200 18.52600 31.81100
C  48.43400 18.32600 30.29200
C  48.10200 20.04000 32.12500
C  47.78500 16.26500 33.27600
C  48.56400 16.60000 34.54900
H  48.59600 18.00200 35.15400
N  49.07100 17.74400 27.26900
C  49.81000 18.61600 28.07700
C  50.93500 19.18600 27.33000
C  51.02900 18.47300 26.12100
C  49.74800 17.67300 26.10700
C  52.06400 19.99200 27.95200
C  52.18000 18.32200 25.13800
O  52.18700 17.41600 24.33100
C  53.39100 19.26000 25.12000
N  47.23200 15.95100 25.92800
C  48.07100 16.22700 24.88400
C  47.57900 15.78500 23.53500
C  46.27500 14.98400 23.95600
C  46.07900 15.39900 25.41900
C  47.30400 16.91800 22.52600
C  46.37100 13.47000 23.87500
C  46.05700 12.85100 22.44100
N  45.54600 15.93900 28.27400
C  44.61200 15.27300 27.47400
C  43.46000 14.84700 28.24500
C  43.86800 15.23800 29.51800
C  45.06100 15.85100 29.46900
C  42.25400 14.05800 27.84700
C  43.36100 15.18200 30.84400
O  42.36400 14.73500 31.31400
C  44.46300 15.96600 31.77000
C  43.82500 17.17200 32.30400
O  43.47000 18.13900 31.67400
O  43.72100 16.99700 33.61500
C  43.16700 18.13800 34.43800
H  50.04800 19.63600 29.97800
H  49.72900 17.29300 24.09800
H  44.26800 14.63900 25.37000
H  46.51100 18.01100 32.83400
H  49.36200 18.39700 32.24800
H  48.96500 20.41600 32.67600
H  47.22600 20.16100 32.76100
H  47.94400 20.64100 31.23000
H  48.40200 15.49000 32.82200
H  46.91400 15.68500 33.57900
H  49.56400 16.17400 34.47800
H  48.19000 16.01100 35.38600
H  52.31600 20.88200 27.37500
H  52.96500 19.38600 27.86200
H  51.92300 20.22500 29.00800
H  53.05000 20.28700 25.25500
H  53.78800 19.16200 24.11000
H  54.06800 18.92300 25.90500
H  48.27700 15.17200 22.96500
H  45.40300 15.35100 23.41500
H  46.33900 16.88700 22.01900
H  48.04700 16.91000 21.72800
H  47.48400 17.85100 23.05900
H  45.76700 13.01300 24.65900
H  47.37500 13.14600 24.14900
H  47.04900 12.54800 22.10800
H  45.64700 13.45200 21.63000
H  45.33800 12.05700 22.64500
H  42.60600 13.26900 27.18300
H  41.48900 14.69800 27.40700
H  41.81700 13.64400 28.75600
H  44.81400 15.30900 32.56700
H  42.16100 17.85800 34.75200
H  43.07500 19.02600 33.81300
H  43.74900 18.33700 35.33700

