158

Mg 24.27500 -7.35600 46.70300
C  27.00900 -5.47100 45.85900
C  22.32600 -5.45100 44.62300
C  21.99900 -9.69800 46.93500
C  26.47900 -9.46200 48.61700
N  24.72400 -5.83300 45.14900
C  25.94700 -5.14000 45.05700
C  25.75900 -3.98500 44.05400
C  24.26800 -4.00300 43.75200
C  23.69300 -5.11800 44.58400
C  23.63300 -2.63000 43.99600
C  26.66200 -4.23200 42.88000
C  26.86700 -2.89200 42.02900
H  25.95500 -2.76700 40.73400
N  22.41000 -7.58200 45.91900
C  21.69700 -6.64700 45.17700
C  20.40100 -7.21800 44.75700
C  20.38500 -8.50700 45.28300
C  21.59500 -8.66000 46.08300
C  19.40400 -6.48100 43.91000
C  19.16900 -9.42600 45.13000
O  18.15600 -9.12000 44.56000
C  19.21000 -10.78500 45.75400
N  24.28000 -9.26100 47.71100
C  23.16700 -10.01900 47.68800
C  23.34500 -11.36800 48.35400
C  24.76600 -11.29400 48.96000
C  25.19900 -9.87600 48.41400
C  22.22400 -11.80900 49.33700
C  25.86100 -12.42300 48.36300
C  26.27700 -13.42700 49.43400
N  26.33600 -7.44400 47.31600
C  27.06600 -8.27900 48.10900
C  28.38800 -7.74500 48.36400
C  28.42100 -6.63600 47.45900
C  27.15200 -6.53400 46.79800
C  29.50600 -8.23900 49.27800
C  29.32400 -5.53100 46.88200
O  30.52800 -5.26700 47.10200
C  28.38300 -4.71900 45.86500
C  28.26500 -3.35700 46.44100
O  27.83200 -2.96000 47.51900
O  28.62900 -2.48900 45.41600
C  28.41400 -1.10200 45.69000
H  21.66200 -4.77500 44.08000
H  21.31200 -10.53300 47.09000
H  27.21100 -9.94400 49.26900
H  26.10300 -3.07700 44.54900
H  24.13800 -4.24700 42.69800
H  23.00000 -2.61500 44.88300
H  22.87000 -2.46300 43.23600
H  24.29800 -1.76900 43.92600
H  26.19400 -4.91900 42.17500
H  27.65500 -4.61600 43.11300
H  27.90400 -2.79400 41.71000
H  26.83700 -2.03800 42.70500
H  19.89600 -6.18800 42.98200
H  19.19000 -5.53800 44.41300
H  18.43500 -6.93800 43.71200
H  20.11400 -11.28600 45.40800
H  18.34700 -11.34900 45.40100
H  19.12500 -10.66900 46.83500
H  23.41800 -12.05800 47.51300
H  24.63900 -11.32600 50.04200
H  21.45700 -12.32800 48.76100
H  21.90400 -10.88500 49.81800
H  22.64300 -12.41500 50.14000
H  26.78100 -11.95500 48.01100
H  25.45700 -12.93800 47.49200
H  26.29000 -14.39900 48.94000
H  25.58600 -13.50100 50.27500
H  27.30900 -13.31900 49.76700
H  29.93400 -9.12700 48.81400
H  28.84500 -8.54300 50.09000
H  30.22600 -7.59400 49.78300
H  28.85500 -4.77500 44.88300
H  27.49200 -0.83700 46.20900
H  28.27600 -0.59800 44.73400
H  29.24800 -0.61900 46.19900
Mg -1.32600 34.20900 27.67000
C  -2.94400 32.66100 30.47200
C  0.18700 36.30900 29.65900
C  -0.57700 36.01300 24.87200
C  -3.31700 32.02900 25.68700
N  -1.61000 34.53800 29.81500
C  -2.13600 33.70800 30.73200
C  -1.53900 34.02700 32.19400
C  -0.55400 35.23700 31.88700
C  -0.62400 35.35000 30.29600
C  -0.64800 36.57900 32.68500
C  -0.92000 32.84300 33.00100
C  -1.55800 32.25800 34.24700
H  -0.67400 32.13100 35.46500
N  -0.20700 35.87700 27.28300
C  0.37700 36.60600 28.28200
C  1.23400 37.56200 27.65000
C  1.08900 37.38300 26.27400
C  0.04800 36.39700 26.03500
C  2.15900 38.44600 28.41000
C  1.83300 37.98400 25.17400
O  1.80600 37.60800 24.02800
C  2.59900 39.24800 25.53800
N  -1.83900 34.10000 25.59300
C  -1.55200 35.03700 24.70900
C  -2.15200 34.71800 23.30100
C  -2.70100 33.24100 23.54200
C  -2.62000 33.07300 24.99200
C  -3.16900 35.70900 22.73000
C  -2.03300 32.03200 22.82800
C  -0.53600 31.87500 22.58800
N  -2.58400 32.53700 27.96200
C  -3.31900 31.81100 27.04800
C  -4.18700 30.88200 27.70800
C  -4.01500 31.18200 29.04200
C  -3.15300 32.20700 29.14300
C  -5.05500 29.85800 27.16500
C  -4.43800 30.85000 30.37100
O  -5.21900 30.00000 30.74600
C  -3.70200 31.77700 31.39600
C  -4.64700 32.61400 32.20700
O  -5.27100 33.54500 31.76500
O  -4.53800 32.24500 33.48100
C  -5.38100 33.06200 34.48000
H  0.83300 36.75100 30.42000
H  -0.27200 36.48200 23.93400
H  -3.89800 31.31800 25.09600
H  -2.29500 34.51200 32.81300
H  0.46200 34.87000 32.03000
H  -1.29700 36.42800 33.54800
H  -1.22600 37.20900 32.00900
H  0.26500 37.07800 33.00800
H  0.07300 33.20200 33.27000
H  -0.67700 32.08300 32.25900
H  -2.00700 31.29500 34.00400
H  -2.35800 32.92400 34.57000
H  3.16100 38.07600 28.19100
H  2.05100 38.47400 29.49400
H  2.07700 39.51800 28.23400
H  1.87500 39.91100 26.01200
H  3.10600 39.76800 24.72500
H  3.38000 38.83300 26.17500
H  -1.37300 34.71700 22.53800
H  -3.75000 33.25000 23.24800
H  -3.81600 36.04300 23.54100
H  -3.85000 35.30700 21.98000
H  -2.69300 36.53900 22.20900
H  -2.52700 31.96700 21.85800
H  -2.35900 31.03300 23.11600
H  0.02400 32.62100 23.15200
H  -0.34800 32.06400 21.53100
H  -0.29600 30.85400 22.88400
H  -4.87200 29.66400 26.10800
H  -6.06100 30.24300 27.33300
H  -4.94900 28.92200 27.71300
H  -2.99000 31.20000 31.98500
H  -4.84500 33.20800 35.41700
H  -6.32500 32.57200 34.71700
H  -5.59000 34.06400 34.10400

