158

Mg 17.17800 -1.39900 27.99700
C  15.99200 0.25600 30.82300
C  19.61100 -2.97300 29.95900
C  18.62700 -2.66800 25.22600
C  14.99500 0.49300 26.03700
N  17.75400 -1.28700 30.11700
C  17.01900 -0.66600 31.11800
C  17.51100 -0.95600 32.56400
C  18.66500 -2.02000 32.24100
C  18.75800 -2.12300 30.66300
C  20.02600 -1.69500 32.88100
C  16.34900 -1.46700 33.51900
C  16.50500 -1.35200 35.05400
H  17.69300 -0.61200 35.61200
N  18.71400 -2.79000 27.67700
C  19.63200 -3.25100 28.59600
C  20.41000 -4.28800 27.90900
C  20.10700 -4.25900 26.53000
C  19.12900 -3.20500 26.39500
C  21.29100 -5.15100 28.67200
C  20.58100 -5.13600 25.39400
O  20.06800 -5.07100 24.33400
C  21.71400 -6.08700 25.57400
N  16.78800 -1.19000 25.89100
C  17.51600 -1.80300 24.98200
C  17.17000 -1.33600 23.65500
C  15.92100 -0.49700 23.88000
C  15.79100 -0.45600 25.36100
C  18.39600 -0.63900 22.93300
C  14.62900 -1.05300 23.15100
C  13.95300 -0.15800 22.13900
N  15.95200 0.18700 28.31000
C  15.03900 0.81200 27.40000
C  14.31500 1.82900 28.07400
C  14.65400 1.59900 29.38400
C  15.66600 0.63700 29.53100
C  13.41400 2.74300 27.47300
C  14.30000 2.10100 30.64600
O  13.52700 2.99300 30.96700
C  15.24400 1.26000 31.67900
C  16.12100 2.25000 32.38000
O  17.08600 2.83700 31.85700
O  15.67700 2.41500 33.73100
C  16.38400 3.45800 34.50500
H  20.20700 -3.59800 30.62800
H  19.08500 -3.07100 24.32000
H  14.25700 1.12800 25.54200
H  17.98200 -0.04500 32.93600
H  18.46800 -3.01800 32.63400
H  20.79500 -1.69100 32.10800
H  20.22900 -2.45300 33.63700
H  20.08000 -0.63900 33.14600
H  16.12800 -2.52600 33.38000
H  15.43700 -0.99200 33.15700
H  16.40400 -2.29700 35.58800
H  15.65200 -0.76100 35.38700
H  22.21700 -4.64200 28.93900
H  21.38000 -6.09800 28.14000
H  20.73300 -5.47200 29.55200
H  21.99100 -6.42700 24.57600
H  21.35000 -6.92800 26.16400
H  22.47600 -5.52200 26.11000
H  16.91600 -2.16000 22.98900
H  16.15500 0.50600 23.52300
H  18.19900 0.36900 22.56800
H  18.67700 -1.21400 22.05000
H  19.26200 -0.65400 23.59500
H  13.87600 -1.35300 23.87900
H  14.98500 -1.89500 22.55800
H  14.32400 0.86400 22.22500
H  12.86700 -0.21600 22.21200
H  14.20000 -0.46500 21.12300
H  12.67200 2.07400 27.03800
H  13.92800 3.20700 26.63100
H  12.85300 3.41000 28.12900
H  14.63100 0.71000 32.39300
H  17.36600 3.70200 34.09900
H  16.66500 3.03300 35.46900
H  15.76800 4.34100 34.67300
Mg 30.24200 58.49300 39.46600
C  27.70000 56.20300 38.52300
C  32.44600 56.01000 39.18500
C  32.72700 60.81200 40.03400
C  27.86000 61.09600 39.29700
N  30.12600 56.38400 38.75500
C  28.98000 55.61300 38.43200
C  29.38200 54.19000 38.09600
C  30.86000 54.09100 38.50500
C  31.18600 55.58200 38.90400
C  31.07400 53.10000 39.71700
C  28.95100 53.75500 36.65800
C  29.45000 54.59800 35.48600
H  28.50000 55.17100 34.44000
N  32.28300 58.41500 39.50900
C  33.02200 57.24900 39.37300
C  34.39000 57.54800 39.58300
C  34.50600 58.91900 39.94000
C  33.13200 59.46800 39.85600
C  35.45800 56.49800 39.43300
C  35.87400 59.64800 40.33700
O  36.92100 59.07100 40.25000
C  35.91600 61.08800 40.88600
N  30.27800 60.59800 39.59800
C  31.43300 61.31100 39.90400
C  31.14100 62.86100 39.94700
C  29.57600 62.89600 39.64000
C  29.19000 61.41700 39.58700
C  31.68500 63.47400 41.26100
C  29.18800 63.63700 38.35000
C  27.98400 64.61200 38.36600
N  28.17400 58.64400 39.14000
C  27.35500 59.75900 39.11500
C  26.00700 59.29100 38.73900
C  26.08000 57.91200 38.50800
C  27.38500 57.56100 38.83200
C  24.88200 60.25000 38.64100
C  25.32500 56.79900 38.22800
O  24.16600 56.68200 37.90500
C  26.26100 55.58700 38.28600
C  25.84700 54.58000 39.29900
O  26.60000 53.91100 40.04400
O  24.47600 54.31500 39.32600
C  23.91600 53.40200 40.30900
H  33.20400 55.23000 39.08700
H  33.56200 61.50300 40.17000
H  27.09700 61.87600 39.33300
H  28.69600 53.59200 38.69600
H  31.48200 53.75700 37.67400
H  30.25800 52.49100 40.10600
H  31.53300 53.65000 40.53800
H  31.87600 52.38300 39.54000
H  27.87300 53.59700 36.65000
H  29.45200 52.79400 36.54100
H  30.27300 53.98000 35.12700
H  30.05300 55.44800 35.80400
H  36.38700 57.06000 39.33800
H  35.33000 56.08400 38.43300
H  35.55800 55.69400 40.16300
H  36.92500 61.39000 41.16700
H  35.33600 61.20100 41.80200
H  35.63300 61.84100 40.15000
H  31.78700 63.06400 39.09300
H  29.07900 63.41800 40.45800
H  32.52500 64.14000 41.06400
H  31.96800 62.63100 41.89100
H  30.94300 64.05900 41.80500
H  29.04500 62.95500 37.51200
H  30.01700 64.25700 38.00600
H  27.83300 65.08000 39.33900
H  27.05800 64.08100 38.14900
H  28.04100 65.48200 37.71200
H  24.63400 60.61500 39.63800
H  24.01100 59.64000 38.40300
H  25.05300 61.06900 37.94300
H  26.23000 54.95200 37.40100
H  24.32900 53.53900 41.30800
H  24.18500 52.40600 39.95500
H  22.84000 53.24100 40.24200

