158

Mg 48.39500 45.50500 43.64200
C  45.02700 45.86300 42.54400
C  48.49900 42.39400 42.53400
C  51.73200 45.83800 43.65100
C  48.18400 49.02900 44.31100
N  46.92900 44.38600 42.57900
C  45.61300 44.59100 42.26900
C  44.87000 43.34200 41.67200
C  45.91800 42.24400 41.94800
C  47.19600 43.01800 42.39200
C  45.52900 41.22300 43.02000
C  44.35600 43.54800 40.16900
C  45.14500 44.44200 39.14400
H  46.20000 43.63200 38.37900
N  49.94700 44.29000 43.23700
C  49.75100 43.03100 42.82200
C  51.05500 42.33600 42.73700
C  52.01800 43.31400 43.13600
C  51.27000 44.57300 43.29000
C  51.16400 40.80300 42.54400
C  53.50500 42.94500 43.24200
O  53.85200 41.80500 42.93600
C  54.44500 43.92800 43.78400
N  49.81400 47.21300 43.93100
C  51.15100 47.00500 43.94200
C  51.92000 48.36200 44.16200
C  50.78900 49.26700 44.81000
C  49.46400 48.49500 44.31000
C  53.15200 48.18400 45.14100
C  50.92300 50.77500 44.63500
C  50.66300 51.62500 45.81800
N  46.85000 47.08500 43.76400
C  46.94100 48.44900 44.01600
C  45.62000 49.07600 43.91400
C  44.88100 48.04800 43.36700
C  45.69100 46.88600 43.23600
C  45.36200 50.59800 44.00400
C  43.63100 47.80400 42.82000
O  42.64700 48.54700 42.79000
C  43.63200 46.33100 42.25000
C  42.44100 45.64500 42.91000
O  41.56700 45.02100 42.30800
O  42.54700 45.76700 44.28600
C  41.36700 45.39000 45.02100
H  48.51500 41.31000 42.39800
H  52.82400 45.82900 43.67100
H  48.11000 50.11500 44.39200
H  43.99400 43.18400 42.30100
H  46.01900 41.75300 40.98000
H  45.94500 41.52600 43.98100
H  45.77500 40.23200 42.63800
H  44.44800 41.29300 43.13600
H  43.36900 44.00700 40.21900
H  44.20600 42.52700 39.81800
H  45.68000 45.26200 39.62300
H  44.38400 44.90800 38.51800
H  52.08100 40.53400 42.01900
H  50.32100 40.34100 42.03200
H  51.19600 40.34600 43.53400
H  54.53800 44.74300 43.06700
H  55.37000 43.39600 44.00600
H  54.02800 44.37900 44.68500
H  52.23100 48.73900 43.18700
H  50.93300 49.10900 45.87800
H  53.00100 47.26800 45.71200
H  53.28300 48.89800 45.95400
H  53.98000 48.05800 44.44400
H  50.27400 51.10800 43.82500
H  51.91300 50.89500 44.19500
H  51.46400 51.71500 46.55100
H  49.76400 51.30700 46.34600
H  50.53800 52.62500 45.40100
H  45.90600 51.06400 43.18200
H  45.60200 51.07200 44.95600
H  44.29300 50.74900 43.85200
H  43.47300 46.31600 41.17200
H  40.89600 44.46100 44.69900
H  40.67300 46.20400 44.81300
H  41.52000 45.26600 46.09300
Mg -5.68600 24.26200 25.54900
C  -4.23000 26.03800 28.18700
C  -7.54600 22.47300 27.83700
C  -6.79700 22.39000 22.97200
C  -3.85400 26.24900 23.28600
N  -5.78100 24.26900 27.70300
C  -5.15700 25.08800 28.59900
C  -5.64400 24.79900 30.12900
C  -6.20500 23.31000 29.94600
C  -6.56100 23.35300 28.40000
C  -5.25900 22.14100 30.33000
C  -6.71300 25.83700 30.58500
C  -6.58400 26.41500 31.95300
H  -5.92800 25.50400 32.98600
N  -7.05400 22.66300 25.43000
C  -7.78600 22.08200 26.48500
C  -8.63800 21.02200 25.96500
C  -8.54800 21.11500 24.52900
C  -7.45300 22.05900 24.25100
C  -9.44800 20.24800 26.87600
C  -9.32200 20.42800 23.39100
O  -9.14700 20.64400 22.20400
C  -10.46400 19.43300 23.72900
N  -5.42300 24.33900 23.49200
C  -5.99700 23.39700 22.66000
C  -5.55200 23.68300 21.14100
C  -5.10800 25.09300 21.29700
C  -4.70800 25.22100 22.75700
C  -4.43500 22.71000 20.68000
C  -6.07600 26.23700 20.92300
C  -5.50000 27.16400 19.87100
N  -4.30000 25.87200 25.64100
C  -3.67900 26.56900 24.66800
C  -2.70100 27.47300 25.31300
C  -2.91300 27.33700 26.65800
C  -3.88500 26.31400 26.85400
C  -1.68900 28.25300 24.53000
C  -2.53700 27.90900 28.00900
O  -1.90400 28.86600 28.37200
C  -3.42400 27.01500 29.06500
C  -2.46900 26.32900 29.95900
O  -1.88700 25.27400 29.69200
O  -2.30500 27.08300 31.13300
C  -1.36900 26.56100 32.16300
H  -8.10500 21.91900 28.59400
H  -7.08500 21.85400 22.06500
H  -3.25600 26.82400 22.57600
H  -4.82800 24.75200 30.85000
H  -7.18200 23.13300 30.39600
H  -4.30000 22.48900 30.71500
H  -5.04200 21.61800 29.39900
H  -5.82300 21.52300 31.02900
H  -7.74200 25.49700 30.47300
H  -6.60900 26.69300 29.91800
H  -7.63700 26.50200 32.22200
H  -6.02000 27.34700 31.90400
H  -9.11700 19.23300 27.09700
H  -10.49600 20.16900 26.59000
H  -9.46300 20.70100 27.86700
H  -11.28300 20.01500 24.15000
H  -9.95700 18.72100 24.38000
H  -10.81300 18.92900 22.82800
H  -6.47800 23.56400 20.58000
H  -4.19700 25.30400 20.73600
H  -4.88900 22.33600 19.76200
H  -4.21400 21.94900 21.42800
H  -3.48200 23.18100 20.43700
H  -6.35500 26.81800 21.80200
H  -7.02600 25.78200 20.64300
H  -4.70900 27.75600 20.33300
H  -6.25000 27.88600 19.54900
H  -5.07400 26.76900 18.94900
H  -0.93400 27.62800 24.05300
H  -1.20000 28.88600 25.27100
H  -2.12000 28.92800 23.79000
H  -4.00800 27.61000 29.76700
H  -1.78000 26.81700 33.13900
H  -0.40900 27.05700 32.02100
H  -1.19300 25.49800 31.99700

