158

Mg 8.62400 3.70800 26.97600
C  9.85600 2.35200 29.86600
C  6.88700 6.09900 28.70500
C  7.00900 4.61000 24.06200
C  9.85900 0.81300 25.20800
N  8.57100 4.25300 29.02200
C  9.13700 3.56200 30.06900
C  8.88600 4.22000 31.39700
C  7.76700 5.26600 31.01200
C  7.73800 5.25100 29.48100
C  6.38000 4.83800 31.47000
C  10.27900 4.77700 31.96500
C  10.82800 4.19500 33.29900
H  11.08500 5.10000 34.35700
N  7.31000 5.17600 26.45500
C  6.72600 6.09100 27.30700
C  5.95500 7.06200 26.54500
C  6.03200 6.71900 25.18500
C  6.81800 5.47700 25.14500
C  5.40100 8.22800 27.25800
C  5.35000 7.52000 24.01300
O  5.47100 7.12800 22.82800
C  4.54900 8.72000 24.24600
N  8.64300 2.90700 24.89600
C  7.94100 3.49500 23.90400
C  7.95100 2.76100 22.56000
C  8.95600 1.60600 22.88900
C  9.16500 1.73500 24.39800
C  6.52800 2.26300 22.10000
C  10.28300 1.78500 22.15900
C  10.33900 1.20300 20.77200
N  9.72100 1.98300 27.38600
C  10.10400 0.86500 26.60700
C  10.77200 -0.17200 27.37300
C  10.68300 0.47400 28.67300
C  10.04900 1.72400 28.62400
C  11.29600 -1.60400 26.92100
C  11.06600 0.27000 30.12900
O  11.54800 -0.67800 30.68200
C  10.55700 1.49400 30.93800
C  9.58300 0.92900 31.97000
O  8.37800 0.76300 31.79300
O  10.20100 0.83400 33.22100
C  9.39400 0.50400 34.42000
H  6.33700 6.86200 29.26000
H  6.50600 4.91100 23.14000
H  10.22700 0.00100 24.57600
H  8.55900 3.42300 32.06500
H  8.04200 6.26400 31.35200
H  6.13900 5.27800 32.43700
H  6.42400 3.76100 31.63500
H  5.58600 5.07000 30.76000
H  10.07700 5.84300 32.07100
H  11.03100 4.74400 31.17600
H  11.74100 3.67600 33.00600
H  10.21200 3.33800 33.57300
H  5.81200 9.13200 26.80900
H  5.41600 8.30200 28.34600
H  4.37300 8.19200 26.90000
H  3.96800 8.99500 23.36600
H  5.13900 9.49200 24.74000
H  3.76900 8.55200 24.98900
H  8.31100 3.46600 21.81000
H  8.65000 0.58200 22.67500
H  6.48600 1.25900 21.67700
H  6.10300 3.02900 21.45200
H  5.78500 2.19000 22.89500
H  11.10500 1.36300 22.73700
H  10.45800 2.85800 22.08500
H  11.00500 0.34300 20.70800
H  10.67100 1.97800 20.08100
H  9.35400 0.82900 20.49400
H  12.37400 -1.70000 27.04300
H  11.09800 -1.87000 25.88300
H  10.86200 -2.32600 27.61300
H  11.44200 1.99000 31.33800
H  9.37200 -0.56200 34.19300
H  8.42900 1.01100 34.42100
H  10.00600 0.79400 35.27400
Mg 25.78800 0.46700 30.08600
C  27.57600 0.03100 32.97700
C  22.87800 0.62300 31.90400
C  24.16100 0.69500 27.07100
C  28.78900 -0.32300 28.18600
N  25.35400 0.31000 32.16500
C  26.19700 0.30100 33.19500
C  25.45600 0.61500 34.52300
C  23.91400 0.31100 34.16600
C  24.03400 0.36100 32.64300
C  23.35600 -1.03300 34.76900
C  25.72900 2.00700 35.05500
C  26.66500 2.09900 36.24300
H  26.21700 2.94700 37.42700
N  23.79900 0.78800 29.53500
C  22.75100 0.88800 30.45200
C  21.50400 1.16500 29.67800
C  21.85500 1.07900 28.29600
C  23.31700 0.85400 28.24300
C  20.27000 1.46300 30.55000
C  20.93900 1.30600 27.12100
O  21.29800 1.49800 25.94200
C  19.46300 1.42700 27.26800
N  26.37600 0.06500 27.84600
C  25.50700 0.37600 26.91300
C  26.20400 0.37200 25.55000
C  27.68600 0.05900 25.84400
C  27.67400 -0.05600 27.34800
C  25.64200 -0.68600 24.54800
C  28.63000 1.16300 25.39500
C  28.31900 2.62800 25.78100
N  27.77900 -0.15500 30.45000
C  28.88700 -0.31700 29.61500
C  30.04100 -0.63000 30.48700
C  29.60600 -0.47900 31.80600
C  28.18800 -0.20100 31.71300
C  31.41400 -0.97900 30.07500
C  30.02300 -0.42300 33.19900
O  31.13400 -0.52500 33.63900
C  28.66300 -0.27000 34.02600
C  28.45100 -1.53300 34.70300
O  27.47500 -2.25700 34.56200
O  29.52200 -1.77900 35.62000
C  29.12700 -2.70200 36.65400
H  21.96400 0.69000 32.49900
H  23.52000 0.67000 26.18700
H  29.68500 -0.55900 27.60900
H  25.89600 -0.12300 35.19400
H  23.40600 1.17000 34.60400
H  24.19100 -1.51200 35.28100
H  22.92700 -1.56200 33.91800
H  22.67300 -0.79300 35.58400
H  24.90000 2.64700 35.35800
H  26.21100 2.57500 34.25900
H  27.62500 2.50200 35.92100
H  26.97900 1.10200 36.55100
H  20.28400 1.75800 31.59900
H  19.53000 0.68900 30.34400
H  19.90800 2.39000 30.10500
H  19.32200 2.34100 27.84400
H  19.04500 0.54200 27.74800
H  19.03500 1.56700 26.27500
H  26.00800 1.37500 25.17100
H  27.96900 -0.81800 25.26100
H  24.89000 -0.16500 23.95500
H  25.22900 -1.52100 25.11500
H  26.37800 -1.13300 23.87900
H  28.62200 0.99900 24.31700
H  29.61200 0.88000 25.77200
H  27.63200 2.68400 26.62500
H  27.94000 3.17900 24.92000
H  29.25600 3.01800 26.17700
H  31.74400 -0.62100 29.09900
H  31.53400 -2.06100 30.02400
H  32.04500 -0.66700 30.90700
H  28.71800 0.50500 34.78900
H  29.95400 -2.92400 37.32800
H  28.95700 -3.68200 36.20700
H  28.18300 -2.51200 37.16500

