158

Mg 46.51100 25.44900 28.14200
C  47.38100 27.88100 30.76700
C  45.11300 23.53600 30.66700
C  46.25100 23.08200 25.84800
C  48.21400 27.56700 25.84600
N  46.35100 25.74000 30.40700
C  46.70600 26.75500 31.26600
C  46.13800 26.56700 32.70800
C  45.65400 25.10900 32.69700
C  45.65600 24.74300 31.15700
C  46.49000 24.07700 33.56900
C  45.00900 27.56900 33.10200
C  45.29400 28.54400 34.23400
H  44.14000 28.83000 35.16100
N  45.65100 23.60000 28.23100
C  45.14300 22.95400 29.34300
C  44.60400 21.68600 28.95400
C  44.99400 21.51400 27.57900
C  45.70400 22.75900 27.13800
C  43.90300 20.74300 29.91600
C  44.73100 20.38200 26.67700
O  45.09100 20.47300 25.51000
C  44.11200 19.12100 27.11700
N  47.01800 25.40900 26.11200
C  46.81500 24.29600 25.32600
C  47.32200 24.47600 23.92200
C  47.81500 25.95200 23.91400
C  47.71700 26.29600 25.34900
C  48.40100 23.52100 23.36400
C  47.13800 26.91000 22.92400
C  45.82300 27.65200 23.42900
N  47.52200 27.40900 28.20500
C  48.15500 28.08300 27.15100
C  48.77400 29.24900 27.76200
C  48.39100 29.25000 29.13100
C  47.75800 28.05200 29.38700
C  49.60200 30.18800 26.98900
C  48.53300 30.00100 30.32500
O  48.95600 31.11200 30.57800
C  47.89500 29.06900 31.47400
C  48.86800 28.75200 32.54300
O  49.62500 27.74500 32.61200
O  48.82900 29.76500 33.46800
C  49.16500 29.30000 34.80600
H  44.65600 22.92400 31.44700
H  46.17800 22.44600 24.96400
H  48.88500 28.11600 25.18200
H  46.99300 26.60700 33.38200
H  44.59900 25.02500 32.95500
H  46.83700 23.29100 32.89800
H  45.79800 23.60200 34.26500
H  47.26700 24.36500 34.27800
H  44.16500 26.97300 33.44900
H  44.62700 28.05600 32.20400
H  45.45600 29.49500 33.72800
H  46.21400 28.35000 34.78500
H  43.15300 20.21200 29.33000
H  43.47600 21.22100 30.79700
H  44.78500 20.19000 30.24100
H  44.66400 18.78900 27.99700
H  44.25700 18.37900 26.33200
H  43.07600 19.24600 27.43000
H  46.42600 24.38600 23.30800
H  48.87100 25.95600 23.64400
H  48.77500 22.94600 24.21200
H  49.21600 23.94900 22.78000
H  47.94200 22.88800 22.60400
H  46.83300 26.56100 21.93700
H  47.85300 27.70100 22.69600
H  45.92400 28.72900 23.55900
H  45.60700 27.22400 24.40800
H  45.00700 27.46400 22.73100
H  49.59500 31.13900 27.52100
H  48.97800 30.36300 26.11300
H  50.63400 29.86300 26.85000
H  47.09500 29.68100 31.89000
H  50.17100 28.88200 34.78900
H  48.46400 28.52800 35.12600
H  49.11100 30.21300 35.39900
Mg 16.66500 52.22700 26.39500
C  18.52500 50.79500 29.06700
C  14.13000 52.93100 28.65900
C  14.81700 53.31000 23.80200
C  19.14400 51.21000 24.29200
N  16.44700 51.95200 28.67900
C  17.31100 51.38600 29.51800
C  16.81200 51.54900 30.96400
C  15.31500 51.91400 30.71100
C  15.25100 52.33300 29.21000
C  14.30400 50.80100 30.99900
C  17.62300 52.68300 31.63300
C  18.36400 52.15500 32.95600
H  17.61300 52.35100 34.23000
N  14.75200 53.13400 26.24300
C  13.93000 53.41700 27.32300
C  12.79300 54.20700 26.86300
C  12.99900 54.30900 25.44800
C  14.24100 53.56500 25.09000
C  11.58300 54.64900 27.75000
C  12.19100 55.05100 24.37400
O  12.56200 55.08200 23.18100
C  10.87500 55.69300 24.74300
N  16.98000 52.36700 24.37600
C  16.00100 52.74400 23.51500
C  16.45200 52.55600 22.06100
C  17.86300 51.96800 22.26900
C  18.04300 51.82900 23.75600
C  15.44800 51.68800 21.23400
C  18.90500 52.73700 21.48800
C  19.85000 51.81400 20.66100
N  18.47800 51.20000 26.56300
C  19.39100 50.82500 25.59600
C  20.44000 49.99800 26.22400
C  20.10100 49.94700 27.58700
C  18.95500 50.72300 27.73600
C  21.71700 49.59200 25.56400
C  20.55300 49.50700 28.86500
O  21.47000 48.78200 29.21200
C  19.60200 50.09000 29.87800
C  19.21000 49.04000 30.84300
O  18.61800 48.03500 30.45000
O  19.76500 49.17300 32.07500
C  19.38500 48.20300 33.12400
H  13.39100 53.10500 29.44400
H  14.20600 53.61100 22.94900
H  19.83700 50.88300 23.51300
H  16.83000 50.57700 31.45800
H  14.94500 52.82900 31.17300
H  13.45200 51.35200 31.39600
H  14.74400 50.01900 31.61800
H  13.92100 50.33300 30.09200
H  16.95900 53.50700 31.89200
H  18.48100 53.02000 31.05100
H  19.23000 52.81400 33.02600
H  18.58100 51.09100 32.86200
H  11.75700 54.53600 28.82000
H  10.67300 54.09100 27.53000
H  11.40500 55.71800 27.63200
H  10.45300 56.05500 23.80500
H  11.09800 56.56600 25.35600
H  10.24700 54.93500 25.21100
H  16.52800 53.56300 21.65100
H  17.91400 50.95600 21.86700
H  14.71900 51.21800 21.89400
H  15.84800 51.04300 20.45100
H  14.82900 52.38900 20.67500
H  19.52100 53.15400 22.28400
H  18.54400 53.60100 20.93000
H  20.21100 52.40900 19.82100
H  19.35100 50.97000 20.18600
H  20.69000 51.40700 21.22500
H  22.39800 50.42500 25.74400
H  21.61500 49.55800 24.48000
H  22.11300 48.67300 25.99700
H  20.20400 50.79600 30.45000
H  19.53400 48.59800 34.12900
H  19.84700 47.21600 33.16000
H  18.32200 47.97900 33.03800

