158

Mg 35.79800 2.45600 29.76900
C  33.48400 3.40700 32.27100
C  38.24500 2.54300 32.18400
C  38.00900 1.73900 27.44900
C  33.26400 2.87000 27.43500
N  35.80900 2.96500 31.95500
C  34.76800 3.12700 32.80200
C  35.19100 3.13600 34.26500
C  36.71100 3.16800 34.14800
C  36.92900 2.75300 32.66600
C  37.31200 4.47300 34.59600
C  34.52700 1.92100 35.00100
C  33.81300 2.26400 36.37600
H  34.40200 3.30100 37.29600
N  37.89400 2.13800 29.84300
C  38.75600 2.21400 30.92600
C  40.07700 1.79400 30.51800
C  40.02600 1.46400 29.11000
C  38.67200 1.81800 28.71500
C  41.28300 1.80200 31.40500
C  41.19700 0.97900 28.22300
O  41.11500 0.81600 27.01900
C  42.58400 0.61000 28.76400
N  35.65800 2.43200 27.75800
C  36.69100 1.96800 26.96300
C  36.23300 1.62400 25.54200
C  34.77100 2.07300 25.48800
C  34.50700 2.46800 27.00800
C  37.12600 2.36700 24.52100
C  33.85000 1.01200 24.95500
C  32.54400 1.49500 24.22400
N  33.75700 3.05200 29.78100
C  32.87600 3.21100 28.71600
C  31.55800 3.67600 29.27300
C  31.73300 3.68900 30.69200
C  33.15200 3.41600 30.90800
C  30.34900 3.95700 28.42600
C  31.10200 3.88000 31.92300
O  29.93100 4.19500 32.14400
C  32.22200 3.70600 33.00900
C  32.30500 4.99300 33.80700
O  33.10300 5.87600 33.70700
O  31.32200 4.99200 34.80800
C  31.11900 6.01700 35.77900
H  38.98600 2.59700 32.98500
H  38.79600 1.47400 26.73900
H  32.48900 3.09100 26.69800
H  34.74500 4.03900 34.68000
H  37.14600 2.37400 34.75500
H  37.69000 4.35300 35.61100
H  36.54000 5.21000 34.37500
H  38.08200 4.73800 33.87300
H  35.30100 1.15400 35.02800
H  33.73500 1.56900 34.34100
H  33.61100 1.32900 36.89900
H  32.79500 2.48600 36.05600
H  42.22600 2.23200 31.06700
H  41.56400 0.75700 31.53700
H  41.01300 2.17800 32.39200
H  43.18000 0.14700 27.97700
H  42.56500 -0.05100 29.63100
H  43.16200 1.47500 29.08900
H  36.42000 0.58200 25.28500
H  34.70800 3.01000 24.93400
H  37.78900 1.64700 24.04200
H  37.79300 3.12500 24.93300
H  36.51400 2.71400 23.68900
H  33.56100 0.30700 25.73500
H  34.39600 0.36300 24.27000
H  32.44600 2.57700 24.31200
H  31.61100 0.94800 24.36600
H  32.74200 1.22600 23.18700
H  30.74100 4.62200 27.65700
H  29.54500 4.47600 28.94800
H  29.96500 3.11000 27.85800
H  31.95900 2.88000 33.67100
H  30.66400 5.62400 36.68800
H  30.45300 6.80400 35.42200
H  32.00100 6.49600 36.20400
Mg 46.63900 16.87500 28.83600
C  44.55400 16.33100 31.50900
C  48.69700 18.69500 30.85500
C  48.24500 17.92600 26.09300
C  44.16500 15.36400 26.76500
N  46.63100 17.39400 31.00400
C  45.68700 17.06200 31.90500
C  46.27000 17.34700 33.37200
C  47.46000 18.37400 33.07500
C  47.67000 18.12700 31.56200
C  47.25400 19.88300 33.35600
C  46.69600 16.03900 34.18900
C  46.20800 15.99500 35.61000
H  45.83500 17.29500 36.36000
N  48.26200 18.13600 28.56600
C  49.04600 18.75600 29.56200
C  50.15600 19.40200 28.95200
C  50.03400 19.20900 27.49700
C  48.74500 18.40300 27.32300
C  51.19900 20.22000 29.76500
C  50.94300 19.60900 26.41300
O  50.66000 19.47200 25.24300
C  52.35900 20.19300 26.80300
N  46.34700 16.55100 26.68900
C  47.07200 17.23500 25.75800
C  46.57600 16.91400 24.35500
C  45.45100 15.88400 24.62700
C  45.27700 15.89900 26.11900
C  46.14200 18.18700 23.52600
C  45.86000 14.44000 24.08400
C  44.80900 13.55300 23.37000
N  44.76100 15.97200 29.05400
C  43.89200 15.43200 28.17500
C  42.68500 14.95900 28.85800
C  42.90500 15.24300 30.20600
C  44.22000 15.79300 30.25000
C  41.49300 14.49100 28.25700
C  42.40800 15.14100 31.56900
O  41.38700 14.64100 32.06200
C  43.42200 15.85700 32.44900
C  42.72200 16.92200 33.15700
O  42.70300 18.06600 32.78500
O  42.21900 16.38800 34.31900
C  41.38800 17.29600 35.04800
H  49.43700 19.20400 31.47500
H  48.82900 18.03800 25.17700
H  43.40900 14.97700 26.07900
H  45.49800 17.84200 33.96200
H  48.25900 17.99500 33.71300
H  48.09600 20.24600 33.94500
H  46.34000 20.01200 33.93600
H  47.16000 20.46600 32.44000
H  47.76500 15.82600 34.17000
H  46.22700 15.22800 33.63100
H  46.94100 15.70600 36.36300
H  45.42800 15.23600 35.67700
H  52.11000 19.70900 30.07700
H  50.72800 20.56700 30.68500
H  51.29500 21.17700 29.25200
H  52.73500 19.53000 27.58200
H  52.14000 21.11400 27.34200
H  53.02300 20.30900 25.94600
H  47.40100 16.49700 23.77700
H  44.49400 16.15800 24.18200
H  45.10900 18.09200 23.19200
H  46.65600 18.36900 22.58200
H  46.21900 19.02300 24.22000
H  46.26300 13.95800 24.97500
H  46.73700 14.56100 23.44800
H  45.17900 13.37400 22.36000
H  43.77000 13.86100 23.48700
H  44.82800 12.62300 23.93700
H  41.52200 13.40900 28.13300
H  41.43400 14.99500 27.29200
H  40.63200 14.79900 28.85100
H  43.88400 15.17200 33.15900
H  40.61000 17.81600 34.48900
H  42.05800 18.07200 35.41700
H  40.95400 16.88100 35.95800

