158

Mg -1.52700 17.27000 26.16200
C  -1.83300 14.94500 28.86500
C  -2.05100 19.77800 28.32600
C  -1.46900 19.24000 23.49800
C  -1.55200 14.37700 23.96300
N  -2.19900 17.28800 28.42100
C  -1.97100 16.34100 29.30200
C  -2.01600 16.82300 30.68200
C  -2.18100 18.37500 30.52800
C  -2.19300 18.52400 29.02300
C  -3.51000 18.99200 31.03300
C  -0.81400 16.24200 31.62400
C  -0.45000 17.17100 32.78200
H  -0.28300 16.55900 34.19100
N  -1.76400 19.29600 25.90200
C  -1.81200 20.18500 26.97100
C  -1.78000 21.50500 26.40400
C  -1.45500 21.33800 25.01300
C  -1.59100 19.93500 24.72200
C  -2.10400 22.72300 27.30300
C  -1.10200 22.39700 23.97000
O  -0.81900 22.06000 22.79500
C  -0.98700 23.88300 24.44800
N  -1.52000 16.88600 24.06100
C  -1.52700 17.89100 23.15700
C  -1.61800 17.37200 21.65000
C  -1.35400 15.82800 21.93600
C  -1.53200 15.68000 23.41200
C  -3.01200 17.73100 20.83100
C  -0.03100 15.24200 21.37600
C  1.20000 15.67100 22.22200
N  -1.65000 15.10000 26.32300
C  -1.63800 14.10500 25.31100
C  -1.70300 12.79100 25.93300
C  -1.72100 13.02800 27.30000
C  -1.77400 14.47600 27.49400
C  -1.75700 11.43700 25.27400
C  -1.83600 12.43100 28.62900
O  -1.80000 11.26400 28.92600
C  -1.87300 13.59300 29.64300
C  -0.82800 13.34500 30.63700
O  0.39200 13.52800 30.48100
O  -1.31100 12.76300 31.80200
C  -0.31000 12.44300 32.86100
H  -2.10000 20.63700 28.99900
H  -1.58500 19.83700 22.59000
H  -1.44600 13.53000 23.28200
H  -2.89700 16.35100 31.11900
H  -1.39700 18.99400 30.96400
H  -4.24100 18.68400 30.28500
H  -3.41500 20.07200 31.13700
H  -3.72500 18.60200 32.02800
H  0.06600 16.16400 30.98500
H  -1.11400 15.28700 32.05600
H  -1.21600 17.92900 32.94300
H  0.52200 17.62600 32.59200
H  -1.37100 23.50900 27.12000
H  -1.97400 22.63500 28.38100
H  -3.13300 23.03700 27.12400
H  -0.02300 24.03000 24.93400
H  -1.90000 24.25500 24.91400
H  -0.94700 24.39500 23.48700
H  -0.74500 17.63500 21.05200
H  -2.20900 15.29700 21.51600
H  -3.40100 18.66300 21.24200
H  -3.75300 16.93900 20.93900
H  -2.86300 17.93800 19.77100
H  0.23300 15.75800 20.45200
H  -0.13000 14.17500 21.17700
H  0.96100 16.47800 22.91400
H  2.02000 15.99200 21.58000
H  1.54100 14.84800 22.85000
H  -0.86300 11.00200 24.82700
H  -2.50800 11.42700 24.48500
H  -2.15600 10.84300 26.09600
H  -2.84100 13.59300 30.14500
H  0.72600 12.27900 32.56400
H  -0.64500 11.55000 33.38900
H  -0.34300 13.28400 33.55400
Mg 47.39800 14.81000 27.81600
C  45.38600 14.77300 30.75900
C  49.44900 16.98000 29.42500
C  48.87100 15.19600 24.95900
C  44.70000 13.23000 26.13000
N  47.35600 15.68100 29.94200
C  46.55600 15.54000 31.00200
C  47.12600 15.97200 32.32800
C  48.37500 16.77300 31.81500
C  48.42900 16.48500 30.28000
C  48.29200 18.34800 32.13300
C  47.36800 14.81800 33.30000
C  47.00700 15.12700 34.76800
H  46.94100 16.61900 35.27400
N  48.98100 15.87200 27.29000
C  49.72700 16.63000 28.08300
C  50.87700 17.22200 27.39000
C  50.85300 16.70300 26.08300
C  49.51500 15.88700 26.00300
C  51.89400 18.12000 28.10700
C  51.88900 16.77800 24.94500
O  51.63000 16.20500 23.87200
C  53.23400 17.49500 25.01200
N  46.75700 14.41100 25.80400
C  47.66000 14.57800 24.85000
C  47.18600 13.96900 23.52300
C  45.74700 13.38500 23.85800
C  45.70200 13.73400 25.35500
C  47.33900 14.80500 22.20200
C  45.47900 12.06100 23.30500
C  46.12100 10.88800 24.04300
N  45.57300 13.95400 28.35200
C  44.58800 13.36700 27.51400
C  43.47400 13.07800 28.36300
C  43.71500 13.61400 29.64200
C  44.98700 14.18100 29.57000
C  42.21600 12.28400 27.98200
C  43.12400 13.79700 30.94300
O  42.03800 13.52200 31.36600
C  44.28500 14.44800 31.79900
C  43.69600 15.67300 32.53400
O  43.54500 16.82500 32.15100
O  43.34400 15.23300 33.76900
C  42.68500 16.23800 34.57800
H  50.25600 17.37200 30.04700
H  49.40300 15.27100 24.00900
H  43.92300 12.63600 25.64300
H  46.52100 16.74700 32.79900
H  49.23000 16.39600 32.37400
H  48.04400 18.98100 31.28100
H  49.29300 18.59800 32.48400
H  47.65100 18.46700 33.00700
H  48.44800 14.75700 33.16000
H  46.92000 13.86800 33.00900
H  47.71000 14.58100 35.39700
H  45.98500 14.76000 34.85800
H  52.30600 18.89500 27.46100
H  52.71400 17.55600 28.55100
H  51.28100 18.65300 28.83400
H  53.80700 16.80100 25.62800
H  53.04400 18.45400 25.49300
H  53.69100 17.51900 24.02300
H  47.79000 13.06700 23.42300
H  45.00600 13.94400 23.28600
H  46.90700 14.25100 21.36800
H  48.37500 15.10300 22.04200
H  46.69800 15.67700 22.33600
H  45.73300 12.14500 22.24800
H  44.41300 11.94600 23.50300
H  45.41300 10.18200 24.47700
H  46.81500 11.23300 24.80900
H  46.58000 10.29600 23.25100
H  42.24400 11.34200 28.52900
H  42.14400 12.09600 26.91100
H  41.35900 12.92000 28.20300
H  44.63500 13.75200 32.56100
H  41.82700 16.69900 34.08700
H  43.24800 17.11200 34.90400
H  42.34500 15.88500 35.55200

