158

Mg 42.64200 41.07900 26.06900
C  41.63300 43.50300 28.54800
C  43.54100 39.09400 28.73500
C  43.53400 39.02800 23.84500
C  41.78300 43.62700 23.57200
N  42.51800 41.26800 28.38300
C  42.01200 42.30600 29.16000
C  42.05200 42.00200 30.67600
C  42.87600 40.64500 30.65100
C  42.99300 40.31600 29.17700
C  44.18100 40.60400 31.43400
C  40.67500 41.93100 31.31800
C  40.75000 41.53900 32.84200
H  40.22500 42.56900 33.80300
N  43.52500 39.28600 26.21800
C  43.70800 38.62800 27.38800
C  44.23300 37.28800 26.95300
C  44.18600 37.25800 25.53200
C  43.79700 38.56300 25.11900
C  44.68400 36.18900 27.97400
C  44.52300 36.16500 24.56200
O  44.42300 36.24900 23.28400
C  44.94300 34.85200 25.12000
N  42.90700 41.39400 23.96200
C  43.09300 40.24500 23.25200
C  42.93100 40.51200 21.73700
C  42.15800 41.93100 21.77000
C  42.15900 42.33800 23.22800
C  44.23100 40.58300 20.80300
C  40.67900 41.78700 21.22900
C  39.79700 40.67000 21.79600
N  41.96300 43.17100 25.99400
C  41.68800 44.03200 24.95800
C  41.22100 45.30300 25.47900
C  41.14400 45.12500 26.86900
C  41.61700 43.80700 27.12300
C  40.88600 46.53400 24.61500
C  40.74500 45.79900 28.14000
O  40.28300 46.91500 28.32300
C  41.02800 44.71800 29.27100
C  41.79100 45.38000 30.38000
O  43.03100 45.56200 30.40700
O  40.93000 45.80200 31.32100
C  41.50400 46.29900 32.61200
H  44.01900 38.43900 29.46600
H  43.67100 38.37800 22.97900
H  41.45200 44.29000 22.77000
H  42.62400 42.72700 31.25500
H  42.16600 39.94500 31.09100
H  44.24400 41.39100 32.18500
H  45.11500 40.68400 30.87900
H  44.16200 39.69800 32.04100
H  39.92100 41.36000 30.77700
H  40.25300 42.93600 31.31000
H  41.78600 41.29500 33.07700
H  40.03800 40.72300 32.96200
H  44.46500 36.42500 29.01500
H  45.76000 36.01900 27.94600
H  44.27700 35.21100 27.71700
H  44.12000 34.21000 25.43600
H  45.69000 34.94200 25.90800
H  45.47900 34.45100 24.26000
H  42.20400 39.75300 21.44800
H  42.71000 42.68800 21.21200
H  43.90500 40.18100 19.84300
H  45.01300 39.86500 21.05100
H  44.65200 41.57900 20.66400
H  40.77400 41.56100 20.16700
H  40.27600 42.79100 21.36200
H  39.48000 39.95000 21.04200
H  38.89900 40.99200 22.32400
H  40.39300 40.12100 22.52500
H  41.82600 46.95700 24.26100
H  40.33500 47.25700 25.21700
H  40.20700 46.23700 23.81600
H  40.12200 44.36800 29.76700
H  42.26800 47.05700 32.43800
H  41.85100 45.52000 33.29000
H  40.71500 46.85200 33.12100
Mg -2.31900 34.29900 25.94900
C  -4.04200 32.76000 28.53000
C  -0.73500 36.23900 28.40300
C  -0.70200 35.95900 23.61100
C  -4.05400 32.37500 23.64200
N  -2.57400 34.57600 28.13000
C  -3.21300 33.80200 29.00600
C  -2.82700 33.97900 30.41700
C  -2.23900 35.43300 30.26100
C  -1.84500 35.44100 28.77700
C  -3.28000 36.51700 30.65600
C  -1.82400 32.88100 30.97200
C  -1.10900 33.15000 32.27000
H  -1.80300 32.56000 33.49800
N  -0.88300 35.92200 26.00200
C  -0.25900 36.52000 27.09000
C  0.82200 37.40000 26.63800
C  0.91700 37.17700 25.25700
C  -0.22600 36.36400 24.86900
C  1.72800 38.13700 27.57800
C  1.87500 37.68700 24.19800
O  1.71500 37.41100 23.02000
C  2.98600 38.53400 24.76100
N  -2.55200 34.28600 23.98500
C  -1.75300 35.10100 23.25900
C  -2.04200 34.98700 21.79400
C  -2.95000 33.69500 21.76300
C  -3.18800 33.38400 23.22100
C  -2.66100 36.26700 21.10800
C  -2.37000 32.45600 21.04600
C  -1.36200 31.56400 21.76400
N  -3.78200 32.85100 25.96600
C  -4.32700 32.09000 24.96600
C  -5.23300 31.08800 25.57800
C  -5.13500 31.29800 26.94100
C  -4.21500 32.37600 27.16000
C  -6.11800 30.12400 24.85500
C  -5.52700 30.78900 28.20500
O  -6.20800 29.80100 28.57700
C  -4.81700 31.73000 29.28900
C  -5.89900 32.31500 30.17700
O  -6.65500 33.23700 29.85300
O  -5.92300 31.71300 31.38100
C  -6.92800 32.23400 32.39500
H  -0.25200 36.73100 29.25000
H  -0.21300 36.34600 22.71500
H  -4.74800 31.95000 22.91300
H  -3.77700 33.97700 30.95100
H  -1.32500 35.66900 30.80600
H  -2.99500 37.10600 31.52800
H  -4.27400 36.13400 30.88700
H  -3.11800 37.16600 29.79600
H  -1.15500 32.45900 30.22200
H  -2.44600 32.00200 31.14100
H  -1.01700 34.22200 32.44400
H  -0.08300 32.78300 32.22800
H  1.31200 38.23100 28.58000
H  1.83400 39.17100 27.25000
H  2.68700 37.62100 27.63800
H  3.53200 38.71300 23.83400
H  3.57400 37.86200 25.38700
H  2.54700 39.37500 25.29700
H  -1.15100 34.67900 21.24700
H  -3.93100 33.82900 21.30700
H  -2.03400 36.74000 20.35300
H  -2.91000 37.04900 21.82500
H  -3.59600 35.90200 20.68100
H  -1.82700 32.68000 20.12700
H  -3.18100 31.87400 20.60900
H  -0.47400 31.48500 21.13700
H  -1.56900 30.52400 22.01500
H  -1.01600 32.09100 22.65300
H  -6.95400 29.64600 25.36500
H  -5.46200 29.29200 24.59500
H  -6.64900 30.57000 24.01400
H  -4.10200 31.10600 29.82700
H  -6.47200 32.93000 33.10000
H  -7.38000 31.36000 32.86400
H  -7.75300 32.78900 31.94700

