158

Mg 48.13600 45.87000 43.17100
C  44.89900 46.23000 42.11000
C  48.31800 42.72000 41.83900
C  51.64400 46.20600 42.93000
C  48.08300 49.15400 44.30600
N  46.80500 44.72000 42.07900
C  45.52900 45.10200 41.70100
C  44.87700 43.94200 40.93200
C  45.83100 42.72000 41.19300
C  47.09300 43.42300 41.74900
C  45.27100 41.65400 42.14400
C  44.68800 44.29700 39.41300
C  43.43900 43.54700 38.83100
H  43.52700 43.16600 37.33000
N  49.76000 44.63300 42.57800
C  49.59700 43.32600 42.08300
C  50.90400 42.77800 41.75300
C  51.90100 43.69000 42.15500
C  51.14000 44.88600 42.55700
C  51.11200 41.36300 41.20900
C  53.37300 43.47200 42.06600
O  53.80700 42.40000 41.67900
C  54.33000 44.61000 42.44100
N  49.56300 47.45200 43.43300
C  50.92200 47.29400 43.34800
C  51.64900 48.49900 43.96400
C  50.60200 49.50200 44.27400
C  49.33200 48.65500 44.06400
C  52.63700 48.10100 45.08000
C  50.63800 50.79300 43.32700
C  51.48900 51.98300 43.87700
N  46.71200 47.33000 43.45400
C  46.78900 48.60800 43.99000
C  45.44600 49.19700 43.99900
C  44.68000 48.32500 43.22300
C  45.51900 47.23600 42.85200
C  45.15400 50.66900 44.46900
C  43.39800 48.12900 42.60000
O  42.45100 48.95900 42.66200
C  43.43200 46.77100 41.82700
C  42.43200 45.81400 42.30100
O  41.46200 45.44400 41.64400
O  42.42400 45.65200 43.62700
C  41.27000 44.92700 44.18200
H  48.42100 41.66000 41.60000
H  52.72600 46.34800 42.94000
H  48.07500 50.18900 44.65400
H  43.89800 43.74200 41.36500
H  46.06600 42.18300 40.27300
H  44.31200 41.98000 42.54600
H  45.98100 41.65800 42.97100
H  45.26700 40.62800 41.77600
H  45.54500 43.99700 38.81000
H  44.44400 45.35600 39.32600
H  42.49700 44.04100 39.07200
H  43.43900 42.66400 39.47000
H  51.58700 41.41200 40.22900
H  50.24900 40.71300 41.05900
H  51.74800 40.71000 41.80600
H  54.41000 45.36200 41.65600
H  55.35900 44.34300 42.68400
H  53.99800 44.96400 43.41600
H  52.22300 48.95800 43.15900
H  50.66200 49.81800 45.31500
H  52.48200 47.03900 45.26800
H  52.49800 48.70000 45.98000
H  53.64800 48.20500 44.68300
H  49.65600 51.25900 43.23800
H  50.98700 50.57800 42.31700
H  51.64400 51.94400 44.95500
H  50.97100 52.94000 43.81800
H  52.41500 52.07700 43.31000
H  45.93600 51.41100 44.30900
H  44.85200 50.67500 45.51700
H  44.23700 50.92900 43.94000
H  43.23900 47.16400 40.82900
H  41.48000 44.55400 45.18400
H  40.74200 44.17500 43.59600
H  40.52500 45.64700 44.52100
Mg 26.67000 50.45600 27.04300
C  24.52900 51.22600 29.73400
C  28.95600 49.57800 29.34300
C  28.73000 49.89200 24.53900
C  24.20000 51.68900 24.87800
N  26.67300 50.30700 29.35300
C  25.67200 50.62900 30.19400
C  26.05000 50.17800 31.62600
C  27.51100 49.76400 31.48500
C  27.77300 49.96900 29.99100
C  28.64200 50.48500 32.27900
C  25.03200 49.19500 32.34400
C  24.17200 49.74100 33.44400
H  24.36300 49.19300 34.85300
N  28.59900 49.94300 26.95200
C  29.35600 49.53000 28.00800
C  30.67800 49.06500 27.50700
C  30.67300 49.33800 26.10600
C  29.33200 49.79900 25.79400
C  31.66100 48.43700 28.39300
C  31.80700 48.97300 25.20200
O  31.69600 49.05300 23.94100
C  33.01300 48.40800 25.68500
N  26.39700 50.62400 25.05700
C  27.41600 50.22400 24.14800
C  26.84200 50.25900 22.69600
C  25.41000 50.81300 22.86000
C  25.30700 51.06700 24.32800
C  27.59000 50.95400 21.57100
C  24.26600 49.89900 22.26300
C  23.84100 50.47300 20.88000
N  24.79300 51.40600 27.25900
C  23.92000 51.90800 26.26400
C  22.68000 52.24900 26.85900
C  22.89500 52.06100 28.26000
C  24.18900 51.57500 28.41200
C  21.45500 52.61700 26.15800
C  22.24900 52.18500 29.51800
O  21.11700 52.60800 29.84100
C  23.32100 51.65500 30.55500
C  23.66900 52.79900 31.43400
O  24.30800 53.78200 31.07100
O  23.08500 52.68300 32.59900
C  23.26000 53.77300 33.60200
H  29.63500 49.34300 30.16500
H  29.33200 49.65600 23.65900
H  23.43900 52.03400 24.17600
H  26.10700 51.17800 32.05700
H  27.52900 48.68600 31.64700
H  29.25600 49.68400 32.69100
H  28.22000 51.12700 33.05100
H  29.23700 51.11500 31.61700
H  25.67100 48.40500 32.74000
H  24.39700 48.81700 31.54300
H  23.11100 49.57100 33.26100
H  24.40400 50.80600 33.46300
H  32.49900 49.11300 28.56300
H  32.03800 47.48000 28.03000
H  31.25600 48.04700 29.32700
H  33.74300 48.39600 24.87600
H  32.71900 47.43200 26.07000
H  33.31600 49.11700 26.45700
H  26.90400 49.17700 22.57800
H  25.36500 51.79700 22.39400
H  28.56000 51.40000 21.79300
H  26.95900 51.64800 21.01500
H  27.72600 50.05900 20.96400
H  23.47700 49.89200 23.01600
H  24.55500 48.86200 22.09400
H  24.23400 51.48300 20.76200
H  22.75300 50.53500 20.85000
H  24.18400 49.78200 20.11000
H  21.46500 52.20900 25.14700
H  21.36200 53.69700 26.05200
H  20.69900 52.17800 26.81000
H  22.83900 50.80600 31.03900
H  23.97300 54.55900 33.35300
H  23.72000 53.09500 34.32100
H  22.38300 54.34300 33.91000

