158

Mg 36.22600 49.59400 24.76400
C  36.33200 47.98700 27.95500
C  34.91000 52.37100 26.38700
C  35.97500 50.97000 21.83700
C  37.17900 46.54300 23.33200
N  35.55100 50.08600 26.88400
C  35.86800 49.30200 28.03200
C  35.57000 50.11200 29.28500
C  34.87900 51.42800 28.66500
C  35.00800 51.22800 27.19500
C  33.35000 51.61900 29.16000
C  36.83500 50.18800 30.26000
C  36.64300 49.64500 31.66200
H  36.66300 50.68200 32.78500
N  35.74100 51.47300 24.21200
C  35.20300 52.47200 24.96700
C  35.02500 53.64000 24.16200
C  35.37700 53.26900 22.80900
C  35.78700 51.85200 22.86500
C  34.35000 54.91000 24.67000
C  35.30400 54.06900 21.51600
O  35.57600 53.67800 20.40300
C  34.87500 55.49500 21.45900
N  36.40600 48.78300 22.87300
C  36.20400 49.53200 21.79900
C  36.58600 48.87500 20.51500
C  37.27500 47.53200 21.00200
C  36.92600 47.58700 22.50400
C  35.33300 48.71200 19.59100
C  38.75100 47.43600 20.72500
C  39.15900 46.19500 19.77000
N  36.50700 47.61200 25.41100
C  37.03000 46.55300 24.73200
C  37.18600 45.45300 25.67000
C  36.96100 45.96600 26.89600
C  36.52400 47.28500 26.72600
C  37.61600 44.08900 25.27400
C  36.99700 45.62400 28.30700
O  37.39500 44.62500 28.86400
C  36.52900 46.89000 29.06300
C  35.21700 46.54800 29.71600
O  34.16400 46.44100 29.15400
O  35.41200 46.31200 31.03100
C  34.23000 45.81800 31.70800
H  34.53000 53.23900 26.93100
H  35.99900 51.43000 20.84700
H  37.52700 45.62000 22.86500
H  34.77100 49.54000 29.75600
H  35.47900 52.30000 28.92900
H  33.00600 50.87600 29.88000
H  32.59200 51.57700 28.37800
H  33.27800 52.62700 29.56900
H  37.16800 51.21900 30.37800
H  37.66300 49.59700 29.86700
H  37.49600 48.98800 31.82700
H  35.72800 49.05400 31.71000
H  34.68100 55.73900 24.04400
H  34.56500 55.14500 25.71300
H  33.27300 54.82800 24.52600
H  35.02800 55.94600 20.47900
H  35.46900 56.11000 22.13500
H  33.79900 55.53200 21.62700
H  37.23300 49.59900 20.01900
H  36.66600 46.69800 20.65400
H  34.37600 48.53700 20.08200
H  35.46800 47.77800 19.04600
H  35.19000 49.50200 18.85300
H  39.13500 47.26800 21.73100
H  39.12200 48.37300 20.30900
H  39.87300 46.61400 19.06100
H  38.20200 45.82000 19.40600
H  39.68600 45.40300 20.30100
H  37.00900 43.86900 24.39500
H  37.45400 43.42200 26.12100
H  38.68000 44.07100 25.04000
H  37.27400 47.16900 29.80800
H  34.46200 45.94700 32.76500
H  34.03800 44.76700 31.48900
H  33.33100 46.37900 31.45400
Mg -5.46200 25.05000 26.59900
C  -4.06600 26.50200 29.47700
C  -7.63400 23.16200 28.53900
C  -6.44600 23.51900 23.88800
C  -3.13000 26.86300 24.74000
N  -5.77200 24.88600 28.75000
C  -5.08400 25.53100 29.74300
C  -5.47800 24.92600 31.04800
C  -6.53100 23.83000 30.77600
C  -6.67100 24.00100 29.25900
C  -6.15400 22.45500 31.34800
C  -5.94900 26.02700 32.03900
C  -5.64800 25.70700 33.50100
H  -5.08000 24.38200 33.88800
N  -6.90100 23.66300 26.30300
C  -7.65000 22.94100 27.20200
C  -8.59000 21.98700 26.51500
C  -8.30300 22.16000 25.15600
C  -7.16400 23.16800 25.06200
C  -9.45900 21.13600 27.24000
C  -9.04700 21.58600 23.98400
O  -8.66500 21.71800 22.82700
C  -10.27300 20.64000 24.20400
N  -4.88100 25.22600 24.63300
C  -5.42100 24.41800 23.68600
C  -4.70400 24.51900 22.31200
C  -3.86600 25.84200 22.58000
C  -3.97900 26.06300 24.06800
C  -3.91100 23.22800 21.77700
C  -4.40500 27.10400 21.84300
C  -3.51500 27.71000 20.78800
N  -3.92500 26.53000 26.96900
C  -3.06900 27.17700 26.13000
C  -2.13900 28.03700 26.82600
C  -2.44100 27.77600 28.17800
C  -3.58100 26.80200 28.17600
C  -1.04900 28.81700 26.16100
C  -2.09000 28.02800 29.57900
O  -1.35300 28.74500 30.20500
C  -3.13200 27.22700 30.40000
C  -2.41200 26.38800 31.33900
O  -2.05500 25.19900 31.09400
O  -1.99700 27.09900 32.47000
C  -1.38800 26.32100 33.50100
H  -8.42900 22.70600 29.13300
H  -6.70400 22.95700 22.98800
H  -2.38500 27.35100 24.10800
H  -4.51300 24.49600 31.31400
H  -7.48300 24.18600 31.17000
H  -6.16800 21.69100 30.57100
H  -6.86800 22.13200 32.10600
H  -5.17400 22.39100 31.82100
H  -7.02300 26.21600 32.06600
H  -5.53600 27.00100 31.77800
H  -6.50700 25.92500 34.13700
H  -4.93400 26.43200 33.89000
H  -9.18600 20.18300 26.78700
H  -10.48300 21.35200 26.93500
H  -9.34800 21.06200 28.32200
H  -10.02000 19.73200 24.75300
H  -10.50700 20.23400 23.22000
H  -11.10600 21.19600 24.63300
H  -5.47500 24.68500 21.56000
H  -2.82100 25.61900 22.36500
H  -2.83700 23.36400 21.65000
H  -4.28000 22.84400 20.82600
H  -3.99900 22.40600 22.48800
H  -4.68800 27.88600 22.54800
H  -5.34500 26.82900 21.36500
H  -4.15300 27.84600 19.91500
H  -2.61500 27.10300 20.68200
H  -3.22300 28.69600 21.14800
H  -0.48600 29.36300 26.91800
H  -1.26100 29.48800 25.32900
H  -0.29100 28.14400 25.76100
H  -3.63900 28.00200 30.97400
H  -2.10200 26.28100 34.32400
H  -0.53900 26.94600 33.77900
H  -1.09100 25.32600 33.16900

