158

Mg 8.97300 2.86800 27.65500
C  9.88100 1.12100 30.60600
C  7.51500 5.22800 29.69200
C  7.57500 4.12500 24.90500
C  10.16900 0.17000 25.85800
N  8.89100 3.19800 29.89200
C  9.32500 2.34800 30.90100
C  9.16400 3.09200 32.25700
C  8.32300 4.36800 31.97800
C  8.24100 4.25200 30.42600
C  7.00900 4.59900 32.69900
C  10.42600 3.20300 33.10900
C  10.39600 4.29300 34.28500
H  11.21400 3.92800 35.50200
N  7.65700 4.45300 27.31400
C  7.24000 5.36400 28.28600
C  6.52300 6.37000 27.59600
C  6.42900 6.08200 26.20300
C  7.19500 4.81300 26.07200
C  6.01600 7.49800 28.39700
C  5.80000 6.86700 25.10100
O  5.87900 6.60700 23.90500
C  4.84700 7.96600 25.47400
N  8.61000 2.05700 25.68700
C  8.29400 2.87800 24.72200
C  8.51500 2.32700 23.28400
C  9.55100 1.24400 23.63600
C  9.43700 1.13400 25.18200
C  7.21300 1.81500 22.66100
C  11.02300 1.57200 23.20500
C  11.79900 0.46000 22.44100
N  9.90000 1.07300 28.07300
C  10.38800 0.10900 27.24800
C  11.05400 -0.93300 28.05800
C  10.91800 -0.55300 29.38600
C  10.12800 0.65700 29.35400
C  11.76100 -2.05200 27.60100
C  11.26900 -0.82600 30.72900
O  12.04800 -1.67200 31.18400
C  10.66200 0.22600 31.57800
C  9.88900 -0.26200 32.72300
O  8.70900 -0.42400 32.68300
O  10.77000 -0.51300 33.74800
C  10.11400 -1.00600 34.94500
H  7.17900 6.05100 30.32500
H  7.23500 4.64900 24.01000
H  10.68100 -0.51600 25.18000
H  8.64200 2.32100 32.82400
H  8.96100 5.24200 32.10700
H  7.16600 4.30100 33.73500
H  6.26100 4.04000 32.13600
H  6.73900 5.65100 32.78600
H  11.15100 3.67000 32.44200
H  10.63000 2.18900 33.45400
H  9.37100 4.54900 34.55100
H  10.92900 5.13600 33.84700
H  6.13600 8.47300 27.92400
H  6.43100 7.64000 29.39500
H  4.93700 7.38400 28.50900
H  5.40200 8.81500 25.87200
H  4.24600 7.60500 26.30900
H  4.10000 8.19000 24.71300
H  8.95500 3.16200 22.73900
H  9.32100 0.27000 23.20400
H  7.27700 0.72700 22.64700
H  7.17800 2.16000 21.62700
H  6.30700 2.19500 23.13200
H  11.59300 2.08600 23.97900
H  10.99600 2.37200 22.46500
H  11.53600 0.69500 21.41000
H  11.42800 -0.54100 22.66000
H  12.85200 0.61400 22.67600
H  12.61100 -1.58700 27.10300
H  11.27000 -2.77500 26.95000
H  11.90400 -2.63200 28.51300
H  11.54900 0.78900 31.87000
H  10.55900 -1.95200 35.25300
H  9.02700 -1.04700 35.00600
H  10.42100 -0.23600 35.65300
Mg -1.45700 34.55800 26.51000
C  -3.16300 33.03200 28.93700
C  -0.24400 36.81400 28.75900
C  -0.35400 36.58600 23.83800
C  -3.06400 32.57100 24.10900
N  -1.75700 34.91300 28.55500
C  -2.37100 34.07400 29.45300
C  -1.99300 34.33200 30.91300
C  -1.11800 35.62500 30.83800
C  -0.99500 35.79000 29.26900
C  -1.62600 37.02500 31.56500
C  -1.38600 33.07100 31.57800
C  -2.00700 32.70000 32.98300
H  -1.07300 32.53500 34.16200
N  -0.44500 36.44100 26.33300
C  -0.05700 37.17000 27.39100
C  0.69700 38.32500 26.92000
C  0.85000 38.23700 25.54300
C  -0.03600 37.04300 25.16500
C  1.24500 39.37900 27.93300
C  1.60800 39.18300 24.68500
O  1.54900 39.18800 23.45100
C  2.55600 40.26700 25.29900
N  -1.75500 34.68600 24.25800
C  -1.11600 35.47300 23.40900
C  -1.33600 35.13700 21.92900
C  -2.05800 33.74400 22.06900
C  -2.36000 33.61800 23.59600
C  -2.14000 36.24000 21.17800
C  -1.31000 32.58000 21.55200
C  0.10300 32.38300 22.15600
N  -2.79900 33.07800 26.46400
C  -3.34300 32.34400 25.47300
C  -4.27700 31.34800 25.98900
C  -4.18200 31.53100 27.39400
C  -3.35400 32.63600 27.58400
C  -4.99200 30.47800 25.12500
C  -4.62600 31.04100 28.65000
O  -5.52300 30.19700 28.88000
C  -3.87200 31.86900 29.74500
C  -4.77400 32.30600 30.82100
O  -5.51500 33.29200 30.79200
O  -4.79100 31.31000 31.73700
C  -5.78900 31.56400 32.83700
H  0.26700 37.56200 29.36800
H  0.18800 37.11200 23.04900
H  -3.37000 31.83800 23.35900
H  -2.80100 34.72700 31.52900
H  -0.09400 35.39100 31.12800
H  -2.41800 36.91500 32.30500
H  -1.92200 37.82300 30.88500
H  -0.77100 37.45200 32.08900
H  -0.34500 33.25900 31.84300
H  -1.52000 32.22800 30.90000
H  -2.41100 31.69500 32.86500
H  -2.90400 33.28300 33.19300
H  0.79500 39.33600 28.92500
H  0.99900 40.39600 27.62700
H  2.33300 39.31500 27.94800
H  3.25200 39.74100 25.95200
H  1.90900 40.99700 25.78500
H  3.06700 40.82500 24.51300
H  -0.34400 34.95700 21.51400
H  -3.00900 33.71700 21.53700
H  -2.85600 35.87100 20.44300
H  -1.57000 36.78000 20.42100
H  -2.60700 36.99000 21.81600
H  -1.33100 32.88500 20.50600
H  -1.90300 31.66500 21.57000
H  0.18800 31.30100 22.25300
H  0.17800 32.83600 23.14500
H  0.81500 32.78500 21.43500
H  -4.21500 30.06200 24.48400
H  -5.70700 31.01500 24.50200
H  -5.43800 29.64500 25.66800
H  -3.17800 31.12500 30.13500
H  -6.63600 32.02600 32.33000
H  -5.34300 32.29200 33.51600
H  -6.13300 30.65600 33.33000

