158

Mg 26.81000 50.46200 26.98100
C  24.62000 51.32100 29.69800
C  29.10100 49.48100 29.28000
C  28.83800 49.90900 24.39600
C  24.32100 51.66200 24.84700
N  26.83700 50.50300 29.23900
C  25.83600 50.78300 30.07800
C  26.37600 50.48800 31.54300
C  27.77300 49.91400 31.42800
C  27.91600 50.05100 29.89700
C  28.83900 50.52400 32.33200
C  25.36800 49.52300 32.29400
C  24.37900 50.10700 33.27900
H  24.17700 49.45500 34.70500
N  28.76800 49.74400 26.85900
C  29.48600 49.41600 27.91700
C  30.79600 48.99000 27.40400
C  30.72700 49.05300 25.97800
C  29.43500 49.59500 25.66300
C  31.91900 48.42700 28.32700
C  31.83700 48.79600 24.92900
O  31.65600 48.98600 23.72000
C  33.23500 48.20800 25.33900
N  26.70200 50.94800 24.94100
C  27.65500 50.56100 24.02700
C  27.23100 50.80200 22.49000
C  25.74400 51.20700 22.71700
C  25.55100 51.32900 24.22500
C  27.92500 51.98600 21.70600
C  24.67500 50.26500 22.03200
C  24.70700 48.75600 22.29700
N  24.94000 51.45100 27.14500
C  24.02900 51.80500 26.17900
C  22.83600 52.38000 26.75900
C  22.99300 52.21900 28.14900
C  24.26800 51.62200 28.31200
C  21.65000 53.09700 26.00800
C  22.44200 52.51000 29.41200
O  21.38800 53.10600 29.68000
C  23.41900 51.93300 30.50200
C  23.67400 53.10100 31.36800
O  24.43000 54.00100 31.22500
O  22.69200 53.13100 32.33800
C  22.78300 54.31600 33.27100
H  29.86400 49.13900 29.98200
H  29.43800 49.72700 23.50200
H  23.57800 51.96600 24.10600
H  26.63300 51.42800 32.03000
H  27.79200 48.84600 31.64500
H  28.91900 51.59000 32.11600
H  29.78600 50.01200 32.16600
H  28.55400 50.46400 33.38300
H  25.88400 48.87400 33.00200
H  24.87900 48.88700 31.55500
H  23.36200 49.89900 32.94300
H  24.49500 51.18700 33.37000
H  31.70500 48.65000 29.37300
H  32.89500 48.80200 28.01900
H  31.83700 47.37300 28.06000
H  33.84100 48.14300 24.43600
H  33.13900 47.27700 25.89800
H  33.79100 48.93500 25.93000
H  27.48500 49.81600 22.09900
H  25.48100 52.16200 22.26200
H  27.57900 52.94600 22.08800
H  27.64400 51.92200 20.65500
H  29.01400 52.01800 21.71500
H  24.90800 50.34500 20.97000
H  23.69200 50.73700 22.01500
H  23.71400 48.38500 22.54900
H  25.34300 48.53200 23.15300
H  24.94800 48.17100 21.40900
H  20.80300 52.93500 26.67500
H  21.49000 52.69000 25.01000
H  22.05600 54.10800 25.96600
H  22.85000 51.18900 31.05900
H  22.88300 55.22000 32.67100
H  23.62000 54.19000 33.95900
H  21.81700 54.34800 33.77500
Mg 6.22800 54.55000 41.33000
C  5.89700 51.10700 41.10200
C  9.31200 54.23100 39.99900
C  6.19900 57.76200 40.98400
C  2.81500 54.62800 42.51600
N  7.38900 52.77000 40.40500
C  7.07500 51.48500 40.43700
C  8.17000 50.69100 39.68600
C  9.38600 51.65400 39.91000
C  8.69900 52.99900 40.13500
C  10.24300 51.36600 41.16800
C  7.86000 50.28900 38.28200
C  6.91700 51.33100 37.54000
H  6.20300 50.91100 36.27800
N  7.55000 55.82000 40.63700
C  8.86000 55.54300 40.17500
C  9.67200 56.71400 40.06400
C  8.78700 57.82100 40.45100
C  7.46400 57.16700 40.70800
C  11.10200 56.77000 39.69900
C  9.13700 59.28500 40.51100
O  10.25600 59.65700 40.16300
C  8.28900 60.40200 41.09100
N  4.66400 55.98100 41.57400
C  5.02100 57.28800 41.55000
C  3.86900 58.16500 42.09600
C  2.79900 57.22100 42.55600
C  3.38100 55.86500 42.14900
C  4.33000 59.24300 43.17900
C  1.39400 57.51000 41.90000
C  1.21800 57.06000 40.45300
N  4.66600 53.24200 41.76200
C  3.44100 53.38300 42.36400
C  2.92500 52.13600 42.72500
C  3.88800 51.17900 42.28600
C  4.89500 51.89400 41.70100
C  1.53900 51.96000 43.28600
C  4.24200 49.81500 42.24000
O  3.61700 48.85200 42.73600
C  5.53700 49.73300 41.40400
C  5.12900 48.95700 40.23500
O  4.41900 49.36500 39.30300
O  5.72400 47.65700 40.37800
C  5.45800 46.71300 39.23900
H  10.33000 54.19100 39.60600
H  6.24500 58.84800 41.09800
H  1.80200 54.70600 42.91700
H  8.23300 49.75600 40.24200
H  10.06500 51.71000 39.05900
H  10.24200 52.15600 41.91900
H  11.30500 51.37200 40.92000
H  10.08900 50.37600 41.59900
H  7.42700 49.29000 38.33100
H  8.74200 50.30700 37.64200
H  7.50000 52.24800 37.45300
H  6.15600 51.74400 38.20200
H  11.42000 57.76300 39.38300
H  11.31600 56.05000 38.90900
H  11.72700 56.41200 40.51700
H  7.36700 60.66700 40.57300
H  8.90500 61.30100 41.11800
H  7.96900 60.10000 42.08800
H  3.47600 58.76100 41.27200
H  2.69700 57.29400 43.63900
H  3.97000 59.03600 44.18700
H  4.02200 60.24000 42.86600
H  5.39600 59.03100 43.25800
H  1.30900 58.59700 41.86900
H  0.61600 57.06000 42.51600
H  2.20300 57.00100 39.99000
H  0.62200 57.81100 39.93500
H  0.78700 56.06000 40.49900
H  1.57400 52.01900 44.37400
H  1.13300 50.97400 43.06500
H  0.85700 52.68300 42.83900
H  6.24700 49.17600 42.01500
H  5.88900 47.18400 38.35600
H  4.38700 46.51500 39.27800
H  5.98200 45.77600 39.43100

