158

Mg 52.83400 23.97000 45.01300
C  50.18500 25.96400 43.85000
C  50.89300 21.28100 43.86500
C  55.62500 22.12400 45.03000
C  54.48900 26.72200 45.92400
N  50.88100 23.72600 43.68300
C  49.95800 24.69000 43.35600
C  48.77000 24.09200 42.67300
C  48.95200 22.58900 42.84500
C  50.33600 22.48500 43.44400
C  47.81000 21.80700 43.56500
C  48.76600 24.46200 41.13600
C  50.10200 24.69000 40.34100
H  50.17600 25.31400 38.90600
N  53.19300 21.90800 44.64100
C  52.24100 20.96000 44.27600
C  52.88900 19.66300 44.22800
C  54.28000 19.84900 44.58000
C  54.45500 21.34800 44.79700
C  52.21500 18.34100 43.96800
C  55.29700 18.76600 44.73000
O  54.89200 17.58000 44.54900
C  56.71700 19.08400 45.08700
N  54.81600 24.40700 45.25300
C  55.75900 23.48700 45.31100
C  57.16500 24.08200 45.48900
C  56.83700 25.58400 45.91800
C  55.32300 25.62800 45.66900
C  58.04200 23.44700 46.61600
C  57.61000 26.71500 45.18600
C  58.90000 27.25600 45.80100
N  52.45100 26.04300 44.88500
C  53.16300 26.99000 45.51100
C  52.40500 28.24600 45.57800
C  51.18200 27.85100 44.90500
C  51.26900 26.52700 44.54000
C  52.69900 29.38600 46.34300
C  49.80000 28.26900 44.51200
O  49.18200 29.31500 44.56200
C  49.12000 27.00900 43.79700
C  48.90400 27.51100 42.38800
O  49.80600 27.77300 41.65600
O  47.58100 27.69800 42.07500
C  47.42900 28.50300 40.88200
H  50.27500 20.39200 43.72300
H  56.56300 21.58900 45.18900
H  55.11800 27.51500 46.33300
H  47.88800 24.42400 43.22000
H  48.99000 22.06500 41.89000
H  48.33000 21.29500 44.37400
H  47.32600 21.05400 42.94200
H  47.04400 22.43100 44.02600
H  48.12000 25.33700 41.06700
H  48.18800 23.72600 40.57700
H  50.51500 23.68200 40.29200
H  50.83200 25.26900 40.90700
H  52.59500 17.89100 43.05100
H  51.14400 18.41300 43.78100
H  52.37200 17.69200 44.83000
H  57.27000 18.14900 45.17700
H  56.81100 19.60800 46.03700
H  57.06500 19.64100 44.21700
H  57.74500 23.98500 44.57100
H  56.92600 25.68000 47.00000
H  57.45300 22.93000 47.37400
H  58.55100 24.17800 47.24500
H  58.79700 22.79700 46.17300
H  57.08800 27.65600 45.01000
H  57.84500 26.27700 44.21600
H  59.76100 26.93300 45.21600
H  59.16100 26.94500 46.81300
H  58.83800 28.33000 45.97500
H  53.42800 29.18200 47.12700
H  51.72700 29.55100 46.80800
H  52.96900 30.24000 45.72100
H  48.14600 26.73900 44.20500
H  46.35400 28.54100 40.70800
H  47.72500 27.97100 39.97800
H  47.78100 29.53200 40.95900
Mg -2.23500 34.99100 26.71500
C  -3.88400 33.40100 29.36600
C  -0.89300 37.19400 28.94300
C  -1.17600 36.80600 24.14800
C  -4.27600 33.02700 24.48100
N  -2.34200 35.21000 28.89300
C  -3.07700 34.39200 29.77700
C  -2.83500 34.85800 31.22700
C  -1.97900 36.18300 31.04300
C  -1.73900 36.27300 29.56200
C  -2.67600 37.46700 31.65000
C  -2.07300 33.84400 32.15900
C  -2.78900 33.32200 33.39200
H  -2.03800 33.32000 34.75600
N  -1.06000 36.64700 26.52300
C  -0.60000 37.41700 27.52300
C  0.25300 38.44200 27.02700
C  0.33300 38.24900 25.69500
C  -0.65700 37.22400 25.41900
C  0.96200 39.38700 27.91100
C  1.33200 38.76400 24.59500
O  1.36400 38.25600 23.47300
C  2.31400 39.86600 25.00500
N  -2.70000 34.97700 24.61400
C  -2.08100 35.81500 23.78400
C  -2.66800 35.72300 22.39400
C  -3.41500 34.36300 22.44100
C  -3.50900 34.09400 23.91100
C  -3.60400 36.95800 22.07300
C  -2.87500 33.18300 21.58000
C  -1.74500 32.21300 22.21300
N  -3.66700 33.52900 26.84000
C  -4.29200 32.71300 25.82900
C  -5.14300 31.75500 26.47800
C  -5.06800 32.00200 27.87600
C  -4.11000 33.02100 28.04400
C  -5.99400 30.74800 25.77200
C  -5.55200 31.68800 29.12500
O  -6.40500 30.88500 29.46500
C  -4.79100 32.54300 30.19900
C  -5.90100 33.29100 30.98200
O  -6.80300 33.90500 30.45600
O  -5.76500 32.89200 32.27000
C  -7.02600 33.15700 33.00700
H  -0.41900 37.77700 29.73500
H  -0.70400 37.28200 23.28600
H  -4.85000 32.33500 23.86200
H  -3.80300 35.03200 31.69800
H  -1.01200 36.00100 31.51200
H  -1.92600 37.97500 32.25600
H  -3.52000 37.17900 32.27700
H  -2.95300 38.22800 30.92000
H  -1.07900 34.18800 32.44300
H  -2.00800 32.98000 31.49700
H  -2.95000 32.25300 33.25300
H  -3.78600 33.76100 33.41100
H  1.04100 40.27400 27.28400
H  2.00100 39.11900 28.10500
H  0.50400 39.62100 28.87200
H  3.05900 39.98300 24.21800
H  2.92100 39.57700 25.86300
H  1.69400 40.74100 25.20000
H  -1.87600 35.81700 21.65100
H  -4.46500 34.49100 22.18100
H  -4.65600 36.72900 21.90200
H  -3.09700 37.46500 21.25200
H  -3.71800 37.64500 22.91100
H  -2.56800 33.62000 20.63000
H  -3.75000 32.54600 21.44600
H  -1.23200 32.75800 23.00600
H  -1.15500 31.91100 21.34800
H  -2.14900 31.27600 22.59500
H  -6.98500 31.08900 25.47200
H  -5.98900 29.89400 26.45000
H  -5.58000 30.39500 24.82800
H  -4.23900 31.92300 30.90600
H  -7.88700 32.65600 32.56600
H  -7.15300 34.23500 32.90800
H  -6.82400 32.78700 34.01200

