158

Mg -1.97400 17.00300 27.47200
C  -2.31000 14.72000 30.09400
C  -2.36700 19.56300 29.56400
C  -1.93900 18.91500 24.73800
C  -2.17400 14.14400 25.18200
N  -2.34800 17.06700 29.55500
C  -2.46000 16.09700 30.45000
C  -3.05000 16.64700 31.80100
C  -2.89700 18.19300 31.65100
C  -2.58700 18.31100 30.15800
C  -4.09200 19.08500 32.18300
C  -2.22300 16.02400 32.91000
C  -2.04400 16.64600 34.28800
H  -2.24100 15.76800 35.52900
N  -2.03400 18.89900 27.19200
C  -2.17400 19.90500 28.19100
C  -2.14200 21.18300 27.56700
C  -1.88100 21.07100 26.16000
C  -1.94500 19.58600 26.01300
C  -2.34700 22.46600 28.43900
C  -1.58500 22.13500 25.09900
O  -1.41800 21.92600 23.89400
C  -1.42100 23.61600 25.55900
N  -2.00900 16.59700 25.20600
C  -2.05800 17.56400 24.35500
C  -2.07100 17.13400 22.89000
C  -2.12900 15.61400 23.05600
C  -2.06700 15.42200 24.60100
C  -3.22600 17.81000 22.02900
C  -1.16100 14.85800 22.12900
C  0.19900 14.43400 22.79200
N  -2.20000 14.87400 27.51600
C  -2.27300 13.84500 26.54200
C  -2.33700 12.55500 27.25800
C  -2.36100 12.90800 28.62500
C  -2.30600 14.27400 28.73500
C  -2.51900 11.14900 26.66100
C  -2.50400 12.29100 29.93800
O  -2.54200 11.08700 30.19600
C  -2.39000 13.42900 30.98100
C  -1.14700 13.22200 31.72500
O  -0.13000 13.79700 31.44900
O  -1.28000 12.31500 32.78400
C  -0.10900 12.19400 33.64500
H  -2.40600 20.48300 30.15200
H  -1.95900 19.64800 23.92900
H  -2.35100 13.26100 24.56400
H  -4.11100 16.39500 31.79000
H  -2.10500 18.64900 32.24500
H  -4.88200 18.55900 32.71800
H  -4.59500 19.63600 31.38800
H  -3.82100 19.81300 32.94700
H  -1.20500 15.88400 32.54600
H  -2.63000 15.05000 33.18200
H  -2.70700 17.51100 34.27300
H  -1.00100 16.96000 34.32200
H  -1.33500 22.70900 28.76300
H  -3.01700 22.32500 29.28700
H  -2.85900 23.23000 27.85400
H  -1.07700 24.25200 24.74300
H  -0.72700 23.67500 26.39700
H  -2.46500 23.91200 25.67000
H  -1.10300 17.46100 22.51100
H  -3.13300 15.22200 22.89700
H  -2.91700 18.76500 21.60400
H  -4.10800 18.16900 22.55900
H  -3.52300 17.17000 21.19800
H  -0.95900 15.59000 21.34600
H  -1.66000 13.95500 21.77900
H  1.04100 14.87700 22.26100
H  0.37900 13.36500 22.90700
H  0.27800 14.89900 23.77500
H  -2.18900 11.05700 25.62600
H  -3.58200 10.91000 26.67900
H  -1.84700 10.63600 27.34900
H  -3.21500 13.39800 31.69200
H  0.65800 12.96500 33.57700
H  0.38500 11.25900 33.37800
H  -0.43800 12.17200 34.68400
Mg 42.47900 41.86200 26.40900
C  41.46900 44.19700 28.82300
C  43.52100 39.78300 28.90600
C  43.39100 39.52800 24.14800
C  41.86300 44.21700 23.91000
N  42.47500 42.04200 28.61600
C  41.92900 43.00000 29.39200
C  41.87100 42.58200 30.91300
C  42.51300 41.15000 30.91100
C  42.92200 41.00100 29.39500
C  43.76500 40.97100 31.84400
C  40.47100 42.59200 31.56000
C  40.20800 43.44700 32.79800
H  39.37900 42.90000 33.93200
N  43.35600 39.96900 26.51700
C  43.69800 39.29700 27.61100
C  44.14400 37.99800 27.31200
C  43.88300 37.77700 25.92800
C  43.50400 39.14000 25.48700
C  44.66200 37.06800 28.39200
C  44.08300 36.48500 25.07900
O  43.72400 36.45000 23.89700
C  44.43900 35.18500 25.87600
N  42.69500 41.90000 24.30800
C  42.96500 40.79600 23.58700
C  42.87500 41.06200 22.09800
C  42.29300 42.49500 22.04100
C  42.31200 42.93900 23.52700
C  44.26700 40.77800 21.36700
C  40.87200 42.73800 21.39800
C  40.71700 43.89900 20.40800
N  41.81000 43.87500 26.34500
C  41.63900 44.64100 25.26600
C  41.01500 45.91000 25.68800
C  40.84000 45.72500 27.09600
C  41.40800 44.50700 27.41800
C  40.63600 47.00900 24.84500
C  40.44400 46.42400 28.27100
O  40.01900 47.55000 28.40600
C  40.86300 45.38100 29.48000
C  41.85600 46.03300 30.47700
O  43.08000 45.90800 30.46000
O  41.16200 46.59800 31.53600
C  42.00500 47.02000 32.67400
H  43.74700 39.19200 29.79700
H  43.60300 38.79100 23.37200
H  41.63900 44.84800 23.04800
H  42.45400 43.30000 31.48900
H  41.83900 40.31400 31.10300
H  43.63100 41.57600 32.74000
H  44.65800 41.37600 31.36800
H  43.97100 39.94500 32.14800
H  40.06900 41.61400 31.82500
H  39.82100 42.98900 30.78000
H  39.79600 44.44000 32.61500
H  41.17100 43.73900 33.21700
H  43.84900 36.40500 28.68500
H  45.15100 37.59700 29.21000
H  45.33900 36.29900 28.02000
H  45.51600 35.18500 26.04400
H  44.23300 34.33400 25.22800
H  43.77600 34.99900 26.72000
H  42.12100 40.37600 21.71100
H  43.04800 43.06300 21.49800
H  45.11100 40.75100 22.05600
H  44.47100 41.59200 20.67100
H  44.22200 39.81400 20.86100
H  40.21400 42.90300 22.25200
H  40.39200 41.86700 20.95200
H  39.94700 44.47500 20.92000
H  40.04400 43.59100 19.60800
H  41.52400 44.47800 19.95900
H  40.57400 46.59600 23.83800
H  41.35300 47.82900 24.89000
H  39.64000 47.40900 25.03900
H  40.01600 45.03600 30.07400
H  43.05200 47.15300 32.40100
H  41.93300 46.30600 33.49400
H  41.62800 47.98000 33.02700

