158

Mg 43.11100 42.67900 26.57900
C  42.32800 44.70700 29.14600
C  44.29400 40.31400 28.89000
C  44.19100 40.88700 24.01100
C  42.31400 45.35500 24.37200
N  43.32500 42.48800 28.80000
C  42.78300 43.47300 29.61000
C  42.85600 43.01500 31.08700
C  43.77500 41.66500 30.97500
C  43.81600 41.43400 29.47900
C  45.21200 41.76400 31.62700
C  41.46300 42.86400 31.71900
C  41.38400 42.07100 32.99800
H  40.51800 42.50300 34.10500
N  44.08400 40.86800 26.45000
C  44.40400 40.00700 27.53500
C  45.00500 38.80400 26.96900
C  44.83300 38.89300 25.52600
C  44.36800 40.23700 25.26800
C  45.53500 37.66100 27.81900
C  45.17400 37.85500 24.48000
O  44.83600 38.05000 23.28900
C  45.72400 36.56100 24.82800
N  43.34000 43.09800 24.52100
C  43.75300 42.16300 23.64500
C  43.63500 42.59300 22.19400
C  42.74000 43.89900 22.33200
C  42.71400 44.12000 23.80300
C  45.03400 42.86300 21.68900
C  41.24600 43.69700 21.82300
C  40.40900 42.67300 22.60400
N  42.48300 44.70800 26.61700
C  42.22300 45.66400 25.70000
C  41.67800 46.83900 26.38700
C  41.70400 46.47800 27.73300
C  42.27500 45.20900 27.83600
C  41.19200 48.07900 25.67000
C  41.33700 46.86100 29.06300
O  40.79200 47.87200 29.42100
C  41.77300 45.77900 30.04600
C  42.78400 46.30600 31.03200
O  43.94500 46.57500 30.88900
O  42.18100 46.48600 32.27800
C  42.94200 47.21300 33.28200
H  44.65500 39.60600 29.63900
H  44.50900 40.33100 23.12600
H  42.03700 46.11200 23.63600
H  43.39600 43.68400 31.75700
H  43.23300 40.83000 31.41900
H  45.21900 40.97700 32.38100
H  45.40500 42.70900 32.13300
H  46.02700 41.63700 30.91400
H  40.83600 42.30300 31.02700
H  40.93100 43.77600 31.99000
H  42.37700 41.85700 33.39300
H  40.89400 41.12600 32.76200
H  45.62200 37.95800 28.86400
H  46.55200 37.49400 27.46400
H  44.96700 36.73500 27.71700
H  46.21200 36.26700 23.89800
H  45.12700 35.70100 25.13300
H  46.60400 36.57600 25.46900
H  43.04300 41.81400 21.71300
H  43.17600 44.71600 21.75600
H  45.14000 42.35000 20.73300
H  45.86300 42.42200 22.24300
H  45.18100 43.94200 21.63200
H  41.37500 43.43300 20.77400
H  40.91500 44.73500 21.83800
H  39.75400 42.07500 21.97000
H  39.74300 43.14500 23.32600
H  41.03500 42.04700 23.24000
H  41.96600 48.30700 24.93800
H  41.09500 48.93700 26.33500
H  40.26400 47.84200 25.15000
H  40.89000 45.38600 30.55000
H  43.72000 47.92500 33.00300
H  43.29400 46.43200 33.95500
H  42.44400 47.94900 33.91300
Mg 27.57600 50.82800 26.11300
C  25.48000 51.72900 28.81700
C  29.68500 49.50400 28.35000
C  29.80900 50.57200 23.65200
C  25.34000 52.53900 24.00400
N  27.53500 50.61800 28.35300
C  26.59900 51.06600 29.28800
C  26.99100 50.63100 30.66000
C  28.46500 50.24900 30.52800
C  28.61800 50.12300 28.97700
C  29.55400 51.22000 31.16300
C  26.07900 49.52000 31.21800
C  25.62000 49.59000 32.64300
H  26.56000 49.97500 33.73700
N  29.48700 50.08600 26.00000
C  30.17900 49.51800 27.03400
C  31.50500 49.10600 26.60400
C  31.59300 49.45900 25.24800
C  30.28800 50.08500 24.91000
C  32.46600 48.32200 27.42400
C  32.76000 49.42700 24.31800
O  32.69700 49.94300 23.20500
C  34.03200 48.87000 24.83400
N  27.61200 51.61600 24.12100
C  28.59800 51.23500 23.24600
C  28.21700 51.41900 21.72600
C  26.84000 52.16700 21.89500
C  26.52500 52.10800 23.43300
C  29.25700 52.22200 20.92000
C  25.70000 51.54900 21.06800
C  25.19500 50.17200 21.49800
N  25.80600 51.97700 26.32500
C  24.97500 52.54000 25.38100
C  23.80600 53.18600 25.96200
C  23.96800 52.88500 27.31800
C  25.19700 52.15600 27.49800
C  22.68400 54.00000 25.26900
C  23.41000 53.04900 28.62700
O  22.34600 53.58800 28.97600
C  24.34700 52.33000 29.60700
C  24.79500 53.38000 30.66200
O  25.59800 54.31800 30.42200
O  24.16700 53.15300 31.86500
C  24.68800 53.91600 33.04000
H  30.48600 49.12000 28.98500
H  30.38300 50.51000 22.72500
H  24.55700 53.04400 23.43500
H  26.93900 51.51300 31.29800
H  28.59000 49.20200 30.80600
H  29.04900 51.96000 31.78500
H  30.09600 51.64600 30.31900
H  30.22800 50.70500 31.84800
H  26.48300 48.51200 31.12100
H  25.18000 49.56200 30.60300
H  25.14400 48.65100 32.92800
H  24.84500 50.35600 32.65600
H  33.45500 48.74700 27.59000
H  32.63400 47.34700 26.96700
H  32.05000 48.03500 28.39000
H  34.70800 48.80600 23.98100
H  33.75900 47.84600 25.09200
H  34.29000 49.51500 25.67500
H  28.31400 50.39600 21.36400
H  26.83500 53.20300 21.55600
H  30.08000 52.63600 21.50200
H  28.68000 53.00300 20.42400
H  29.70700 51.62300 20.12800
H  26.20900 51.50200 20.10600
H  24.86700 52.24200 20.94600
H  25.36200 49.46700 20.68300
H  24.19800 50.10700 21.93300
H  25.87200 49.78300 22.25800
H  21.77700 54.09300 25.86600
H  22.40200 53.37100 24.42400
H  23.03000 55.01400 25.06900
H  23.78000 51.52600 30.07500
H  24.78100 54.97800 32.81300
H  25.65200 53.49700 33.32800
H  23.96100 53.97700 33.85000

