158

Mg 47.54000 33.87000 26.75400
C  45.49100 33.09400 29.51500
C  48.17200 36.81400 28.46700
C  48.97300 35.04100 24.00400
C  46.20700 31.24000 25.02700
N  47.17100 34.65000 28.94500
C  46.37700 34.09000 29.88500
C  46.59700 34.76900 31.26100
C  47.07200 36.19800 30.71600
C  47.50400 35.92100 29.29500
C  46.07100 37.36200 30.78600
C  47.61400 34.00800 32.19000
C  47.28200 33.78300 33.63800
H  46.31400 34.78600 34.19400
N  48.50000 35.62100 26.36300
C  48.72400 36.72200 27.15600
C  49.45000 37.74500 26.50200
C  49.76600 37.19800 25.20900
C  49.09000 35.87500 25.15800
C  49.92900 39.04600 27.18700
C  50.61300 37.83200 24.05500
O  51.01700 37.20700 23.08100
C  51.02300 39.29300 24.14200
N  47.44000 33.27400 24.67400
C  48.30200 33.83000 23.85200
C  48.31100 33.07600 22.51700
C  47.46300 31.80100 22.85400
C  47.01700 32.09000 24.27300
C  47.89600 33.81900 21.24100
C  48.14600 30.42600 22.57100
C  48.97200 29.84600 23.71500
N  46.08300 32.47300 27.12300
C  45.68200 31.41900 26.33400
C  44.72100 30.56200 27.07300
C  44.56000 31.17700 28.27600
C  45.44900 32.30800 28.29900
C  44.11000 29.29800 26.64100
C  43.90300 31.13500 29.56600
O  43.04300 30.41300 30.06000
C  44.36000 32.46400 30.23900
C  44.61500 31.98700 31.63100
O  45.27900 30.94800 31.93500
O  43.87300 32.69100 32.59400
C  43.80500 32.06600 33.96400
H  48.36300 37.81900 28.84900
H  49.51800 35.42800 23.14000
H  45.90500 30.30700 24.54600
H  45.62500 34.88200 31.74000
H  47.87900 36.59200 31.33200
H  46.36800 38.15000 31.47900
H  45.13400 36.87200 31.05000
H  45.94000 37.85200 29.82100
H  48.56600 34.53700 32.15100
H  47.72000 33.05400 31.67400
H  48.11900 33.82700 34.33500
H  46.90500 32.76100 33.59000
H  50.84200 39.48300 26.78400
H  50.22400 38.62000 28.14600
H  49.09000 39.72600 27.33700
H  50.33700 39.97100 24.64900
H  51.30200 39.75800 23.19700
H  52.00000 39.29700 24.62500
H  49.35600 32.82300 22.34000
H  46.50500 31.86500 22.34000
H  47.45100 34.79700 21.42800
H  47.24500 33.23200 20.59400
H  48.83100 33.92400 20.69000
H  48.85900 30.37800 21.74800
H  47.30400 29.78600 22.31100
H  49.08000 30.57100 24.52200
H  49.96900 29.67300 23.30900
H  48.44300 28.97400 24.10100
H  43.21800 29.52600 26.05700
H  43.80500 28.74900 27.53200
H  44.65500 28.66100 25.94500
H  43.47900 33.10100 30.16600
H  44.85300 31.92300 34.22700
H  43.20600 31.15600 33.98700
H  43.23500 32.75600 34.58700
Mg -10.55200 39.69000 41.50900
C  -9.48300 36.41000 40.86500
C  -7.59100 40.88300 40.17800
C  -11.99700 42.69700 41.36000
C  -13.58400 38.39300 42.70000
N  -8.76100 38.75600 40.71800
C  -8.59700 37.39800 40.45500
C  -7.22700 37.12100 39.70400
C  -6.50000 38.54200 39.71100
C  -7.66800 39.45600 40.23600
C  -5.18300 38.68600 40.49400
C  -7.36700 36.51100 38.24800
C  -6.17700 35.56200 37.87000
H  -5.22900 35.94800 36.74300
N  -9.83400 41.50000 40.96600
C  -8.52900 41.83700 40.54400
C  -8.46100 43.29700 40.43000
C  -9.75300 43.81400 40.71800
C  -10.62300 42.66600 41.03100
C  -7.28800 44.05300 39.83000
C  -9.98500 45.32400 40.92400
O  -9.03600 46.08600 40.83500
C  -11.33600 45.93700 41.25100
N  -12.59900 40.36900 41.79700
C  -12.89800 41.65100 41.72300
C  -14.38400 41.97500 42.07100
C  -14.89300 40.64500 42.65900
C  -13.65700 39.69000 42.30900
C  -14.67700 43.16200 43.00300
C  -16.26300 40.13300 42.08700
C  -17.58100 40.36600 43.00300
N  -11.43000 37.77100 41.79200
C  -12.55700 37.39200 42.41200
C  -12.53900 35.93700 42.53100
C  -11.37200 35.53000 41.92600
C  -10.73600 36.70600 41.47500
C  -13.72500 35.09400 42.95900
C  -10.55200 34.34700 41.64000
O  -10.71000 33.17200 41.92800
C  -9.24300 34.92200 41.01200
C  -8.01800 34.62000 41.82300
O  -7.77900 35.11700 42.92000
O  -7.15900 33.88800 41.14000
C  -5.86500 33.69500 41.72900
H  -6.68200 41.21100 39.67000
H  -12.39500 43.71400 41.32400
H  -14.31400 38.01100 43.41600
H  -6.67000 36.48000 40.38700
H  -6.31700 38.97900 38.73000
H  -4.52900 39.31200 39.88700
H  -4.77100 37.67900 40.57000
H  -5.16700 39.13900 41.48600
H  -7.38700 37.26600 37.46100
H  -8.34900 36.06000 38.10800
H  -6.64900 34.59400 37.69900
H  -5.55600 35.47900 38.76100
H  -6.53900 43.36400 39.44000
H  -6.84100 44.69200 40.59100
H  -7.71400 44.61200 38.99700
H  -11.97600 45.85800 40.37100
H  -11.17100 47.00900 41.35300
H  -11.68800 45.55200 42.20800
H  -14.79300 42.26700 41.10400
H  -14.93900 40.82300 43.73400
H  -13.80700 43.33600 43.63700
H  -15.56700 42.98200 43.60500
H  -14.85000 44.09700 42.47000
H  -16.23700 39.04300 42.08700
H  -16.50800 40.51800 41.09800
H  -18.50600 40.05900 42.51500
H  -17.80400 41.39900 43.26900
H  -17.56600 39.79800 43.93300
H  -13.79800 34.26000 42.26100
H  -14.65800 35.65500 42.91000
H  -13.51000 34.67200 43.94100
H  -9.07100 34.36200 40.09300
H  -6.07800 33.04000 42.57400
H  -5.48000 34.68900 41.95500
H  -5.12600 33.20400 41.09500

