158

Mg 1.15400 7.59100 25.92900
C  1.70600 9.63300 28.69100
C  1.47600 4.79000 28.00500
C  0.91100 5.60900 23.15600
C  1.65800 10.39100 23.86800
N  1.60700 7.28900 28.09700
C  1.64500 8.28500 29.06600
C  1.56500 7.63100 30.41900
C  1.91800 6.09300 30.15900
C  1.69600 6.03800 28.68600
C  3.35700 5.60700 30.60900
C  0.23000 7.93400 31.16100
C  0.34100 8.33700 32.62400
H  1.58700 7.89800 33.51700
N  1.08700 5.52700 25.65200
C  1.19900 4.52600 26.62000
C  1.06000 3.26700 26.02800
C  0.85700 3.45700 24.60200
C  0.89600 4.87700 24.38100
C  1.00200 1.92600 26.82300
C  0.79000 2.41800 23.50500
O  0.78700 2.77100 22.36100
C  0.65900 0.89300 23.79800
N  1.29100 7.96500 23.72200
C  1.03700 6.97100 22.87100
C  0.98000 7.55500 21.44800
C  1.41200 9.03000 21.67800
C  1.38800 9.21600 23.16000
C  1.78100 6.77300 20.37000
C  0.56900 10.06300 20.95600
C  -0.66200 10.52600 21.68800
N  1.54100 9.58100 26.17100
C  1.70900 10.59100 25.26100
C  1.88200 11.85100 25.91800
C  1.83800 11.52500 27.32300
C  1.71500 10.14900 27.39700
C  2.14200 13.16800 25.32600
C  1.95800 12.05000 28.64200
O  2.33800 13.17400 28.98500
C  1.83500 10.87400 29.60500
C  3.01800 10.79300 30.49700
O  4.10700 10.20900 30.32100
O  2.73400 11.47500 31.66900
C  3.93100 11.92300 32.45700
H  1.46100 3.92300 28.66800
H  0.80000 5.03700 22.23300
H  1.80200 11.25700 23.21900
H  2.34100 8.15100 30.98000
H  1.18000 5.44500 30.63200
H  3.93300 6.46200 30.96300
H  3.78800 5.07600 29.76000
H  3.29700 4.94700 31.47400
H  -0.38600 7.05000 31.33200
H  -0.28700 8.71300 30.60200
H  -0.56600 7.96600 33.10300
H  0.30300 9.42400 32.70500
H  0.06700 1.62000 27.29300
H  1.69300 2.08800 27.65000
H  1.41500 1.07500 26.28300
H  0.40500 0.53000 22.80200
H  -0.15500 0.68100 24.49100
H  1.64200 0.54800 24.12100
H  -0.04400 7.59700 21.07600
H  2.40700 9.19200 21.26400
H  2.17500 5.84200 20.77800
H  2.57500 7.40900 19.97900
H  1.04000 6.37900 19.67500
H  0.12500 9.74900 20.01100
H  1.25500 10.87600 20.71700
H  -0.53400 11.58900 21.89300
H  -0.84600 9.92000 22.57500
H  -1.51700 10.33500 21.04100
H  1.39400 13.38700 24.56400
H  3.18400 13.33300 25.05100
H  2.08100 13.91900 26.11300
H  0.92400 10.98100 30.19400
H  4.51500 12.40400 31.67200
H  4.34600 10.99100 32.84000
H  3.43500 12.46300 33.26400
Mg 48.70500 35.03700 27.58900
C  46.71100 33.30200 30.10200
C  49.10700 37.55300 29.97600
C  50.14500 36.67800 25.18400
C  47.78300 32.49200 25.31500
N  48.09100 35.40300 29.79600
C  47.36900 34.48400 30.59900
C  47.43100 34.96300 32.06500
C  47.64700 36.49500 31.93000
C  48.25000 36.54100 30.46600
C  46.41600 37.53800 32.14000
C  48.59000 34.36700 32.79500
C  48.30100 34.29000 34.29200
H  47.28600 35.22100 34.92400
N  49.68800 36.71400 27.71500
C  49.73300 37.71000 28.68000
C  50.57600 38.73500 28.31100
C  50.76000 38.57800 26.89800
C  50.24200 37.23200 26.52100
C  50.95600 39.87600 29.19900
C  51.31800 39.51500 25.92700
O  51.62700 39.18700 24.76000
C  51.65600 40.99600 26.36200
N  48.79000 34.64900 25.43600
C  49.59900 35.42200 24.72100
C  49.79700 34.85100 23.27800
C  49.03300 33.52800 23.39500
C  48.48200 33.52200 24.76800
C  49.40900 35.88500 22.13300
C  49.99100 32.28000 23.14400
C  50.96900 31.72700 24.12300
N  47.45000 33.28400 27.57700
C  47.28500 32.26600 26.60400
C  46.42300 31.22800 27.22800
C  46.14900 31.63500 28.54300
C  46.82400 32.86000 28.72500
C  46.07200 29.90800 26.62500
C  45.54400 31.07500 29.74200
O  44.92300 30.02500 29.92700
C  45.72600 32.26700 30.77000
C  45.94700 31.70600 32.12900
O  46.90800 30.95500 32.48300
O  44.86800 32.08800 32.89900
C  44.89100 31.61300 34.31600
H  49.35400 38.25000 30.77900
H  50.74700 37.18400 24.42600
H  47.55200 31.64000 24.67200
H  46.48200 34.75400 32.55900
H  48.46800 36.84300 32.55700
H  46.56100 38.44500 32.72800
H  45.53300 37.03400 32.53200
H  46.21800 37.90700 31.13400
H  49.52300 34.92700 32.73400
H  48.74000 33.37800 32.36100
H  49.26000 34.25300 34.80900
H  47.96700 33.26300 34.44200
H  50.83100 40.88400 28.80500
H  52.01400 39.64900 29.32700
H  50.47400 39.87000 30.17700
H  50.71500 41.47900 26.62600
H  52.17800 41.45900 25.52400
H  52.31800 40.91600 27.22500
H  50.83900 34.53300 23.30900
H  48.29000 33.54400 22.59800
H  49.19900 36.84100 22.61300
H  48.58100 35.59900 21.48400
H  50.29500 35.92500 21.49900
H  50.54300 32.49200 22.22900
H  49.30500 31.48800 22.84300
H  51.95500 31.43200 23.76500
H  50.47900 30.89400 24.62700
H  51.12400 32.40400 24.96300
H  47.00900 29.35200 26.65700
H  45.69500 29.92100 25.60300
H  45.37500 29.33800 27.24000
H  44.80500 32.84900 30.75200
H  43.95800 31.52000 34.87200
H  45.45600 32.44300 34.73900
H  45.39200 30.65300 34.43800

