158

Mg 29.83500 57.45200 40.95100
C  26.91700 55.87800 39.67500
C  31.62400 55.03500 39.24700
C  32.57700 59.46400 40.79700
C  27.79100 60.18000 41.74900
N  29.26900 55.55600 39.69800
C  28.07000 55.15900 39.29600
C  28.18300 53.91600 38.38900
C  29.63400 53.57000 38.51500
C  30.22700 54.84600 39.14700
C  29.92600 52.35500 39.43000
C  27.62700 54.05500 36.93600
C  27.88800 55.37900 36.17800
H  27.03300 55.55500 34.93900
N  31.87000 57.15600 40.45100
C  32.38200 56.11400 39.73100
C  33.83500 56.21300 39.70100
C  34.16500 57.52800 40.19200
C  32.86100 58.17300 40.46900
C  34.70900 55.26200 38.95100
C  35.58500 58.03100 40.30600
O  36.54900 57.38200 39.95600
C  35.85300 59.36000 40.96600
N  30.08400 59.43500 41.29600
C  31.33300 60.03000 41.22300
C  31.29300 61.59700 41.33800
C  29.83400 61.77800 42.00000
C  29.15100 60.38800 41.71400
C  32.36600 62.18700 42.27800
C  29.08900 63.01300 41.41700
C  28.88600 64.20900 42.43200
N  27.73800 57.94300 40.97200
C  27.07700 59.01900 41.44900
C  25.67400 58.79900 41.29100
C  25.55900 57.51200 40.75600
C  26.86800 57.11600 40.41600
C  24.56500 59.79200 41.63900
C  24.62500 56.46200 40.22700
O  23.42100 56.37700 40.30000
C  25.46300 55.48200 39.41100
C  25.27500 54.08100 39.92700
O  25.66600 53.65300 41.04100
O  24.51600 53.34100 39.04300
C  24.27200 51.91500 39.48800
H  32.28800 54.23300 38.91900
H  33.43300 60.10300 40.57000
H  27.21000 60.97100 42.22600
H  27.51000 53.15600 38.78700
H  30.15700 53.49800 37.56200
H  29.47800 51.49600 38.93000
H  29.36300 52.51200 40.35000
H  31.00000 52.28700 39.60500
H  26.62200 53.63600 36.89300
H  28.33100 53.39900 36.42400
H  28.95700 55.39600 35.96900
H  27.67500 56.16500 36.90400
H  35.37400 55.80300 38.27700
H  34.20000 54.52000 38.33600
H  35.37600 54.89100 39.73000
H  35.62900 60.08800 40.18700
H  36.88300 59.56900 41.25300
H  35.12800 59.52500 41.76400
H  31.24500 62.03300 40.34000
H  29.84800 61.76700 43.09000
H  33.04100 62.93300 41.85800
H  33.11100 61.42900 42.52100
H  31.88500 62.60200 43.16400
H  28.13800 62.77000 40.94300
H  29.66000 63.41600 40.58000
H  29.05500 65.15800 41.92400
H  29.68000 64.15600 43.17700
H  27.91800 64.29800 42.92500
H  24.39800 60.48800 40.81700
H  24.98700 60.45100 42.39800
H  23.58900 59.45700 41.99000
H  25.27500 55.47600 38.33800
H  25.29400 51.53500 39.50200
H  23.87500 51.36900 38.63200
H  23.77500 51.64300 40.42000
Mg -10.47800 39.12300 40.71400
C  -9.58200 35.91500 39.60000
C  -7.52600 40.24900 39.49500
C  -11.70200 42.23100 41.14600
C  -13.84200 37.81400 40.93800
N  -8.85300 38.08700 39.68400
C  -8.57800 36.81500 39.43000
C  -7.11700 36.52500 38.88600
C  -6.48700 37.99000 39.05900
C  -7.70700 38.84500 39.43600
C  -5.38500 38.10900 40.24100
C  -6.95300 35.89700 37.50600
C  -6.41000 36.61800 36.22400
H  -6.24400 35.84000 34.91300
N  -9.67900 41.01700 40.33900
C  -8.41700 41.25300 39.81100
C  -8.29000 42.71200 39.59200
C  -9.52800 43.35800 40.09600
C  -10.38000 42.18100 40.59200
C  -7.13400 43.31200 38.90800
C  -9.83200 44.80800 40.10900
O  -9.04100 45.64600 39.69400
C  -11.11200 45.21500 40.68100
N  -12.59800 39.94400 40.86400
C  -12.65800 41.23400 41.31900
C  -14.16900 41.58900 41.66300
C  -14.87600 40.19200 41.63900
C  -13.69900 39.27400 41.10200
C  -14.30400 42.26700 43.06000
C  -16.28800 40.25000 40.89600
C  -17.50500 40.15400 41.78300
N  -11.54700 37.25000 40.47700
C  -12.86000 36.90800 40.55400
C  -13.04400 35.53800 40.22700
C  -11.77600 35.05400 39.96800
C  -10.89400 36.16300 40.01500
C  -14.32900 34.79800 40.20600
C  -11.01200 33.92600 39.60000
O  -11.33700 32.78100 39.38400
C  -9.53600 34.42600 39.34400
C  -8.56300 33.75600 40.11400
O  -8.54800 33.62300 41.35200
O  -7.60900 33.12400 39.29200
C  -6.38800 32.51200 39.87500
H  -6.57200 40.52500 39.04100
H  -12.04400 43.20800 41.49300
H  -14.83600 37.46800 41.22600
H  -6.64200 35.89400 39.63700
H  -6.02600 38.43500 38.17700
H  -5.56900 38.93000 40.93400
H  -4.39000 38.25000 39.81900
H  -5.28300 37.21200 40.85100
H  -7.92900 35.56500 37.15100
H  -6.26400 35.05600 37.57900
H  -5.40300 36.92100 36.50800
H  -7.03100 37.48900 36.01300
H  -7.43200 44.02000 38.13500
H  -6.54200 42.51000 38.46600
H  -6.50100 43.88700 39.58400
H  -11.95200 44.83400 40.10100
H  -11.18700 46.30100 40.73000
H  -10.98600 45.02100 41.74700
H  -14.54900 42.36100 40.99300
H  -15.09400 39.95000 42.67900
H  -15.07400 41.79600 43.67100
H  -14.51300 43.32600 42.91100
H  -13.29900 42.23700 43.48100
H  -16.22700 39.41100 40.20200
H  -16.46400 41.21100 40.41400
H  -18.21200 40.94900 41.54300
H  -17.25400 40.24900 42.84000
H  -18.01200 39.21300 41.57000
H  -14.15200 33.82800 39.74200
H  -14.96300 35.36200 39.52100
H  -14.67900 34.54300 41.20600
H  -9.40100 34.26500 38.27500
H  -5.76000 33.37600 40.09500
H  -5.89600 31.86500 39.14900
H  -6.59100 31.97400 40.80100

