158

Mg 43.58500 4.33000 46.69600
C  41.73900 7.41000 46.65000
C  40.58800 2.65600 46.60300
C  45.22500 1.62800 45.83200
C  46.61200 6.23700 46.36300
N  41.49500 5.01500 46.62200
C  40.95200 6.27100 46.64300
C  39.39500 6.27500 46.68200
C  39.11300 4.72600 46.78200
C  40.48100 4.05000 46.71900
C  38.20100 4.15600 47.93900
C  38.69400 6.94100 45.44000
C  39.20700 6.55100 44.08500
H  40.00500 7.56100 43.24200
N  42.99800 2.32700 46.57400
C  41.71300 1.81700 46.47100
C  41.73400 0.41100 46.22000
C  43.06900 0.00500 46.13300
C  43.84900 1.31000 46.13100
C  40.49900 -0.45400 46.18900
C  43.57500 -1.38600 45.96700
O  42.76700 -2.36000 45.88200
C  45.05800 -1.61100 46.16400
N  45.60100 4.03200 46.23700
C  46.05000 2.75200 46.03600
C  47.49900 2.66100 45.78700
C  48.03600 3.97900 46.29400
C  46.73100 4.81600 46.32300
C  48.24500 1.40800 46.32500
C  49.16800 4.65100 45.41300
C  50.18800 5.40300 46.23400
N  44.16300 6.39600 46.48800
C  45.41300 7.00000 46.43800
C  45.20400 8.46700 46.39500
C  43.80100 8.64600 46.58400
C  43.19300 7.35100 46.57700
C  46.27500 9.51700 46.35800
C  42.79000 9.62700 46.86000
O  42.90300 10.85200 47.06200
C  41.42600 8.87800 46.85300
C  40.65800 9.07100 48.14900
O  41.01500 8.77400 49.25300
O  39.47500 9.71700 47.96100
C  38.53300 9.74600 49.07200
H  39.61100 2.17500 46.52900
H  45.82200 0.80400 45.43600
H  47.50300 6.84200 46.54400
H  39.16600 6.81900 47.59800
H  38.63900 4.35200 45.87400
H  38.68900 3.49800 48.65900
H  37.43000 3.54800 47.46600
H  37.71700 4.92600 48.53900
H  38.77500 8.02400 45.53100
H  37.63900 6.66800 45.47000
H  38.32000 6.36800 43.47900
H  39.77200 5.62600 44.20200
H  40.82400 -1.47600 46.38300
H  40.17300 -0.49400 45.14900
H  39.74000 -0.25800 46.94600
H  45.46800 -0.85000 46.82900
H  45.59000 -1.66800 45.21400
H  45.10900 -2.54800 46.71800
H  47.68900 2.68000 44.71300
H  48.29100 3.77800 47.33500
H  47.75800 0.97600 47.20000
H  49.21700 1.73300 46.69500
H  48.45300 0.64400 45.57500
H  48.70200 5.38200 44.75200
H  49.75000 3.94200 44.82400
H  51.15100 4.89200 46.25000
H  49.85900 5.46700 47.27200
H  50.40600 6.41800 45.90300
H  45.87900 10.43300 45.92000
H  47.11700 9.21400 45.73600
H  46.61100 9.72700 47.37300
H  40.74800 9.31700 46.12100
H  38.64600 10.66300 49.65000
H  38.48600 8.89700 49.75500
H  37.53700 9.80500 48.63200
Mg 42.67700 41.59200 25.84000
C  41.82800 43.96700 28.33200
C  43.69100 39.45600 28.19700
C  43.88500 39.51400 23.39600
C  42.22800 44.04100 23.43500
N  42.38700 41.57300 28.04400
C  42.13900 42.67700 28.89000
C  42.30600 42.38400 30.33700
C  43.25600 41.15200 30.15900
C  43.10900 40.64100 28.66600
C  44.72600 41.21200 30.70100
C  40.96800 42.08400 31.08400
C  40.81600 42.59200 32.50400
H  41.92200 42.48500 33.55300
N  43.49400 39.64100 25.81900
C  43.77700 38.91100 26.89900
C  44.37300 37.71200 26.53700
C  44.35700 37.61900 25.08100
C  43.87900 38.94900 24.66200
C  44.79800 36.78600 27.61000
C  44.68200 36.41700 24.16000
O  44.41900 36.45100 23.00700
C  45.23000 35.07400 24.67300
N  42.90500 41.70400 23.76000
C  43.54600 40.80300 22.98000
C  43.56900 41.10000 21.52300
C  42.90300 42.47700 21.50500
C  42.65300 42.80500 22.93100
C  44.97200 40.96500 20.79500
C  41.54300 42.51000 20.68600
C  40.36500 41.87500 21.45100
N  42.20000 43.60400 25.84000
C  42.02100 44.52900 24.80200
C  41.65500 45.82900 25.31300
C  41.61600 45.63800 26.71100
C  41.91100 44.28100 26.94300
C  41.28600 47.05000 24.50800
C  41.36800 46.30400 27.95900
O  40.97500 47.44100 28.15600
C  41.53600 45.25000 29.00800
C  42.59200 45.75800 29.94900
O  43.75600 45.48800 29.76300
O  42.16300 46.57200 31.02300
C  43.16300 46.87800 31.97200
H  44.09200 38.85600 29.01600
H  44.25100 38.76000 22.69500
H  42.27400 44.76000 22.61500
H  42.81800 43.16700 30.89500
H  42.83300 40.38600 30.80900
H  44.64000 40.67700 31.64700
H  45.02500 42.25500 30.80000
H  45.38200 40.61600 30.06700
H  40.70400 41.02900 31.01000
H  40.16300 42.62000 30.58000
H  39.94500 42.08200 32.91500
H  40.53000 43.64100 32.58200
H  44.39800 35.78300 27.46300
H  44.30700 36.95600 28.56800
H  45.87500 36.76500 27.77400
H  44.48700 34.52900 25.25400
H  46.01400 35.39500 25.35900
H  45.61200 34.48300 23.84100
H  42.91900 40.36800 21.04400
H  43.49000 43.26300 21.03000
H  45.16700 41.82100 20.15000
H  45.13600 40.05600 20.21600
H  45.81000 41.01500 21.49100
H  41.71800 41.91800 19.78700
H  41.22900 43.54000 20.52000
H  40.25500 40.84900 21.09900
H  39.46900 42.49000 21.36800
H  40.47200 41.76800 22.53000
H  40.21900 47.27300 24.49600
H  41.44700 46.86600 23.44500
H  41.91200 47.84100 24.92000
H  40.61800 45.22000 29.59500
H  43.38600 45.99700 32.57500
H  42.74600 47.69500 32.56000
H  44.02500 47.39600 31.55400

