158

Mg 1.45800 -1.80300 42.93200
C  4.98200 -1.08000 42.57900
C  0.85700 0.94600 40.87100
C  -1.68400 -2.84800 42.62200
C  2.40000 -4.94300 44.10000
N  2.76800 -0.24100 41.91600
C  4.17500 -0.20700 41.84500
C  4.60600 0.88900 40.86100
C  3.30300 1.64300 40.44800
C  2.25000 0.76000 41.19800
C  3.16100 3.21500 40.72000
C  5.29700 0.24000 39.71600
C  6.39500 1.10300 38.94300
H  6.16100 1.35600 37.44400
N  -0.24400 -0.90900 42.14700
C  -0.28300 0.22300 41.33200
C  -1.62600 0.49200 40.94300
C  -2.40900 -0.59800 41.45700
C  -1.44800 -1.52600 42.13900
C  -2.01600 1.75800 40.30900
C  -3.92600 -0.82800 41.14300
O  -4.58500 -0.06000 40.45800
C  -4.54300 -2.00800 41.79100
N  0.48500 -3.63700 43.20400
C  -0.82800 -3.75900 43.18900
C  -1.23800 -5.22400 43.44300
C  0.05800 -5.82200 44.07100
C  1.06700 -4.74200 43.75700
C  -2.55000 -5.37600 44.25600
C  0.40200 -7.36200 43.75400
C  1.52600 -7.60200 42.79900
N  3.21400 -2.76100 43.36600
C  3.41100 -4.04200 43.88600
C  4.76300 -4.21900 44.22500
C  5.47200 -3.07000 43.75100
C  4.47000 -2.20500 43.22500
C  5.40400 -5.40500 44.94700
C  6.77700 -2.50000 43.53900
O  7.88000 -2.92800 43.73300
C  6.43400 -1.13500 42.76700
C  6.89100 -0.07700 43.73800
O  6.44200 0.16000 44.86200
O  7.97900 0.59400 43.29200
C  8.52300 1.75100 44.09000
H  0.64100 1.81800 40.25100
H  -2.60500 -3.41400 42.46700
H  2.42300 -5.84900 44.70900
H  5.22500 1.64000 41.35200
H  3.06800 1.59900 39.38400
H  2.27400 3.46000 41.30300
H  3.23900 3.76300 39.78100
H  4.06500 3.47800 41.27000
H  4.60500 -0.19600 38.99600
H  5.95000 -0.57000 40.04200
H  7.39900 0.69300 39.05000
H  6.38100 2.06700 39.45200
H  -1.33700 2.57600 40.55100
H  -3.02300 2.00100 40.64700
H  -2.16000 1.59100 39.24100
H  -4.21000 -2.90800 41.27400
H  -5.62100 -1.92200 41.92400
H  -4.24000 -2.12600 42.83200
H  -1.51000 -5.64200 42.47400
H  -0.05700 -5.76100 45.15300
H  -3.44300 -5.12500 43.68300
H  -2.63700 -4.73500 45.13300
H  -2.61500 -6.39500 44.63900
H  -0.47800 -7.90800 43.41500
H  0.69500 -7.82500 44.69600
H  1.15700 -8.35900 42.10800
H  2.38300 -8.06500 43.28800
H  1.80300 -6.74700 42.18200
H  4.79500 -5.98900 45.63700
H  6.26800 -5.01900 45.48800
H  5.79000 -6.14600 44.24600
H  6.99600 -1.16700 41.83300
H  9.51600 1.60000 44.51500
H  7.95100 2.05500 44.96600
H  8.53700 2.57500 43.37700
Mg 49.47100 34.86700 26.99300
C  47.24500 33.71900 29.52900
C  50.29000 37.46100 29.06600
C  51.04200 36.16600 24.39700
C  48.34600 32.16300 24.98300
N  48.67000 35.61100 29.06200
C  47.89100 34.93300 29.95900
C  48.03000 35.60100 31.33000
C  48.58600 37.00300 31.01000
C  49.24900 36.66700 29.63100
C  47.59000 38.17500 30.79400
C  48.98000 34.76400 32.26900
C  48.59500 34.62800 33.71700
H  49.42500 35.55100 34.69800
N  50.58600 36.57700 26.76900
C  50.86000 37.48000 27.82000
C  51.79500 38.39800 27.31500
C  51.92700 38.21900 25.88500
C  51.17700 36.95700 25.60900
C  52.44500 39.41300 28.27200
C  52.84500 38.99300 24.85500
O  52.83700 38.71500 23.62900
C  53.83900 40.06700 25.18000
N  49.75600 34.21200 25.04000
C  50.43500 34.94200 24.14100
C  50.36300 34.33100 22.68600
C  49.78300 32.94200 23.05900
C  49.23100 33.11900 24.41200
C  49.52500 35.22500 21.67700
C  50.82000 31.73900 23.08000
C  51.26200 31.16400 21.76200
N  48.05000 33.28600 27.16700
C  47.72100 32.30200 26.24900
C  46.80100 31.39400 26.85700
C  46.51000 31.96900 28.11900
C  47.27600 33.11300 28.26400
C  46.15100 30.21600 26.24900
C  45.73700 31.74900 29.36900
O  44.97500 30.87100 29.77500
C  46.18600 32.94000 30.29400
C  46.73000 32.48300 31.58900
O  47.74900 31.87800 31.73500
O  45.77400 32.73700 32.53200
C  45.90100 32.05400 33.86500
H  50.55000 38.28400 29.73500
H  51.53900 36.60200 23.52800
H  48.00700 31.38000 24.30100
H  47.04200 35.68600 31.78200
H  49.36300 37.36100 31.68600
H  47.70700 38.70400 29.84800
H  47.78000 38.93100 31.55600
H  46.56600 37.94000 31.08400
H  49.88900 35.36300 32.32100
H  49.23300 33.86000 31.71500
H  48.76600 33.58700 33.99100
H  47.53100 34.76000 33.91600
H  52.96000 38.91600 29.09400
H  51.69300 40.12700 28.61100
H  53.18600 40.05300 27.79300
H  53.99900 40.62600 24.25900
H  54.81600 39.62000 25.36800
H  53.60000 40.71300 26.02500
H  51.36700 34.29700 22.26400
H  48.87900 32.68500 22.50800
H  50.19700 35.50500 20.86700
H  49.28700 36.11000 22.26700
H  48.67700 34.69300 21.24600
H  50.39600 30.98100 23.73800
H  51.75700 32.12000 23.48700
H  51.23800 30.08900 21.93700
H  52.26200 31.38700 21.38900
H  50.42400 31.44200 21.12300
H  45.91400 30.47500 25.21700
H  45.24500 29.96400 26.80100
H  46.76300 29.31900 26.16100
H  45.29700 33.57100 30.29500
H  46.66400 32.53000 34.48200
H  46.20900 31.04000 33.61200
H  44.91100 32.05700 34.32100

