158

Mg 1.50700 -2.63800 45.68000
C  4.91900 -1.94100 45.46700
C  0.85800 0.26800 43.98400
C  -1.75400 -3.68300 45.33700
C  2.25300 -5.61700 47.20600
N  2.75700 -1.15300 44.57000
C  4.12600 -1.04800 44.68500
C  4.65500 0.18600 43.92100
C  3.35700 1.01700 43.92900
C  2.23600 0.02800 44.14000
C  3.35200 2.26700 44.89700
C  5.25600 -0.14300 42.59500
C  6.41200 0.81100 42.18400
H  6.40100 1.31700 40.74900
N  -0.16300 -1.79000 44.75500
C  -0.23500 -0.49500 44.22400
C  -1.60700 -0.23100 43.97100
C  -2.47000 -1.32600 44.38900
C  -1.45200 -2.38200 44.87300
C  -2.01100 1.15200 43.37000
C  -3.94100 -1.40100 44.24100
O  -4.50900 -0.32200 43.95900
C  -4.73100 -2.61100 44.58700
N  0.32000 -4.53400 46.10500
C  -0.94200 -4.75000 45.83800
C  -1.39500 -6.06100 46.33100
C  -0.00500 -6.78800 46.73700
C  0.91300 -5.53600 46.76200
C  -2.28800 -5.98700 47.62300
C  0.47700 -7.71900 45.51900
C  1.12000 -9.07600 45.86600
N  3.20800 -3.59100 46.23900
C  3.36400 -4.77500 46.94300
C  4.75000 -4.94600 47.35200
C  5.40300 -3.82700 46.76200
C  4.42600 -3.06800 46.08600
C  5.22600 -6.04200 48.21100
C  6.67000 -3.14800 46.61200
O  7.77900 -3.34700 47.11900
C  6.42700 -1.95200 45.63900
C  6.89600 -0.69200 46.32500
O  6.59800 -0.41200 47.50500
O  7.67900 0.10200 45.56900
C  8.03100 1.49900 45.97100
H  0.63100 1.30800 43.73900
H  -2.81200 -3.94600 45.28000
H  2.48200 -6.55400 47.71800
H  5.39600 0.69000 44.54000
H  3.05800 1.53600 43.01800
H  2.63400 2.17200 45.71200
H  3.07100 3.18400 44.38000
H  4.38300 2.51400 45.14900
H  4.44200 -0.12700 41.87000
H  5.73300 -1.12300 42.59500
H  7.39400 0.36500 42.33800
H  6.29000 1.67000 42.84300
H  -2.68700 1.60100 44.09800
H  -2.42400 1.21300 42.36300
H  -1.17300 1.84900 43.37800
H  -4.55100 -2.92600 45.61400
H  -4.46600 -3.32500 43.80700
H  -5.80200 -2.50100 44.41800
H  -1.97600 -6.50500 45.52300
H  -0.13400 -7.19900 47.73800
H  -2.48800 -4.93500 47.82300
H  -1.79300 -6.40400 48.50000
H  -3.26100 -6.46500 47.51200
H  1.18900 -7.17100 44.90300
H  -0.37000 -8.08500 44.93900
H  2.14900 -9.13100 45.51000
H  0.75200 -9.88000 45.22900
H  1.05800 -9.36000 46.91600
H  5.27600 -6.87800 47.51300
H  4.53400 -6.29000 49.01600
H  6.26600 -5.88400 48.49800
H  7.06000 -2.16900 44.77900
H  7.94200 2.19200 45.13500
H  9.04800 1.54900 46.36000
H  7.33000 1.91000 46.69700
Mg 0.66600 41.93800 25.48600
C  2.23400 42.42800 28.69300
C  -2.19400 41.01700 27.08600
C  -0.54500 40.96400 22.54700
C  3.83300 42.37100 24.09600
N  0.11600 41.73100 27.66600
C  0.78200 42.20700 28.71900
C  -0.05200 41.94800 29.99500
C  -1.45100 41.56800 29.48600
C  -1.18700 41.44200 27.96800
C  -2.13900 40.24500 30.14300
C  0.06300 43.26200 30.93900
C  0.34700 43.08800 32.36400
H  -0.60500 43.64900 33.42700
N  -1.13500 41.16000 24.92400
C  -2.19500 40.88000 25.69200
C  -3.22100 40.34200 24.88500
C  -2.68000 40.13400 23.56400
C  -1.36800 40.69000 23.63400
C  -4.58900 40.04500 25.51100
C  -3.28100 39.42900 22.27800
O  -2.59100 39.34400 21.23000
C  -4.65000 38.74400 22.37200
N  1.56100 41.58800 23.60100
C  0.86800 41.34000 22.51100
C  1.78000 41.26900 21.27900
C  3.07900 41.98400 21.79600
C  2.84700 41.91100 23.29100
C  1.85900 39.79300 20.83600
C  3.31700 43.42800 21.29200
C  2.31100 44.50300 21.78100
N  2.64200 42.52800 26.13200
C  3.80500 42.61500 25.47500
C  4.88800 42.86300 26.40700
C  4.31400 42.68200 27.64800
C  2.89800 42.55200 27.44200
C  6.40000 43.11700 26.09300
C  4.64900 42.63600 29.09900
O  5.68700 42.61400 29.69300
C  3.25800 42.65100 29.81800
C  3.29600 41.49900 30.76200
O  3.09900 40.34100 30.46100
O  3.55600 41.84200 32.03300
C  3.45300 40.72200 32.97300
H  -3.04900 40.81000 27.73200
H  -1.02500 40.81200 21.57800
H  4.85800 42.60400 23.80000
H  0.41300 41.12600 30.53900
H  -2.17700 42.36700 29.63700
H  -1.56600 39.89100 31.00000
H  -2.02700 39.46100 29.39500
H  -3.16200 40.51500 30.40500
H  -0.90400 43.74000 30.78400
H  0.78100 43.96200 30.51100
H  1.21200 43.74400 32.46700
H  0.70600 42.07300 32.53100
H  -5.39200 40.10200 24.77500
H  -4.71800 40.77500 26.31000
H  -4.49400 39.05200 25.95100
H  -4.75200 38.14500 21.46700
H  -5.42600 39.50900 22.34300
H  -4.61000 38.02600 23.19100
H  1.23000 41.80600 20.50600
H  3.85100 41.22900 21.65000
H  1.56000 39.19200 21.69400
H  2.77200 39.59100 20.27500
H  1.17100 39.71000 19.99500
H  3.34000 43.51500 20.20600
H  4.31500 43.69300 21.64100
H  2.80000 45.03800 22.59500
H  1.40300 44.03100 22.15500
H  2.12100 45.15700 20.93000
H  6.53800 43.09900 25.01200
H  7.10200 42.33600 26.38500
H  6.70300 44.08400 26.49300
H  3.12400 43.62700 30.28400
H  2.54300 40.15500 32.77500
H  3.47200 41.03200 34.01800
H  4.20400 39.98100 32.69900

