158

Mg 1.34500 41.76800 25.75000
C  3.21400 41.95000 28.76400
C  -1.23100 40.62800 27.76700
C  -0.39300 41.35500 23.03700
C  4.21300 42.72400 23.98900
N  1.06700 41.40600 28.12800
C  1.93000 41.71600 29.09500
C  1.35400 41.67100 30.50300
C  -0.11700 41.15500 30.07000
C  -0.11300 41.02100 28.54900
C  -0.60500 39.84100 30.89400
C  1.46800 43.05700 31.28200
C  2.10900 43.11700 32.64800
H  1.72700 42.05700 33.66700
N  -0.44400 40.90400 25.43300
C  -1.38400 40.58400 26.35700
C  -2.59100 39.99800 25.64900
C  -2.44500 40.37300 24.28500
C  -1.06000 40.91300 24.14600
C  -3.66600 39.29800 26.38700
C  -3.39700 40.28800 23.17900
O  -3.21700 40.68800 22.08600
C  -4.72100 39.85400 23.43900
N  1.85800 41.94000 23.79400
C  0.91600 41.73100 22.82300
C  1.61200 41.81000 21.44000
C  2.95600 42.43800 21.73900
C  3.03100 42.39200 23.26900
C  1.73000 40.47000 20.73400
C  3.08600 43.89700 21.12800
C  4.32400 44.08200 20.38000
N  3.33100 42.22600 26.19200
C  4.34800 42.57300 25.38300
C  5.50300 42.72000 26.16600
C  5.15800 42.44700 27.49400
C  3.73600 42.19100 27.48200
C  6.80900 43.26400 25.77400
C  5.73600 42.22600 28.78200
O  6.85400 42.29600 29.22600
C  4.43200 42.10500 29.69700
C  4.76200 40.91600 30.57900
O  4.52500 39.75100 30.29500
O  5.35300 41.34200 31.73400
C  5.63600 40.38400 32.76300
H  -2.10100 40.38000 28.37800
H  -0.87300 41.25000 22.06200
H  5.14300 43.03600 23.51000
H  1.89700 40.89400 31.04100
H  -0.86000 41.87600 30.41000
H  -1.29900 40.27400 31.61500
H  0.26400 39.51800 31.46700
H  -1.15700 39.10300 30.31100
H  0.42900 43.37700 31.35900
H  1.96200 43.74400 30.59600
H  1.73600 44.04000 33.09300
H  3.19000 43.15000 32.50900
H  -3.36500 38.95900 27.37800
H  -3.98400 38.42000 25.82500
H  -4.54600 39.93300 26.48800
H  -5.15900 40.40900 24.26900
H  -4.74500 38.77000 23.54500
H  -5.29800 40.06300 22.53900
H  0.95100 42.44500 20.85000
H  3.84900 41.86400 21.49300
H  1.45900 39.56600 21.28000
H  2.77900 40.39800 20.44600
H  1.12600 40.52800 19.82900
H  3.03800 44.65700 21.90800
H  2.24500 44.10000 20.46500
H  4.86200 44.86100 20.92100
H  4.05400 44.47100 19.39800
H  4.84700 43.12900 20.30500
H  6.68100 44.08400 25.06700
H  7.24700 42.42200 25.23800
H  7.41600 43.60400 26.61200
H  4.23700 42.94800 30.36000
H  5.50400 40.76100 33.77700
H  6.49200 39.70900 32.73000
H  4.75300 39.75100 32.67300
Mg -1.93200 34.23400 26.49100
C  -3.36200 32.38400 29.24900
C  -0.04600 36.00700 28.94300
C  -0.43000 35.77200 24.05600
C  -3.82800 32.30700 24.39100
N  -1.76800 34.22400 28.86400
C  -2.38500 33.32200 29.72400
C  -2.06300 33.67300 31.21200
C  -1.07100 34.88700 31.10800
C  -0.92700 35.06600 29.54100
C  -1.58100 36.24900 31.72800
C  -1.49400 32.52100 32.00800
C  -0.88000 32.76000 33.47100
H  -1.31200 31.98700 34.76500
N  -0.51200 35.67900 26.48500
C  0.19300 36.29300 27.53400
C  1.13800 37.26800 26.99700
C  0.94300 37.28500 25.64800
C  -0.08200 36.22900 25.30600
C  2.09700 38.08000 27.86700
C  1.65400 38.13900 24.60900
O  1.29100 38.06300 23.40400
C  2.81900 38.91000 25.06200
N  -2.09300 34.10200 24.45900
C  -1.39700 34.86900 23.62200
C  -1.74900 34.53700 22.10300
C  -2.85900 33.46400 22.27700
C  -2.95100 33.23800 23.83000
C  -2.11400 35.76900 21.25600
C  -2.70300 32.18900 21.32000
C  -1.82100 31.08900 21.86700
N  -3.40300 32.76100 26.69200
C  -4.05400 32.03600 25.75200
C  -4.85000 31.06400 26.33900
C  -4.66400 31.14800 27.71300
C  -3.80700 32.26800 27.91500
C  -5.86400 30.12800 25.67300
C  -4.99600 30.63400 28.97000
O  -5.76100 29.80200 29.28700
C  -4.20300 31.41200 30.08900
C  -5.10200 32.08800 31.13300
O  -5.85100 33.07200 30.87200
O  -5.13400 31.44800 32.26300
C  -6.05800 32.06400 33.33200
H  0.32100 36.73900 29.66500
H  0.00000 36.30300 23.20400
H  -4.44600 31.69100 23.73400
H  -3.01000 33.88000 31.71000
H  -0.11100 34.80700 31.61900
H  -2.19200 36.78700 31.00300
H  -0.75400 36.83300 32.13300
H  -2.15000 35.96300 32.61200
H  -0.58200 32.23000 31.48900
H  -2.16300 31.66100 32.00200
H  -1.09900 33.80400 33.69500
H  0.19400 32.58800 33.54900
H  3.09600 38.33300 27.51200
H  2.23700 37.46100 28.75300
H  1.61200 39.03600 28.06500
H  2.46900 39.61900 25.81200
H  3.28700 39.41300 24.21600
H  3.66300 38.35700 25.47500
H  -0.89400 34.03900 21.64500
H  -3.77900 33.99300 22.02900
H  -1.23200 36.37200 21.04000
H  -2.79500 36.38600 21.84200
H  -2.55900 35.50700 20.29600
H  -2.57300 32.42400 20.26300
H  -3.71000 31.78400 21.41600
H  -2.38100 30.19000 22.12600
H  -1.32300 31.46300 22.76200
H  -1.11400 30.91900 21.05500
H  -5.20200 29.60100 24.98600
H  -6.60200 30.76200 25.18300
H  -6.31000 29.55400 26.48500
H  -3.56800 30.60200 30.44800
H  -6.86200 32.58100 32.80700
H  -5.49700 32.66000 34.05200
H  -6.56300 31.25100 33.85300

