158

Mg 41.61900 40.64100 26.23000
C  40.77100 43.20400 28.71200
C  42.83800 38.82900 28.76600
C  42.57900 38.54500 23.97700
C  40.59100 43.03700 23.93200
N  41.83200 40.99800 28.42800
C  41.29900 41.97400 29.21800
C  41.45900 41.60800 30.72300
C  42.35300 40.32600 30.71500
C  42.27300 40.00800 29.21300
C  43.82700 40.66200 31.28100
C  40.04800 41.52500 31.41400
C  39.80400 42.28600 32.63000
H  39.85700 41.43000 33.89400
N  42.64900 38.91700 26.39300
C  43.05100 38.32500 27.51500
C  43.76100 37.06300 27.18500
C  43.68800 36.89200 25.73400
C  42.98700 38.16800 25.28000
C  44.38600 36.18300 28.27900
C  44.13300 35.79000 24.82400
O  44.03100 35.92200 23.60800
C  44.68300 34.50600 25.45700
N  41.83800 40.89100 24.24800
C  42.10700 39.77500 23.51200
C  41.68000 39.95500 22.02000
C  41.10000 41.47000 22.03900
C  41.14800 41.85300 23.53000
C  42.77700 39.66100 20.92000
C  39.60800 41.63600 21.45700
C  39.35300 42.36700 20.12100
N  40.96000 42.74500 26.26400
C  40.57200 43.53300 25.24200
C  39.96000 44.77300 25.69900
C  40.01800 44.68800 27.09900
C  40.68500 43.47500 27.33300
C  39.25200 45.89400 24.86800
C  39.72400 45.39600 28.35000
O  39.13100 46.49500 28.51200
C  40.18400 44.38200 29.50400
C  41.14100 45.07200 30.52800
O  42.28500 44.83400 30.52400
O  40.45300 46.00300 31.32600
C  41.42000 46.65600 32.28100
H  43.02700 38.11000 29.56500
H  42.69600 37.86100 23.13400
H  40.02900 43.64800 23.22300
H  42.11600 42.34800 31.18100
H  41.77700 39.61400 31.30700
H  44.56800 40.20200 30.62800
H  43.87200 40.13000 32.23100
H  44.02800 41.72900 31.37400
H  40.02500 40.45200 31.60600
H  39.19700 41.64600 30.74400
H  38.76900 42.60800 32.51700
H  40.53600 43.09200 32.68400
H  45.42700 35.87800 28.17300
H  43.87800 35.22500 28.39100
H  44.27200 36.63900 29.26200
H  45.06800 33.86200 24.66600
H  43.84200 34.07400 25.99900
H  45.53600 34.72800 26.09800
H  40.92700 39.22400 21.72400
H  41.78600 42.09800 21.47100
H  43.66000 39.32600 21.46400
H  42.95600 40.46100 20.20100
H  42.48000 38.83500 20.27400
H  39.02000 42.14600 22.22000
H  39.16900 40.65100 21.30000
H  38.99000 41.61700 19.41800
H  40.28200 42.77600 19.72300
H  38.61000 43.16200 20.05900
H  38.87000 46.70100 25.49300
H  38.50600 45.35300 24.28500
H  39.97100 46.33200 24.17600
H  39.29000 44.07000 30.04300
H  40.86500 47.36900 32.89000
H  42.14600 47.33700 31.83800
H  41.95100 46.01900 32.98800
Mg 28.43500 56.17200 40.14300
C  26.18500 53.58800 40.04700
C  30.95700 53.94000 39.17900
C  30.50600 58.67100 39.85300
C  25.64100 58.52000 40.24100
N  28.53400 53.95300 39.79000
C  27.45500 53.12400 39.67800
C  27.79500 51.79300 38.93900
C  29.36700 51.77600 39.16900
C  29.70600 53.28100 39.36700
C  29.79100 50.79800 40.23500
C  27.32900 51.85400 37.45600
C  27.11300 53.29000 36.85100
H  26.51800 53.26800 35.46000
N  30.38700 56.31000 39.58700
C  31.29300 55.27900 39.30500
C  32.61800 55.84700 39.04200
C  32.50700 57.25300 39.16500
C  31.11000 57.44100 39.68700
C  33.90100 55.04100 38.61900
C  33.67300 58.29400 38.89900
O  34.79200 57.91500 38.68100
C  33.47700 59.79800 38.96600
N  28.05100 58.30200 40.16500
C  29.22000 59.11100 40.06000
C  28.87600 60.63500 40.13300
C  27.31300 60.53800 40.17300
C  26.94200 59.04500 40.13700
C  29.58000 61.43500 41.17900
C  26.60700 61.20800 38.95000
C  25.38200 62.11000 39.37000
N  26.32500 56.13100 40.09500
C  25.32300 57.09100 40.19500
C  24.03700 56.44300 40.30100
C  24.34600 55.05700 40.30400
C  25.71800 54.90500 40.07500
C  22.73700 57.05000 40.46400
C  23.78300 53.76000 40.41400
O  22.61100 53.43800 40.69000
C  24.90800 52.77700 40.07100
C  24.99900 51.62600 41.08200
O  24.12800 50.76500 41.27700
O  26.06100 51.70500 41.91600
C  26.23000 50.63500 42.89700
H  31.69700 53.19200 38.88800
H  31.18900 59.51700 39.95000
H  24.75500 59.15800 40.24500
H  27.28900 50.92800 39.37000
H  29.80000 51.44300 38.22600
H  30.30400 51.34400 41.02700
H  30.25600 50.02100 39.63000
H  28.90000 50.35400 40.68000
H  26.49700 51.15600 37.36900
H  28.12400 51.40000 36.86400
H  28.02100 53.87200 36.68900
H  26.35700 53.85300 37.39900
H  33.88200 53.99300 38.91800
H  34.67700 55.42500 39.28100
H  34.13200 55.22900 37.57000
H  33.34200 60.17800 39.97900
H  32.65400 60.09700 38.31800
H  34.33500 60.29600 38.51300
H  29.13100 61.03300 39.15100
H  26.93700 60.91600 41.12300
H  30.10900 60.73000 41.81900
H  28.92200 61.99100 41.84700
H  30.20200 62.16300 40.65800
H  26.22100 60.42300 38.30000
H  27.24000 61.88000 38.36900
H  24.46100 61.66500 38.99400
H  25.51300 63.13900 39.03600
H  25.11400 62.08000 40.42700
H  22.70300 58.13800 40.51700
H  22.27900 56.71000 41.39200
H  22.07900 56.70700 39.66500
H  24.47300 52.42000 39.13800
H  26.00700 50.92200 43.92500
H  27.29700 50.41800 42.84900
H  25.82700 49.66400 42.61000

