158

Mg 25.81600 -0.66200 29.10100
C  27.67900 -0.89100 31.86500
C  22.78800 -0.43500 31.05100
C  23.81500 -0.55500 26.28400
C  28.50500 -1.36600 27.08500
N  25.31200 -0.69900 31.18600
C  26.30600 -0.77100 32.17000
C  25.71600 -0.63500 33.54200
C  24.19200 -0.78600 33.21000
C  24.06700 -0.69500 31.71900
C  23.45900 -2.02800 33.82200
C  26.14700 0.69800 34.28600
C  26.77700 0.58800 35.68200
H  26.41100 1.68300 36.63300
N  23.68600 -0.42500 28.75200
C  22.65000 -0.19000 29.67900
C  21.43200 0.08700 28.95600
C  21.76000 0.10400 27.54700
C  23.12500 -0.34400 27.47500
C  20.08400 0.32300 29.59200
C  20.94800 0.52200 26.41900
O  21.33600 0.40500 25.26300
C  19.56200 1.00400 26.64000
N  26.13000 -0.83500 26.91700
C  25.19200 -0.84900 25.98800
C  25.79800 -0.99400 24.60200
C  27.26600 -1.41000 24.84900
C  27.32300 -1.21100 26.37900
C  24.91700 -1.83600 23.62900
C  28.28700 -0.60400 23.98200
C  28.46300 0.82900 24.45300
N  27.73900 -1.10700 29.43100
C  28.77200 -1.23200 28.48000
C  29.99400 -1.49300 29.18100
C  29.66300 -1.24900 30.56500
C  28.27100 -0.99500 30.63900
C  31.35400 -1.78000 28.53900
C  30.14100 -1.21700 31.89500
O  31.23500 -1.27800 32.33800
C  28.87200 -0.85500 32.90700
C  28.66600 -1.93200 33.94100
O  28.22700 -3.05600 33.75600
O  29.19300 -1.51800 35.14000
C  29.02300 -2.45300 36.32100
H  21.91500 -0.26200 31.68500
H  23.36300 -0.58900 25.29100
H  29.33200 -1.71200 26.46100
H  26.11000 -1.38400 34.22900
H  23.63900 0.08600 33.56000
H  23.15900 -2.65400 32.98200
H  22.53400 -1.69100 34.29000
H  24.12400 -2.65800 34.41200
H  25.36400 1.45500 34.33400
H  26.91100 1.27500 33.76500
H  27.85700 0.51300 35.55900
H  26.50500 -0.36300 36.14000
H  19.64300 1.24900 29.22300
H  20.02800 0.33500 30.68100
H  19.43600 -0.47700 29.23400
H  19.00500 1.33600 25.76300
H  19.69400 1.87500 27.28300
H  19.02700 0.22700 27.18600
H  25.76500 0.02500 24.21600
H  27.28700 -2.47200 24.60700
H  24.14000 -2.41300 24.13000
H  25.51900 -2.59600 23.13100
H  24.42500 -1.23900 22.86100
H  27.93700 -0.54100 22.95100
H  29.12700 -1.27500 23.80300
H  29.12900 0.99600 25.29900
H  27.54300 1.33500 24.74600
H  28.86500 1.25900 23.53600
H  32.13700 -1.17300 28.99400
H  31.19800 -1.46500 27.50800
H  31.58100 -2.84400 28.60300
H  28.87700 0.14800 33.33400
H  29.33400 -3.48100 36.13300
H  27.98600 -2.42800 36.65500
H  29.72100 -2.16300 37.10600
Mg 53.70300 23.58700 45.20400
C  51.24800 25.71300 43.77200
C  52.07700 20.95500 43.88300
C  56.40300 21.79600 45.48100
C  55.30600 26.52500 46.30400
N  51.93700 23.40200 43.96900
C  51.08300 24.35800 43.55700
C  49.87200 23.76500 42.78000
C  50.00200 22.24900 43.25000
C  51.43400 22.17400 43.67200
C  49.05700 21.87100 44.41600
C  49.99700 23.95100 41.26200
C  48.77700 24.23400 40.36100
H  49.04800 24.49900 38.82600
N  54.17500 21.60400 44.82800
C  53.42200 20.69000 44.22400
C  54.06200 19.35700 44.30600
C  55.32200 19.60300 44.74300
C  55.36500 21.02600 44.95300
C  53.31100 18.06000 44.00800
C  56.39700 18.62200 44.90400
O  56.05800 17.46700 44.65400
C  57.82300 18.95100 45.27000
N  55.55000 24.10700 45.77800
C  56.50400 23.14100 45.89500
C  57.89200 23.80200 46.17000
C  57.48200 25.16100 46.86300
C  56.05000 25.32000 46.27500
C  58.82900 23.00000 47.12000
C  58.42900 26.37500 46.60900
C  58.67800 27.32300 47.69000
N  53.30100 25.67100 45.25200
C  53.96800 26.67600 45.82000
C  53.25000 27.93500 45.68900
C  52.09600 27.57300 44.92200
C  52.26400 26.20400 44.61800
C  53.63500 29.21600 46.33700
C  50.82000 28.03300 44.32900
O  50.23600 29.10000 44.37300
C  50.26800 26.84900 43.57800
C  50.04900 27.22700 42.19400
O  50.88300 27.59100 41.37100
O  48.69500 27.35100 41.95900
C  48.45700 27.80300 40.53000
H  51.46400 20.11800 43.54600
H  57.36000 21.37000 45.79000
H  55.83000 27.40600 46.67900
H  48.99400 24.32400 43.10600
H  49.86000 21.52000 42.45200
H  48.26700 22.62200 44.44200
H  49.53600 21.80000 45.39300
H  48.43000 21.01800 44.15700
H  50.56400 23.06300 40.98200
H  50.67700 24.78600 41.10000
H  48.34900 25.02400 40.97800
H  48.08300 23.39400 40.34500
H  52.30100 18.26700 43.65500
H  53.16700 17.44200 44.89400
H  53.82400 17.49200 43.23200
H  58.23400 19.87500 44.86300
H  58.48300 18.10000 45.09900
H  57.74100 19.10000 46.34700
H  58.43900 23.97300 45.24200
H  57.28100 25.17400 47.93400
H  58.22300 22.19000 47.52700
H  59.28400 23.57300 47.92800
H  59.61700 22.57000 46.50200
H  57.95800 26.95500 45.81500
H  59.39500 26.00300 46.26800
H  59.74200 27.47600 47.86700
H  58.18300 26.97000 48.59500
H  58.15000 28.25600 47.48900
H  52.71900 29.50800 46.85200
H  53.96900 29.99100 45.64700
H  54.41300 29.08900 47.09000
H  49.29400 26.59100 43.99500
H  47.50000 27.41700 40.17800
H  49.13100 27.24200 39.88300
H  48.48800 28.88100 40.37400

