158

Mg 25.47600 1.83100 29.67100
C  27.71200 1.69300 32.54300
C  23.00800 2.02500 31.85800
C  23.47200 1.45000 27.07000
C  28.24700 0.74400 27.74100
N  25.35400 2.00700 31.96300
C  26.39400 2.00000 32.91800
C  25.87900 2.36600 34.30300
C  24.30700 2.32800 34.04400
C  24.14700 2.14700 32.54500
C  23.53400 1.28300 34.87500
C  26.37000 3.72100 34.86800
C  27.39000 3.73600 36.06000
H  26.93600 4.57600 37.37500
N  23.54400 1.77400 29.46800
C  22.65100 1.90100 30.51800
C  21.28900 1.77500 30.01800
C  21.39400 1.66800 28.60100
C  22.83800 1.60500 28.30000
C  20.12700 2.02800 30.94400
C  20.35800 1.49700 27.50100
O  20.58700 1.26300 26.32200
C  18.93600 1.61400 27.85900
N  25.79100 1.18500 27.65300
C  24.81700 1.35900 26.73800
C  25.38400 1.24500 25.32900
C  26.90700 1.05900 25.51900
C  27.00600 0.93300 27.07300
C  24.72000 0.24100 24.33000
C  27.65200 2.41600 24.98900
C  27.65900 3.74400 25.84200
N  27.52700 1.45600 29.99100
C  28.49800 0.94800 29.08800
C  29.79100 0.82800 29.77100
C  29.46400 0.97400 31.09200
C  28.10600 1.35100 31.21800
C  31.07400 0.54600 29.00600
C  30.09500 0.93900 32.42900
O  31.21600 0.66100 32.75300
C  28.96800 1.47700 33.39400
C  28.78600 0.50100 34.52700
O  28.08100 -0.51300 34.49100
O  29.46900 0.98200 35.64800
C  29.30900 0.05900 36.75800
H  22.17000 2.09100 32.55600
H  22.82900 1.46500 26.18800
H  29.17200 0.66100 27.16600
H  26.09200 1.51500 34.95000
H  23.77600 3.22900 34.35200
H  22.45400 1.42900 34.87000
H  24.02200 1.10100 35.83300
H  23.51000 0.35600 34.30300
H  25.55300 4.42900 35.00300
H  26.85800 4.19300 34.01500
H  28.37100 4.13400 35.80100
H  27.49900 2.71100 36.41600
H  19.93700 3.10100 30.92800
H  20.25300 1.68000 31.97000
H  19.20700 1.60100 30.54500
H  18.33300 1.27400 27.01800
H  18.75000 2.64900 28.14700
H  18.82300 0.92100 28.69300
H  25.20600 2.26600 24.99200
H  27.40900 0.19000 25.09400
H  24.02700 -0.35300 24.92500
H  25.40700 -0.44800 23.83800
H  24.20200 0.81800 23.56400
H  27.24600 2.71900 24.02400
H  28.71000 2.20000 24.83700
H  27.07000 3.52400 26.73300
H  27.23600 4.56700 25.26800
H  28.59900 4.03400 26.31100
H  31.04600 0.10700 28.00800
H  31.73600 -0.02100 29.66000
H  31.57800 1.50400 28.87200
H  29.19600 2.45800 33.81100
H  29.32200 -0.96600 36.38900
H  28.47000 0.39300 37.36900
H  30.19700 0.11400 37.38800
Mg 35.50000 2.50100 29.61500
C  33.34200 3.87100 32.13000
C  37.90800 2.39500 31.95900
C  37.67500 1.76400 27.22500
C  33.08700 3.44300 27.28700
N  35.61400 3.11700 31.79700
C  34.59200 3.51300 32.61400
C  35.03400 3.58100 34.06000
C  36.51400 3.36400 33.96900
C  36.71000 2.87900 32.47600
C  37.37600 4.64000 34.19900
C  34.15400 2.53100 34.81600
C  33.66100 2.93100 36.18600
H  34.26800 4.16200 36.90900
N  37.46400 1.99700 29.67700
C  38.27000 1.89200 30.73800
C  39.54900 1.37800 30.33200
C  39.53600 1.27100 28.88800
C  38.15000 1.70600 28.53100
C  40.71900 1.05700 31.30600
C  40.54300 0.72500 27.87500
O  40.33100 0.78500 26.68100
C  41.74400 0.10200 28.38700
N  35.38700 2.55000 27.58400
C  36.38700 2.18300 26.78300
C  35.90500 2.07700 25.30100
C  34.46700 2.60600 25.33100
C  34.26400 2.85700 26.80400
C  36.80700 2.84700 24.38900
C  33.39200 1.49400 25.00700
C  32.06600 1.93600 24.24700
N  33.61900 3.42800 29.58800
C  32.70800 3.69100 28.62600
C  31.50700 4.13300 29.12700
C  31.75100 4.31200 30.49800
C  33.01800 3.85400 30.74100
C  30.30200 4.40400 28.33200
C  31.05800 4.69700 31.69400
O  29.91700 5.10900 31.91100
C  32.08500 4.35900 32.87600
C  32.31000 5.54400 33.71400
O  33.04800 6.44100 33.31500
O  31.52300 5.54500 34.80900
C  31.32600 6.79200 35.51500
H  38.78600 2.31300 32.60300
H  38.27600 1.45700 26.36700
H  32.43000 3.80000 26.49100
H  34.84900 4.56800 34.48400
H  36.77500 2.63100 34.73300
H  36.77800 5.54300 34.32000
H  38.08200 4.82300 33.38900
H  37.87100 4.58700 35.16900
H  34.74600 1.62300 34.92800
H  33.39200 2.06700 34.19100
H  33.77200 2.03900 36.80200
H  32.57200 2.91200 36.23400
H  41.50600 1.76500 31.04700
H  41.15600 0.06400 31.19700
H  40.37500 1.24900 32.32200
H  41.47400 -0.83200 28.87900
H  42.25200 0.72000 29.12700
H  42.47600 -0.10300 27.60500
H  35.90600 1.07000 24.88300
H  34.36900 3.53900 24.77600
H  36.39700 3.84600 24.23800
H  36.84400 2.29200 23.45200
H  37.82600 2.92300 24.76900
H  33.15500 0.90100 25.89000
H  33.90900 0.78200 24.36400
H  31.98100 3.02200 24.28000
H  31.23900 1.59300 24.86900
H  31.94400 1.55700 23.23200
H  30.55500 5.14500 27.57400
H  29.56500 4.96600 28.90600
H  29.92200 3.52200 27.81600
H  31.50000 3.59900 33.39500
H  31.15200 7.59900 34.80300
H  32.20000 7.09300 36.09400
H  30.48200 6.80200 36.20500

