158

Mg 54.81800 24.18100 44.28000
C  52.37500 26.67900 43.93400
C  52.46300 21.85500 43.36900
C  57.30700 22.03200 43.98800
C  57.16000 26.75900 44.87100
N  52.77100 24.27700 43.61100
C  51.95000 25.37600 43.46400
C  50.45900 25.02000 43.15600
C  50.50000 23.47100 43.42900
C  51.97200 23.10900 43.52700
C  49.69800 22.83500 44.65200
C  50.00200 25.40700 41.68700
C  51.11100 25.36300 40.62900
H  50.64000 25.12600 39.17300
N  54.83300 22.17900 43.86800
C  53.80000 21.37400 43.52200
C  54.22500 20.04800 43.51300
C  55.66300 20.08400 43.68400
C  56.00000 21.47100 43.89200
C  53.33000 18.85600 43.16400
C  56.56600 18.78900 43.79500
O  56.05200 17.67800 43.57100
C  58.02600 18.85000 44.12400
N  56.96000 24.36400 44.31800
C  57.77000 23.33500 44.11700
C  59.26200 23.72200 44.25100
C  59.16200 25.18600 44.51000
C  57.69000 25.48300 44.59700
C  60.11200 22.92100 45.35000
C  59.91600 26.04600 43.44800
C  59.10900 26.44100 42.14800
N  54.81400 26.25900 44.55900
C  55.78700 27.20500 44.84800
C  55.25800 28.49900 45.01800
C  53.88400 28.30700 44.66500
C  53.66700 26.99600 44.34800
C  56.02200 29.72800 45.32900
C  52.62800 28.98600 44.56600
O  52.32600 30.14500 44.79200
C  51.57200 27.96600 44.04100
C  50.98100 28.46600 42.76900
O  51.60500 28.54000 41.70000
O  49.67500 28.83200 42.95900
C  49.12900 29.40100 41.72700
H  51.60100 21.18900 43.29700
H  58.11400 21.32200 43.79300
H  57.90100 27.55600 44.96400
H  49.74300 25.48000 43.83800
H  50.23100 22.99300 42.48800
H  49.25100 23.63100 45.24700
H  50.34800 22.34600 45.37700
H  48.89200 22.18500 44.31100
H  49.59600 26.41800 41.66500
H  49.33200 24.62900 41.32100
H  51.90400 24.71000 40.99300
H  51.66700 26.30000 40.65200
H  53.67900 18.18700 42.37800
H  52.26600 19.07600 43.07500
H  53.39900 18.20400 44.03500
H  58.31300 17.90400 44.58400
H  58.14100 19.63100 44.87500
H  58.71600 19.05000 43.30400
H  59.71900 23.62200 43.26700
H  59.59600 25.49000 45.46300
H  60.99300 22.52100 44.84700
H  59.53200 22.04600 45.64200
H  60.26400 23.46900 46.28000
H  60.75200 25.42200 43.13300
H  60.44500 26.91000 43.85100
H  59.46800 27.46500 42.04600
H  58.02200 26.50600 42.20400
H  59.39600 26.03600 41.17700
H  55.44600 30.57600 44.95700
H  56.97900 29.77400 44.81000
H  56.32100 29.80100 46.37400
H  50.77900 27.87200 44.78300
H  48.09600 29.05200 41.74500
H  49.36300 29.00800 40.73800
H  49.23500 30.48200 41.63700
Mg -2.09800 34.50300 26.50400
C  -3.36100 32.80900 29.31100
C  -0.41200 36.60100 28.54200
C  -0.91400 36.14400 23.71800
C  -4.06000 32.43000 24.46600
N  -1.97600 34.62700 28.63400
C  -2.54100 33.89500 29.63600
C  -2.14700 34.34800 30.98100
C  -1.24600 35.59200 30.75200
C  -1.26100 35.65700 29.18500
C  -1.51000 37.02500 31.43200
C  -1.60200 33.16600 31.82200
C  -0.66300 33.46200 33.06400
H  -1.08600 32.95700 34.48900
N  -0.82300 36.15300 26.16800
C  -0.14800 36.88600 27.15700
C  0.64600 37.92700 26.49700
C  0.43000 37.86400 25.13600
C  -0.45600 36.68500 24.94300
C  1.54400 38.84200 27.28200
C  0.95400 38.79800 24.01600
O  0.71000 38.64400 22.85700
C  1.78200 39.91500 24.36500
N  -2.45100 34.32500 24.43400
C  -1.83100 35.09800 23.47300
C  -2.16100 34.54700 22.05800
C  -3.19100 33.45200 22.26400
C  -3.24700 33.40600 23.82700
C  -2.49200 35.60800 20.87700
C  -2.83900 32.16800 21.45800
C  -1.81800 31.13500 22.07800
N  -3.44600 32.84700 26.75900
C  -4.09300 32.10500 25.84700
C  -4.72000 30.98800 26.56700
C  -4.48100 31.22400 27.91800
C  -3.71600 32.41400 27.99900
C  -5.49800 29.91900 25.97900
C  -4.90500 30.81500 29.26400
O  -5.58100 29.87300 29.75900
C  -4.17300 31.85500 30.22300
C  -5.30900 32.71000 30.91500
O  -6.17000 33.33500 30.37200
O  -5.11800 32.73400 32.27200
C  -6.00000 33.45000 33.18500
H  0.09200 37.29600 29.21700
H  -0.51600 36.74100 22.89500
H  -4.49600 31.69700 23.78500
H  -3.10100 34.61100 31.44000
H  -0.26100 35.39900 31.17600
H  -1.88200 37.68100 30.64500
H  -0.63500 37.41100 31.95300
H  -2.25700 36.99100 32.22600
H  -1.16900 32.31900 31.29100
H  -2.46900 32.66000 32.24700
H  -0.41600 34.52300 33.08100
H  0.25700 32.93500 32.80800
H  1.48200 38.65900 28.35500
H  1.28200 39.88200 27.08800
H  2.59500 38.70300 27.02900
H  2.09000 40.34500 23.41200
H  2.68000 39.80500 24.97300
H  1.08500 40.66600 24.73900
H  -1.23400 34.01500 21.84400
H  -4.08600 34.00100 21.97000
H  -2.86300 36.55200 21.27500
H  -3.08600 35.14400 20.09000
H  -1.52500 35.73500 20.39000
H  -2.39300 32.50100 20.52100
H  -3.81800 31.77700 21.17900
H  -1.25600 31.59800 22.88900
H  -1.11100 30.80600 21.31700
H  -2.39800 30.26900 22.39700
H  -6.52500 30.27000 25.87500
H  -5.54100 29.09500 26.69100
H  -5.05600 29.68100 25.01200
H  -3.47100 31.23400 30.77800
H  -6.87800 33.77800 32.62800
H  -5.41900 34.29300 33.55900
H  -6.21300 32.75200 33.99500

