158

Mg 23.90200 -4.86200 45.74700
C  25.86900 -2.66700 43.76200
C  21.15900 -3.92700 44.00600
C  22.43400 -7.64300 46.72800
C  26.93800 -5.88400 47.33000
N  23.51300 -3.56600 43.89800
C  24.45800 -2.71000 43.40500
C  23.83300 -1.76400 42.37700
C  22.29800 -2.05400 42.59900
C  22.29800 -3.22800 43.55100
C  21.41600 -0.87100 43.10100
C  24.44000 -2.05700 40.96300
C  24.82300 -0.85300 40.11000
H  24.60800 -1.06900 38.62800
N  22.04200 -5.66100 45.54900
C  21.03100 -5.09500 44.87400
C  19.81200 -5.79200 45.02700
C  20.10700 -6.86700 45.93000
C  21.58100 -6.79800 46.04900
C  18.43900 -5.42700 44.48600
C  19.20700 -7.82800 46.52600
O  17.97800 -7.99100 46.31000
C  19.78700 -8.85500 47.41100
N  24.53900 -6.44900 47.00400
C  23.72100 -7.48900 47.22800
C  24.52300 -8.58900 48.00100
C  25.85400 -7.87900 48.49700
C  25.78000 -6.61800 47.63300
C  23.81300 -9.31800 49.17900
C  27.20100 -8.74500 48.31900
C  28.11400 -8.62200 49.58300
N  25.99500 -4.47500 45.61700
C  27.07300 -4.86200 46.40000
C  28.19100 -4.02100 46.16700
C  27.75100 -3.15500 45.13200
C  26.43000 -3.49700 44.78600
C  29.44100 -4.08200 46.91900
C  28.17900 -2.08700 44.35100
O  29.24800 -1.54300 44.31400
C  26.99600 -1.71600 43.36100
C  26.74900 -0.26200 43.63500
O  26.13300 0.07900 44.62700
O  27.55400 0.48300 42.77500
C  27.56200 1.89900 43.23200
H  20.21400 -3.54600 43.61400
H  22.15900 -8.69700 46.79400
H  27.81900 -6.23500 47.87100
H  24.08300 -0.74400 42.66800
H  21.80800 -2.43100 41.70200
H  21.31700 -0.75100 44.17900
H  20.44700 -0.92800 42.60500
H  21.87200 0.00600 42.64200
H  23.71300 -2.58700 40.34700
H  25.32300 -2.66600 41.15400
H  25.84400 -0.68400 40.45100
H  24.12400 -0.07400 40.41300
H  18.34500 -5.72400 43.44100
H  18.40200 -4.33800 44.49700
H  17.60800 -5.83700 45.06100
H  19.01600 -9.31700 48.02700
H  20.49400 -8.41400 48.11400
H  20.19700 -9.63500 46.77000
H  24.77000 -9.39000 47.30400
H  25.81000 -7.41300 49.48200
H  24.20300 -10.33100 49.28100
H  22.73700 -9.14300 49.21300
H  24.18800 -8.86000 50.09400
H  27.75700 -8.40900 47.44400
H  26.82900 -9.75400 48.14400
H  28.16700 -9.54800 50.15600
H  27.82400 -7.70200 50.09100
H  29.12600 -8.49100 49.20000
H  30.16400 -3.56400 46.29000
H  29.83800 -5.07600 47.12800
H  29.37500 -3.49000 47.83200
H  27.40500 -1.76900 42.35200
H  27.75500 1.90500 44.30400
H  26.63700 2.45300 43.06900
H  28.44700 2.42300 42.87200
Mg 29.11500 57.21600 41.31400
C  26.33600 55.35400 40.24100
C  31.10500 55.10300 39.61200
C  31.47500 59.70100 41.29100
C  26.67800 59.77300 42.26800
N  28.80900 55.54600 40.03100
C  27.56900 54.94200 39.74500
C  27.75300 53.66200 38.88300
C  29.31200 53.40700 38.98400
C  29.77600 54.77700 39.45600
C  29.81900 52.19200 39.88300
C  27.18300 53.76800 37.49000
C  27.55300 55.13000 36.70900
H  27.62800 55.12000 35.25600
N  30.96400 57.33400 40.77800
C  31.69800 56.34000 40.15300
C  33.09800 56.63300 40.03700
C  33.23100 57.98400 40.54400
C  31.86200 58.36500 40.95100
C  34.18800 55.70600 39.45900
C  34.50800 58.65300 40.77400
O  35.55000 58.18900 40.34200
C  34.65200 59.97700 41.52900
N  29.03900 59.47600 41.64900
C  30.21300 60.24100 41.65100
C  29.93700 61.72100 41.97000
C  28.40200 61.68400 42.32500
C  28.01200 60.15200 42.13400
C  30.81800 62.28200 43.10400
C  27.53000 62.80900 41.68700
C  26.54800 63.55500 42.57200
N  26.93600 57.48300 41.50700
C  26.15200 58.55700 41.98900
C  24.77400 58.07000 41.95200
C  24.77500 56.84500 41.27400
C  26.11900 56.53600 41.01600
C  23.58700 58.67700 42.67700
C  23.87300 55.78600 40.80100
O  22.66400 55.59300 40.83800
C  24.81300 54.86100 40.03000
C  24.57200 53.39900 40.51000
O  24.54300 53.09700 41.68600
O  24.43700 52.63500 39.41700
C  24.31800 51.21700 39.76600
H  31.85800 54.44600 39.17100
H  32.27200 60.44700 41.26900
H  25.89700 60.44400 42.63100
H  27.44600 52.69900 39.29200
H  29.80900 53.34000 38.01600
H  29.63000 51.17900 39.52900
H  29.25700 52.43500 40.78500
H  30.86600 52.29800 40.16600
H  26.09600 53.69100 37.51000
H  27.53300 52.93100 36.88500
H  28.44400 55.64100 37.07400
H  26.70400 55.76600 36.95800
H  33.93700 55.39600 38.44500
H  34.33100 54.86800 40.14100
H  35.15500 56.14200 39.21000
H  34.27800 60.81700 40.94400
H  35.71900 60.13400 41.68800
H  34.05100 59.79500 42.42000
H  30.10700 62.30700 41.06700
H  28.42600 61.87400 43.39800
H  30.42700 62.47300 44.10400
H  31.43800 63.10900 42.75800
H  31.63500 61.56500 43.17500
H  26.95700 62.39200 40.85800
H  28.13800 63.61700 41.27900
H  26.62600 63.10100 43.56000
H  25.52900 63.28200 42.29600
H  26.77800 64.62000 42.56600
H  23.95600 59.17800 43.57200
H  22.92500 57.82800 42.84200
H  23.13400 59.44000 42.04300
H  24.52100 54.88000 38.98000
H  25.00300 50.91400 40.55800
H  24.45500 50.56500 38.90400
H  23.25000 51.10600 39.95700

