158

Mg 26.20300 49.32200 26.56000
C  23.91100 50.48900 29.01200
C  28.44700 48.62900 28.92500
C  28.37700 48.39000 24.09700
C  24.17700 50.76100 23.98700
N  26.16700 49.56700 28.71200
C  25.12600 49.92600 29.56800
C  25.52500 49.65600 31.06200
C  27.03500 49.32700 30.90100
C  27.19800 49.12300 29.41400
C  28.01300 50.31200 31.49700
C  24.57900 48.57600 31.81400
C  24.03400 48.89100 33.23200
H  24.96000 49.32000 34.32600
N  28.18200 48.55500 26.46300
C  28.94500 48.27800 27.58300
C  30.12900 47.63600 27.13700
C  30.15400 47.66400 25.75100
C  28.84500 48.22100 25.36100
C  31.09300 47.09500 28.16800
C  31.29600 47.45500 24.76100
O  31.12800 47.45500 23.54300
C  32.54800 46.84900 25.17300
N  26.20200 49.60800 24.28600
C  27.19100 49.02500 23.55800
C  26.83800 49.07600 22.00600
C  25.45200 49.73300 21.98500
C  25.20100 50.01800 23.44700
C  27.90800 49.90800 21.15500
C  24.32000 48.74200 21.41300
C  23.30100 48.07100 22.29800
N  24.43500 50.39200 26.47300
C  23.69400 50.82100 25.38500
C  22.58000 51.58100 25.82600
C  22.59700 51.36800 27.21700
C  23.74500 50.64900 27.57700
C  21.60400 52.25900 25.01400
C  21.81900 51.62800 28.43200
O  20.69300 52.19800 28.53700
C  22.64900 51.04400 29.60600
C  22.94200 52.06000 30.68500
O  23.86700 52.86600 30.55900
O  22.22100 51.86200 31.78000
C  22.51200 52.64600 32.96000
H  29.18600 48.43600 29.70600
H  28.93900 47.95100 23.27000
H  23.47000 51.03900 23.20200
H  25.28100 50.62800 31.49200
H  27.14000 48.37000 31.41100
H  27.38300 51.14700 31.80400
H  28.65500 50.69200 30.70200
H  28.73000 49.89900 32.20700
H  25.14400 47.64500 31.86700
H  23.73000 48.35300 31.16700
H  23.40300 48.09400 33.62700
H  23.37300 49.74700 33.10200
H  31.19200 46.02600 27.98100
H  30.85900 47.14600 29.23100
H  32.12000 47.46000 28.17000
H  33.06800 47.70000 25.61300
H  33.04200 46.41500 24.30500
H  32.38700 46.06000 25.90700
H  26.79400 48.03900 21.67300
H  25.40500 50.60600 21.33400
H  27.54400 50.84900 20.74400
H  28.20900 49.36800 20.25700
H  28.83000 50.07300 21.71200
H  24.75100 48.01100 20.72900
H  23.67100 49.30900 20.74600
H  22.85000 47.16800 21.88800
H  22.54200 48.83100 22.48400
H  23.82400 47.91600 23.24200
H  20.65000 51.77900 25.23400
H  21.74200 52.22800 23.93300
H  21.55900 53.32900 25.21900
H  22.03100 50.30400 30.11400
H  23.01300 51.96400 33.64800
H  21.55600 52.93700 33.39500
H  23.14300 53.53100 32.88000
Mg -10.26800 17.12300 41.05300
C  -6.77500 17.14300 41.13900
C  -10.18400 20.60200 40.24100
C  -13.53800 16.90100 40.36300
C  -10.23700 13.70300 41.74300
N  -8.69800 18.63800 40.63200
C  -7.35200 18.35700 40.73300
C  -6.57800 19.68700 40.52500
C  -7.64100 20.81500 40.62600
C  -8.94700 20.01600 40.49700
C  -7.59800 21.80400 41.89100
C  -5.81700 19.66000 39.16200
C  -4.38400 19.42600 39.14300
H  -3.81000 18.45700 38.04900
N  -11.70000 18.52400 40.41900
C  -11.46500 19.92500 40.18500
C  -12.68200 20.48300 39.75800
C  -13.61100 19.45300 39.66400
C  -13.01800 18.22100 40.16700
C  -12.85200 21.99100 39.38900
C  -15.03700 19.59600 39.15100
O  -15.43800 20.69000 38.74500
C  -16.07000 18.60200 39.12800
N  -11.65800 15.47800 40.86700
C  -12.95700 15.77600 40.82000
C  -13.81000 14.47200 41.17300
C  -12.77200 13.45200 41.62600
C  -11.49600 14.23100 41.43900
C  -14.94000 14.78700 42.26000
C  -12.70500 12.07700 40.82800
C  -13.07300 10.89100 41.72900
N  -8.81300 15.62900 41.46400
C  -8.96100 14.30000 41.78400
C  -7.58000 13.76100 41.98600
C  -6.69800 14.85800 41.84100
C  -7.46600 15.95600 41.46700
C  -7.36400 12.33000 42.37700
C  -5.23900 15.27700 41.87900
O  -4.24200 14.68400 42.15100
C  -5.25300 16.83500 41.45200
C  -4.70000 17.53200 42.68500
O  -3.49600 17.65800 42.98200
O  -5.71000 18.21900 43.34900
C  -5.19000 18.96400 44.49400
H  -10.11700 21.69000 40.19300
H  -14.60200 16.67000 40.28400
H  -10.29900 12.74000 42.25400
H  -5.71500 19.76400 41.18600
H  -7.67300 21.53900 39.81200
H  -7.20300 22.71600 41.44300
H  -6.81800 21.51800 42.59600
H  -8.55900 22.05200 42.34000
H  -6.09900 20.55700 38.61000
H  -6.19200 18.79500 38.61600
H  -4.21600 18.89400 40.07900
H  -3.75200 20.30800 39.24700
H  -11.87200 22.44500 39.24400
H  -13.33200 22.40100 40.27800
H  -13.41400 22.16200 38.47100
H  -15.77300 17.79600 38.45800
H  -17.01300 19.06700 38.83900
H  -16.11400 18.20700 40.14300
H  -14.31300 14.16200 40.25700
H  -12.90000 13.17100 42.67100
H  -14.95700 15.81200 42.62900
H  -14.91000 14.06700 43.07800
H  -15.87100 14.59600 41.72500
H  -11.80300 11.85300 40.25800
H  -13.47700 12.09100 40.05800
H  -14.13300 10.64000 41.76600
H  -12.73000 11.19100 42.71900
H  -12.63700 9.98900 41.29900
H  -7.86100 12.17700 43.33500
H  -6.33400 11.97600 42.34800
H  -7.93400 11.69700 41.69600
H  -4.59600 16.93600 40.58800
H  -4.36300 19.61500 44.21200
H  -4.80800 18.29600 45.26700
H  -5.97700 19.56700 44.94800

