158

Mg 1.66600 -2.00500 44.15900
C  5.02700 -1.69500 43.67300
C  1.30900 1.02700 42.35600
C  -1.62900 -2.53600 43.92800
C  2.11600 -5.16400 45.45400
N  3.01500 -0.55300 43.02700
C  4.38500 -0.63700 43.16100
C  5.03100 0.58300 42.45200
C  3.78200 1.62700 42.42700
C  2.57900 0.67600 42.65800
C  3.85400 2.66600 43.52300
C  5.73200 0.23600 41.07700
C  4.80700 0.15200 39.82900
H  4.82700 1.22700 38.76600
N  0.03900 -0.93300 43.34700
C  0.14500 0.29500 42.70400
C  -1.19900 0.73900 42.32400
C  -2.11000 -0.19100 42.74700
C  -1.27500 -1.28900 43.43100
C  -1.45900 2.15100 41.76700
C  -3.59100 -0.03800 42.69300
O  -4.09800 0.97300 42.21000
C  -4.50400 -1.07200 43.28900
N  0.43400 -3.79700 44.38000
C  -0.90800 -3.64200 44.40700
C  -1.56900 -4.94900 44.77100
C  -0.33000 -5.85600 45.20500
C  0.81500 -4.92800 44.91500
C  -2.70400 -4.94300 45.90900
C  -0.12000 -7.16600 44.37700
C  -1.38500 -8.03300 44.41400
N  3.24500 -3.20000 44.63200
C  3.34100 -4.40200 45.28900
C  4.74000 -4.65500 45.68100
C  5.45100 -3.59400 45.01500
C  4.52500 -2.78000 44.38700
C  5.22600 -5.89500 46.41400
C  6.76100 -3.07700 44.74000
O  7.91300 -3.42000 45.03200
C  6.49300 -1.83700 43.76800
C  7.14200 -0.70200 44.40800
O  6.76000 -0.03400 45.38200
O  8.20800 -0.30300 43.63300
C  8.63700 1.12700 43.73000
H  1.18800 1.95400 41.79100
H  -2.68100 -2.82200 43.97700
H  2.27400 -6.11200 45.97300
H  5.82800 1.03500 43.04300
H  3.64900 2.08700 41.44700
H  4.87500 2.76600 43.89000
H  3.16800 2.28800 44.28200
H  3.56700 3.65200 43.15800
H  6.09600 -0.78000 41.23200
H  6.59100 0.90700 41.06800
H  3.78800 0.17800 40.21600
H  5.08700 -0.78700 39.35100
H  -2.49600 2.47200 41.66600
H  -0.91300 2.30900 40.83700
H  -0.89200 2.72200 42.50200
H  -4.23100 -1.97400 42.74100
H  -5.58100 -0.98500 43.14800
H  -4.36900 -1.15900 44.36700
H  -2.00500 -5.43100 43.89600
H  -0.33800 -6.13000 46.26000
H  -3.67900 -5.19300 45.49200
H  -2.76500 -3.90300 46.22900
H  -2.64500 -5.52300 46.83000
H  0.70700 -7.70100 44.84300
H  0.24800 -6.93100 43.37900
H  -2.13400 -7.62800 45.09400
H  -1.13800 -9.00200 44.84800
H  -1.75500 -8.31300 43.42800
H  5.60700 -6.48400 45.58000
H  4.35600 -6.34700 46.88900
H  5.94800 -5.61500 47.18100
H  6.99700 -2.02800 42.82100
H  9.53400 1.24800 44.33800
H  7.87700 1.76100 44.18700
H  8.81600 1.48200 42.71600
Mg 42.71900 4.22200 47.32400
C  40.99100 7.18400 46.97100
C  39.71500 2.47400 47.06100
C  44.38600 1.15300 47.22900
C  45.74800 5.85500 46.86200
N  40.67000 4.74100 46.91600
C  40.17700 6.04900 46.82200
C  38.69100 6.03700 46.53100
C  38.22200 4.60300 46.92700
C  39.64900 3.86100 46.99900
C  37.44300 4.63400 48.36400
C  38.28900 6.41400 45.05300
C  39.36100 6.13400 43.92500
H  38.91100 6.35800 42.48500
N  42.12300 2.14300 47.18400
C  40.86600 1.67200 47.12200
C  40.82200 0.23800 47.17600
C  42.13600 -0.19300 47.16200
C  43.00900 1.06500 47.21400
C  39.46400 -0.61800 47.32000
C  42.55400 -1.62100 47.08600
O  41.75000 -2.48900 47.17000
C  43.95500 -2.03800 47.07100
N  44.81700 3.53700 47.10900
C  45.19200 2.25900 47.10700
C  46.72300 2.14900 47.03100
C  47.17900 3.64400 46.95800
C  45.82900 4.41100 46.97700
C  47.38300 1.23600 48.08700
C  48.06400 3.85200 45.71800
C  49.51900 4.14500 46.15700
N  43.31700 6.16800 47.07000
C  44.58600 6.70700 46.91400
C  44.41800 8.18500 46.90000
C  43.02500 8.37200 47.00900
C  42.42100 7.12100 47.01800
C  45.55200 9.18500 46.84100
C  41.94500 9.35500 46.96700
O  42.04400 10.58600 46.91200
C  40.60500 8.60200 46.99300
C  39.86800 8.82600 48.25900
O  39.78800 8.05800 49.21300
O  39.20900 10.01800 48.13900
C  38.58000 10.52100 49.36400
H  38.77200 1.92900 47.14000
H  44.93200 0.20800 47.26700
H  46.70200 6.38500 46.83700
H  38.12600 6.72300 47.16200
H  37.70600 4.00700 46.17500
H  37.02100 3.67600 48.66500
H  36.70200 5.42900 48.28400
H  38.18900 4.79600 49.14200
H  37.97300 7.45000 44.93200
H  37.40500 5.84400 44.76500
H  39.75500 5.11700 43.91300
H  40.20100 6.82700 43.95600
H  38.65400 -0.38900 46.62700
H  39.17000 -0.35100 48.33500
H  39.58900 -1.70000 47.31500
H  44.47800 -1.55100 46.24900
H  43.96300 -3.10400 46.84500
H  44.44100 -1.72100 47.99400
H  46.86900 1.76200 46.02300
H  47.68300 3.84100 47.90400
H  46.68800 0.84500 48.83000
H  48.29300 1.62900 48.54100
H  47.79700 0.40500 47.51600
H  47.68300 4.74600 45.22500
H  48.17700 3.03900 45.00100
H  49.59900 5.23200 46.13400
H  50.18900 3.65200 45.45300
H  49.73500 3.93300 47.20400
H  46.06800 9.22500 47.80100
H  45.04400 10.11800 46.59700
H  46.30000 9.03800 46.06200
H  39.99800 9.01400 46.18700
H  37.51800 10.32900 49.20900
H  38.82900 11.56500 49.55500
H  38.87700 9.93200 50.23100

