158

Mg -0.85500 5.99900 26.53400
C  0.11100 8.30700 29.03700
C  -0.47600 3.42500 28.89800
C  -1.83700 3.74000 24.20400
C  -0.86100 8.55600 24.15700
N  -0.40600 5.92400 28.83000
C  0.02500 6.99600 29.56200
C  0.30800 6.54200 30.96100
C  0.46900 5.01100 30.80800
C  -0.18800 4.74800 29.43300
C  1.98100 4.42700 30.85900
C  -0.74800 7.08000 31.89300
C  -0.40900 6.88600 33.41100
H  0.79400 5.92300 33.73300
N  -1.19000 3.84800 26.58100
C  -0.98800 3.02400 27.67100
C  -1.30500 1.68700 27.27400
C  -1.87000 1.75900 25.94900
C  -1.67200 3.12700 25.48900
C  -1.08100 0.47900 28.14900
C  -2.50600 0.66500 25.04700
O  -2.92700 0.93600 23.94700
C  -2.62800 -0.80500 25.59300
N  -1.01800 6.15200 24.51800
C  -1.54000 5.06900 23.78900
C  -1.89900 5.50900 22.33000
C  -1.81100 7.06000 22.41300
C  -1.20400 7.31400 23.72900
C  -0.89000 4.79600 21.27100
C  -3.15100 7.85800 22.26000
C  -3.24300 9.20900 21.59400
N  -0.47400 7.99000 26.52100
C  -0.42600 8.87000 25.48600
C  0.05900 10.17100 25.90700
C  0.24800 10.03400 27.33700
C  -0.12600 8.71100 27.68100
C  0.45300 11.39900 25.01400
C  0.61300 10.68600 28.64200
O  0.87000 11.81500 28.89200
C  0.47700 9.58800 29.69900
C  1.74500 9.48100 30.57900
O  2.83400 8.99100 30.29300
O  1.48600 9.91600 31.81000
C  2.51500 9.87000 32.81000
H  -0.13800 2.72900 29.66800
H  -2.34800 3.16600 23.42700
H  -0.90200 9.37200 23.43200
H  1.30100 6.89100 31.24500
H  -0.12200 4.44900 31.53100
H  2.23100 3.67300 30.11300
H  2.07700 3.96100 31.84000
H  2.75000 5.19500 30.77500
H  -1.59500 6.41100 31.74000
H  -1.18000 8.05900 31.68300
H  -1.35300 6.58700 33.86700
H  -0.05000 7.80400 33.87600
H  -0.28800 -0.09500 27.67000
H  -1.94300 -0.15000 28.36900
H  -0.61400 0.71000 29.10700
H  -1.60600 -1.06800 25.86600
H  -2.83300 -1.53100 24.80600
H  -3.33600 -1.05500 26.38300
H  -2.88800 5.10100 22.12100
H  -1.16600 7.48500 21.64400
H  -0.20200 5.61200 21.05000
H  -1.56600 4.47400 20.47900
H  -0.34000 4.00000 21.77300
H  -3.53000 7.96100 23.27700
H  -3.94800 7.26200 21.81600
H  -2.52600 9.24500 20.77300
H  -3.10200 10.08800 22.22200
H  -4.23000 9.30400 21.14200
H  -0.42000 11.67500 24.42200
H  1.21000 11.17600 24.26200
H  0.87500 12.18400 25.64100
H  -0.36600 9.88100 30.32400
H  3.57300 10.04400 32.61300
H  2.46900 8.93100 33.36100
H  2.33400 10.73300 33.45100
Mg 34.29100 2.90100 29.25900
C  32.37400 3.48500 31.93000
C  36.95800 2.34300 31.37700
C  36.18900 2.93900 26.59000
C  31.42600 3.46300 27.14600
N  34.52500 2.80900 31.33100
C  33.64600 3.17900 32.25000
C  34.21300 3.21000 33.73600
C  35.73900 2.82100 33.56900
C  35.77000 2.66400 31.96900
C  36.85300 3.75200 34.08500
C  33.48200 2.24900 34.79100
C  33.13200 2.81500 36.13100
H  34.24500 3.83900 36.67400
N  36.30000 2.42800 29.02700
C  37.25000 2.18100 29.99900
C  38.46200 1.80400 29.32900
C  38.32500 2.09100 27.91400
C  36.87100 2.44300 27.76100
C  39.68100 1.29900 30.10500
C  39.33200 2.03900 26.78300
O  39.02800 2.46700 25.72100
C  40.76700 1.34800 27.01300
N  33.89000 3.28800 27.18400
C  34.87600 3.35400 26.31600
C  34.42300 3.66800 24.84900
C  32.83300 3.52600 24.99200
C  32.68900 3.41600 26.50600
C  35.02800 4.95400 24.31400
C  32.29800 2.16500 24.37900
C  30.91100 2.10400 23.70300
N  32.27300 3.36800 29.41000
C  31.23600 3.56100 28.56200
C  30.03600 3.95400 29.25400
C  30.44800 3.92300 30.53100
C  31.78600 3.48900 30.59000
C  28.66100 4.21300 28.70300
C  29.93200 4.06400 31.83600
O  28.79700 4.31900 32.24900
C  31.16100 3.83200 32.80700
C  31.27500 5.09500 33.59200
O  31.81700 6.17500 33.27400
O  30.63300 4.89400 34.80100
C  30.37200 5.98900 35.71200
H  37.81800 2.08200 31.99800
H  36.69000 2.99400 25.62100
H  30.60300 3.43000 26.42800
H  34.10200 4.23100 34.10100
H  35.97100 1.81300 33.91100
H  37.46000 3.14000 34.75100
H  36.48900 4.56700 34.71200
H  37.43400 4.17200 33.26400
H  34.16300 1.43200 35.03000
H  32.60200 1.90500 34.24700
H  32.93200 2.12100 36.94700
H  32.23200 3.42500 36.04800
H  39.31400 1.10900 31.11300
H  40.38800 2.12700 30.16400
H  40.03300 0.39700 29.60600
H  40.60200 0.37700 27.48000
H  41.36800 2.10300 27.52000
H  41.15400 1.15400 26.01300
H  34.84500 2.81800 24.31300
H  32.29900 4.44200 24.74000
H  34.19800 5.28100 23.68800
H  35.83900 4.65700 23.65000
H  35.29600 5.66700 25.09400
H  32.12900 1.42000 25.15600
H  33.02300 1.65500 23.74400
H  30.05300 1.64000 24.18800
H  31.06500 1.51800 22.79700
H  30.53000 3.08200 23.40600
H  28.12000 3.32800 29.03800
H  28.64000 4.37200 27.62500
H  28.37900 5.15200 29.17900
H  30.81800 3.00100 33.42400
H  30.62100 5.66300 36.72200
H  29.35500 6.36800 35.81000
H  31.03600 6.83500 35.53500

