158

Mg 49.76200 46.05400 43.36400
C  46.59600 46.87600 42.12900
C  49.65500 43.05500 41.51200
C  53.12100 45.67900 43.77300
C  50.02400 49.42500 44.44100
N  48.31000 45.20000 41.85600
C  47.05200 45.63500 41.58600
C  46.33300 44.72400 40.67000
C  47.14000 43.38300 40.88800
C  48.48700 43.87000 41.47300
C  46.47600 42.22300 41.71400
C  46.15300 45.14200 39.14300
C  44.69800 44.86900 38.59200
H  44.68800 43.77000 37.52000
N  51.18300 44.60500 42.79700
C  50.88400 43.42600 42.09400
C  52.14300 42.65300 41.87700
C  53.18400 43.52900 42.38200
C  52.52800 44.68300 43.03100
C  52.33700 41.37500 41.16200
C  54.66800 43.20100 42.32900
O  55.02800 42.15300 41.82000
C  55.83200 44.05200 42.84700
N  51.39400 47.41800 43.92400
C  52.66300 46.95300 44.15900
C  53.46900 48.08500 44.82600
C  52.51000 49.30700 44.91600
C  51.19800 48.66000 44.51800
C  54.11100 47.65100 46.17000
C  52.81200 50.58300 44.00100
C  52.43700 51.90500 44.74500
N  48.54600 47.76000 43.38800
C  48.74400 49.02300 43.92000
C  47.52600 49.82700 43.76300
C  46.66600 48.99200 43.10400
C  47.35900 47.79200 42.88500
C  47.29400 51.27000 44.25400
C  45.27500 48.85400 42.59400
O  44.30200 49.64000 42.58800
C  45.22500 47.44100 41.90900
C  44.12500 46.75400 42.66100
O  44.01500 46.55200 43.85700
O  43.26100 46.17500 41.75400
C  42.32300 45.16300 42.31900
H  49.57600 42.02900 41.14500
H  54.18700 45.54400 43.97000
H  49.98500 50.40300 44.92600
H  45.31400 44.55400 41.01900
H  47.45600 42.90100 39.96400
H  47.13700 41.94000 42.53300
H  46.39400 41.30500 41.13200
H  45.56500 42.56300 42.20600
H  46.88800 44.63700 38.51700
H  46.33300 46.21700 39.12500
H  44.15300 45.77600 38.33100
H  44.11100 44.39500 39.37900
H  51.32800 41.08500 40.87100
H  52.60000 40.58600 41.86600
H  52.98700 41.44400 40.28900
H  56.81700 43.61400 42.68400
H  55.62000 44.19600 43.90700
H  55.76600 44.97900 42.27800
H  54.25100 48.28900 44.09500
H  52.46500 49.60100 45.96400
H  53.56800 48.04600 47.02800
H  55.16400 47.93000 46.12500
H  54.15500 46.56300 46.20900
H  52.38900 50.60100 42.99600
H  53.89600 50.68600 43.96200
H  53.34600 52.48800 44.89500
H  51.99300 51.67500 45.71400
H  51.55000 52.38700 44.33700
H  47.92800 51.96200 43.69900
H  47.62100 51.23900 45.29300
H  46.23200 51.47900 44.12100
H  45.03600 47.46600 40.83600
H  41.65000 45.75000 42.94300
H  42.84500 44.44700 42.95500
H  41.85000 44.74200 41.43200
Mg -5.19200 25.22200 26.30500
C  -3.89200 26.54200 29.04500
C  -7.27800 23.16200 28.22000
C  -6.41600 23.83600 23.43500
C  -3.03400 27.22000 24.19900
N  -5.39500 24.76600 28.35900
C  -4.84900 25.53100 29.29900
C  -5.34100 25.12000 30.72400
C  -6.14800 23.83100 30.40700
C  -6.23200 23.87400 28.89100
C  -5.47200 22.52700 31.01700
C  -6.11300 26.25400 31.46100
C  -6.16400 26.22300 32.98900
H  -5.51300 25.03400 33.72600
N  -6.69400 23.75100 25.85000
C  -7.44300 23.06000 26.77700
C  -8.43500 22.20200 26.07200
C  -8.18400 22.45000 24.68900
C  -7.07100 23.40100 24.60800
C  -9.45000 21.27300 26.73100
C  -8.96600 21.92500 23.46300
O  -8.69200 22.19300 22.30100
C  -10.15400 21.04800 23.65500
N  -4.69700 25.39200 24.03700
C  -5.38600 24.73700 23.12200
C  -4.82000 24.96400 21.74400
C  -3.93200 26.27500 21.92700
C  -3.93200 26.39800 23.46100
C  -4.01000 23.65900 21.28700
C  -4.51800 27.60400 21.32500
C  -3.66000 28.44800 20.35200
N  -3.72000 26.60900 26.55500
C  -2.95300 27.30000 25.63700
C  -2.03300 28.15200 26.45700
C  -2.37800 27.94700 27.77900
C  -3.42900 26.98600 27.79300
C  -1.02100 29.06900 25.96700
C  -2.13700 28.27300 29.15100
O  -1.32500 29.10000 29.57700
C  -3.14300 27.40500 29.98800
C  -2.15700 26.61900 30.80800
O  -1.22100 25.98600 30.34600
O  -2.39800 26.83400 32.16600
C  -1.34500 26.41900 33.13100
H  -7.96500 22.58700 28.84500
H  -6.84600 23.39700 22.53200
H  -2.36900 27.83500 23.59000
H  -4.43100 24.84700 31.25800
H  -7.13200 23.87500 30.87300
H  -4.62600 22.26200 30.38300
H  -6.14000 21.66600 30.99200
H  -5.24100 22.73200 32.06300
H  -7.10800 26.25600 31.01600
H  -5.60900 27.15600 31.11600
H  -7.22300 26.36600 33.20400
H  -5.67200 27.11600 33.37400
H  -9.11400 20.27100 26.46400
H  -10.49000 21.53700 26.53700
H  -9.21000 21.41000 27.78500
H  -10.73100 20.94400 22.73600
H  -10.87600 21.56500 24.28700
H  -9.90100 20.13900 24.19900
H  -5.69000 25.21600 21.13800
H  -2.90800 26.20700 21.56100
H  -3.17400 24.04700 20.70400
H  -4.79900 23.09100 20.79400
H  -3.56800 23.12100 22.12500
H  -4.93500 28.22300 22.12000
H  -5.40200 27.31600 20.75600
H  -2.67500 28.47500 20.81900
H  -4.11300 29.43800 20.29300
H  -3.55100 27.96800 19.38000
H  -0.55600 28.76100 25.03000
H  -0.20700 29.14400 26.68800
H  -1.45400 30.07000 25.97200
H  -3.74700 28.09400 30.57900
H  -1.68600 26.12800 34.12400
H  -0.69600 27.26500 33.35700
H  -0.77200 25.59900 32.69800

