158

Mg -0.28700 7.32000 25.23200
C  0.56800 9.47700 27.91200
C  0.21100 4.69600 27.48400
C  -0.80900 5.36200 22.63200
C  0.51600 9.92900 23.03900
N  0.15400 7.16000 27.45700
C  0.26400 8.16200 28.33300
C  0.48900 7.63800 29.81000
C  0.64800 6.09100 29.59900
C  0.31300 5.98900 28.07200
C  2.07100 5.52900 29.79200
C  -0.70300 8.00600 30.64200
C  -0.61500 7.64500 32.10900
H  0.77600 7.86200 32.69100
N  -0.32500 5.30900 25.06400
C  -0.07900 4.38800 26.07700
C  -0.23300 3.07100 25.42500
C  -0.57300 3.22600 24.06200
C  -0.60400 4.65800 23.90900
C  0.07700 1.86700 26.22400
C  -0.98000 2.21000 23.03300
O  -1.26200 2.50100 21.83900
C  -0.93300 0.80800 23.31900
N  -0.19700 7.62900 23.07100
C  -0.53400 6.66700 22.21900
C  -0.78800 7.19000 20.82500
C  -0.39200 8.74800 20.91100
C  0.06200 8.78500 22.39300
C  0.03600 6.45400 19.67200
C  -1.47400 9.83700 20.53200
C  -2.65700 9.82800 21.43800
N  0.28700 9.29700 25.38500
C  0.52700 10.24800 24.38100
C  0.91000 11.58700 24.99800
C  0.91200 11.26900 26.37400
C  0.54900 9.95100 26.54000
C  1.14700 12.95500 24.33900
C  1.10500 11.83600 27.66100
O  1.40900 12.97500 28.00700
C  0.88200 10.69200 28.75000
C  2.10400 10.54400 29.49000
O  3.20200 10.26100 28.99200
O  1.83900 10.77100 30.80800
C  2.98400 11.03600 31.67200
H  0.26200 3.85600 28.18000
H  -0.92000 4.84500 21.67700
H  0.62800 10.81500 22.41000
H  1.38400 8.11900 30.20400
H  0.04700 5.52100 30.30800
H  2.64500 6.16400 30.46700
H  2.60600 5.48700 28.84400
H  2.02000 4.54900 30.26700
H  -1.58300 7.52200 30.21800
H  -0.90900 9.07500 30.57700
H  -0.90900 6.62000 32.33500
H  -1.11800 8.35300 32.76600
H  0.96700 2.08500 26.81500
H  0.38300 1.08500 25.53100
H  -0.63300 1.48900 26.96000
H  -1.55700 0.47700 24.15000
H  0.11100 0.54400 23.48500
H  -1.28000 0.18600 22.49400
H  -1.85700 7.07600 20.64400
H  0.46800 8.82800 20.24700
H  0.39200 7.17700 18.93800
H  -0.62200 5.75400 19.15700
H  0.88700 5.90800 20.07800
H  -1.76300 9.79400 19.48200
H  -1.15000 10.87800 20.53800
H  -2.43300 9.38700 22.41000
H  -3.54900 9.39500 20.98500
H  -2.84300 10.88600 21.62100
H  0.34300 13.68100 24.46300
H  1.26100 12.84700 23.26100
H  2.07300 13.39200 24.71500
H  0.03900 10.87200 29.41700
H  3.77300 11.63400 31.21600
H  3.30700 10.12300 32.17200
H  2.61000 11.63000 32.50500
Mg 36.15600 50.21500 25.11400
C  36.53300 48.46200 28.08700
C  34.55800 52.74700 26.79200
C  35.82100 51.87100 22.14300
C  37.65000 47.58500 23.46200
N  35.65200 50.57900 27.17900
C  35.96600 49.73100 28.24100
C  35.62900 50.35400 29.60000
C  34.81100 51.65400 29.14900
C  35.01400 51.72400 27.61400
C  33.28200 51.67600 29.52400
C  36.92300 50.58900 30.50900
C  36.81700 50.24900 31.96700
H  35.42200 50.00200 32.53800
N  35.46800 52.16700 24.56000
C  34.70800 52.95900 25.35600
C  34.18900 54.07900 24.51300
C  34.66900 53.93800 23.21800
C  35.42900 52.62400 23.24000
C  33.31400 55.12600 25.21300
C  34.40900 54.81200 21.95600
O  34.83400 54.57700 20.80100
C  33.65700 56.07700 22.20300
N  36.73200 49.77400 23.06500
C  36.47800 50.65200 22.03400
C  36.74000 49.88800 20.67000
C  37.52200 48.63300 21.14500
C  37.28800 48.60800 22.63700
C  35.34300 49.50600 20.06400
C  38.95400 48.49400 20.57500
C  40.11000 48.38200 21.63800
N  36.85900 48.32800 25.58400
C  37.44900 47.33300 24.82700
C  37.69500 46.12400 25.59900
C  37.43100 46.55500 26.91700
C  36.98400 47.86600 26.88000
C  38.31600 44.84600 25.17800
C  37.46600 46.18100 28.29900
O  37.76500 45.06700 28.75300
C  37.00200 47.45400 29.13700
C  35.96600 46.90700 30.06000
O  34.78600 46.87800 29.82100
O  36.52100 46.33900 31.19700
C  35.55300 45.62700 32.04000
H  34.05200 53.55200 27.33100
H  35.67600 52.39000 21.19400
H  38.20200 46.86600 22.85200
H  35.03100 49.64100 30.16700
H  35.26200 52.52600 29.62200
H  32.84600 50.68100 29.61500
H  32.70200 52.17200 28.74600
H  33.06600 52.22000 30.44300
H  37.13900 51.65200 30.40100
H  37.77000 50.14800 29.98400
H  37.22900 51.00700 32.63300
H  37.40400 49.36700 32.22500
H  33.95500 55.95000 25.52300
H  32.76600 54.63600 26.01800
H  32.55400 55.64700 24.63000
H  32.58000 55.96500 22.33200
H  33.78000 56.74000 21.34600
H  34.09100 56.61500 23.04600
H  37.34900 50.40600 19.93000
H  36.90300 47.83500 20.73500
H  34.50500 50.12000 20.39400
H  35.14900 48.46900 20.33900
H  35.44800 49.65400 18.99000
H  39.18200 49.40400 20.02000
H  39.05500 47.64900 19.89400
H  39.86400 48.80400 22.61200
H  40.89800 49.07800 21.35000
H  40.46600 47.35600 21.72900
H  38.24000 44.77100 24.09300
H  37.93500 43.90800 25.58200
H  39.36700 44.87800 25.46500
H  37.77600 47.78000 29.83200
H  35.28900 44.68900 31.55200
H  34.66300 46.17900 32.34300
H  36.05300 45.31600 32.95700

