158

Mg 50.43100 46.83300 43.10100
C  47.21400 47.36800 41.74100
C  50.53100 43.79800 41.84400
C  53.70300 46.97400 43.70400
C  50.38600 50.40400 43.85500
N  48.99500 45.77700 41.94900
C  47.76400 46.11900 41.43900
C  47.08800 44.82800 40.86900
C  48.01900 43.70800 41.22400
C  49.27500 44.47500 41.75000
C  47.52800 42.67900 42.27700
C  46.72700 44.92300 39.33600
C  45.27200 44.65700 38.95900
H  45.01000 43.48800 37.99700
N  51.96300 45.58700 42.78900
C  51.77500 44.32500 42.29600
C  53.02500 43.62300 42.22600
C  54.00100 44.53800 42.86400
C  53.28000 45.76500 43.14800
C  53.15000 42.30800 41.51000
C  55.48000 44.14600 43.06300
O  55.95900 43.11900 42.66500
C  56.39000 44.94100 44.01900
N  51.73400 48.44400 43.88800
C  53.05200 48.15100 44.03100
C  53.89400 49.41000 44.41700
C  52.75600 50.47600 44.66100
C  51.58400 49.77000 43.99300
C  54.80800 49.30700 45.63800
C  53.09600 51.89400 43.99400
C  52.40800 53.11300 44.61400
N  49.03500 48.53400 42.93500
C  49.18000 49.85900 43.36100
C  47.93100 50.59500 43.09400
C  47.09000 49.60000 42.44500
C  47.84400 48.41200 42.40500
C  47.69100 52.07700 43.35400
C  45.78700 49.33700 41.90600
O  44.80300 50.02900 41.81800
C  45.79700 47.85200 41.42800
C  44.76700 47.22600 42.28200
O  44.58700 47.30100 43.49500
O  43.86600 46.66400 41.35300
C  42.56300 46.25200 41.87900
H  50.55900 42.76800 41.48200
H  54.79200 46.98800 43.78100
H  50.35200 51.44300 44.18900
H  46.14500 44.77400 41.41200
H  48.25500 43.25500 40.26100
H  46.44000 42.62800 42.29900
H  47.88800 42.71900 43.30500
H  47.80400 41.70900 41.86200
H  47.42100 44.33800 38.73200
H  46.77400 45.97200 39.04300
H  44.92100 45.52900 38.40600
H  44.65400 44.57400 39.85200
H  54.05700 42.40500 40.91400
H  52.33700 42.11900 40.80900
H  53.34800 41.48200 42.19200
H  56.76500 45.91300 43.69800
H  57.28500 44.34800 44.20800
H  56.07400 45.03500 45.05800
H  54.51900 49.65000 43.55700
H  52.46100 50.62600 45.70000
H  55.77900 49.70500 45.34200
H  55.00700 48.29600 45.99300
H  54.43000 49.88800 46.48000
H  52.87600 51.80300 42.93000
H  54.14700 52.12400 44.16800
H  53.16100 53.75700 45.06800
H  51.51800 52.87500 45.19800
H  52.08500 53.80400 43.83600
H  48.60500 52.63000 43.56800
H  46.85500 52.06200 44.05300
H  47.33500 52.50600 42.41800
H  45.65300 47.75600 40.35200
H  42.65700 45.43100 42.58900
H  41.89900 45.98700 41.05700
H  42.13500 47.02200 42.52000
Mg 36.18000 49.19700 24.68800
C  35.94400 47.21500 27.67300
C  34.79100 51.74000 26.52200
C  35.73900 50.61000 21.82300
C  37.33100 46.26400 23.16700
N  35.47400 49.43400 26.90800
C  35.59300 48.53100 27.92100
C  35.49200 49.29500 29.36900
C  34.79000 50.69400 28.91500
C  35.05900 50.62300 27.35300
C  33.31400 50.85100 29.43400
C  36.81200 49.35300 30.20000
C  36.74000 49.05800 31.71700
H  35.41200 49.33500 32.46200
N  35.31300 50.95000 24.22500
C  34.85400 51.91400 25.11300
C  34.64700 53.17000 24.38200
C  34.93800 52.89500 22.95900
C  35.30300 51.42700 22.91200
C  34.30400 54.51100 24.98300
C  35.05300 53.72600 21.72100
O  35.30500 53.25100 20.64800
C  34.70700 55.09700 21.83100
N  36.44400 48.46400 22.78500
C  36.29400 49.31500 21.73900
C  36.69800 48.64600 20.42900
C  37.52700 47.45600 20.96800
C  37.05200 47.37500 22.39100
C  35.51300 48.20000 19.49800
C  39.09600 47.71800 20.91500
C  39.75200 49.14900 20.92000
N  36.48300 47.10800 25.25000
C  36.97800 46.06700 24.48900
C  37.14600 44.79900 25.29100
C  36.73700 45.32800 26.55700
C  36.38400 46.71000 26.45100
C  37.68000 43.47100 24.85000
C  36.52900 44.88000 27.98300
O  36.65100 43.73500 28.46300
C  36.14400 46.13600 28.75500
C  34.90300 45.86800 29.58600
O  33.78500 46.22600 29.33800
O  35.24800 45.24700 30.77900
C  34.13000 44.87900 31.67600
H  34.48800 52.64000 27.06200
H  35.52400 50.95400 20.80900
H  37.73400 45.42000 22.60300
H  34.82200 48.66500 29.95400
H  35.25300 51.58300 29.34500
H  33.17900 51.79900 29.95500
H  32.98300 50.08000 30.13000
H  32.52600 50.91600 28.68300
H  37.26300 50.33400 30.04800
H  37.39500 48.61000 29.65700
H  37.63300 49.50700 32.15300
H  36.90000 47.98700 31.84000
H  35.12900 55.18200 24.74600
H  34.00600 54.59600 26.02800
H  33.46400 54.88900 24.40000
H  33.69200 55.13600 22.22600
H  34.75900 55.51600 20.82600
H  35.44200 55.66400 22.40200
H  37.29900 49.30800 19.80500
H  37.36300 46.44300 20.60100
H  34.52800 48.38600 19.92600
H  35.61500 47.17800 19.13500
H  35.54500 48.87200 18.64000
H  39.38600 47.17700 20.01400
H  39.31000 47.19200 21.84600
H  40.25400 49.28700 19.96200
H  40.61600 49.33700 21.55800
H  39.07100 49.99800 20.97600
H  37.95700 43.38500 23.79900
H  36.86000 42.82800 25.17000
H  38.58500 43.28600 25.42800
H  37.00400 46.48700 29.32500
H  34.32000 43.91800 32.15500
H  33.14400 44.88400 31.21200
H  34.21000 45.74700 32.33000

