158

Mg 35.96400 2.25200 29.60800
C  33.67000 3.15100 32.14200
C  38.37700 2.24600 32.02700
C  38.18200 1.76800 27.19300
C  33.49800 2.73600 27.20100
N  35.92300 2.60700 31.95200
C  34.93100 2.96400 32.75600
C  35.29300 2.88200 34.18600
C  36.87000 2.81400 34.07700
C  37.05800 2.52000 32.57100
C  37.50300 4.18200 34.59800
C  34.58800 1.66100 34.91200
C  34.64600 1.61700 36.44000
H  34.91900 2.96600 37.14400
N  38.00200 2.16500 29.57900
C  38.81700 2.07300 30.70600
C  40.20300 1.76500 30.24500
C  40.14200 1.62200 28.82400
C  38.74800 1.88900 28.45600
C  41.36100 1.59600 31.15900
C  41.25100 1.27200 27.80500
O  41.07800 1.24800 26.56100
C  42.60900 1.07000 28.29300
N  35.75500 2.05700 27.50200
C  36.87700 1.86900 26.67700
C  36.57200 1.96700 25.18700
C  34.99000 1.88300 25.24400
C  34.64400 2.21400 26.73800
C  37.05300 3.28700 24.53300
C  34.31800 0.51400 24.81100
C  33.14600 0.56300 23.82000
N  34.00800 2.71300 29.66100
C  33.11800 2.93000 28.55400
C  31.82400 3.21500 29.07700
C  32.03300 3.34800 30.42900
C  33.37500 3.09600 30.75400
C  30.49900 3.40600 28.37600
C  31.30700 3.61200 31.70300
O  30.09400 3.73600 31.92700
C  32.41800 3.61400 32.83100
C  32.43700 4.88600 33.45400
O  32.93200 5.87500 33.02500
O  31.59400 4.84500 34.53300
C  31.64900 5.87600 35.59600
H  39.19800 2.31600 32.74300
H  38.82300 1.61800 26.32200
H  32.68100 2.88700 26.49200
H  34.92800 3.77100 34.69900
H  37.29500 1.94800 34.58300
H  37.99300 4.79100 33.83800
H  38.25200 3.96000 35.35800
H  36.71300 4.81400 35.00100
H  35.17300 0.83200 34.51500
H  33.57200 1.47100 34.56500
H  35.47500 0.93700 36.63200
H  33.64600 1.26200 36.68800
H  42.32800 1.69300 30.66600
H  41.36600 0.60800 31.62100
H  41.29200 2.35300 31.94000
H  42.87600 2.03600 28.71900
H  43.27900 0.85200 27.46100
H  42.54000 0.27900 29.04000
H  37.19400 1.14000 24.84400
H  34.54300 2.63400 24.59200
H  36.24300 3.95000 24.23000
H  37.58700 3.11600 23.59800
H  37.65400 3.78000 25.29700
H  34.03100 -0.01900 25.71700
H  35.04800 -0.19100 24.41500
H  32.95300 1.51800 23.33100
H  32.23300 0.28500 24.34600
H  33.42100 -0.17600 23.06700
H  30.27000 2.52000 27.78400
H  30.69600 4.24800 27.71100
H  29.78700 3.67700 29.15500
H  32.03400 2.95000 33.60500
H  31.96800 5.41900 36.53300
H  30.62500 6.14400 35.85700
H  32.24000 6.77900 35.43800
Mg 50.22700 45.66600 42.74600
C  46.80700 46.39400 41.82800
C  49.73700 42.51000 41.59500
C  53.49500 45.17000 43.27000
C  50.65000 49.12600 43.41400
N  48.48000 44.67100 41.72100
C  47.17300 45.05500 41.57300
C  46.25900 43.97400 40.97700
C  47.21600 42.69100 41.12200
C  48.59900 43.32000 41.50800
C  46.84300 41.64100 42.23800
C  45.96900 44.33200 39.45600
C  44.46400 44.15900 39.03100
H  44.29900 43.16800 37.91200
N  51.38800 44.01700 42.54300
C  51.04000 42.81000 42.03100
C  52.17600 41.92000 41.97500
C  53.26100 42.68500 42.49300
C  52.75200 44.00400 42.73900
C  52.08400 40.49500 41.40900
C  54.69800 42.22200 42.66800
O  54.95200 41.04300 42.53500
C  55.87300 43.05200 43.13600
N  51.90700 47.05300 43.15300
C  53.11300 46.51800 43.46000
C  54.08700 47.60900 43.84400
C  53.20100 48.88800 43.73700
C  51.83100 48.36500 43.40100
C  54.80800 47.39000 45.19500
C  53.53700 50.13400 42.81200
C  55.03200 50.43200 42.65000
N  49.03200 47.37900 42.62400
C  49.35700 48.72700 42.94400
C  48.14800 49.55400 42.83900
C  47.14000 48.65100 42.44500
C  47.69800 47.35000 42.30800
C  48.09500 51.04000 43.13500
C  45.70800 48.56200 42.11500
O  44.75100 49.37100 42.14400
C  45.44300 47.02400 41.68200
C  44.38300 46.45500 42.54400
O  44.59900 46.02200 43.67700
O  43.17800 46.45200 41.86800
C  42.09100 45.84200 42.70400
H  49.60000 41.43500 41.45800
H  54.55300 45.06700 43.52100
H  50.65200 50.19100 43.65500
H  45.33700 43.81200 41.53600
H  47.25700 42.13600 40.18500
H  46.90800 40.74300 41.62300
H  45.83900 41.81300 42.62400
H  47.43500 41.66900 43.15300
H  46.52100 43.65000 38.80900
H  46.27600 45.35100 39.22200
H  43.98600 45.12100 38.84400
H  43.81400 43.70600 39.77900
H  51.31300 40.43200 40.64100
H  51.90400 39.78600 42.21600
H  53.05400 40.17700 41.02700
H  55.77000 43.42400 44.15500
H  56.10100 43.82900 42.40700
H  56.80000 42.49800 42.98700
H  54.85100 47.56700 43.06800
H  53.21500 49.28600 44.75100
H  55.68500 46.75100 45.08600
H  54.28700 46.74400 45.90200
H  55.00300 48.25700 45.82600
H  53.04000 51.02100 43.20500
H  53.17300 50.03500 41.79000
H  55.17800 50.44000 41.57000
H  55.71300 49.81100 43.23200
H  55.16100 51.47300 42.94600
H  48.78800 51.57400 42.48500
H  48.46000 51.02300 44.16200
H  47.08200 51.44300 43.13000
H  45.09900 46.95800 40.65000
H  41.11400 46.25700 42.45400
H  42.24300 45.88000 43.78300
H  42.09300 44.81400 42.34300

