158

Mg 35.91300 2.04100 30.52900
C  33.24900 3.11000 32.59400
C  38.04800 2.73000 33.10900
C  38.40500 1.02100 28.44900
C  33.61000 2.05100 27.78800
N  35.65400 2.80200 32.60600
C  34.46600 3.15800 33.28000
C  34.70300 3.26700 34.84000
C  36.25100 3.31300 34.89400
C  36.71400 2.92000 33.46400
C  36.89600 4.69100 35.35800
C  34.09000 2.10300 35.63200
C  33.80700 2.24900 37.11300
H  34.21000 3.57800 37.76000
N  37.91100 1.86800 30.72100
C  38.59300 2.09200 31.91400
C  39.90400 1.57100 31.76400
C  40.08700 1.20500 30.36300
C  38.77300 1.39900 29.76500
C  40.96900 1.50400 32.85900
C  41.29400 0.70900 29.65200
O  41.29700 0.66200 28.43700
C  42.71700 0.41200 30.32900
N  36.02200 1.60500 28.48300
C  37.16600 1.11900 27.86900
C  36.81200 0.74500 26.39900
C  35.34500 1.10900 26.21100
C  34.91800 1.60900 27.60600
C  37.76300 1.24800 25.30800
C  34.42600 -0.14100 25.76600
C  33.21400 0.11200 24.89400
N  33.75900 2.43000 30.20500
C  33.02300 2.43600 29.03400
C  31.56300 2.77200 29.37500
C  31.68100 3.02700 30.73300
C  33.01200 2.90800 31.18800
C  30.30000 2.78900 28.47000
C  30.88500 3.33900 31.94500
O  29.68800 3.51900 32.11400
C  31.89400 3.42300 33.08300
C  31.74400 4.75600 33.72200
O  32.19600 5.86000 33.34400
O  31.17900 4.49200 34.95200
C  30.88900 5.69700 35.71400
H  38.77200 2.74000 33.92600
H  39.19000 0.74300 27.74300
H  33.14900 2.18900 26.80800
H  34.39200 4.23500 35.23200
H  36.56300 2.45300 35.48600
H  36.13500 5.44100 35.57500
H  37.50000 5.12700 34.56100
H  37.66000 4.59400 36.12900
H  34.71500 1.22500 35.46700
H  33.10500 2.04300 35.16800
H  34.27500 1.46100 37.70400
H  32.74600 2.00700 37.17500
H  41.54300 0.57900 32.90800
H  40.50600 1.90000 33.76300
H  41.71100 2.25700 32.59300
H  43.39400 0.46800 29.47600
H  42.66000 -0.53600 30.86300
H  43.04500 1.19700 31.01100
H  36.84800 -0.33500 26.53900
H  35.21100 1.97600 25.56500
H  38.73900 1.68100 25.52500
H  37.17900 1.96100 24.72600
H  38.02800 0.39900 24.67800
H  34.06000 -0.67700 26.64100
H  35.09100 -0.77100 25.17600
H  33.39800 -0.37400 23.93500
H  32.95200 1.15500 24.71600
H  32.36800 -0.38900 25.36500
H  30.11500 1.84300 27.96100
H  30.36500 3.59300 27.73700
H  29.45500 2.99000 29.12900
H  31.61100 2.64600 33.79400
H  31.71200 6.41100 35.73300
H  30.63400 5.53300 36.76100
H  29.96700 6.11000 35.30500
Mg -10.13500 17.14500 40.74600
C  -6.74800 15.94300 40.68100
C  -8.98200 20.15700 39.71300
C  -13.26400 17.95000 40.02800
C  -11.00700 13.65800 40.69200
N  -8.11700 17.85100 40.28600
C  -6.89100 17.28700 40.37100
C  -5.70200 18.26400 39.91300
C  -6.49100 19.63500 40.15500
C  -7.97100 19.20700 39.97900
C  -6.12400 20.43300 41.53900
C  -5.31100 17.94800 38.44200
C  -3.79300 17.61800 38.21600
H  -3.49400 16.31600 37.45600
N  -10.99600 18.82800 40.04100
C  -10.37500 19.96200 39.62600
C  -11.36000 20.99700 39.32900
C  -12.62800 20.40600 39.67500
C  -12.33100 19.00200 40.01300
C  -10.93300 22.36900 38.94000
C  -13.98200 21.12600 39.69400
O  -14.07100 22.26000 39.28100
C  -15.29000 20.55300 40.26400
N  -11.95300 15.96800 40.33400
C  -13.14700 16.57500 40.16500
C  -14.23400 15.57400 40.13600
C  -13.50800 14.20700 40.22100
C  -12.05500 14.59900 40.40500
C  -15.27100 15.65300 41.32800
C  -13.71700 13.26200 38.93400
C  -13.29300 13.76900 37.59600
N  -9.06200 15.28200 40.96700
C  -9.63000 13.99200 40.91200
C  -8.59000 13.00700 41.13100
C  -7.38600 13.72300 40.98100
C  -7.74500 15.08700 40.87000
C  -8.65300 11.48400 41.30300
C  -5.93000 13.65600 40.94300
O  -5.16800 12.72200 41.06200
C  -5.44600 15.09300 40.73500
C  -4.66100 15.55900 41.93800
O  -3.84700 16.48300 41.99900
O  -4.92700 14.78100 43.07000
C  -4.01100 14.79900 44.23200
H  -8.63100 21.13500 39.38000
H  -14.29300 18.24100 39.80700
H  -11.24500 12.59500 40.61300
H  -4.87100 18.23900 40.61900
H  -6.26400 20.24100 39.27800
H  -7.03900 20.50700 42.12700
H  -5.67400 21.37900 41.23800
H  -5.41900 19.87700 42.15700
H  -5.64600 18.66000 37.68900
H  -5.90400 17.06000 38.22300
H  -3.38800 17.58700 39.22800
H  -3.36000 18.46600 37.68400
H  -10.75900 22.87300 39.89000
H  -11.76900 22.84100 38.42300
H  -9.96800 22.46000 38.44100
H  -15.16800 19.96300 41.17200
H  -15.72700 19.97700 39.44800
H  -16.05300 21.30400 40.47100
H  -14.90400 15.71300 39.28800
H  -13.78100 13.68800 41.14000
H  -15.26600 14.73300 41.91300
H  -16.25900 15.67600 40.86700
H  -15.14900 16.41700 42.09600
H  -14.80400 13.18800 38.91300
H  -13.18600 12.33900 39.17000
H  -14.01300 13.67400 36.78300
H  -12.46100 13.15800 37.24500
H  -13.05800 14.83300 37.58800
H  -8.05500 10.97000 40.55100
H  -9.63300 11.00700 41.32200
H  -8.28500 11.38200 42.32400
H  -4.86600 15.04000 39.81400
H  -3.10200 14.25800 43.97100
H  -4.48900 14.49200 45.16300
H  -3.68700 15.81200 44.46900

