158

Mg 26.72700 50.31600 26.42400
C  24.85200 51.69100 29.06800
C  29.19800 49.41500 28.79000
C  28.53300 49.01800 23.96700
C  24.43000 51.69300 24.29500
N  26.99400 50.57000 28.64600
C  26.04700 51.04500 29.51400
C  26.54700 50.90300 31.02500
C  27.97600 50.29500 30.86400
C  28.07700 50.07900 29.33100
C  29.14600 50.97900 31.54100
C  25.51900 50.19100 31.78800
C  25.62100 50.09700 33.28600
H  26.47100 51.06700 34.12600
N  28.63100 49.42700 26.37400
C  29.39700 49.13100 27.41000
C  30.57500 48.34600 26.99600
C  30.44400 48.16900 25.56300
C  29.15900 48.81400 25.25400
C  31.83900 48.01600 27.87000
C  31.31900 47.54300 24.53100
O  31.10700 47.57800 23.35900
C  32.53600 46.85900 24.92700
N  26.55200 50.39200 24.44200
C  27.36000 49.68100 23.59100
C  26.77700 49.76200 22.13700
C  25.32100 50.32100 22.28600
C  25.42700 50.86500 23.74600
C  27.73400 50.61000 21.24100
C  24.22300 49.31200 22.21200
C  22.90200 49.75200 21.78900
N  24.92100 51.46700 26.56500
C  24.15200 52.01400 25.62200
C  23.10600 52.82200 26.15800
C  23.35000 52.77300 27.56300
C  24.46400 51.88300 27.73100
C  22.21500 53.68600 25.37000
C  22.83200 53.18500 28.83700
O  21.87800 53.93100 29.04500
C  23.80100 52.48900 29.90000
C  24.42600 53.55600 30.72500
O  25.51900 54.05100 30.49700
O  23.63400 53.78600 31.82800
C  24.30100 54.52100 32.92000
H  29.88800 49.10000 29.57600
H  29.03700 48.47900 23.16300
H  23.64700 51.98300 23.59000
H  26.59200 51.92500 31.40200
H  27.90400 49.28900 31.27700
H  28.76400 51.84500 32.08300
H  29.79500 51.26200 30.71200
H  29.55700 50.16700 32.14100
H  25.45400 49.22600 31.28600
H  24.66500 50.85300 31.64500
H  26.08200 49.18400 33.66400
H  24.61200 50.15900 33.69500
H  31.92200 46.97500 28.18100
H  31.91400 48.65900 28.74700
H  32.66700 48.33800 27.23900
H  32.48700 46.30300 25.86400
H  33.27800 47.64700 24.80800
H  32.60200 46.15600 24.09700
H  26.72900 48.73800 21.76800
H  25.22200 51.17100 21.61100
H  28.07300 50.09900 20.34000
H  28.70000 50.80800 21.70500
H  27.22400 51.53000 20.95600
H  24.00300 48.85200 23.17500
H  24.55300 48.46500 21.61200
H  22.69900 50.81500 21.66000
H  22.25800 49.43800 22.61000
H  22.54300 49.42200 20.81400
H  22.65400 54.09100 24.45900
H  21.88900 54.43200 26.09500
H  21.35000 53.06600 25.13600
H  23.18100 51.96200 30.62600
H  23.56500 55.05900 33.51700
H  25.11600 55.20300 32.68000
H  24.64200 53.68400 33.52900
Mg 10.11300 47.78900 26.36000
C  8.23800 47.93500 29.46300
C  12.62600 49.32500 27.98400
C  11.69600 47.56900 23.59300
C  7.05300 46.80100 24.76700
N  10.28300 48.67000 28.34900
C  9.48500 48.52700 29.49500
C  10.11400 49.06600 30.77900
C  11.33800 49.83000 30.16000
C  11.46800 49.21200 28.76100
C  11.07900 51.32100 30.09000
C  10.46600 47.93900 31.86200
C  10.13900 48.12400 33.32900
H  10.05700 46.86100 34.17500
N  11.96000 48.14700 25.90200
C  12.90400 48.81300 26.69400
C  14.16000 48.75900 26.02300
C  13.98800 48.25100 24.70300
C  12.53100 47.95600 24.66200
C  15.49100 49.26200 26.61500
C  14.96400 48.14600 23.50500
O  14.61000 47.76500 22.37600
C  16.39400 48.46500 23.61900
N  9.49900 47.26300 24.51400
C  10.34800 47.34200 23.43200
C  9.64300 47.01200 22.07800
C  8.25900 46.55400 22.53800
C  8.26800 46.92700 23.99900
C  9.68300 48.25100 21.18400
C  8.01400 45.01500 22.35900
C  8.84500 44.09800 23.26200
N  8.08600 47.43700 26.94200
C  6.97200 47.05500 26.16300
C  5.76400 47.12800 27.02100
C  6.23000 47.31600 28.31900
C  7.64500 47.53400 28.21000
C  4.44900 46.82200 26.52700
C  5.84400 47.36500 29.75200
O  4.78100 47.17100 30.32700
C  7.22900 47.59900 30.55900
C  7.55200 46.30200 31.16500
O  8.16800 45.39500 30.64000
O  7.00900 46.24500 32.49000
C  7.07100 44.93500 33.15100
H  13.42700 49.74700 28.59400
H  12.26700 47.36000 22.68600
H  6.16600 46.38500 24.28500
H  9.43100 49.80400 31.19900
H  12.23900 49.56300 30.71200
H  10.47200 51.49900 29.20200
H  11.97000 51.94700 30.03300
H  10.58600 51.74300 30.96600
H  11.53500 47.72600 31.84300
H  10.04300 46.98700 31.53900
H  9.26800 48.77300 33.42500
H  10.90300 48.78500 33.74000
H  15.61900 48.93500 27.64700
H  15.47400 50.35200 26.59500
H  16.36700 48.90500 26.07300
H  16.96800 48.36300 22.69900
H  16.87000 47.73300 24.27200
H  16.60500 49.44600 24.04500
H  10.21300 46.24500 21.55300
H  7.50700 47.07200 21.94400
H  8.69500 48.58900 20.87100
H  10.14300 47.90700 20.25700
H  10.26700 49.04000 21.65600
H  8.20300 44.83900 21.30000
H  6.97000 44.86500 22.63300
H  9.58200 44.58900 23.89800
H  9.32500 43.39700 22.57900
H  8.10200 43.65300 23.92300
H  4.45300 46.10400 25.70700
H  4.01300 47.69100 26.03500
H  3.90500 46.37900 27.36100
H  7.12400 48.39000 31.30300
H  8.15900 44.87400 33.14300
H  6.47500 44.16400 32.66200
H  6.77700 45.02200 34.19700

