158

Mg 8.84400 3.00600 27.86500
C  9.63500 1.28300 30.75000
C  7.50700 5.52500 29.67400
C  7.15000 4.17000 25.02500
C  9.75700 0.16300 25.89400
N  8.37100 3.23200 30.10800
C  8.99100 2.45900 31.08300
C  8.83100 3.17200 32.42200
C  8.15700 4.52100 32.02700
C  7.92600 4.41400 30.48100
C  6.90900 4.99700 32.80200
C  10.17100 3.39200 33.08000
C  10.41300 4.57800 34.04900
H  10.97400 4.33900 35.41900
N  7.73500 4.71500 27.37900
C  7.39200 5.70800 28.23200
C  6.72600 6.75800 27.53400
C  6.50000 6.35100 26.22400
C  7.18300 5.01000 26.13000
C  6.34600 8.10900 28.26500
C  5.67400 7.11600 25.14200
O  5.45800 6.63200 24.05300
C  5.23200 8.50200 25.46600
N  8.47000 2.29200 25.84700
C  7.71000 2.94300 24.88600
C  7.78300 2.12600 23.52100
C  8.83300 0.98900 23.75600
C  8.99300 1.12700 25.27800
C  6.38800 1.47400 23.10200
C  10.20700 1.40300 23.11700
C  10.64000 0.38100 22.02300
N  9.56600 1.11400 28.24800
C  9.99000 0.13100 27.34600
C  10.84500 -0.83100 28.14800
C  10.69600 -0.44100 29.43600
C  9.85400 0.72700 29.43900
C  11.58700 -1.99000 27.65000
C  11.11200 -0.70500 30.76700
O  11.85600 -1.59400 31.13700
C  10.45400 0.43000 31.73100
C  9.49000 -0.26100 32.68200
O  8.31100 -0.54600 32.45900
O  10.05400 -0.46600 33.87900
C  9.27200 -1.08900 34.95400
H  7.17800 6.38100 30.26700
H  6.78000 4.52500 24.06100
H  10.15800 -0.73500 25.42000
H  8.33800 2.61400 33.21800
H  8.87800 5.32700 32.16100
H  7.13800 6.00800 33.14000
H  6.82300 4.29200 33.62900
H  5.92500 5.01400 32.33300
H  10.92500 3.37700 32.29300
H  10.27900 2.51900 33.72400
H  9.45700 5.04900 34.28200
H  10.87100 5.40400 33.50400
H  7.17100 8.81800 28.19600
H  6.27700 7.90900 29.33400
H  5.46700 8.64500 27.90700
H  4.38900 8.37200 26.14400
H  4.85500 9.07200 24.61800
H  6.06300 9.13400 25.78200
H  8.05300 2.87000 22.77200
H  8.54100 -0.04300 23.55800
H  5.74700 1.77900 23.92900
H  6.49600 0.39000 23.12600
H  6.04100 1.71800 22.09800
H  10.95200 1.40300 23.91200
H  10.18300 2.45300 22.82600
H  9.94000 -0.42700 21.80900
H  11.42800 -0.14200 22.56500
H  11.13300 0.82500 21.15900
H  12.13600 -1.62900 26.78000
H  10.92400 -2.72900 27.20000
H  12.27700 -2.37700 28.40000
H  11.23200 0.96100 32.28000
H  9.93000 -1.68900 35.58100
H  8.54200 -1.72200 34.44800
H  8.71100 -0.38100 35.56400
Mg 45.51700 2.30600 47.74600
C  43.38400 5.23800 47.15300
C  42.81300 0.44900 46.83300
C  47.55800 -0.25300 47.62400
C  48.28900 4.57700 47.94100
N  43.19000 2.84200 47.19600
C  42.68200 4.02900 46.92100
C  41.21600 3.82100 46.39600
C  40.93700 2.24800 46.62800
C  42.40700 1.80300 46.96700
C  39.86300 2.04400 47.80600
C  41.02900 4.33100 44.94300
C  39.69600 5.14500 44.69500
H  39.09700 4.92400 43.28800
N  45.21200 0.30700 47.28700
C  44.04900 -0.29400 47.02000
C  44.26000 -1.71400 46.87800
C  45.61700 -1.97800 47.06200
C  46.21600 -0.62900 47.35400
C  43.19400 -2.73900 46.54400
C  46.40700 -3.24000 47.00200
O  45.77900 -4.25200 46.70600
C  47.94100 -3.48500 47.30600
N  47.64300 2.18100 47.58400
C  48.14700 0.97100 47.84500
C  49.66400 1.05800 48.11000
C  49.94500 2.64800 48.16400
C  48.51800 3.20200 47.92800
C  50.10800 0.30900 49.41800
C  51.07800 3.23100 47.29500
C  51.70500 4.45700 48.02700
N  45.84300 4.48500 47.63000
C  47.01800 5.22500 47.72900
C  46.65300 6.64900 47.60600
C  45.31200 6.66900 47.40300
C  44.80200 5.32800 47.39000
C  47.56200 7.78600 47.71400
C  44.08900 7.52600 47.26900
O  43.97300 8.76600 47.22600
C  42.82700 6.59000 47.08800
C  41.80600 6.68700 48.18300
O  41.81900 6.12000 49.26500
O  40.82600 7.58500 47.78900
C  39.75700 7.76400 48.78800
H  41.93500 -0.14600 46.57000
H  48.32500 -1.01700 47.76800
H  49.10800 5.25800 48.18100
H  40.59500 4.49100 46.99000
H  40.64200 1.68300 45.74400
H  39.00400 1.67800 47.24400
H  39.58600 2.96800 48.31300
H  40.23500 1.37600 48.58400
H  41.05300 3.52400 44.21000
H  41.84400 5.01000 44.69300
H  39.88100 6.21600 44.77700
H  39.02700 4.85000 45.50300
H  43.30500 -3.04700 45.50400
H  42.18700 -2.34600 46.68800
H  43.39600 -3.59200 47.19100
H  48.52200 -2.99100 46.52800
H  48.04100 -4.56700 47.22200
H  48.32800 -3.24200 48.29600
H  50.17100 0.54000 47.29600
H  50.18300 2.96000 49.18100
H  49.27100 -0.00600 50.04100
H  50.63300 1.08400 49.97700
H  50.83300 -0.50100 49.33900
H  50.53700 3.62400 46.43300
H  51.85700 2.56900 46.91700
H  52.77000 4.22400 47.99000
H  51.42500 4.58200 49.07300
H  51.48400 5.38800 47.50500
H  47.19400 8.66600 47.18800
H  48.55100 7.62900 47.28400
H  47.68200 7.97300 48.78100
H  42.28000 6.87800 46.19000
H  39.04500 6.96000 48.60500
H  39.26600 8.73400 48.71300
H  40.02900 7.69100 49.84100

