158

Mg 36.35600 49.71400 24.65600
C  36.24400 47.88300 27.76900
C  35.12300 52.44400 26.26300
C  35.87900 51.11700 21.56200
C  37.28600 46.68100 23.14800
N  35.85100 50.11700 26.74400
C  35.86400 49.22000 27.84900
C  35.52600 50.03000 29.17000
C  34.90300 51.36400 28.64600
C  35.32100 51.33500 27.09300
C  33.37100 51.49400 28.82500
C  36.70200 50.11600 30.16600
C  36.31000 50.15500 31.66100
H  34.86900 49.81600 32.01000
N  35.68500 51.59000 24.05000
C  35.29900 52.58100 24.83500
C  34.97100 53.74900 23.97100
C  35.14700 53.41700 22.64500
C  35.69000 52.01100 22.68900
C  34.33900 55.10400 24.60800
C  34.85800 54.30100 21.41100
O  34.93700 53.85300 20.28400
C  34.54000 55.77400 21.50400
N  36.54500 49.03100 22.62600
C  36.25300 49.75500 21.53300
C  36.39900 48.88900 20.26900
C  37.21600 47.62500 20.83700
C  36.97500 47.73400 22.29100
C  35.06800 48.66200 19.50200
C  38.67300 47.62200 20.37700
C  39.04900 46.29200 19.63000
N  36.74500 47.65800 25.25100
C  37.13200 46.58500 24.49400
C  37.47800 45.45200 25.32500
C  37.13400 45.94400 26.65500
C  36.63000 47.27700 26.52900
C  38.17100 44.09200 25.06800
C  37.16900 45.60100 28.07100
O  37.54800 44.56400 28.52600
C  36.61300 46.79100 28.79700
C  35.50300 46.43800 29.61800
O  34.32600 46.51600 29.35600
O  36.01200 45.70200 30.68100
C  34.97200 45.18000 31.58000
H  34.73000 53.35700 26.71600
H  35.69600 51.57300 20.58700
H  37.51500 45.69900 22.72900
H  34.77500 49.36100 29.59000
H  35.33500 52.21500 29.17300
H  33.01300 50.63400 29.39000
H  32.93500 51.38900 27.83100
H  33.03500 52.44500 29.23800
H  37.28300 51.00700 29.92500
H  37.40600 49.28600 30.10300
H  36.66100 51.10800 32.05700
H  36.92300 49.41100 32.17000
H  33.95100 54.87700 25.60100
H  33.50500 55.46400 24.00600
H  35.19600 55.77600 24.64600
H  35.28500 56.15800 22.20000
H  33.46200 55.86800 21.63500
H  34.79900 56.07700 20.49000
H  37.04100 49.47800 19.61400
H  36.69600 46.72300 20.51300
H  34.25600 49.17700 20.01500
H  34.87900 47.59800 19.36300
H  35.18300 49.12100 18.52000
H  39.43500 47.69400 21.15400
H  38.82600 48.46800 19.70700
H  38.21600 45.61700 19.43700
H  39.88300 45.74300 20.06800
H  39.39000 46.61200 18.64500
H  38.65300 43.80000 26.00100
H  38.87400 44.28100 24.25700
H  37.37400 43.40000 24.79700
H  37.36700 47.32400 29.37600
H  34.43200 44.35100 31.12300
H  34.14200 45.81700 31.88500
H  35.58400 44.75000 32.37400
Mg -11.13200 16.24700 42.45000
C  -7.83200 17.31800 42.33300
C  -12.10200 19.65200 42.24100
C  -14.41600 15.42100 42.29900
C  -10.24500 12.95500 42.60600
N  -10.05800 18.23000 41.93800
C  -8.75900 18.37900 42.10400
C  -8.37800 19.90900 42.01100
C  -9.72300 20.52800 42.39000
C  -10.73200 19.44100 42.11200
C  -9.76900 21.31700 43.74400
C  -7.86700 20.28600 40.57500
C  -6.31700 20.57900 40.22800
H  -5.53500 19.54600 39.38300
N  -13.04200 17.34300 42.20800
C  -13.20600 18.73100 42.22900
C  -14.58300 19.01600 42.25400
C  -15.26500 17.83000 42.14000
C  -14.26200 16.74600 42.28600
C  -15.12400 20.44700 42.40500
C  -16.73800 17.70100 42.11000
O  -17.46900 18.70900 42.14400
C  -17.41400 16.34200 41.91800
N  -12.13400 14.45600 42.32100
C  -13.52900 14.39100 42.33400
C  -13.89600 12.91900 42.50100
C  -12.63100 12.16900 42.11900
C  -11.60100 13.23000 42.30200
C  -14.37100 12.65300 43.95300
C  -12.65100 11.54800 40.71600
C  -12.88600 10.02800 40.89100
N  -9.37200 15.31700 42.47500
C  -9.15900 13.96900 42.64300
C  -7.68800 13.72100 42.84700
C  -7.14100 15.03900 42.73600
C  -8.22300 15.94300 42.54900
C  -7.09500 12.37100 42.83500
C  -5.88300 15.85000 42.72500
O  -4.71900 15.55400 42.98100
C  -6.35300 17.29100 42.70400
C  -6.18900 17.81700 44.03700
O  -6.29000 17.20800 45.07900
O  -5.84600 19.12800 43.98600
C  -5.10500 19.62900 45.18700
H  -12.39300 20.67500 42.48600
H  -15.40200 14.96600 42.18400
H  -9.90300 11.95000 42.86500
H  -7.70900 20.13700 42.84100
H  -9.98900 21.35600 41.73200
H  -8.81600 21.47200 44.24900
H  -10.35100 20.71500 44.44200
H  -10.42900 22.18400 43.70700
H  -8.37900 21.21100 40.31000
H  -8.29000 19.53500 39.90900
H  -5.78700 20.53000 41.17900
H  -6.27500 21.50800 39.66000
H  -15.87200 20.63700 41.63500
H  -14.34900 21.19600 42.24600
H  -15.59500 20.53600 43.38400
H  -18.46300 16.38900 41.62700
H  -17.50800 15.78700 42.85100
H  -16.86100 15.85500 41.11500
H  -14.74400 12.72300 41.84500
H  -12.42200 11.43500 42.89800
H  -15.38300 12.24600 43.96700
H  -14.24200 13.53800 44.57500
H  -13.80200 11.84900 44.41800
H  -11.67900 11.67600 40.23900
H  -13.42000 12.07200 40.14900
H  -11.97000 9.56000 40.53100
H  -13.73900 9.68700 40.30300
H  -12.91400 9.61600 41.90000
H  -6.92200 12.09500 41.79500
H  -7.82300 11.71600 43.31300
H  -6.17200 12.53300 43.39100
H  -5.79500 17.90400 41.99600
H  -4.51900 18.78100 45.54000
H  -5.79800 19.93500 45.97100
H  -4.52600 20.52300 44.95300

