158

Mg 6.22500 54.00100 42.10000
C  5.29600 50.57100 41.68800
C  9.31200 53.27400 40.60600
C  6.78800 57.28500 41.75300
C  2.81800 54.63700 42.71200
N  7.08400 52.20800 41.22400
C  6.56500 50.92600 41.14600
C  7.58300 49.95900 40.45500
C  8.90800 50.73700 40.46100
C  8.42900 52.18600 40.78200
C  9.98400 50.17900 41.45200
C  7.21800 49.34300 39.04900
C  6.20800 50.21000 38.22200
H  6.48100 50.36400 36.70400
N  7.87400 55.15300 41.42100
C  9.09600 54.65000 40.92400
C  10.01900 55.73400 40.67900
C  9.32500 56.94100 41.13300
C  7.92900 56.54200 41.46800
C  11.36600 55.63500 40.06700
C  9.88700 58.34200 41.13300
O  11.11300 58.51600 40.95300
C  9.04100 59.52500 41.44900
N  4.96500 55.67700 41.94900
C  5.47900 56.93800 42.03500
C  4.39500 57.90700 42.52400
C  3.07300 57.08300 42.43800
C  3.65800 55.72600 42.40100
C  4.65500 58.43100 43.92900
C  2.21600 57.43200 41.19400
C  0.73100 57.81800 41.53200
N  4.39000 52.87100 42.34600
C  3.15100 53.28100 42.78000
C  2.30700 52.12000 42.99300
C  3.20300 51.04100 42.66600
C  4.35700 51.56800 42.17200
C  0.98700 52.06300 43.54600
C  3.33900 49.59900 42.66200
O  2.62700 48.73300 43.09500
C  4.71800 49.24900 42.00200
C  4.33600 48.42700 40.81200
O  3.67700 48.79800 39.85100
O  4.74900 47.16400 41.03200
C  4.30900 46.14200 40.06500
H  10.30000 53.04100 40.20300
H  6.95800 58.35400 41.89300
H  1.74900 54.77500 42.88700
H  7.69500 49.15700 41.18500
H  9.33000 50.84500 39.46200
H  9.57700 50.04300 42.45400
H  10.81100 50.88300 41.54600
H  10.30300 49.23100 41.01900
H  6.77300 48.35600 39.17700
H  8.11700 49.19600 38.45000
H  6.34100 51.25600 38.49800
H  5.22600 49.77900 38.41700
H  11.28500 55.28600 39.03700
H  11.91700 54.83500 40.56100
H  12.10300 56.43800 40.07800
H  8.26700 59.56600 40.68200
H  9.66400 60.40600 41.29700
H  8.61500 59.55700 42.45100
H  4.31800 58.79900 41.90200
H  2.55700 57.17800 43.39300
H  3.99200 57.99900 44.67900
H  4.52700 59.51000 44.01800
H  5.65700 58.10700 44.20900
H  2.05200 56.58600 40.52600
H  2.71100 58.16900 40.56200
H  0.47500 57.80800 42.59100
H  0.12700 57.09800 40.98100
H  0.47900 58.78100 41.08700
H  0.42200 51.20400 43.18400
H  0.44300 52.96800 43.27500
H  1.12700 52.00400 44.62500
H  5.27300 48.60700 42.68600
H  4.58300 45.21800 40.57300
H  4.89900 46.21400 39.15200
H  3.27200 46.21600 39.73700
Mg -3.58800 35.59400 26.74200
C  -4.87500 33.45900 29.31700
C  -2.40900 37.58700 29.30100
C  -2.50100 37.61700 24.38900
C  -5.39600 33.83400 24.42600
N  -3.50000 35.33300 29.09400
C  -4.09900 34.39700 29.89600
C  -3.78100 34.65900 31.37000
C  -3.10700 36.08500 31.37700
C  -2.96200 36.40600 29.83400
C  -3.82900 37.23400 32.16300
C  -3.04900 33.48500 32.11600
C  -3.61400 32.86100 33.40600
H  -2.63700 32.64000 34.62200
N  -2.44000 37.23200 26.84500
C  -2.08500 37.95500 27.94200
C  -1.24300 39.10800 27.55200
C  -1.07800 39.06200 26.11500
C  -1.94500 37.91200 25.72400
C  -0.64300 40.13500 28.59000
C  -0.34500 39.87300 25.15200
O  -0.24900 39.68700 23.97600
C  0.15500 41.12200 25.70900
N  -3.94300 35.73300 24.68900
C  -3.38100 36.65000 23.91800
C  -3.62200 36.33300 22.42600
C  -4.66000 35.18900 22.46000
C  -4.71100 34.93500 23.97300
C  -4.11200 37.59900 21.68500
C  -4.37300 33.92100 21.56700
C  -3.42900 32.78500 22.14400
N  -4.90200 34.00800 26.77100
C  -5.52100 33.31000 25.73300
C  -6.14000 32.04600 26.24200
C  -5.92300 32.09700 27.65600
C  -5.20100 33.31800 27.93300
C  -6.76800 31.02400 25.39500
C  -6.20300 31.37300 28.92700
O  -6.76300 30.29900 29.12300
C  -5.53200 32.24300 30.05700
C  -6.70200 32.69500 30.91000
O  -7.54800 33.45400 30.51600
O  -6.61900 32.21000 32.23600
C  -7.74300 32.43700 33.11700
H  -2.06400 38.31600 30.03700
H  -2.16600 38.42200 23.73100
H  -6.00400 33.34600 23.66200
H  -4.78200 34.64600 31.80200
H  -2.07800 36.01800 31.73100
H  -3.34200 37.38200 33.12700
H  -4.83200 36.89200 32.41800
H  -3.96400 38.19100 31.65900
H  -2.07600 33.86700 32.42300
H  -2.98100 32.62300 31.45300
H  -3.78000 31.82900 33.09800
H  -4.56900 33.36200 33.56500
H  -0.76500 39.98000 29.66200
H  -0.87400 41.17300 28.34900
H  0.44300 40.07400 28.52300
H  -0.63300 41.75600 26.11500
H  0.78600 41.59200 24.95500
H  0.94700 40.93200 26.43400
H  -2.65900 36.20400 21.93200
H  -5.67100 35.49900 22.19500
H  -4.94800 37.35800 21.02900
H  -3.46300 38.17500 21.02500
H  -4.31500 38.35000 22.44900
H  -3.99500 34.27100 20.60600
H  -5.35400 33.54000 21.28300
H  -2.93400 33.19700 23.02500
H  -2.71100 32.66500 21.33200
H  -4.04600 31.89700 22.27900
H  -5.90600 30.70700 24.80900
H  -7.52900 31.44600 24.73800
H  -6.90400 30.10400 25.96400
H  -4.89800 31.63600 30.70300
H  -8.09100 31.45500 33.43800
H  -8.54500 32.94300 32.58100
H  -7.34700 33.05900 33.92000

