158

Mg 1.97200 -1.13500 44.85400
C  5.45700 -0.45500 44.05800
C  1.22300 1.48600 42.63200
C  -1.21400 -1.95500 45.15600
C  3.08200 -4.03100 46.41800
N  3.24600 0.37700 43.55000
C  4.60600 0.39500 43.34900
C  5.00500 1.73700 42.54700
C  3.60700 2.28600 42.07900
C  2.57900 1.26000 42.74100
C  3.23800 3.70600 42.55500
C  5.86600 1.45200 41.28100
C  6.94400 2.50400 40.98300
H  6.47700 3.62800 40.12200
N  0.14700 -0.26800 44.09700
C  0.07300 0.81900 43.25200
C  -1.29100 1.09400 43.08900
C  -2.10100 0.18400 43.82200
C  -1.10000 -0.72100 44.44800
C  -1.79400 2.30400 42.27500
C  -3.60200 0.21700 44.01100
O  -4.33700 1.02500 43.39400
C  -4.26500 -0.63100 45.04600
N  1.01800 -2.81300 45.45900
C  -0.27500 -2.87900 45.59400
C  -0.66500 -4.22600 46.25200
C  0.68800 -4.82200 46.71500
C  1.68500 -3.80400 46.19400
C  -1.77400 -4.07600 47.40100
C  0.86600 -6.28700 46.29000
C  1.12700 -7.34400 47.37200
N  3.80600 -2.07300 45.23900
C  4.07900 -3.22200 45.96200
C  5.53300 -3.41400 46.04100
C  6.07100 -2.34300 45.35300
C  4.99700 -1.58200 44.79300
C  6.30000 -4.44200 46.81100
C  7.40300 -1.82700 44.88500
O  8.57200 -2.15900 45.07400
C  6.96900 -0.55200 44.05400
C  7.54300 0.60800 44.90100
O  7.12600 0.94500 45.97300
O  8.58500 1.27500 44.23300
C  9.18800 2.49300 44.87200
H  1.02600 2.38500 42.04400
H  -2.26400 -2.22900 45.27800
H  3.45800 -4.89300 46.97400
H  5.60000 2.37800 43.19700
H  3.50800 2.28800 40.99300
H  4.04600 4.23600 43.05900
H  2.32000 3.71100 43.14200
H  3.05500 4.39400 41.73000
H  5.26400 1.26400 40.39200
H  6.31800 0.46700 41.40100
H  7.61900 1.88500 40.39200
H  7.39300 2.85100 41.91300
H  -1.37100 1.99900 41.31700
H  -1.32300 3.22000 42.63000
H  -2.86400 2.50600 42.23200
H  -5.29300 -0.29000 45.17000
H  -3.68800 -0.56400 45.96800
H  -4.34300 -1.65300 44.67700
H  -0.99700 -4.87900 45.44500
H  0.80500 -4.87800 47.79800
H  -2.03600 -3.02000 47.46200
H  -1.53100 -4.53500 48.36000
H  -2.62500 -4.69100 47.11000
H  1.67800 -6.28400 45.56200
H  -0.04000 -6.70200 45.84800
H  0.18900 -7.82500 47.65000
H  1.76000 -6.96600 48.17400
H  1.83500 -8.08300 46.99600
H  6.09600 -5.42100 46.37700
H  6.02500 -4.42300 47.86600
H  7.37500 -4.36400 46.64700
H  7.42800 -0.64000 43.06900
H  9.02600 3.36400 44.23600
H  10.25200 2.26400 44.92900
H  8.83300 2.61300 45.89500
Mg 45.43100 4.65000 47.54200
C  43.43100 7.47900 47.43000
C  42.71200 2.77800 46.40500
C  47.34400 1.86700 47.70600
C  48.12500 6.53600 48.28300
N  43.37700 5.12700 46.82500
C  42.73500 6.29500 46.93400
C  41.20600 6.19500 46.55400
C  41.03800 4.65000 46.70100
C  42.50100 4.14000 46.54800
C  40.37300 4.06700 47.98400
C  40.93100 6.77500 45.14500
C  39.70100 7.68900 45.05800
H  38.62200 7.34600 44.02800
N  45.04000 2.56300 47.11800
C  43.87600 1.98700 46.71700
C  44.09800 0.53700 46.47100
C  45.42500 0.25200 46.74000
C  46.02000 1.59400 47.26700
C  42.94900 -0.38000 46.24200
C  46.09900 -1.07000 46.41500
O  45.47500 -1.98900 45.90700
C  47.60400 -1.24700 46.54900
N  47.45400 4.27800 47.77500
C  47.96000 3.01500 47.94600
C  49.42000 3.05200 48.44500
C  49.75400 4.62000 48.54300
C  48.36400 5.17500 48.21000
C  49.72700 2.28100 49.77500
C  50.84400 5.13300 47.57300
C  51.75900 6.30600 48.19900
N  45.75600 6.63900 47.77400
C  46.91400 7.28000 48.15900
C  46.58400 8.66400 48.49400
C  45.22600 8.80300 48.21100
C  44.78000 7.55500 47.78000
C  47.56400 9.69000 49.06400
C  44.12700 9.67800 48.24000
O  43.97900 10.83300 48.72700
C  42.88900 8.84400 47.65800
C  41.84500 8.96300 48.78300
O  42.04200 8.71800 49.95800
O  40.71100 9.39900 48.28200
C  39.67800 9.75900 49.26300
H  41.81400 2.22200 46.12500
H  47.85600 0.90900 47.81800
H  48.95800 7.14000 48.65000
H  40.66800 6.70300 47.35400
H  40.49500 4.25500 45.84300
H  40.07500 4.87100 48.65600
H  41.04000 3.40500 48.53700
H  39.43800 3.62900 47.63600
H  40.81400 5.90100 44.50300
H  41.78700 7.39100 44.87100
H  40.18000 8.64700 44.85500
H  39.22700 7.77000 46.03700
H  43.03600 -0.98000 45.33600
H  41.96500 0.08300 46.16900
H  42.83100 -1.01200 47.12200
H  47.87600 -2.26200 46.26000
H  47.93200 -1.22800 47.58800
H  48.09000 -0.45200 45.98300
H  49.98000 2.62900 47.61100
H  50.10100 4.85200 49.54900
H  48.79000 2.05400 50.28500
H  50.33000 2.75400 50.55100
H  50.20300 1.31200 49.62700
H  50.44200 5.38200 46.59100
H  51.50200 4.27600 47.42700
H  52.70700 6.54200 47.71400
H  51.95200 6.00500 49.22900
H  51.15700 7.20200 48.04500
H  48.21000 9.26800 49.83400
H  46.96200 10.48800 49.49700
H  48.24300 10.16100 48.35400
H  42.44200 9.27200 46.76100
H  39.40500 10.79300 49.05100
H  39.85200 9.71200 50.33800
H  38.81400 9.11500 49.10100

