158

Mg 0.62700 8.84000 26.23700
C  1.65700 10.40700 29.08600
C  0.09100 5.91200 28.11400
C  0.02200 7.09000 23.39900
C  1.75200 11.45100 24.27900
N  1.06500 8.10600 28.33500
C  1.20200 9.13000 29.33900
C  1.04800 8.53500 30.70900
C  0.85000 6.98100 30.42100
C  0.55700 6.98200 28.84700
C  2.02300 6.03600 30.82200
C  -0.15600 9.08200 31.45900
C  -0.05500 9.26700 32.98700
H  1.24400 8.97100 33.73000
N  0.05400 6.77200 25.79000
C  -0.12200 5.78900 26.73900
C  -0.72000 4.66900 26.07900
C  -0.84700 4.91300 24.68500
C  -0.22000 6.32100 24.57100
C  -1.06700 3.42200 26.85200
C  -1.52300 4.07400 23.61200
O  -1.61500 4.53500 22.46500
C  -1.91100 2.69800 23.86600
N  0.98500 9.13500 24.18400
C  0.62700 8.28500 23.14700
C  1.01100 8.76200 21.72600
C  1.35700 10.26200 22.04300
C  1.39100 10.28900 23.56700
C  2.26900 8.06600 21.21200
C  0.35900 11.34100 21.37800
C  -0.78300 11.77600 22.33700
N  1.50600 10.65400 26.53300
C  1.86900 11.67600 25.69000
C  2.30700 12.81800 26.43600
C  2.31700 12.35500 27.77200
C  1.81500 11.01300 27.78400
C  2.63800 14.15400 25.92500
C  2.57900 12.71700 29.13600
O  3.02700 13.77800 29.61400
C  2.23000 11.47200 30.06100
C  3.50800 11.05900 30.68500
O  4.34600 10.36900 30.17600
O  3.49100 11.49000 32.00300
C  4.53100 10.97300 32.95400
H  -0.21800 5.11800 28.79700
H  -0.32200 6.43800 22.59400
H  2.15800 12.22200 23.62000
H  1.94300 8.63000 31.32300
H  -0.04200 6.60900 30.92500
H  1.65800 5.35900 31.59500
H  2.87900 6.58100 31.21900
H  2.39400 5.58700 29.90100
H  -1.03600 8.46300 31.28400
H  -0.39500 10.03400 30.98400
H  -0.87900 8.73400 33.46000
H  -0.26600 10.28100 33.32600
H  -0.57600 2.57800 26.36800
H  -2.14500 3.26500 26.82300
H  -0.77800 3.57500 27.89200
H  -2.72500 2.33900 23.23600
H  -2.24600 2.45200 24.87400
H  -1.00300 2.10100 23.78300
H  0.08900 8.57900 21.17400
H  2.37900 10.46800 21.72700
H  2.29400 8.24800 20.13800
H  2.05600 7.01000 21.38100
H  3.20900 8.29500 21.71500
H  -0.03200 10.93400 20.44600
H  1.04600 12.12100 21.04900
H  -0.82400 11.17700 23.24700
H  -1.72000 11.71400 21.78200
H  -0.61800 12.77900 22.73100
H  1.73500 14.69900 25.65000
H  3.28500 14.06300 25.05300
H  3.10400 14.84200 26.63000
H  1.50600 11.77000 30.81900
H  5.47700 11.24700 32.48600
H  4.47500 9.89800 33.12600
H  4.59500 11.42000 33.94600
Mg 48.56000 35.36700 26.99400
C  46.62200 34.02700 29.41800
C  49.15000 38.21700 29.24200
C  50.05500 37.21800 24.43400
C  47.70600 32.86600 24.75700
N  47.85900 36.06700 29.04400
C  47.14800 35.20400 29.85800
C  47.13200 35.70100 31.30500
C  47.69700 37.20500 31.22500
C  48.31000 37.14800 29.80600
C  46.70900 38.37500 31.33400
C  48.16000 34.81600 32.12700
C  47.66100 34.33000 33.52300
H  46.48200 35.13700 34.15400
N  49.57000 37.35200 26.90000
C  49.78000 38.25300 27.91800
C  50.45200 39.39900 27.38000
C  50.77500 39.20700 25.98100
C  50.17000 37.89300 25.73400
C  50.74900 40.58500 28.28400
C  51.55500 40.00600 25.01400
O  51.91200 39.56900 23.91900
C  52.01400 41.36900 25.31900
N  48.75200 35.14200 24.89300
C  49.45000 35.97200 24.08300
C  49.59900 35.36600 22.69000
C  48.86000 33.97400 22.84800
C  48.39900 33.98200 24.24300
C  49.28300 36.24100 21.45100
C  49.73700 32.69400 22.51300
C  49.03000 31.58600 21.85600
N  47.48400 33.75100 27.01100
C  47.28300 32.75500 26.09000
C  46.43100 31.71000 26.72500
C  46.10400 32.19800 27.97800
C  46.79900 33.38800 28.10700
C  46.05700 30.41300 26.07000
C  45.34700 32.03900 29.20300
O  44.60800 31.12100 29.46500
C  45.65300 33.13100 30.24500
C  46.21300 32.30500 31.31400
O  47.23400 31.65300 31.28300
O  45.32600 32.23500 32.30700
C  45.55600 31.12700 33.26100
H  49.32100 38.99300 29.99100
H  50.65200 37.66900 23.63900
H  47.35200 32.02800 24.15400
H  46.12400 35.67200 31.71900
H  48.46000 37.45900 31.96100
H  45.82800 38.08800 31.90600
H  46.35900 38.74400 30.36900
H  47.14500 39.12800 31.99100
H  49.07600 35.40000 32.21400
H  48.43600 33.98800 31.47300
H  48.53800 34.36100 34.17000
H  47.43400 33.26700 33.44600
H  49.86100 41.21700 28.28700
H  51.54100 41.21400 27.87800
H  50.94200 40.34100 29.32900
H  52.72400 41.38100 26.14500
H  51.12000 41.97400 25.47000
H  52.49800 41.70400 24.40100
H  50.65400 35.09600 22.73800
H  47.95600 34.05300 22.24500
H  48.62000 35.76700 20.72800
H  50.25400 36.57700 21.08600
H  48.78600 37.15800 21.76600
H  50.10200 32.31800 23.46900
H  50.62500 32.94500 21.93200
H  48.04100 31.75300 21.42900
H  49.02300 30.72200 22.52000
H  49.60400 31.32500 20.96700
H  44.97200 30.36400 25.98300
H  46.44900 29.56800 26.63700
H  46.52100 30.39700 25.08400
H  44.67000 33.57500 30.40400
H  44.70100 31.21400 33.93100
H  46.45600 31.28700 33.85500
H  45.65900 30.13500 32.82300

