158

Mg 30.69800 59.41800 39.11500
C  27.75100 57.78300 37.63400
C  32.45500 56.70500 37.85900
C  33.49400 61.29600 39.34400
C  28.71500 62.38300 39.25500
N  30.16900 57.51000 37.74800
C  28.89300 57.02600 37.43400
C  28.97400 55.61300 36.81700
C  30.46200 55.21900 37.10000
C  31.09600 56.56700 37.53500
C  30.67500 54.00100 38.09900
C  28.65500 55.61400 35.29500
C  27.66200 54.67300 34.75300
H  26.72200 55.26900 33.68100
N  32.74400 58.98400 38.80100
C  33.25600 57.76900 38.39600
C  34.71000 57.84800 38.53000
C  35.02500 59.16900 38.95300
C  33.72800 59.89600 39.08600
C  35.62500 56.72500 38.18000
C  36.44800 59.64500 39.15000
O  37.39800 58.92900 38.95300
C  36.71200 61.00500 39.69700
N  31.03500 61.52600 39.36000
C  32.33400 62.07000 39.53100
C  32.22900 63.61700 39.57200
C  30.66500 63.91700 39.65900
C  30.06600 62.54100 39.36600
C  33.07700 64.21600 40.73100
C  30.04200 65.01900 38.69300
C  29.12700 65.98200 39.38700
N  28.64100 59.99000 38.79500
C  28.00100 61.21100 38.97200
C  26.59400 61.05600 38.65800
C  26.48400 59.73400 38.13900
C  27.71700 59.09400 38.22600
C  25.53600 62.17800 38.61700
C  25.55900 58.80300 37.54700
O  24.34000 58.93200 37.28600
C  26.30200 57.51100 37.25600
C  25.71600 56.43900 38.12300
O  25.73200 56.33900 39.36600
O  25.16100 55.54100 37.29200
C  24.57500 54.41600 37.99700
H  32.91900 55.72200 37.75800
H  34.32100 62.00500 39.41100
H  28.17900 63.32700 39.37400
H  28.28100 55.00500 37.39800
H  31.01000 54.96300 36.19300
H  31.08200 54.32900 39.05500
H  31.35700 53.31800 37.59300
H  29.74900 53.44100 38.22800
H  29.58700 55.43100 34.76000
H  28.37200 56.63800 35.05500
H  27.03700 54.27900 35.55400
H  28.23200 53.86900 34.28800
H  36.40700 56.57000 38.92300
H  36.09600 57.10100 37.27200
H  35.11700 55.76600 38.08800
H  37.77000 61.12600 39.92600
H  36.07000 61.19700 40.55600
H  36.53100 61.75800 38.93000
H  32.64100 63.87000 38.59500
H  30.33300 64.04300 40.68900
H  32.65300 64.91200 41.45500
H  33.84000 64.81600 40.23700
H  33.58600 63.47200 41.34400
H  29.44500 64.45400 37.97700
H  30.80200 65.55300 38.12300
H  29.53200 66.99400 39.36800
H  28.96100 65.72600 40.43400
H  28.10600 65.95200 39.00900
H  24.95700 62.18600 37.69400
H  25.91600 63.16700 38.87300
H  24.87000 62.03600 39.46800
H  26.22400 57.31200 36.18800
H  25.26700 53.57400 38.01300
H  23.63600 54.21500 37.48100
H  24.35000 54.53200 39.05700
Mg -5.01500 25.23700 26.49100
C  -3.50600 26.86000 29.03700
C  -6.54700 23.09400 28.65700
C  -6.54400 23.59800 23.80900
C  -3.65200 27.48800 24.25700
N  -4.93700 24.96300 28.55200
C  -4.45100 25.88900 29.45300
C  -4.81600 25.48100 30.90000
C  -5.58800 24.14000 30.68800
C  -5.72600 24.10100 29.18300
C  -4.73400 22.96200 31.27500
C  -5.58800 26.68400 31.56700
C  -5.86700 26.69900 33.11200
H  -5.55700 25.41700 33.91800
N  -6.29100 23.53000 26.29500
C  -6.79000 22.84600 27.33300
C  -7.62400 21.72200 26.83300
C  -7.76700 21.87200 25.46300
C  -6.81800 22.99500 25.11600
C  -8.30200 20.70800 27.69900
C  -8.53200 21.09400 24.41600
O  -8.42300 21.42600 23.27200
C  -9.59000 20.04600 24.91700
N  -5.07600 25.53900 24.28900
C  -5.91200 24.81700 23.45900
C  -5.77300 25.30500 22.06000
C  -4.84900 26.66000 22.21500
C  -4.50700 26.55900 23.65900
C  -5.26300 24.40900 20.86500
C  -5.54800 27.96200 21.80200
C  -5.07600 28.54300 20.41700
N  -3.73800 26.70200 26.55000
C  -3.23300 27.53800 25.59500
C  -2.29800 28.49700 26.16100
C  -2.34100 28.24500 27.49600
C  -3.24700 27.15100 27.66200
C  -1.39900 29.54100 25.48000
C  -1.78900 28.66400 28.73800
O  -0.85000 29.46300 29.00700
C  -2.62900 27.83600 29.80900
C  -2.00200 27.19700 30.95600
O  -1.24000 26.26500 30.85600
O  -2.36800 27.88700 32.12700
C  -1.89200 27.22000 33.27800
H  -7.12900 22.55300 29.40600
H  -6.87700 23.14200 22.87400
H  -3.30300 28.35100 23.68500
H  -3.90500 25.27800 31.46300
H  -6.55300 24.28100 31.17500
H  -5.29400 22.39300 32.01600
H  -3.74500 23.18000 31.67800
H  -4.47200 22.35100 30.41100
H  -6.47000 26.87500 30.95600
H  -4.96400 27.56900 31.43800
H  -6.90500 26.99500 33.26400
H  -5.34400 27.58000 33.48500
H  -7.94100 19.70600 27.47000
H  -9.37000 20.79900 27.49800
H  -8.21100 20.83500 28.77800
H  -9.31800 19.23400 25.59000
H  -10.15700 19.72300 24.04300
H  -10.32900 20.68400 25.40200
H  -6.78700 25.59000 21.77800
H  -3.92800 26.48000 21.66100
H  -4.22700 24.50000 20.53800
H  -5.93000 24.76400 20.08000
H  -5.52400 23.35500 20.95400
H  -5.36200 28.71900 22.56400
H  -6.57700 27.60500 21.84800
H  -4.34800 29.30700 20.68900
H  -5.89000 28.99700 19.85100
H  -4.57500 27.76600 19.84100
H  -1.58700 29.49000 24.40800
H  -0.35000 29.33100 25.68900
H  -1.78300 30.52400 25.75400
H  -3.38800 28.50100 30.22100
H  -1.04700 27.74400 33.72400
H  -1.60600 26.18100 33.11400
H  -2.71700 27.09200 33.98000

