158

Mg 26.15900 49.97500 26.34800
C  24.11600 51.17900 28.87500
C  28.48700 49.26900 28.71800
C  28.10700 48.73000 23.78700
C  23.78100 50.98200 23.94700
N  26.30500 50.32200 28.53400
C  25.29300 50.62700 29.38900
C  25.67500 50.41700 30.87700
C  27.16300 50.03500 30.72900
C  27.34400 49.89200 29.21600
C  28.08400 51.05600 31.44500
C  24.81800 49.19200 31.58200
C  24.17500 49.61800 32.93500
H  25.05900 50.52900 33.82300
N  28.06400 49.19200 26.24900
C  28.84500 49.00600 27.37700
C  30.10500 48.46700 26.89300
C  29.98800 48.24500 25.52000
C  28.71200 48.78600 25.08800
C  31.35800 48.33400 27.75000
C  31.06600 47.59800 24.55300
O  30.91000 47.60200 23.34200
C  32.36100 46.92400 25.09600
N  26.02800 50.01400 24.14600
C  26.94900 49.36500 23.36400
C  26.42200 49.23200 21.91500
C  25.01700 49.85100 21.97700
C  24.88900 50.28100 23.47400
C  27.42700 49.89500 20.93500
C  23.86300 48.78800 21.61000
C  23.84300 47.48700 22.44600
N  24.32400 50.96200 26.36200
C  23.47700 51.26400 25.31600
C  22.33200 51.91600 25.89200
C  22.46400 51.79700 27.31600
C  23.74600 51.29400 27.49300
C  21.10900 52.47900 25.21900
C  21.87400 52.13300 28.59900
O  20.81500 52.71500 28.91800
C  22.89000 51.68000 29.70700
C  23.31900 52.84700 30.53000
O  24.25500 53.62400 30.28800
O  22.42700 53.11600 31.55700
C  22.91600 54.11900 32.49200
H  29.33700 49.05400 29.36800
H  28.67300 48.27800 22.97000
H  23.00900 51.24400 23.22100
H  25.44500 51.40900 31.26500
H  27.38000 49.05700 31.15800
H  28.87900 51.46100 30.81800
H  28.50000 50.52600 32.30200
H  27.46100 51.91000 31.71100
H  25.50400 48.36300 31.75400
H  24.05400 48.86300 30.87800
H  23.96400 48.65000 33.38900
H  23.29700 50.18600 32.62400
H  31.41200 47.26200 27.94000
H  31.18200 48.90100 28.66400
H  32.27000 48.71300 27.28900
H  32.79300 46.25100 24.35400
H  32.20900 46.45100 26.06600
H  33.17200 47.61600 25.32300
H  26.40000 48.19600 21.57500
H  24.95700 50.76500 21.38600
H  28.28500 50.16600 21.55000
H  26.95400 50.84000 20.67000
H  27.71300 49.19600 20.14800
H  23.77700 48.48200 20.56700
H  22.96900 49.35500 21.87000
H  22.95700 47.37100 23.07000
H  24.75400 47.23800 22.98900
H  23.77200 46.68500 21.71000
H  20.18100 52.14500 25.68200
H  21.12500 52.10300 24.19600
H  21.23100 53.56200 25.20800
H  22.45800 50.89200 30.32400
H  23.36500 54.98000 31.99800
H  23.59800 53.66600 33.21200
H  22.10800 54.54500 33.08700
Mg -10.02100 17.06000 40.95000
C  -6.48100 17.05000 41.12000
C  -10.00700 20.45600 40.30700
C  -13.35500 16.93500 40.25400
C  -9.93700 13.54100 40.84000
N  -8.42000 18.60000 40.70100
C  -7.03300 18.39600 40.78000
C  -6.31100 19.71600 40.30700
C  -7.45100 20.81800 40.69500
C  -8.68900 19.93600 40.53300
C  -7.24300 21.51500 42.16600
C  -5.74200 19.71100 38.81100
C  -4.25100 19.17200 38.65300
H  -3.92600 17.86400 37.87700
N  -11.51400 18.50700 40.43800
C  -11.26900 19.83200 40.23800
C  -12.50000 20.50800 40.08400
C  -13.54100 19.50200 39.92000
C  -12.82600 18.25800 40.24000
C  -12.53700 22.02200 39.94400
C  -14.93300 19.74500 39.56600
O  -15.32800 20.83800 39.34100
C  -15.94400 18.71000 39.50400
N  -11.40600 15.50100 40.37400
C  -12.79800 15.66000 40.23700
C  -13.64100 14.34000 40.37100
C  -12.50700 13.31700 40.56400
C  -11.15500 14.09200 40.46200
C  -14.86000 14.37800 41.35700
C  -12.54100 12.00300 39.59700
C  -12.62500 10.63100 40.24100
N  -8.56700 15.58800 41.00100
C  -8.69500 14.21300 41.04700
C  -7.43700 13.62700 41.39200
C  -6.60500 14.71700 41.38800
C  -7.27500 15.84600 41.12900
C  -7.01500 12.20700 41.63100
C  -5.19500 15.05000 41.54200
O  -4.19900 14.34000 41.66300
C  -5.07000 16.58700 41.41300
C  -4.52500 17.11900 42.74900
O  -3.72800 18.00000 42.86500
O  -5.12800 16.43500 43.75900
C  -5.05800 17.08800 45.08200
H  -9.90800 21.54300 40.28200
H  -14.42200 16.71600 40.17700
H  -9.74700 12.46700 40.88600
H  -5.42500 19.94200 40.90000
H  -7.34800 21.65500 40.00400
H  -7.54800 22.56100 42.13000
H  -6.25800 21.32500 42.59200
H  -7.95300 21.05100 42.85000
H  -5.70700 20.69900 38.35300
H  -6.49100 19.17500 38.22800
H  -3.76600 19.15200 39.62900
H  -3.65100 19.93800 38.16200
H  -13.33600 22.28600 39.25100
H  -11.65100 22.44700 39.47200
H  -12.69600 22.39300 40.95700
H  -15.67300 18.10800 38.63700
H  -16.83800 19.22800 39.15800
H  -16.08900 18.12600 40.41400
H  -14.01800 14.11900 39.37300
H  -12.58600 13.10500 41.63000
H  -15.72100 13.93900 40.85300
H  -15.07400 15.35500 41.79000
H  -14.63600 13.66300 42.14800
H  -11.68200 12.25400 38.97500
H  -13.48000 12.05400 39.04500
H  -13.52000 10.06100 39.98900
H  -12.49600 10.79000 41.31200
H  -11.77700 10.11000 39.79700
H  -7.85300 11.52200 41.49800
H  -6.83500 12.06100 42.69600
H  -6.11200 11.93300 41.08600
H  -4.46500 16.88700 40.55800
H  -4.71300 18.12100 45.05600
H  -4.41700 16.37800 45.60500
H  -6.00100 16.84900 45.57300

