158

Mg 36.19600 2.32500 29.93100
C  33.83500 3.76500 32.05800
C  38.24700 2.09600 32.65800
C  38.54600 1.34000 27.82700
C  33.95400 2.87600 27.30800
N  36.09300 3.17500 31.99800
C  35.01100 3.51200 32.68900
C  35.25400 3.56300 34.18000
C  36.78300 3.29800 34.30400
C  37.07400 2.84700 32.88300
C  37.43300 4.49700 34.87900
C  34.52000 2.47700 34.99200
C  33.80800 3.08100 36.31100
H  34.55200 4.10300 37.11000
N  38.15200 1.70600 30.23400
C  38.80400 1.62700 31.42700
C  40.07800 0.92300 31.25400
C  40.17600 0.84800 29.83200
C  38.93100 1.31800 29.20800
C  41.07400 0.74700 32.41200
C  41.32500 0.38700 28.95300
O  41.38400 0.33800 27.73900
C  42.62100 -0.11800 29.61200
N  36.23900 2.18900 27.92600
C  37.38400 1.89800 27.27600
C  37.22600 2.05300 25.67000
C  35.72100 2.25500 25.49400
C  35.25700 2.41000 27.04600
C  38.12400 3.18900 25.17400
C  35.08200 1.02200 24.89000
C  33.76900 1.22700 24.08600
N  34.18500 3.02000 29.63300
C  33.44500 3.19900 28.57600
C  32.14400 3.70600 28.94600
C  32.24800 3.92300 30.30200
C  33.55800 3.56600 30.67900
C  31.05800 4.04100 27.97800
C  31.53700 4.51800 31.42100
O  30.43900 5.04000 31.49500
C  32.52400 4.21600 32.65200
C  32.63700 5.52300 33.35000
O  33.27500 6.49900 33.00100
O  31.84400 5.45600 34.51400
C  31.88700 6.64400 35.40000
H  38.92200 2.10800 33.51600
H  39.29700 0.96400 27.13000
H  33.27600 3.17000 26.50400
H  34.93600 4.56500 34.46800
H  36.95700 2.38300 34.87000
H  37.61300 4.24700 35.92400
H  36.86000 5.42100 34.80100
H  38.43800 4.66600 34.49200
H  35.10000 1.63600 35.37000
H  33.72900 2.04800 34.37600
H  33.56500 2.25700 36.98200
H  32.89900 3.46400 35.84800
H  41.70300 -0.12300 32.21900
H  40.43200 0.62600 33.28400
H  41.61900 1.67000 32.61400
H  43.08100 0.72500 30.12700
H  43.36300 -0.42200 28.87300
H  42.44200 -0.93700 30.30900
H  37.51600 1.10000 25.22600
H  35.38800 3.17600 25.01600
H  38.94100 2.82000 24.55400
H  38.53100 3.68500 26.05600
H  37.50300 3.92000 24.65800
H  34.82500 0.38300 25.73500
H  35.79700 0.66900 24.14700
H  33.68100 0.34100 23.45700
H  33.87700 2.06500 23.39700
H  32.92300 1.40700 24.74800
H  31.03800 5.08300 27.65900
H  30.09500 3.72700 28.38300
H  31.12600 3.37500 27.11700
H  32.10400 3.49300 33.35100
H  31.27300 7.27500 34.75800
H  32.88000 7.05600 35.57900
H  31.34700 6.40100 36.31500
Mg 35.39600 47.86500 24.88200
C  35.58900 46.15000 27.95600
C  33.74600 50.54000 26.52100
C  34.77000 49.38800 21.85400
C  36.64400 45.09800 23.36800
N  34.68900 48.22800 26.98800
C  35.00200 47.42300 28.10300
C  34.70100 48.24300 29.36400
C  33.94600 49.48300 28.86500
C  34.15200 49.47900 27.35500
C  32.48000 49.61700 29.38600
C  36.01400 48.50600 30.11900
C  36.10300 47.89200 31.50700
H  35.79700 48.80300 32.76400
N  34.52000 49.82400 24.28500
C  33.94700 50.75800 25.12600
C  33.50700 51.91600 24.33300
C  33.83700 51.62100 22.92300
C  34.40300 50.22700 22.93700
C  32.83600 53.15800 24.95500
C  33.56200 52.42200 21.61200
O  33.80100 52.06800 20.44200
C  33.00200 53.79900 21.72000
N  35.55700 47.24400 22.85800
C  35.31300 48.05900 21.83100
C  35.66800 47.37700 20.52500
C  36.36000 46.06000 21.02700
C  36.16600 46.08900 22.49600
C  34.41600 47.15800 19.66800
C  37.86800 45.95000 20.67600
C  38.80000 46.95400 21.28000
N  36.13000 46.01600 25.49600
C  36.61900 45.03200 24.74300
C  37.19100 43.94600 25.60600
C  36.75500 44.33300 26.87200
C  36.05800 45.56800 26.75500
C  37.80400 42.57600 25.08600
C  36.66600 43.88900 28.25300
O  37.15100 43.00000 28.93400
C  36.06000 45.20700 29.06000
C  34.95900 44.61300 29.79400
O  33.85100 44.31100 29.41300
O  35.37400 44.36200 31.05700
C  34.52200 43.48400 31.86200
H  33.16300 51.33500 26.99000
H  34.57800 49.90000 20.90800
H  37.28600 44.33800 22.91900
H  34.03400 47.59500 29.93100
H  34.38300 50.40100 29.25900
H  31.77200 49.26400 28.63600
H  32.26700 50.66400 29.60500
H  32.32300 49.10900 30.33800
H  36.02900 49.59500 30.12700
H  36.94500 48.16800 29.66500
H  37.00500 47.30300 31.67300
H  35.39100 47.06600 31.50500
H  31.82200 53.25000 24.56500
H  33.35600 54.11300 24.88700
H  32.81700 53.17400 26.04500
H  32.95000 54.31900 20.76400
H  33.69100 54.43000 22.28100
H  32.08900 53.78500 22.31500
H  36.30600 48.02200 19.92100
H  35.88400 45.14500 20.67500
H  34.49000 46.15200 19.25400
H  34.43400 47.80700 18.79300
H  33.49100 47.31800 20.22000
H  37.91300 46.11300 19.59900
H  38.27500 44.96000 20.87700
H  39.67800 47.15700 20.66700
H  39.15300 46.44100 22.17500
H  38.29400 47.89100 21.51000
H  38.70300 42.35400 25.66200
H  37.86900 42.56500 23.99800
H  36.94900 41.96000 25.36400
H  36.83600 45.59800 29.71700
H  33.80600 44.04400 32.46200
H  35.09400 43.02000 32.66500
H  34.05500 42.68800 31.28200

