158

Mg 47.31500 24.47700 28.45000
C  48.10600 26.84800 31.01200
C  46.39800 22.34600 31.06500
C  47.11400 22.10000 26.23500
C  48.51300 26.74000 26.12100
N  47.29900 24.63600 30.75100
C  47.48100 25.68300 31.58700
C  47.12100 25.47800 33.11300
C  46.69600 23.99400 33.00900
C  46.77500 23.62500 31.48100
C  47.70500 23.09900 33.88300
C  46.10300 26.48900 33.64600
C  46.46900 27.18000 34.98100
H  45.34100 27.43800 36.05600
N  46.77300 22.49400 28.58600
C  46.40200 21.84300 29.74300
C  45.89600 20.57000 29.35400
C  46.14400 20.38500 27.99500
C  46.70200 21.66900 27.55200
C  45.23800 19.55300 30.32600
C  45.85100 19.16500 27.12700
O  46.11000 19.09400 25.93200
C  45.16700 17.98000 27.68800
N  47.76500 24.40300 26.42000
C  47.58500 23.28100 25.71100
C  47.72600 23.60800 24.21700
C  48.03600 25.13200 24.28300
C  48.14800 25.44300 25.68300
C  48.89200 22.77500 23.63700
C  47.00100 25.99300 23.55400
C  45.49500 25.70500 23.76700
N  48.09500 26.40800 28.48000
C  48.53300 27.20000 27.41600
C  48.92200 28.43700 27.92400
C  48.76700 28.41600 29.35900
C  48.29700 27.07600 29.62600
C  49.46100 29.52500 27.00800
C  48.94200 29.06900 30.59700
O  49.33200 30.22000 30.80800
C  48.52600 28.09100 31.72600
C  49.70300 27.86600 32.69300
O  50.64400 27.11800 32.39600
O  49.49900 28.45400 33.95600
C  50.68000 28.58700 34.82700
H  46.07200 21.60100 31.79400
H  47.05600 21.29400 25.50100
H  48.66700 27.46000 25.31500
H  48.04000 25.51500 33.69800
H  45.68000 23.86900 33.38400
H  47.93900 23.64500 34.79700
H  48.64300 22.99100 33.33900
H  47.24000 22.13700 34.09800
H  45.11900 26.02800 33.73200
H  45.97500 27.30600 32.93700
H  46.90600 28.13300 34.68000
H  47.28300 26.69700 35.52200
H  44.93700 20.05600 31.24500
H  45.87700 18.72200 30.62500
H  44.27600 19.11200 30.06300
H  45.61100 17.64700 28.62600
H  45.13700 17.17400 26.95500
H  44.10700 18.19500 27.81700
H  46.85100 23.23600 23.68400
H  48.98200 25.26000 23.75700
H  48.32100 22.03600 23.07400
H  49.63900 22.39600 24.33500
H  49.49100 23.35600 22.93700
H  47.33000 25.75900 22.54200
H  47.07000 27.06500 23.74000
H  44.97700 25.23900 22.92900
H  44.93100 26.62100 23.94600
H  45.51000 25.10700 24.67800
H  49.34200 30.48500 27.51200
H  48.90400 29.56000 26.07200
H  50.49500 29.28700 26.76000
H  47.82200 28.66700 32.32600
H  50.64700 27.71800 35.48500
H  50.88600 29.46200 35.44300
H  51.52900 28.39600 34.17100
Mg 9.79400 47.81200 27.87300
C  7.74300 47.10300 30.67800
C  12.36500 48.09900 29.85500
C  11.56400 48.79900 25.15300
C  6.81300 48.23900 26.02000
N  9.97700 47.69800 30.08000
C  9.08100 47.37500 31.06300
C  9.61100 47.53600 32.45800
C  11.06900 47.99400 32.16300
C  11.17600 47.93500 30.57100
C  11.58700 49.44300 32.70500
C  9.40800 46.20100 33.18800
C  10.43000 45.69800 34.28400
H  9.83000 44.98900 35.52700
N  11.69800 48.30400 27.54300
C  12.66900 48.36900 28.48300
C  13.99000 48.51800 27.84300
C  13.79300 48.53700 26.35700
C  12.30900 48.50800 26.28200
C  15.24400 48.40700 28.70000
C  14.75600 48.56200 25.28700
O  14.45000 48.57100 24.10000
C  16.23000 48.39600 25.65300
N  9.18600 48.51600 25.99100
C  10.13500 48.74500 25.03700
C  9.51500 49.13600 23.68300
C  8.06400 48.49100 23.75800
C  7.98400 48.44100 25.34500
C  9.57300 50.68500 23.49000
C  7.95200 47.16400 22.97700
C  6.82700 47.05600 21.88100
N  7.67600 47.65400 28.21100
C  6.64000 47.87700 27.38300
C  5.33300 47.68500 28.09500
C  5.76100 47.27000 29.33400
C  7.19400 47.30400 29.39100
C  4.05300 47.81200 27.51600
C  5.22900 46.89400 30.62200
O  4.10800 46.58000 31.05700
C  6.55100 46.75900 31.58800
C  6.45400 45.35300 32.12400
O  7.13300 44.41000 31.69800
O  5.65500 45.34000 33.20600
C  5.55300 44.18500 34.08200
H  13.20800 48.18800 30.54300
H  12.21200 49.04400 24.30900
H  5.92300 48.34200 25.39600
H  9.09000 48.25400 33.09100
H  11.65600 47.16400 32.55600
H  11.73400 50.03000 31.79900
H  12.51500 49.36000 33.27200
H  10.85100 50.00000 33.28500
H  9.14100 45.40700 32.49100
H  8.46300 46.26100 33.72800
H  10.97600 46.56100 34.66700
H  11.06100 44.92300 33.84800
H  15.88900 47.58600 28.38500
H  15.07400 48.06400 29.72000
H  15.78900 49.35100 28.71000
H  16.39400 49.11300 26.45700
H  16.85600 48.75600 24.83600
H  16.33400 47.34600 25.92500
H  10.08700 48.75300 22.83800
H  7.27800 49.18300 23.45500
H  8.85700 51.10000 22.78100
H  10.55000 50.91300 23.06400
H  9.44500 51.16600 24.45900
H  7.82400 46.40300 23.74700
H  8.88900 46.98300 22.45100
H  5.99900 46.41500 22.18200
H  7.22300 46.69700 20.93100
H  6.37000 48.01800 21.64700
H  3.32800 47.69200 28.32100
H  3.79700 47.00000 26.83700
H  3.98100 48.81700 27.10000
H  6.49100 47.40300 32.46500
H  5.48900 44.62200 35.07900
H  6.29200 43.38400 34.08600
H  4.53900 43.79600 33.99700

