158

Mg -2.08700 17.96800 26.71500
C  -2.87400 15.82300 29.64200
C  -3.14900 20.69100 28.68000
C  -1.83500 19.90400 24.03800
C  -2.20400 15.06300 24.77200
N  -2.68900 18.16200 28.97300
C  -3.01300 17.18200 29.85000
C  -3.35800 17.88600 31.18900
C  -3.87500 19.29800 30.74400
C  -3.18200 19.40300 29.39500
C  -5.44700 19.34900 30.71700
C  -2.16300 17.97700 32.09900
C  -2.49700 17.59900 33.51600
H  -1.34000 17.38700 34.47300
N  -2.18000 20.07000 26.43400
C  -2.63200 20.98300 27.37400
C  -2.41600 22.30900 26.74800
C  -2.11300 22.16400 25.36300
C  -2.10300 20.67200 25.21600
C  -2.87600 23.61600 27.42600
C  -1.86800 23.18100 24.25300
O  -1.74000 22.83800 23.06700
C  -1.72700 24.54500 24.60800
N  -2.09400 17.48800 24.69100
C  -1.93200 18.48900 23.83400
C  -1.75500 17.94000 22.42700
C  -1.64500 16.42600 22.68900
C  -2.01500 16.26900 24.11700
C  -2.90900 18.29600 21.51600
C  -0.24100 15.76500 22.39900
C  -0.01800 15.52600 20.93800
N  -2.47900 15.84800 27.06900
C  -2.31900 14.79400 26.18700
C  -2.47800 13.56600 26.91500
C  -2.72800 13.93500 28.27200
C  -2.68700 15.31200 28.29600
C  -2.60100 12.15200 26.38600
C  -2.92600 13.39700 29.56200
O  -2.98700 12.23300 29.89300
C  -3.12800 14.61500 30.47600
C  -2.12400 14.45700 31.60500
O  -0.94600 14.82600 31.58600
O  -2.61000 13.73800 32.67100
C  -1.63000 13.39000 33.80900
H  -3.46600 21.49000 29.35300
H  -1.56900 20.45100 23.13100
H  -1.92700 14.20400 24.15700
H  -4.08500 17.25700 31.70200
H  -3.44200 20.00600 31.45100
H  -5.81200 20.09000 31.42700
H  -5.83400 18.35100 30.92600
H  -5.82100 19.59800 29.72400
H  -1.71700 18.97100 32.06700
H  -1.37000 17.34700 31.69600
H  -3.06900 16.68200 33.37600
H  -3.12800 18.30000 34.06300
H  -2.08000 24.34700 27.28600
H  -2.89800 23.59000 28.51500
H  -3.85800 23.77600 26.98000
H  -1.38700 25.13000 23.75400
H  -0.89000 24.53400 25.30600
H  -2.66200 24.83400 25.08800
H  -0.81000 18.34700 22.06800
H  -2.36300 15.85300 22.10200
H  -3.77500 17.65400 21.67500
H  -2.61000 18.21000 20.47100
H  -3.24400 19.32300 21.66400
H  0.00600 14.86200 22.95700
H  0.45000 16.56500 22.66700
H  0.47600 14.55600 20.88300
H  0.61400 16.33500 20.57000
H  -0.96900 15.40700 20.41900
H  -1.63300 11.65100 26.40900
H  -3.01800 12.12800 25.37900
H  -3.28300 11.55500 26.99100
H  -4.17100 14.54700 30.78600
H  -1.79800 14.02800 34.67600
H  -0.60400 13.39500 33.44000
H  -1.90500 12.38800 34.14000
Mg 2.27300 -1.52500 44.70500
C  5.55200 -0.67100 44.34700
C  1.52200 0.89800 42.20100
C  -0.86300 -2.58600 44.66700
C  3.34500 -4.55100 46.26200
N  3.42500 -0.24300 43.29700
C  4.79800 -0.01200 43.36600
C  5.32000 1.02100 42.38500
C  3.97000 1.50400 41.72600
C  2.89900 0.72300 42.48400
C  3.86600 3.03900 41.76900
C  6.48100 0.43200 41.43000
C  7.78100 1.22100 41.36200
H  8.28100 1.55200 39.95300
N  0.52600 -0.75000 43.79200
C  0.43500 0.19300 42.80000
C  -0.93400 0.49700 42.52400
C  -1.67100 -0.56700 43.18100
C  -0.70100 -1.35600 43.97000
C  -1.45900 1.56500 41.64000
C  -3.32500 -0.65600 43.02000
O  -3.99600 0.18500 42.41300
C  -4.05800 -1.84800 43.72500
N  1.38200 -3.37000 45.28700
C  0.03400 -3.41900 45.31400
C  -0.43500 -4.78900 45.87500
C  0.90500 -5.34400 46.45700
C  1.97200 -4.38000 45.99700
C  -1.73100 -4.98200 46.67300
C  1.30200 -6.80900 46.25600
C  1.65200 -7.80400 47.40400
N  4.05700 -2.48000 45.33200
C  4.30300 -3.60700 46.03900
C  5.66000 -3.57600 46.40600
C  6.20100 -2.40900 45.85000
C  5.15900 -1.82700 45.16700
C  6.51200 -4.57500 47.24300
C  7.35700 -1.57800 45.74000
O  8.50000 -1.74200 46.18000
C  6.94600 -0.36000 44.71400
C  7.10500 0.90500 45.38500
O  6.43800 1.31700 46.33700
O  8.21800 1.57300 44.88500
C  8.61600 2.86400 45.42100
H  1.24700 1.68500 41.49500
H  -1.89600 -2.92200 44.77800
H  3.68400 -5.40500 46.85100
H  5.56300 1.85300 43.04700
H  4.13600 1.24800 40.67900
H  4.77200 3.58200 42.03900
H  3.12300 3.14800 42.55900
H  3.53400 3.43700 40.81100
H  6.06100 0.14700 40.46500
H  6.72100 -0.54600 41.84700
H  8.56300 0.74600 41.95400
H  7.75900 2.16400 41.90800
H  -1.82200 2.41400 42.21900
H  -2.23700 1.19400 40.97300
H  -0.77200 1.89600 40.86000
H  -5.09400 -1.88400 43.38800
H  -4.03300 -1.82500 44.81500
H  -3.57400 -2.76400 43.38800
H  -0.50300 -5.32800 44.93000
H  0.91300 -5.19700 47.53700
H  -2.29500 -4.10400 46.98800
H  -1.65600 -5.70000 47.49000
H  -2.51400 -5.34700 46.00800
H  2.08600 -6.90900 45.50400
H  0.38000 -7.23100 45.85600
H  2.62600 -8.26000 47.22000
H  0.91900 -8.60800 47.46900
H  1.56600 -7.35300 48.39200
H  5.88300 -5.27200 47.79700
H  7.19500 -3.94300 47.80900
H  7.14200 -5.09300 46.51900
H  7.57900 -0.47100 43.83400
H  9.30300 3.23000 44.65800
H  8.98200 2.76600 46.44200
H  7.80100 3.58000 45.53200

