158

Mg 28.13400 56.26700 40.27100
C  25.63000 53.74200 39.82700
C  30.47400 54.06600 39.43500
C  30.13500 58.80000 40.55600
C  25.21100 58.48200 40.62900
N  27.96900 54.30400 39.44300
C  26.90600 53.42600 39.38700
C  27.38300 52.03900 38.82200
C  28.94900 52.04600 39.08100
C  29.18800 53.57000 39.45200
C  29.44300 51.11500 40.20800
C  27.01600 51.83700 37.33500
C  26.79300 53.03900 36.37600
H  27.40800 52.83300 34.98000
N  30.08600 56.39000 39.93700
C  30.91200 55.38200 39.66300
C  32.25600 55.90900 39.61900
C  32.13600 57.31100 39.86500
C  30.71700 57.51800 40.15900
C  33.40400 54.97300 39.25000
C  33.25800 58.29600 39.63500
O  34.38800 57.92700 39.64000
C  33.00200 59.72300 39.36800
N  27.73700 58.29500 40.47300
C  28.81100 59.10500 40.72900
C  28.31100 60.57400 40.93800
C  26.80400 60.46100 40.56800
C  26.54200 58.97300 40.60700
C  28.62200 61.15900 42.23900
C  26.28900 61.12300 39.18900
C  25.16300 62.17100 39.32800
N  25.87200 56.14400 40.41000
C  24.93200 57.13300 40.55500
C  23.61000 56.53900 40.56700
C  23.82400 55.15500 40.42800
C  25.20200 55.01000 40.20800
C  22.31400 57.06300 40.78900
C  23.28300 53.77900 40.41500
O  22.17800 53.35500 40.72600
C  24.42100 52.84200 39.96300
C  24.51800 51.74800 40.96200
O  24.34700 50.53300 40.67600
O  25.04500 52.22100 42.15500
C  25.53100 51.18900 43.06600
H  31.15900 53.21700 39.38200
H  30.74500 59.67400 40.79400
H  24.35300 59.14400 40.76600
H  26.86100 51.33100 39.46500
H  29.60000 51.82200 38.23600
H  29.87800 51.83400 40.90200
H  30.25300 50.46300 39.87900
H  28.66200 50.55900 40.72600
H  26.15100 51.17700 37.26900
H  27.79500 51.16600 36.97300
H  27.30000 53.90500 36.80200
H  25.73700 53.29700 36.29900
H  33.78700 55.18000 38.25100
H  33.00300 53.96300 39.33900
H  34.18000 55.10500 40.00300
H  32.73400 60.27900 40.26700
H  32.10400 59.79900 38.75500
H  33.84200 60.11300 38.79400
H  28.88700 61.04100 40.14000
H  26.24900 60.87500 41.41000
H  29.62400 61.58500 42.19300
H  28.62600 60.36400 42.98400
H  27.92800 61.96600 42.47600
H  26.09200 60.28800 38.51600
H  27.10000 61.65700 38.69400
H  24.41700 62.10600 38.53600
H  25.71700 63.10900 39.29300
H  24.69500 62.15500 40.31300
H  21.57200 56.51900 40.20400
H  22.28000 58.13000 40.56700
H  21.98800 56.89400 41.81500
H  24.11100 52.33900 39.04800
H  24.81100 50.98600 43.86000
H  26.39700 51.58700 43.59500
H  25.79100 50.23200 42.61500
Mg 26.84000 49.15700 26.31500
C  25.08000 50.98600 28.82400
C  28.88400 47.96300 28.74700
C  28.91500 48.28700 23.90000
C  24.97300 50.87600 24.06400
N  26.85100 49.28700 28.60600
C  25.98700 50.05800 29.35500
C  26.21600 49.78200 30.89500
C  27.64200 49.00100 30.81600
C  27.80600 48.71900 29.34400
C  28.86500 49.84500 31.37900
C  25.01600 49.03000 31.40800
C  24.54100 49.52500 32.83700
H  24.21600 48.52100 33.96000
N  28.57500 48.15500 26.38500
C  29.22600 47.64400 27.45100
C  30.44100 46.95800 27.01500
C  30.49900 47.18000 25.58100
C  29.28600 47.92900 25.21700
C  31.38900 46.27900 27.91400
C  31.64400 46.72700 24.68900
O  31.60500 47.02100 23.49500
C  32.87100 45.93900 25.26600
N  26.98600 49.69900 24.24100
C  27.82100 48.97300 23.41500
C  27.46900 49.15300 21.89500
C  26.03700 49.92000 22.02000
C  25.92800 50.07800 23.52900
C  28.46600 49.78300 20.90300
C  24.79400 49.16200 21.45900
C  24.33500 47.88600 22.23800
N  25.25000 50.64900 26.36600
C  24.64000 51.25200 25.33900
C  23.55500 52.13500 25.86700
C  23.70300 52.00000 27.22800
C  24.81100 51.17500 27.43900
C  22.64800 52.93000 24.95600
C  23.15200 52.46400 28.55600
O  22.14400 53.16600 28.92800
C  24.03500 51.83800 29.62100
C  24.56600 52.89400 30.55300
O  25.24100 53.86800 30.27900
O  23.83600 52.79100 31.74000
C  23.70500 53.87000 32.74700
H  29.54400 47.50300 29.48600
H  29.61200 47.82300 23.19900
H  24.39900 51.36000 23.27000
H  26.36700 50.64800 31.54000
H  27.74500 48.06100 31.35900
H  28.55200 50.81300 31.77000
H  29.58300 50.04200 30.58400
H  29.31200 49.19500 32.13200
H  25.31100 47.99200 31.55900
H  24.21300 49.06800 30.67200
H  23.53700 49.90700 32.65100
H  25.22300 50.27600 33.23400
H  31.46300 45.25500 27.55000
H  30.95300 46.28900 28.91300
H  32.31300 46.82700 28.10300
H  33.43000 46.53000 25.99000
H  33.52100 45.72200 24.41800
H  32.40900 45.06800 25.73000
H  27.39500 48.13500 21.51300
H  26.20200 50.89700 21.56700
H  29.26700 50.30000 21.43100
H  27.86400 50.57200 20.45400
H  28.83800 49.08500 20.15200
H  24.99700 48.85400 20.43300
H  23.90200 49.78000 21.35100
H  24.56100 47.08400 21.53600
H  23.25100 47.98700 22.28500
H  24.96000 47.68500 23.10900
H  21.98600 53.46500 25.63700
H  22.00000 52.25800 24.39300
H  23.24100 53.57500 24.30700
H  23.54300 51.04900 30.19000
H  24.19600 53.44100 33.62000
H  22.68700 54.08200 33.07600
H  24.22900 54.74200 32.35600

