158

Mg -11.22300 39.93000 39.02300
C  -10.40100 36.40200 38.81800
C  -7.85200 40.48600 38.79500
C  -12.05800 42.99700 38.35600
C  -14.59300 38.87600 39.14700
N  -9.37900 38.52500 38.96000
C  -9.26100 37.18300 38.86500
C  -7.84600 36.71700 38.76400
C  -7.03700 38.06200 39.02000
C  -8.12800 39.12700 38.88400
C  -6.14900 37.98600 40.29600
C  -7.59400 36.06400 37.31100
C  -7.86900 36.88100 36.00200
H  -8.92000 36.49300 34.95200
N  -10.04900 41.62600 38.60400
C  -8.66800 41.66500 38.61300
C  -8.29000 43.05600 38.37100
C  -9.51300 43.79200 38.24700
C  -10.63200 42.82800 38.35200
C  -6.85100 43.57800 38.31700
C  -9.64400 45.30900 38.03800
O  -8.63300 46.06800 38.09300
C  -10.97400 45.98100 37.84000
N  -13.10100 40.81800 38.79400
C  -13.17400 42.15000 38.49400
C  -14.63900 42.65600 38.58800
C  -15.43900 41.37600 38.92100
C  -14.34700 40.27000 38.98000
C  -14.96800 43.90800 39.55700
C  -16.55100 41.00700 37.86500
C  -17.92200 40.65500 38.46400
N  -12.29400 38.13600 39.13300
C  -13.64400 37.79600 39.06400
C  -13.90500 36.48500 38.99600
C  -12.67000 35.84900 38.88500
C  -11.71200 36.90200 38.96100
C  -15.23400 35.81800 39.20000
C  -12.00200 34.53800 38.73500
O  -12.39200 33.37300 38.59900
C  -10.52900 34.94900 38.72700
C  -9.89300 34.18200 39.80100
O  -10.12800 34.25400 40.97600
O  -9.04700 33.29800 39.17400
C  -8.27500 32.55600 40.18600
H  -6.80600 40.79400 38.73300
H  -12.42500 43.99200 38.09600
H  -15.63000 38.53600 39.10000
H  -7.59000 35.95200 39.49700
H  -6.40800 38.23100 38.14700
H  -5.09900 38.00800 40.00600
H  -6.20300 37.03200 40.82100
H  -6.51600 38.75800 40.97200
H  -8.21000 35.16600 37.26800
H  -6.57000 35.70600 37.20400
H  -6.96000 36.85400 35.40200
H  -8.17500 37.91800 36.14100
H  -6.16800 42.78200 38.01900
H  -6.49900 43.93000 39.28600
H  -6.70800 44.46700 37.70300
H  -11.46200 45.81100 38.79900
H  -11.52200 45.75200 36.92500
H  -10.79000 47.05500 37.86700
H  -14.79600 42.89900 37.53700
H  -15.89900 41.36600 39.91000
H  -15.66100 43.59900 40.33900
H  -15.47400 44.68800 38.98800
H  -14.06700 44.33500 39.99800
H  -16.17700 40.08500 37.41900
H  -16.50400 41.73800 37.05800
H  -17.92000 40.93600 39.51700
H  -18.10300 39.58000 38.46400
H  -18.74300 41.11500 37.91300
H  -15.61000 35.77500 38.17800
H  -15.80600 36.45900 39.87000
H  -15.00700 34.82900 39.59800
H  -10.13200 34.47900 37.82700
H  -8.77300 31.59900 40.33800
H  -8.12600 32.98600 41.17600
H  -7.34600 32.15900 39.77700
Mg -10.45800 16.80800 41.44600
C  -7.00200 16.88000 41.56000
C  -10.49300 20.25800 40.85400
C  -13.87300 16.74300 40.86500
C  -10.38000 13.35100 41.57300
N  -8.87400 18.32900 41.00500
C  -7.50700 18.20200 41.15700
C  -6.81500 19.56900 40.94700
C  -7.97000 20.51700 41.35500
C  -9.22300 19.67300 41.02100
C  -8.05800 20.95100 42.85200
C  -6.18200 19.95000 39.58000
C  -4.80900 19.31700 39.25000
H  -4.71500 18.29200 38.15800
N  -11.99500 18.29900 40.84300
C  -11.76900 19.61800 40.79100
C  -13.02100 20.27600 40.51100
C  -14.01200 19.34000 40.72700
C  -13.33900 18.05900 40.80400
C  -13.08700 21.75700 40.14000
C  -15.41600 19.51900 40.72400
O  -15.84200 20.63900 40.70300
C  -16.45500 18.45700 40.91500
N  -11.83600 15.28200 41.09200
C  -13.15700 15.51000 40.91900
C  -13.98800 14.14600 40.96200
C  -12.93400 13.14100 41.37100
C  -11.63400 13.93400 41.25200
C  -15.42000 14.01000 41.58900
C  -13.02800 11.77700 40.57400
C  -13.25900 10.43500 41.27200
N  -9.02400 15.38400 41.68100
C  -9.10500 14.01900 41.60700
C  -7.81700 13.43100 42.05000
C  -6.94200 14.51200 41.91700
C  -7.74100 15.67800 41.69800
C  -7.50800 11.99200 42.16000
C  -5.50200 14.94800 42.02400
O  -4.48200 14.29700 42.36600
C  -5.49800 16.46700 41.78900
C  -4.88500 17.10200 43.00000
O  -3.66400 17.30700 43.19700
O  -5.84800 17.51300 43.88500
C  -5.61000 18.10800 45.20700
H  -10.40900 21.34600 40.88600
H  -14.92500 16.69400 40.57600
H  -10.40300 12.26300 41.67300
H  -6.01800 19.70300 41.67800
H  -7.86800 21.37100 40.68400
H  -8.38300 21.97400 42.66400
H  -7.04800 20.95800 43.26100
H  -8.69500 20.22000 43.35000
H  -6.19400 21.03600 39.48600
H  -6.94200 19.75300 38.82300
H  -4.43200 18.94300 40.20200
H  -4.06900 20.08200 39.01700
H  -12.49500 22.36100 40.82700
H  -14.10700 22.13500 40.07400
H  -12.80100 21.90300 39.09900
H  -17.35900 18.89800 41.33500
H  -16.10400 17.85400 41.75300
H  -16.58700 17.95300 39.95800
H  -14.15900 13.98100 39.89800
H  -13.02000 12.79300 42.40000
H  -15.50800 13.00300 41.99500
H  -16.22100 14.16800 40.86700
H  -15.59200 14.74900 42.37200
H  -12.16300 11.65400 39.92200
H  -13.80900 11.92800 39.82800
H  -14.28400 10.29600 41.61800
H  -12.79800 10.48500 42.25800
H  -12.94800 9.50000 40.80700
H  -6.48700 11.86500 42.52100
H  -7.55800 11.69100 41.11300
H  -8.21600 11.43500 42.77300
H  -4.91200 16.68900 40.89700
H  -4.62600 17.76500 45.52600
H  -6.37500 17.89800 45.95400
H  -5.42100 19.17800 45.12400

