158

Mg 29.93000 59.65100 39.43800
C  27.42100 57.26500 38.43800
C  32.31300 57.29300 38.51800
C  32.20400 62.10300 39.76600
C  27.28300 62.08000 39.48900
N  29.87300 57.47600 38.61800
C  28.74800 56.70200 38.32100
C  29.12100 55.35000 37.71700
C  30.61300 55.28000 38.26900
C  30.98200 56.79200 38.41600
C  30.82300 54.38700 39.51800
C  28.94100 55.27700 36.12000
C  27.78000 54.41300 35.49500
H  26.90100 55.07800 34.46000
N  31.94500 59.71100 39.16700
C  32.78300 58.64100 38.72000
C  34.21700 59.13400 38.64100
C  34.19900 60.49900 39.21200
C  32.76300 60.86400 39.39000
C  35.30400 58.24200 38.25000
C  35.47600 61.30400 39.48700
O  36.61800 60.86700 39.24100
C  35.42900 62.68200 40.11200
N  29.72700 61.69800 39.72200
C  30.83700 62.48400 39.87200
C  30.41400 63.96700 40.08800
C  28.86400 63.90600 39.96200
C  28.60200 62.41800 39.80100
C  31.07200 64.79700 41.32400
C  28.29000 64.80500 38.83200
C  27.20300 65.80000 39.19300
N  27.74000 59.71100 39.22100
C  26.89600 60.77800 39.30500
C  25.56900 60.23900 39.06800
C  25.70300 58.92300 38.76800
C  27.04000 58.60500 38.79300
C  24.30300 61.02900 39.06300
C  24.98300 57.66600 38.42800
O  23.83200 57.38400 38.25800
C  26.04900 56.59600 38.11500
C  25.84300 55.38700 38.94700
O  25.92200 55.34600 40.18000
O  25.30000 54.33900 38.18100
C  24.84800 53.23100 38.94500
H  33.00400 56.49800 38.22800
H  32.82700 62.98600 39.92000
H  26.53500 62.87300 39.42500
H  28.47500 54.69900 38.30700
H  31.39900 54.94000 37.59500
H  30.54000 53.34800 39.35200
H  30.14500 54.66200 40.32600
H  31.83800 54.46000 39.91000
H  29.91200 54.86300 35.84800
H  28.87400 56.31000 35.77900
H  27.15900 54.02100 36.30000
H  28.17100 53.51800 35.01300
H  35.63300 58.46000 37.23400
H  34.93900 57.21900 38.34600
H  36.12400 58.13400 38.96100
H  34.71500 62.59300 40.93200
H  35.14100 63.46600 39.41200
H  36.41000 62.90600 40.53200
H  30.82500 64.45500 39.20400
H  28.41300 64.13800 40.92600
H  31.37600 64.03900 42.04600
H  30.23900 65.36800 41.73400
H  31.99500 65.30900 41.05100
H  27.90700 64.09500 38.09900
H  29.08400 65.29100 38.26500
H  27.57900 66.80600 39.00900
H  27.04700 65.83700 40.27200
H  26.26000 65.61800 38.67700
H  24.34200 61.71700 38.21800
H  24.11200 61.54600 40.00400
H  23.37100 60.48900 38.90000
H  26.08800 56.23500 37.08700
H  24.82000 52.32600 38.33700
H  23.85900 53.44400 39.35000
H  25.40800 52.87100 39.80800
Mg -12.11500 16.08900 42.28100
C  -9.29300 14.18100 41.64100
C  -10.78400 18.75000 40.38600
C  -15.21600 17.59500 42.13200
C  -13.73100 13.09100 43.26600
N  -10.25000 16.30600 41.07400
C  -9.24300 15.38900 40.90500
C  -8.09400 15.94000 40.19500
C  -8.47500 17.40200 39.80300
C  -9.96000 17.55300 40.42300
C  -7.48300 18.34000 40.41200
C  -7.69100 15.01300 39.03700
C  -6.19600 14.59500 38.85000
H  -5.47400 15.28000 37.63000
N  -12.82200 18.01700 41.63400
C  -12.10800 19.00100 40.97400
C  -12.92900 20.15600 40.79200
C  -14.23800 19.85800 41.30600
C  -14.16700 18.42200 41.72700
C  -12.40100 21.52300 40.11400
C  -15.36200 20.81700 41.45800
O  -15.14000 21.95000 41.16600
C  -16.69500 20.46900 41.84000
N  -14.22100 15.52100 42.75300
C  -15.30800 16.26200 42.55800
C  -16.67500 15.49300 42.71800
C  -16.12600 14.12100 43.17600
C  -14.55100 14.25200 43.08900
C  -17.86700 16.09200 43.55800
C  -16.59600 12.89900 42.28900
C  -16.90400 11.56100 43.01200
N  -11.58900 14.08600 42.62900
C  -12.30800 13.02700 43.07200
C  -11.43200 11.91600 43.37200
C  -10.13900 12.35200 42.85400
C  -10.35800 13.64000 42.35700
C  -11.89700 10.56700 43.72500
C  -8.83400 11.95600 42.63400
O  -8.18300 10.94800 42.90100
C  -8.23500 13.14800 41.82000
C  -7.00800 13.59100 42.49900
O  -6.94600 14.18300 43.52700
O  -5.85600 13.17800 41.79700
C  -4.63200 13.73300 42.34800
H  -10.35700 19.55000 39.77800
H  -16.20100 18.02200 41.93000
H  -14.23400 12.15400 43.51100
H  -7.23700 15.96000 40.86800
H  -8.66000 17.67600 38.76400
H  -6.97200 17.93800 41.28700
H  -8.04600 19.17500 40.82900
H  -6.76500 18.56800 39.62500
H  -7.92900 15.43500 38.06100
H  -8.23600 14.07600 39.14800
H  -6.05300 13.51600 38.79200
H  -5.72000 14.96900 39.75700
H  -12.75800 22.43100 40.59900
H  -12.56000 21.49100 39.03600
H  -11.33700 21.56000 40.34800
H  -17.40700 21.29400 41.80000
H  -16.68700 19.95100 42.79900
H  -17.14600 19.81200 41.09700
H  -17.02000 15.40700 41.68700
H  -16.44000 13.90400 44.19700
H  -18.35400 15.27000 44.08300
H  -18.46800 16.61200 42.81300
H  -17.64600 16.96100 44.17900
H  -15.85500 12.69800 41.51500
H  -17.48300 13.18300 41.72300
H  -17.98200 11.40400 43.03100
H  -16.60600 11.67600 44.05500
H  -16.50100 10.63500 42.60100
H  -11.06100 9.91000 43.48800
H  -12.80200 10.32000 43.17000
H  -12.36200 10.55900 44.71000
H  -7.97900 12.74200 40.84200
H  -4.68500 14.81300 42.20900
H  -3.70500 13.39700 41.88500
H  -4.46100 13.50300 43.39900

