158

Mg 45.70400 3.50500 48.53600
C  43.76700 6.24300 47.39500
C  42.85600 1.55700 47.85200
C  47.54800 0.74200 48.88400
C  48.42700 5.53500 48.80600
N  43.47200 3.89500 47.66600
C  42.97200 5.06600 47.35100
C  41.53100 4.92800 46.84800
C  41.31800 3.43100 46.98400
C  42.62700 2.88700 47.59100
C  40.07300 3.03800 47.84600
C  41.17900 5.53100 45.43400
C  39.85100 6.26000 45.29600
H  39.07400 6.01300 43.98700
N  45.29000 1.37900 48.34400
C  44.04900 0.83000 48.12200
C  44.21000 -0.64100 48.13000
C  45.59600 -0.89800 48.43700
C  46.23200 0.42200 48.62600
C  43.06500 -1.64600 47.89100
C  46.18100 -2.28800 48.57000
O  45.54300 -3.33800 48.32100
C  47.54300 -2.55300 49.00700
N  47.75300 3.16200 48.65000
C  48.26000 1.92700 48.87100
C  49.74400 2.04900 49.24400
C  50.03800 3.65400 49.26400
C  48.72700 4.16100 48.88600
C  50.21700 1.28500 50.53400
C  51.04600 4.17400 48.22700
C  52.31200 4.96200 48.68900
N  46.11800 5.46300 48.22500
C  47.28500 6.22600 48.41500
C  47.07500 7.54800 48.27000
C  45.67900 7.58200 47.89300
C  45.10600 6.31000 47.88600
C  47.96500 8.68500 48.26300
C  44.59600 8.55400 47.53700
O  44.60900 9.79000 47.42100
C  43.36200 7.68500 47.31800
C  42.22500 8.01300 48.23000
O  41.79900 7.34700 49.17600
O  41.57600 9.23300 47.86500
C  40.44100 9.82900 48.59100
H  42.01500 0.93200 47.54500
H  48.21200 -0.12000 48.96700
H  49.22500 6.25200 49.00600
H  40.97000 5.50000 47.58600
H  41.28200 2.83700 46.07000
H  39.41400 3.90200 47.76100
H  40.45700 2.86200 48.85000
H  39.57900 2.18300 47.38300
H  41.14600 4.75000 44.67400
H  41.98800 6.16200 45.06500
H  40.08100 7.30400 45.50600
H  39.27500 6.09700 46.20700
H  42.50000 -1.36900 47.00100
H  42.34900 -1.63700 48.71300
H  43.40400 -2.67800 47.80000
H  48.27100 -2.19100 48.28100
H  47.59800 -3.63700 49.10400
H  47.76900 -2.04500 49.94500
H  50.30300 1.67200 48.38700
H  50.16300 3.98300 50.29600
H  50.67200 2.01200 51.20700
H  50.96500 0.51100 50.36200
H  49.28200 0.99800 51.01700
H  50.53700 4.73700 47.44500
H  51.60300 3.40100 47.69700
H  52.45200 5.03600 49.76800
H  52.15400 5.96000 48.28000
H  53.25200 4.58000 48.29000
H  47.56300 9.41200 47.55800
H  48.96700 8.38300 47.95800
H  47.97000 9.12400 49.26100
H  43.07300 7.78900 46.27200
H  40.28600 9.21700 49.48100
H  39.49700 9.79100 48.04600
H  40.69900 10.85100 48.86700
Mg 49.61600 46.17100 41.98100
C  46.17000 46.49400 41.05700
C  49.66400 43.22100 40.19600
C  52.81400 46.09800 42.47800
C  49.45500 49.62500 42.75200
N  48.07600 45.18200 40.61800
C  46.78400 45.38800 40.52400
C  46.14400 44.32500 39.60100
C  47.18000 43.20400 39.54300
C  48.40900 43.93600 40.12600
C  46.71100 42.01200 40.48500
C  45.67100 44.89700 38.22400
C  44.33300 44.32900 37.60700
H  44.42400 43.39800 36.44900
N  51.09800 44.73200 41.53700
C  50.95900 43.55100 40.84600
C  52.19300 42.82200 40.86400
C  53.13000 43.63000 41.58200
C  52.39500 44.90900 41.85100
C  52.25400 41.38000 40.38400
C  54.53600 43.26700 41.94200
O  54.98100 42.19100 41.52600
C  55.34300 44.00600 42.92200
N  50.90300 47.64200 42.67900
C  52.24000 47.33400 42.74900
C  53.05300 48.63300 42.98200
C  51.96900 49.76400 42.89300
C  50.72400 49.01300 42.70300
C  53.77600 48.47000 44.39600
C  52.16300 50.81000 41.70900
C  51.79300 52.30800 41.96400
N  48.16100 47.74600 41.99600
C  48.21200 49.05100 42.43300
C  46.87200 49.69900 42.34000
C  46.05200 48.61700 41.97500
C  46.87600 47.54300 41.63000
C  46.46500 51.16500 42.58300
C  44.64500 48.37700 41.62400
O  43.61700 49.02800 41.68000
C  44.68200 46.94000 40.98200
C  43.73300 46.12600 41.91500
O  44.15800 45.62800 42.97400
O  42.57000 45.91100 41.29100
C  41.51400 45.20800 42.06300
H  49.71900 42.29000 39.62700
H  53.90600 46.12100 42.48600
H  49.32800 50.69300 42.94000
H  45.28500 44.00500 40.19100
H  47.41400 42.84400 38.54200
H  45.71800 41.68000 40.18200
H  46.71600 42.34200 41.52300
H  47.45700 41.21700 40.48100
H  46.48200 44.71900 37.51700
H  45.59400 45.98400 38.26800
H  43.84900 45.27300 37.35700
H  43.89600 43.85700 38.48600
H  52.60600 41.44300 39.35400
H  51.29500 40.91100 40.60400
H  53.01400 40.77500 40.87900
H  54.82800 44.32700 43.82700
H  55.86400 44.81200 42.40500
H  56.00300 43.26900 43.37900
H  53.87900 48.87400 42.31300
H  51.89100 50.12100 43.92000
H  53.35200 49.16300 45.12300
H  54.81400 48.80000 44.36200
H  53.71300 47.50400 44.89800
H  51.52100 50.47900 40.89200
H  53.20800 50.92400 41.42200
H  51.45900 52.30400 43.00200
H  50.88300 52.70200 41.51100
H  52.57200 53.06800 42.01100
H  46.14700 51.57500 41.62500
H  47.33000 51.72200 42.94400
H  45.63200 51.01100 43.26900
H  44.27100 46.95400 39.97200
H  41.96300 44.46300 42.72100
H  40.86600 44.65700 41.38200
H  41.08700 45.99400 42.68500

