158

Mg 49.46300 35.43000 26.77600
C  47.43900 33.98700 29.17200
C  49.22300 38.52500 28.53000
C  50.93900 37.05100 24.15300
C  49.06400 32.61900 24.91300
N  48.47000 36.18600 28.56800
C  47.84700 35.29900 29.49500
C  47.85300 35.99900 30.88600
C  48.12800 37.44000 30.60700
C  48.63600 37.37600 29.15200
C  46.93300 38.43500 30.82200
C  49.08600 35.43700 31.62500
C  49.09600 35.30900 33.18800
H  47.95300 36.14800 33.76200
N  50.10800 37.42800 26.52100
C  49.92500 38.48300 27.34600
C  50.72500 39.62900 26.79300
C  51.30300 39.17500 25.62200
C  50.77100 37.85600 25.41600
C  50.76800 40.91100 27.53500
C  52.26100 39.92800 24.67500
O  52.74400 39.39200 23.66300
C  52.82300 41.27800 25.07500
N  49.90800 34.91900 24.81700
C  50.65300 35.70400 23.92900
C  50.87600 35.03600 22.54700
C  50.58800 33.54000 22.97100
C  49.73600 33.64200 24.26300
C  50.12500 35.59400 21.43100
C  51.86900 32.56300 23.16500
C  51.76500 31.14700 22.62500
N  48.49400 33.61800 26.97500
C  48.48500 32.54400 26.14600
C  47.52400 31.60000 26.57600
C  47.12600 32.10600 27.85000
C  47.71700 33.34700 27.98800
C  47.12400 30.25600 26.00600
C  46.29800 31.82000 29.01700
O  45.64600 30.84200 29.36100
C  46.41000 33.09700 29.95100
C  46.81800 32.69700 31.28300
O  47.90900 32.39100 31.71800
O  45.67700 32.68600 32.00600
C  45.69400 32.32000 33.40500
H  49.29300 39.45300 29.10100
H  51.35200 37.42700 23.21500
H  48.92500 31.78300 24.22400
H  46.90900 35.85500 31.41000
H  48.92300 37.78800 31.26600
H  47.15000 38.91300 31.77700
H  45.97100 37.93500 30.70800
H  46.88300 39.21800 30.06500
H  49.96400 36.05800 31.44400
H  49.31000 34.46100 31.19300
H  50.05400 35.64100 33.58700
H  48.89300 34.29900 33.54400
H  50.68400 41.78800 26.89400
H  51.76900 40.84900 27.96300
H  50.01200 41.06100 28.30600
H  53.47200 41.64600 24.28000
H  53.35800 41.01000 25.98600
H  52.07100 42.06100 25.17600
H  51.94400 35.09400 22.33500
H  49.89800 33.14400 22.22600
H  49.62600 36.51700 21.72600
H  49.38200 34.89600 21.04500
H  50.81600 35.97400 20.67800
H  52.15200 32.41500 24.20700
H  52.57000 33.12700 22.55000
H  50.72800 30.92500 22.37400
H  52.17000 30.49400 23.39800
H  52.26400 31.07400 21.65800
H  47.96100 29.81400 25.46600
H  46.24900 30.51100 25.40900
H  46.83400 29.57600 26.80700
H  45.39900 33.49400 30.03700
H  45.64300 31.23300 33.34200
H  44.85800 32.73500 33.96700
H  46.65200 32.62200 33.82900
Mg 26.81100 50.50300 25.67800
C  24.98500 51.39600 28.53500
C  29.27000 49.18400 27.88900
C  29.00300 50.03900 23.13700
C  24.56200 51.91600 23.64400
N  27.08700 50.31900 27.98900
C  26.18100 50.80900 28.93600
C  26.61200 50.47400 30.35700
C  28.04700 49.78400 30.04300
C  28.11600 49.73100 28.56900
C  29.25900 50.57100 30.64600
C  25.62600 49.55200 31.06400
C  25.20700 50.10600 32.39500
H  25.19400 49.10600 33.59900
N  28.86900 49.70400 25.48700
C  29.67400 49.16900 26.54600
C  30.95200 48.76600 25.98200
C  30.92100 49.04900 24.61000
C  29.55800 49.67900 24.33100
C  32.04100 48.17200 26.81300
C  31.86400 48.83000 23.51500
O  31.76600 49.35000 22.39100
C  33.09100 48.01700 23.80800
N  26.77200 51.02800 23.64600
C  27.76700 50.72100 22.81000
C  27.22700 50.82300 21.42300
C  25.95100 51.61300 21.59300
C  25.65900 51.41100 23.07600
C  28.18400 51.53100 20.48400
C  24.73000 51.25100 20.64100
C  24.06900 49.95900 20.91900
N  25.08200 51.48200 25.99200
C  24.26800 52.07200 25.05800
C  23.14000 52.73900 25.67200
C  23.37000 52.49000 27.06200
C  24.56100 51.69800 27.20400
C  22.04900 53.39100 24.89300
C  22.88500 52.73800 28.40700
O  21.91500 53.35600 28.70600
C  23.90500 52.04000 29.38400
C  24.42900 52.99300 30.41000
O  25.44700 53.58000 30.29400
O  23.63500 52.99200 31.50700
C  24.10000 53.83300 32.62000
H  30.07100 48.83600 28.54400
H  29.53200 49.71200 22.24000
H  23.83400 52.39500 22.98600
H  26.85700 51.38500 30.90200
H  28.00900 48.76900 30.44000
H  29.04100 51.00600 31.62100
H  29.70000 51.30700 29.97400
H  30.01300 49.78300 30.65300
H  26.13600 48.62300 31.32000
H  24.79100 49.36300 30.39000
H  24.20400 50.52400 32.31000
H  25.87600 50.91700 32.68500
H  31.79300 47.98600 27.85800
H  32.87400 48.87200 26.88000
H  32.40300 47.24000 26.37900
H  33.79800 48.65900 24.33200
H  33.44100 47.54800 22.88800
H  32.94000 47.18400 24.49600
H  27.02500 49.81000 21.07400
H  26.24200 52.65600 21.47000
H  27.75000 52.37000 19.94100
H  28.39100 50.90900 19.61300
H  29.11000 51.70900 21.03100
H  25.05600 51.29600 19.60200
H  24.01900 52.04600 20.87000
H  23.00400 50.15500 21.03800
H  24.41300 49.40800 21.79400
H  24.16900 49.29400 20.06100
H  22.55100 54.31500 24.60800
H  21.18600 53.51800 25.54700
H  21.84000 52.85200 23.96900
H  23.42100 51.35100 30.07500
H  24.32100 54.86000 32.32900
H  25.02800 53.36000 32.94200
H  23.38000 53.90800 33.43400

