158

Mg 24.65100 -6.11600 45.24000
C  26.91200 -3.60400 43.97600
C  22.18700 -4.62200 43.52400
C  22.97600 -8.96700 45.54800
C  27.44400 -7.58100 46.81900
N  24.59800 -4.35500 43.80700
C  25.60400 -3.51500 43.51700
C  25.04700 -2.38900 42.67600
C  23.46200 -2.50300 42.77600
C  23.39700 -3.95200 43.43300
C  22.80300 -1.46500 43.66700
C  25.60400 -2.47300 41.22600
C  25.87300 -1.07800 40.50200
H  25.22400 -0.85800 39.15200
N  22.84800 -6.59500 44.74500
C  21.94700 -5.87000 44.06400
C  20.73200 -6.52800 43.90400
C  20.89900 -7.80800 44.50200
C  22.29800 -7.80400 44.96400
C  19.59200 -6.07100 43.00000
C  19.87400 -8.97700 44.55800
O  18.81300 -8.83800 43.97800
C  20.19900 -10.39600 45.13600
N  25.18400 -8.10400 46.06600
C  24.33200 -9.11300 46.01700
C  24.80800 -10.36400 46.84000
C  26.08400 -9.75300 47.54500
C  26.29700 -8.46600 46.68000
C  23.83400 -11.03500 47.89600
C  27.35100 -10.79400 47.50800
C  28.04900 -11.05500 48.79700
N  26.73600 -5.68100 45.49700
C  27.72200 -6.30600 46.23700
C  28.95900 -5.52100 46.21900
C  28.70400 -4.49700 45.33600
C  27.32500 -4.59200 44.97500
C  30.26500 -5.84100 46.77300
C  29.28000 -3.32100 44.64000
O  30.41000 -2.88100 44.55200
C  28.11600 -2.75900 43.74600
C  27.91200 -1.33200 44.17000
O  27.33100 -0.90100 45.15800
O  28.54200 -0.50300 43.35400
C  28.53400 0.91000 43.69300
H  21.33900 -4.03900 43.15800
H  22.31500 -9.79900 45.80000
H  28.36100 -7.83800 47.35400
H  25.44800 -1.50800 43.17800
H  23.10700 -2.40600 41.75000
H  23.46200 -0.62700 43.89500
H  22.56900 -1.99000 44.59400
H  21.87600 -1.04200 43.28000
H  24.86000 -2.94100 40.58200
H  26.48400 -3.07200 40.98600
H  26.94200 -0.89500 40.39500
H  25.52400 -0.30100 41.18200
H  18.66300 -5.95100 43.55900
H  19.44300 -6.85400 42.25600
H  19.74800 -5.15900 42.42400
H  19.27100 -10.96100 45.05400
H  20.47000 -10.34400 46.19100
H  21.02700 -10.80400 44.55600
H  25.04800 -11.10400 46.07700
H  25.81900 -9.37200 48.53100
H  23.03700 -10.33600 48.15100
H  24.41200 -11.52800 48.67800
H  23.42800 -11.86100 47.31200
H  28.16300 -10.39200 46.90100
H  26.91900 -11.70800 47.10100
H  27.67200 -12.05100 49.03100
H  27.74700 -10.36700 49.58600
H  29.12400 -11.16100 48.65000
H  30.62900 -6.78300 46.36200
H  30.24700 -5.91700 47.86100
H  30.99500 -5.10100 46.44500
H  28.50300 -2.81600 42.72900
H  27.54300 1.35900 43.63000
H  29.23700 1.29400 42.95300
H  28.99300 1.17700 44.64600
Mg 35.02100 48.21500 26.19200
C  35.13900 46.20900 29.04200
C  34.06400 50.87600 28.03300
C  34.43500 49.90900 23.31800
C  35.49800 45.19900 24.31500
N  34.51300 48.50300 28.23900
C  34.74600 47.56700 29.26800
C  34.56900 48.22300 30.67400
C  33.91000 49.60700 30.27500
C  34.18400 49.69700 28.74600
C  32.35800 49.72700 30.56400
C  35.91600 48.43000 31.39500
C  36.11200 48.11600 32.91600
H  36.24900 49.29000 33.88700
N  34.40900 50.14300 25.79400
C  34.04300 51.08900 26.61700
C  33.62600 52.35100 26.02000
C  33.81900 52.06300 24.61100
C  34.23500 50.63900 24.54400
C  32.95600 53.46900 26.74900
C  33.49100 52.95900 23.39400
O  33.54300 52.55200 22.24900
C  33.02700 54.38700 23.48400
N  34.71800 47.61500 24.18000
C  34.68200 48.50900 23.18200
C  34.56400 47.83600 21.85400
C  35.10900 46.43300 22.09400
C  35.19600 46.35700 23.63700
C  33.23000 47.71400 21.08200
C  36.51500 46.12100 21.46600
C  36.77800 44.66700 20.91100
N  35.27500 46.10600 26.54500
C  35.44900 44.99000 25.66600
C  35.73800 43.77600 26.43600
C  35.65500 44.20000 27.78100
C  35.32300 45.65400 27.78400
C  36.16100 42.45200 25.89800
C  35.77500 43.82000 29.24600
O  36.23300 42.80900 29.79300
C  35.42400 45.11700 30.06900
C  34.29000 44.79300 30.97600
O  33.20400 44.33400 30.59600
O  34.64600 44.90800 32.34400
C  33.51400 44.79600 33.27400
H  33.93100 51.74900 28.67500
H  34.30200 50.37800 22.34100
H  35.68300 44.34900 23.65500
H  33.91400 47.65900 31.33900
H  34.49200 50.37900 30.77900
H  32.33700 50.62500 31.18100
H  32.00000 48.74100 30.86000
H  31.73100 50.11400 29.76100
H  36.39200 49.40500 31.29200
H  36.58700 47.82200 30.79000
H  37.06900 47.59300 32.92100
H  35.24800 47.54600 33.25700
H  33.71400 54.18500 27.06900
H  32.42900 53.07800 27.61900
H  32.24100 53.99600 26.11700
H  32.00200 54.49900 23.83600
H  33.31600 54.83200 22.53200
H  33.64900 54.91600 24.20700
H  35.30000 48.40400 21.28500
H  34.37900 45.70400 21.74300
H  32.36600 48.16400 21.57100
H  32.95100 46.72100 20.73000
H  33.37900 48.24600 20.14200
H  37.17700 46.32400 22.30700
H  36.75300 46.77100 20.62400
H  35.81400 44.30300 20.55500
H  37.19000 44.07200 21.72700
H  37.54500 44.56100 20.14400
H  36.65000 42.74900 24.97000
H  35.32600 41.77200 25.73200
H  37.04800 42.14300 26.45000
H  36.23100 45.47300 30.71100
H  32.71800 45.50100 33.03200
H  34.00400 44.92100 34.24000
H  33.12600 43.77800 33.30700

