158

Mg 54.72100 22.84500 44.76100
C  52.24400 25.15500 43.78800
C  52.54300 20.36300 43.79500
C  57.22100 20.74300 45.20600
C  56.88900 25.56000 45.39100
N  52.70300 22.74900 43.64500
C  51.86800 23.84400 43.43700
C  50.53500 23.33500 42.80900
C  50.50200 21.88100 43.35000
C  51.97700 21.61000 43.66400
C  49.56600 21.64400 44.53900
C  50.24400 23.45800 41.26400
C  48.95800 24.20300 40.81500
H  48.46300 23.96900 39.39600
N  54.85000 20.78800 44.63900
C  53.91800 19.97700 44.08000
C  54.46900 18.66500 43.93500
C  55.79800 18.71200 44.41900
C  56.00600 20.09900 44.85400
C  53.70900 17.47200 43.40800
C  56.67000 17.55700 44.63400
O  56.27600 16.44700 44.36500
C  58.06900 17.66600 45.26600
N  56.75300 23.13000 45.43500
C  57.62200 22.04000 45.48400
C  59.05200 22.52100 45.56500
C  58.96600 24.11000 45.59200
C  57.44500 24.28800 45.50900
C  59.66500 22.00700 46.86200
C  59.86500 24.85600 44.54900
C  60.98000 25.84100 45.06700
N  54.59600 24.93900 44.74800
C  55.58200 25.91600 45.07600
C  54.97400 27.20000 45.01500
C  53.65400 26.99300 44.54600
C  53.46700 25.54900 44.39400
C  55.60000 28.53700 45.40700
C  52.39500 27.63100 44.25000
O  52.08200 28.81800 44.13200
C  51.48500 26.50000 43.58500
C  51.32600 26.74800 42.12800
O  52.13700 26.40100 41.24700
O  50.23100 27.53700 41.89900
C  49.90500 27.95800 40.49800
H  52.01400 19.48500 43.41900
H  58.08100 20.13500 44.91900
H  57.49500 26.46700 45.45300
H  49.73100 23.85000 43.33600
H  50.28900 21.18400 42.54000
H  50.05500 21.08700 45.33800
H  48.74600 21.06400 44.11600
H  49.12900 22.50900 45.03700
H  50.23900 22.53600 40.68300
H  51.17300 23.96400 40.99900
H  49.08700 25.27300 40.97800
H  48.15500 23.91700 41.49400
H  54.24500 16.63900 42.95300
H  52.89400 17.82900 42.78000
H  53.21000 17.09000 44.29900
H  58.01900 18.28900 46.15900
H  58.83800 17.97800 44.56000
H  58.33800 16.65400 45.57100
H  59.47400 22.03200 44.68600
H  59.11800 24.54400 46.58000
H  59.56300 22.70000 47.69600
H  60.73300 21.79900 46.78800
H  59.24100 21.01700 47.03100
H  59.24300 25.35300 43.80500
H  60.45800 24.07600 44.07100
H  61.97400 25.39400 45.04800
H  60.77800 26.08300 46.11100
H  61.01000 26.67600 44.36800
H  54.86300 29.34100 45.43000
H  56.17600 28.90800 44.56000
H  56.11000 28.49900 46.37000
H  50.53300 26.49900 44.11500
H  49.82700 27.17600 39.74300
H  50.65300 28.64400 40.10000
H  48.92600 28.43700 40.48900
Mg 16.08900 51.72100 25.60900
C  18.00600 50.70700 28.39500
C  13.83700 53.14100 27.69600
C  14.33500 52.48300 22.95800
C  18.60600 50.20400 23.62300
N  16.11100 52.01400 27.83200
C  16.86800 51.45500 28.76800
C  16.40500 51.80200 30.29600
C  14.93700 52.37800 30.02200
C  14.94000 52.51300 28.38600
C  13.70000 51.47000 30.48900
C  17.36500 52.74600 31.02800
C  17.69500 52.40500 32.48300
H  16.72500 51.52100 33.26100
N  14.38500 52.86500 25.31900
C  13.57800 53.33200 26.32400
C  12.46900 54.03500 25.70300
C  12.54500 53.88600 24.24900
C  13.78700 53.01500 24.12500
C  11.37900 54.63500 26.54100
C  11.59300 54.26100 23.15200
O  11.89900 53.97100 21.99400
C  10.42500 55.13700 23.47600
N  16.40900 51.28800 23.59400
C  15.51000 51.82000 22.63200
C  15.98400 51.49400 21.24000
C  17.45200 50.86000 21.46900
C  17.52000 50.87000 22.97600
C  15.09400 50.46300 20.48900
C  18.61100 51.72600 20.90000
C  19.30400 51.15000 19.63200
N  17.85700 50.67500 25.90300
C  18.78400 50.15200 25.00600
C  19.88300 49.44400 25.75400
C  19.57900 49.67400 27.06900
C  18.37900 50.40100 27.06400
C  20.99000 48.65700 25.15200
C  20.03600 49.38600 28.45400
O  21.00500 48.82400 28.88400
C  19.03700 50.10700 29.34800
C  18.60300 49.03700 30.20400
O  17.81100 48.17800 29.82100
O  19.24500 49.09300 31.45600
C  19.08500 47.91900 32.33800
H  13.08900 53.57400 28.36400
H  13.85300 52.84100 22.04600
H  19.36900 49.63700 23.08400
H  16.37900 50.86200 30.84800
H  14.84300 53.40100 30.38700
H  14.06800 50.51200 30.85500
H  13.04700 51.31200 29.63000
H  13.06200 51.90000 31.26100
H  16.98600 53.75800 30.88200
H  18.28100 52.74600 30.43700
H  17.85200 53.27500 33.12000
H  18.61800 51.83300 32.38600
H  11.12900 55.65700 26.26000
H  11.77600 54.80300 27.54200
H  10.60800 53.86500 26.49800
H  10.83700 56.10600 23.75800
H  9.80500 54.78400 24.30000
H  9.72900 55.35400 22.66500
H  16.10700 52.47600 20.78200
H  17.37900 49.80600 21.20200
H  14.52300 49.95400 21.26600
H  15.64400 49.84500 19.78000
H  14.47300 51.05300 19.81500
H  19.41900 51.81800 21.62400
H  18.32000 52.75200 20.67400
H  20.36100 51.35000 19.81200
H  19.04500 51.74100 18.75400
H  19.16100 50.08700 19.43800
H  20.56800 47.96300 24.42500
H  21.33500 48.03300 25.97700
H  21.71800 49.32600 24.69400
H  19.51900 50.78100 30.05600
H  18.98800 46.94200 31.86400
H  18.17700 47.97900 32.93800
H  19.90600 47.88000 33.05400

