158

Mg 49.54800 47.06600 44.09000
C  46.33600 47.20300 42.95500
C  50.01300 44.20100 42.28700
C  52.84100 47.32600 44.65700
C  49.30800 50.41300 45.09200
N  48.33800 45.96300 42.65100
C  47.04700 46.06900 42.49700
C  46.47400 44.94300 41.61300
C  47.60200 43.92800 41.57300
C  48.73200 44.72400 42.20000
C  47.36900 42.57200 42.23700
C  45.97700 45.50200 40.22800
C  44.73900 44.80200 39.69900
H  44.33200 44.69700 38.18600
N  51.20300 45.78200 43.64200
C  51.18800 44.63800 42.97700
C  52.51400 44.11000 42.93600
C  53.28500 44.89700 43.81900
C  52.44900 46.07500 44.06000
C  52.96200 43.01400 42.03100
C  54.71400 44.59800 44.31400
O  55.27500 43.56800 43.86700
C  55.51200 45.35700 45.33800
N  50.97100 48.72900 44.56500
C  52.23600 48.51200 44.85000
C  53.00500 49.73400 45.33400
C  51.83400 50.72700 45.64300
C  50.60700 49.94200 45.03000
C  53.91100 49.61100 46.62000
C  52.07600 52.10900 44.97100
C  52.08200 53.35800 45.86900
N  48.09900 48.52000 44.18700
C  48.19900 49.82800 44.59300
C  46.86900 50.41100 44.51400
C  46.06100 49.38900 43.88800
C  46.95100 48.29500 43.69600
C  46.52200 51.79400 44.95300
C  44.80200 49.01000 43.37500
O  43.69500 49.58500 43.44400
C  44.92000 47.61000 42.71500
C  43.98000 46.73800 43.42300
O  44.24500 46.17300 44.47500
O  42.86800 46.43900 42.65800
C  41.94600 45.45100 43.27000
H  50.08500 43.18000 41.90600
H  53.90500 47.36100 44.90000
H  49.10400 51.40800 45.49300
H  45.64600 44.59800 42.23300
H  47.87100 43.69200 40.54300
H  46.36400 42.22400 41.99900
H  47.48900 42.52100 43.31900
H  48.02100 41.82100 41.79200
H  46.84300 45.38300 39.57700
H  45.82900 46.58200 40.23600
H  43.87300 45.14600 40.26500
H  44.72800 43.75100 39.98700
H  53.94700 43.24000 41.62100
H  52.23200 42.83900 41.24100
H  53.14900 42.10600 42.60400
H  56.07000 46.17000 44.87300
H  56.12200 44.62100 45.86200
H  54.73000 45.67800 46.02600
H  53.41400 50.06000 44.37800
H  51.57800 50.95600 46.67800
H  53.91400 50.48700 47.26800
H  54.94800 49.49200 46.30700
H  53.68200 48.72100 47.20700
H  51.34900 52.36400 44.20000
H  52.98400 52.04000 44.37200
H  52.25600 53.14000 46.92300
H  51.28300 54.05600 45.62100
H  53.04300 53.79500 45.59800
H  46.93600 52.63200 44.39200
H  46.97100 51.89800 45.94100
H  45.44200 51.67700 44.86400
H  44.61500 47.67800 41.67100
H  41.59600 44.81900 42.45400
H  41.11500 45.96200 43.75700
H  42.44100 44.74600 43.93800
Mg -2.02200 33.81600 27.24000
C  -3.56200 32.00500 29.75800
C  -0.51900 35.74200 29.66900
C  -0.76400 35.92300 24.86300
C  -3.56500 32.01700 24.76400
N  -2.11400 33.82300 29.46500
C  -2.74200 32.96200 30.32700
C  -2.61200 33.31400 31.74800
C  -1.77900 34.67600 31.63600
C  -1.34700 34.73600 30.15200
C  -2.53400 35.90600 32.16100
C  -1.98800 32.18400 32.61400
C  -2.71000 31.84900 33.93200
H  -1.92500 32.14200 35.18700
N  -0.68200 35.49700 27.30100
C  -0.11400 36.10400 28.39600
C  0.70200 37.24400 27.95300
C  0.68000 37.26500 26.54400
C  -0.32500 36.22100 26.18800
C  1.47400 38.18600 28.94400
C  1.42200 38.10200 25.52700
O  1.22200 38.13900 24.28200
C  2.47100 39.20300 26.08500
N  -2.21300 33.94500 25.17300
C  -1.57700 34.90700 24.42000
C  -1.79800 34.68300 22.90600
C  -2.52100 33.30600 22.89800
C  -2.78300 33.06500 24.37600
C  -2.73600 35.82100 22.25600
C  -1.71000 32.14900 22.18800
C  -2.51500 30.92400 21.69800
N  -3.43800 32.40100 27.22400
C  -3.91700 31.70800 26.09800
C  -4.85600 30.71600 26.65500
C  -4.72100 30.72600 28.10400
C  -3.76600 31.76700 28.36800
C  -5.72400 29.80800 25.86100
C  -5.04800 30.09400 29.32600
O  -5.80500 29.12500 29.50200
C  -4.28300 30.84300 30.45300
C  -5.31200 31.31500 31.38900
O  -6.04700 32.29300 31.28500
O  -5.44800 30.38300 32.37400
C  -6.25100 30.81100 33.44700
H  -0.19600 36.50000 30.38700
H  -0.34600 36.57400 24.09300
H  -3.96000 31.30600 24.03500
H  -3.54400 33.58300 32.24600
H  -0.94200 34.60700 32.33000
H  -2.52000 36.75600 31.47900
H  -1.95600 36.19300 33.03900
H  -3.56700 35.66800 32.41600
H  -1.04100 32.66100 32.86800
H  -1.75100 31.24400 32.11600
H  -2.93900 30.78500 33.86000
H  -3.60600 32.46900 33.93100
H  2.52200 37.96200 28.74700
H  1.24800 37.87700 29.96500
H  1.22200 39.24000 28.83000
H  3.19400 38.61600 26.65200
H  2.01600 40.03000 26.63000
H  2.95000 39.59200 25.18700
H  -0.80800 34.71500 22.45100
H  -3.44800 33.36500 22.32800
H  -2.89500 36.49100 23.10200
H  -3.69600 35.53900 21.82300
H  -2.23200 36.31500 21.42600
H  -0.97600 31.82300 22.92600
H  -1.13500 32.53100 21.34400
H  -3.56900 31.13600 21.51600
H  -2.50100 30.12700 22.44200
H  -2.16500 30.48300 20.76400
H  -5.10900 28.95900 25.56300
H  -5.88800 30.29600 24.90000
H  -6.61200 29.45900 26.38900
H  -3.62100 30.16200 30.98700
H  -6.19400 30.04700 34.22200
H  -7.31500 30.83100 33.21200
H  -5.89700 31.79300 33.76100

