158

Mg 47.01600 24.40500 28.17300
C  47.59800 26.76100 30.61800
C  46.08200 22.28300 30.63900
C  46.74600 22.05600 25.79300
C  48.47600 26.59100 25.76200
N  46.73000 24.60300 30.39600
C  46.96200 25.63600 31.21000
C  46.61000 25.37400 32.64600
C  46.36900 23.83100 32.59600
C  46.40500 23.55200 31.14100
C  47.30500 22.97000 33.45700
C  45.51400 26.25100 33.19100
C  45.05200 26.00900 34.66200
H  45.47800 26.94800 35.74400
N  46.55400 22.36700 28.23100
C  46.08300 21.73400 29.34500
C  45.66500 20.39700 28.95100
C  45.73800 20.35100 27.51900
C  46.36400 21.62200 27.09400
C  45.04700 19.40500 29.94700
C  45.15800 19.22600 26.54400
O  45.16900 19.28400 25.31200
C  44.57100 18.01200 27.18900
N  47.57600 24.29600 26.06900
C  47.17800 23.26300 25.31200
C  47.42500 23.47800 23.85000
C  47.92900 24.99300 23.76800
C  48.03700 25.33800 25.29100
C  48.49100 22.54600 23.23000
C  46.86300 25.82400 23.10500
C  45.42100 26.05300 23.74600
N  47.76200 26.31200 28.10400
C  48.36500 27.04900 27.11200
C  48.89500 28.23200 27.69700
C  48.56500 28.25000 29.04600
C  47.91400 27.03000 29.22800
C  49.65800 29.32100 26.93100
C  48.59800 29.06700 30.31100
O  48.97200 30.21900 30.51900
C  47.92100 28.04800 31.33800
C  48.88600 27.80400 32.44200
O  49.99700 27.24600 32.46400
O  48.23800 28.26500 33.58900
C  49.04700 28.11600 34.83900
H  45.66100 21.71200 31.46900
H  46.52000 21.36800 24.97500
H  48.87300 27.29200 25.02500
H  47.47200 25.63400 33.26100
H  45.37600 23.65200 33.00800
H  48.21300 22.78000 32.88400
H  46.77700 22.07400 33.78500
H  47.49000 23.51500 34.38200
H  44.59800 25.96400 32.67600
H  45.64700 27.32000 33.02500
H  45.41300 25.00400 34.88400
H  43.96900 25.92100 34.58300
H  44.02500 19.13800 29.67800
H  45.20200 19.81900 30.94300
H  45.68000 18.51900 29.99200
H  43.58600 18.30300 27.55400
H  45.15600 17.61200 28.01800
H  44.46600 17.24400 26.42200
H  46.44900 23.38400 23.37400
H  48.92800 25.15700 23.36300
H  48.05900 21.88900 22.47600
H  48.89300 21.89500 24.00600
H  49.29500 23.14900 22.80800
H  46.69400 25.42600 22.10400
H  47.41200 26.76500 23.08700
H  45.25000 27.10800 23.96100
H  45.23500 25.48000 24.65500
H  44.64200 25.81300 23.02200
H  49.05900 30.22000 26.78900
H  49.96200 29.06000 25.91700
H  50.53800 29.56000 27.52800
H  46.99500 28.54900 31.61900
H  49.60900 27.18500 34.91300
H  48.48000 28.31200 35.74900
H  49.72400 28.97100 34.83500
Mg 41.17500 40.78500 26.19700
C  40.40700 43.02500 28.77500
C  42.46100 38.64800 28.48700
C  42.07800 38.67000 23.62000
C  40.32600 43.18300 23.91000
N  41.52300 40.89500 28.41000
C  41.00500 41.82200 29.28200
C  41.22900 41.33800 30.72000
C  41.87500 39.93000 30.56300
C  41.99600 39.79800 29.03500
C  43.24100 39.66200 31.19900
C  39.79500 41.27300 31.40600
C  39.91000 40.73200 32.91600
H  39.46100 41.63900 34.02400
N  42.06100 38.89900 26.06500
C  42.52900 38.19600 27.11200
C  43.07200 36.92400 26.69500
C  42.89600 36.88600 25.24000
C  42.31900 38.22900 24.88800
C  43.82500 35.96000 27.62500
C  43.17400 35.72900 24.27800
O  43.26300 35.89400 23.04000
C  43.54100 34.36500 24.74700
N  41.21700 40.84800 24.04600
C  41.47100 39.85200 23.20400
C  41.41500 40.30900 21.75900
C  40.65500 41.67100 21.89700
C  40.77100 41.94900 23.39000
C  42.80800 40.45100 21.05700
C  39.27000 41.59700 21.47800
C  38.38000 40.46600 22.13300
N  40.42500 42.62200 26.23600
C  40.28100 43.55800 25.27500
C  39.98900 44.85100 25.82900
C  39.98300 44.69900 27.21700
C  40.27700 43.33000 27.41100
C  39.72200 46.12200 25.02000
C  39.73700 45.30800 28.54100
O  39.47800 46.43900 28.81300
C  39.90200 44.22400 29.58900
C  40.86800 44.65900 30.69700
O  42.04300 44.42800 30.65600
O  40.19800 45.27600 31.80500
C  41.02900 45.67100 32.96500
H  42.74700 37.87300 29.20200
H  42.25200 38.04800 22.74000
H  40.04700 43.97300 23.20900
H  41.82000 42.06400 31.27900
H  41.17300 39.16600 30.89700
H  43.28500 40.24300 32.12000
H  44.10000 39.97100 30.60300
H  43.40400 38.62000 31.47100
H  38.99300 40.72700 30.90900
H  39.37500 42.27800 31.40100
H  40.97100 40.49200 32.97100
H  39.30500 39.82600 32.95900
H  44.76900 35.84900 27.09100
H  43.38400 34.97000 27.74500
H  43.98200 36.32200 28.64100
H  43.32900 33.78900 23.84700
H  43.00900 34.00400 25.62700
H  44.60200 34.29000 24.98600
H  40.72700 39.64100 21.24200
H  41.16200 42.54400 21.48700
H  43.54800 40.24200 21.83000
H  42.92300 41.43500 20.60200
H  42.91500 39.57900 20.41200
H  39.13500 41.50200 20.40100
H  38.81000 42.55700 21.71000
H  38.92700 39.69500 22.67500
H  37.75200 39.98800 21.38100
H  37.72300 40.92100 22.87400
H  38.64600 46.28400 25.08000
H  40.00700 46.06300 23.97000
H  40.26200 46.96000 25.46000
H  38.91800 44.08700 30.03600
H  42.06100 45.98700 32.81300
H  40.95700 44.83900 33.66600
H  40.60800 46.52500 33.49600

