158

Mg 0.80900 8.04200 25.34100
C  1.47500 9.77700 28.20000
C  1.32600 5.03900 27.00300
C  0.46100 6.25700 22.41300
C  1.03300 10.96700 23.46600
N  1.53600 7.52600 27.27300
C  1.44900 8.40800 28.33000
C  1.42900 7.74700 29.69200
C  1.72400 6.30600 29.32100
C  1.57200 6.23800 27.74000
C  3.04600 5.78200 30.02600
C  0.06400 7.99000 30.50400
C  0.26400 8.15600 31.98800
H  1.33300 7.40800 32.66300
N  0.85800 5.96200 24.77100
C  1.03200 4.90800 25.62600
C  0.96500 3.72800 24.81700
C  0.57400 4.01200 23.50400
C  0.53600 5.46200 23.51600
C  1.27100 2.40800 25.37300
C  0.14800 3.10000 22.34700
O  -0.20500 3.47300 21.21200
C  0.07300 1.63400 22.55700
N  0.81500 8.56200 23.21200
C  0.67600 7.66100 22.22500
C  0.67100 8.36400 20.84400
C  0.69900 9.86800 21.09400
C  0.75500 9.85200 22.66200
C  1.83500 7.84300 19.98800
C  -0.39700 10.76800 20.47900
C  -1.85000 10.43700 21.15300
N  1.18200 9.91200 25.68700
C  1.22400 10.99400 24.85000
C  1.49400 12.19400 25.62200
C  1.61000 11.77100 26.95500
C  1.45400 10.33800 26.91300
C  1.59400 13.66300 25.29700
C  1.88000 12.16300 28.29700
O  2.23100 13.26200 28.73100
C  1.61400 10.89300 29.22900
C  2.82100 10.72700 30.11100
O  3.91200 10.37600 29.73000
O  2.44100 11.11400 31.35800
C  3.39600 11.09100 32.49900
H  1.66800 4.17500 27.57600
H  0.31000 5.75900 21.45300
H  0.96200 11.95000 22.99700
H  2.24500 8.17300 30.27600
H  0.91100 5.72100 29.75100
H  3.80200 6.42600 30.47500
H  3.51300 5.08300 29.33200
H  2.77300 5.17300 30.88800
H  -0.62700 7.18800 30.24500
H  -0.30400 8.95800 30.16300
H  -0.73300 8.03300 32.41000
H  0.42800 9.23400 32.00300
H  0.38200 1.81700 25.14900
H  1.35200 2.49000 26.45600
H  2.13900 2.05800 24.81500
H  1.00000 1.36200 23.06100
H  0.22000 1.13600 21.59900
H  -0.76900 1.37700 23.19800
H  -0.24400 8.06600 20.33200
H  1.63600 10.32700 20.77700
H  2.47600 8.68400 19.72500
H  1.44100 7.53500 19.02000
H  2.39900 7.06200 20.49800
H  -0.39500 10.69300 19.39200
H  -0.13000 11.80100 20.70100
H  -2.33800 9.98600 20.29000
H  -2.35800 11.37700 21.36800
H  -1.75900 9.71100 21.96100
H  1.63200 13.77700 24.21400
H  2.46800 14.16000 25.71700
H  0.75800 14.23800 25.69700
H  0.70300 11.05100 29.80600
H  4.18900 10.39100 32.23200
H  2.95700 10.78000 33.44700
H  3.84300 12.05700 32.73400
Mg 47.54400 34.65100 27.94200
C  45.96000 32.76500 30.41700
C  48.18600 37.12000 30.13200
C  48.66400 36.51100 25.32500
C  46.72200 32.09900 25.62000
N  47.09700 34.90400 30.07400
C  46.34300 34.05100 30.85100
C  46.72800 34.42000 32.27300
C  47.20500 35.95900 32.18100
C  47.51400 35.99500 30.68900
C  46.10200 36.99600 32.63600
C  47.87400 33.50500 32.78100
C  47.93500 33.42000 34.35800
H  46.98800 34.35400 35.14900
N  48.36300 36.57100 27.76400
C  48.64700 37.44500 28.80700
C  49.28000 38.63700 28.31000
C  49.49600 38.45100 26.88400
C  48.84100 37.11200 26.58200
C  49.71300 39.73700 29.24600
C  50.08400 39.42600 25.84300
O  50.45100 39.02600 24.73400
C  50.46500 40.86500 26.30000
N  47.62100 34.34600 25.79000
C  48.27700 35.22800 24.99000
C  48.41900 34.71700 23.51700
C  47.76800 33.22700 23.68600
C  47.42500 33.22700 25.12300
C  47.83400 35.63900 22.41000
C  48.75800 32.13500 23.22600
C  48.23500 31.13100 22.22000
N  46.54800 32.85800 27.96900
C  46.31400 31.89100 26.94900
C  45.69500 30.73000 27.47800
C  45.46500 30.99200 28.84800
C  46.11900 32.27700 29.06000
C  45.32900 29.55100 26.60500
C  44.86700 30.52200 30.07100
O  44.16000 29.50900 30.30900
C  45.03400 31.74600 31.00100
C  45.01900 31.31400 32.39700
O  45.86000 30.68900 33.02500
O  43.82300 31.62600 33.01600
C  43.63600 31.36500 34.43200
H  48.44000 37.84900 30.90500
H  49.14400 37.07700 24.52300
H  46.42700 31.29800 24.93800
H  45.83400 34.34500 32.89300
H  47.98000 36.14800 32.92400
H  45.14400 36.51100 32.82300
H  46.13700 37.79900 31.90000
H  46.46300 37.49100 33.53800
H  48.82100 33.91500 32.43100
H  47.65400 32.48300 32.47300
H  48.97700 33.67400 34.55700
H  47.75000 32.37300 34.59600
H  50.72400 39.65000 29.64500
H  49.04200 39.70200 30.10400
H  49.54000 40.74600 28.87100
H  51.38600 40.79100 26.87800
H  49.62200 41.36800 26.77400
H  50.55200 41.42500 25.36900
H  49.50800 34.70900 23.46100
H  46.89500 33.14300 23.03800
H  48.63200 35.89400 21.71300
H  47.41900 36.53200 22.87600
H  46.99000 35.24600 21.84300
H  49.09200 31.51400 24.05700
H  49.62500 32.54700 22.71000
H  48.93200 30.72700 21.48500
H  47.46000 31.70100 21.70800
H  47.85600 30.36100 22.89200
H  46.21300 29.13700 26.12000
H  44.67400 29.86900 25.79300
H  44.88900 28.81000 27.27300
H  44.14300 32.37300 30.95400
H  42.61200 31.04300 34.62500
H  43.89200 32.22900 35.04500
H  44.34200 30.65200 34.85900

