158

Mg 44.78900 4.84000 47.06400
C  42.84500 7.72300 46.96700
C  41.84400 3.00600 46.28800
C  46.61300 1.98500 46.51400
C  47.69500 6.75300 47.21900
N  42.61600 5.36900 46.50000
C  42.03700 6.59700 46.57900
C  40.51100 6.52800 46.61000
C  40.19600 5.02900 46.28100
C  41.63700 4.45000 46.29500
C  39.28600 4.27700 47.32100
C  39.75000 7.58100 45.66400
C  40.40000 8.11300 44.38800
H  40.07200 7.37500 43.07700
N  44.30600 2.76000 46.52700
C  43.05100 2.19500 46.29000
C  43.19100 0.80100 46.13500
C  44.58000 0.48500 46.19500
C  45.26500 1.73900 46.39800
C  42.03100 -0.18500 45.83700
C  45.19400 -0.87700 46.09100
O  44.39000 -1.78300 45.92700
C  46.69000 -1.16300 45.85100
N  46.83500 4.48600 46.61400
C  47.31000 3.20400 46.63600
C  48.84900 3.12700 46.92600
C  49.17600 4.67300 47.22000
C  47.84100 5.36800 47.00400
C  49.27700 2.10500 48.06400
C  50.32000 5.29500 46.36900
C  51.31500 6.17700 47.08500
N  45.24000 6.84000 47.13200
C  46.47400 7.47200 47.15200
C  46.22900 8.90500 47.39900
C  44.82200 8.98200 47.38300
C  44.31200 7.73600 47.18100
C  47.21900 9.98600 47.70300
C  43.71500 9.94600 47.48500
O  43.81100 11.15200 47.73100
C  42.37100 9.15400 47.26900
C  41.52700 9.16600 48.50500
O  41.37400 8.22900 49.28000
O  40.64900 10.21000 48.41800
C  39.58100 10.26900 49.48400
H  40.96400 2.41700 46.02400
H  47.34600 1.17600 46.50600
H  48.57700 7.34200 47.47700
H  40.32900 6.70600 47.67000
H  39.82800 4.70500 45.30800
H  39.95500 3.70500 47.96400
H  38.62500 3.66200 46.71000
H  38.68700 5.00200 47.87100
H  39.49400 8.36300 46.37800
H  38.81300 7.05000 45.49900
H  41.48600 8.02300 44.40400
H  40.33900 9.19500 44.26800
H  42.27200 -0.83300 44.99500
H  41.08900 0.31300 45.60400
H  41.86900 -0.80700 46.71700
H  46.91400 -2.14600 45.43600
H  47.21200 -1.09300 46.80500
H  47.17100 -0.45900 45.17200
H  49.40500 2.81900 46.04100
H  49.40100 4.69400 48.28600
H  48.41400 1.53400 48.40800
H  49.73100 2.70400 48.85300
H  50.03000 1.38200 47.75100
H  49.92400 5.80000 45.48800
H  50.85500 4.41700 46.00700
H  52.30200 5.72000 47.01000
H  51.10800 6.27100 48.15100
H  51.33100 7.19200 46.68800
H  48.02800 9.71500 48.38100
H  46.80400 10.90600 48.11400
H  47.77300 10.20100 46.79000
H  41.72900 9.62300 46.52300
H  39.60700 11.25800 49.94200
H  39.53500 9.49700 50.25200
H  38.72200 10.32800 48.81600
Mg 36.31900 48.54800 26.09700
C  36.23500 46.36400 28.91600
C  34.90400 50.98400 28.10700
C  35.76800 50.33500 23.36000
C  37.04600 45.69800 24.18300
N  35.69600 48.66500 28.21100
C  35.96800 47.77300 29.17900
C  35.87300 48.34500 30.57400
C  35.28400 49.78000 30.35500
C  35.34100 49.86600 28.78100
C  33.80400 50.00300 30.88600
C  37.23800 48.40400 31.30500
C  37.16300 48.72100 32.86800
H  35.93900 49.02300 33.65600
N  35.57300 50.50900 25.84700
C  34.98200 51.34600 26.75700
C  34.68900 52.59100 26.07300
C  34.92700 52.44800 24.70800
C  35.42800 51.04600 24.57900
C  34.14400 53.77100 26.83200
C  34.67600 53.40600 23.52400
O  35.01100 53.19700 22.32200
C  34.17700 54.84700 23.85200
N  36.54900 48.16300 24.09500
C  36.27100 49.08500 23.14800
C  36.37900 48.42200 21.77100
C  37.13000 47.02400 22.00600
C  36.96900 46.95200 23.54800
C  35.05400 48.27900 21.00000
C  38.63200 47.21800 21.53900
C  39.69200 47.57700 22.57500
N  36.66300 46.39900 26.41800
C  36.97700 45.45200 25.52600
C  37.13300 44.28500 26.15900
C  36.97000 44.51300 27.57300
C  36.56100 45.86500 27.60500
C  37.50800 42.97700 25.48800
C  36.97000 43.88500 28.89400
O  37.03900 42.77800 29.36300
C  36.56700 45.10200 29.78400
C  35.45300 44.69600 30.70400
O  34.35500 44.34300 30.41100
O  35.90800 44.94100 31.97300
C  34.88000 44.79900 33.06900
H  34.47700 51.70700 28.80400
H  35.47500 50.81600 22.42400
H  37.24500 44.90300 23.46100
H  35.20500 47.76200 31.20900
H  36.00500 50.41000 30.87700
H  33.45500 49.11100 31.40700
H  33.16100 50.14300 30.01700
H  33.73400 50.91600 31.47700
H  37.83000 49.16500 30.79700
H  37.66100 47.40200 31.22600
H  37.92600 49.47700 33.05100
H  37.34700 47.72400 33.26800
H  34.26100 53.62400 27.90500
H  33.07200 53.68000 26.65100
H  34.51000 54.78400 26.66400
H  34.15700 55.29400 22.85800
H  34.82300 55.37400 24.55400
H  33.19100 54.72300 24.29900
H  37.01800 49.09200 21.19700
H  36.61700 46.16000 21.58400
H  34.18300 48.45200 21.63200
H  34.90400 47.25100 20.67000
H  35.01300 48.91400 20.11500
H  38.70300 47.88200 20.67800
H  38.77800 46.20600 21.16300
H  40.46400 48.21100 22.13900
H  40.13100 46.61800 22.85100
H  39.27200 47.84500 23.54500
H  38.24300 43.08700 24.69200
H  36.51800 42.64400 25.17500
H  37.87000 42.28600 26.25000
H  37.52500 45.29600 30.26700
H  35.06100 45.38200 33.97200
H  34.90800 43.74000 33.32400
H  33.88000 45.01900 32.69500

