158

Mg 26.22600 0.67700 28.76700
C  28.18300 0.35900 31.71000
C  23.56800 1.24800 30.98100
C  24.28500 0.93500 26.12100
C  29.01600 -0.24400 26.88000
N  25.93100 0.63600 31.05900
C  26.83100 0.60000 32.07900
C  26.29800 0.79900 33.48100
C  24.82000 0.90700 33.15100
C  24.75200 0.98900 31.64800
C  24.05900 -0.38900 33.70800
C  26.99600 2.01100 34.13800
C  26.25600 2.75500 35.25000
H  27.00400 2.93800 36.65100
N  24.22200 1.06100 28.57600
C  23.32200 1.23800 29.59800
C  21.98600 1.45700 29.01900
C  22.24100 1.30300 27.54400
C  23.63100 1.09500 27.37900
C  20.75700 1.74800 29.82300
C  21.15400 1.28500 26.47400
O  21.32400 0.95300 25.32100
C  19.77700 1.63400 26.86000
N  26.62100 0.20900 26.74600
C  25.62200 0.53200 25.75900
C  26.16800 0.28500 24.32500
C  27.65600 -0.19600 24.64300
C  27.81000 0.00300 26.24200
C  25.35600 -0.66700 23.36300
C  28.80600 0.51600 23.87900
C  29.70600 -0.41100 23.03200
N  28.16500 0.18700 29.14800
C  29.18700 -0.19200 28.26600
C  30.37900 -0.51800 29.05400
C  29.97700 -0.22700 30.40600
C  28.64400 0.15500 30.39800
C  31.80800 -0.98200 28.74400
C  30.48400 -0.32400 31.74400
O  31.54500 -0.65300 32.25200
C  29.29700 0.14400 32.64800
C  28.92700 -0.90600 33.55500
O  28.40100 -1.98400 33.25200
O  29.49300 -0.62900 34.76400
C  29.16900 -1.56300 35.87100
H  22.74900 1.43500 31.67900
H  23.72300 1.04000 25.19100
H  29.92000 -0.44000 26.29900
H  26.47800 -0.05300 34.13600
H  24.32800 1.72400 33.67900
H  24.72600 -1.20200 33.99600
H  23.58900 -0.88700 32.86000
H  23.38500 -0.13600 34.52600
H  27.17900 2.76100 33.36800
H  28.00400 1.74800 34.46000
H  25.38900 2.16300 35.54300
H  25.99200 3.76700 34.94400
H  21.00000 1.69100 30.88400
H  20.00500 0.97000 29.69200
H  20.35500 2.75200 29.68900
H  19.07000 1.34600 26.08200
H  19.66000 2.69800 27.06500
H  19.46100 1.02500 27.70700
H  26.33600 1.26300 23.87300
H  27.62700 -1.24000 24.33000
H  25.88900 -1.59500 23.15500
H  25.26000 -0.11400 22.42900
H  24.38700 -0.95600 23.76900
H  29.50200 0.92900 24.60900
H  28.37100 1.26400 23.21700
H  29.26400 -0.72400 22.08600
H  29.89200 -1.37600 23.50400
H  30.67400 0.01200 22.76200
H  32.33100 -0.20200 28.19100
H  31.80600 -1.85500 28.09100
H  32.46800 -1.33400 29.53800
H  29.67000 0.97800 33.24300
H  29.07600 -2.59300 35.52700
H  28.25700 -1.33400 36.42300
H  30.02900 -1.53500 36.53900
Mg 30.11400 58.88100 38.25700
C  27.44200 56.54200 37.65500
C  32.18300 56.15300 38.13800
C  32.65100 61.07100 38.36700
C  27.79200 61.43900 38.12500
N  29.82100 56.53600 37.72700
C  28.65700 55.86400 37.65500
C  28.90500 54.33600 37.59300
C  30.51900 54.19500 37.80500
C  30.89700 55.69700 37.91600
C  30.83100 53.36700 39.02200
C  28.49600 53.60500 36.25000
C  29.12600 54.17700 34.88500
H  28.14900 54.72600 33.91400
N  32.13600 58.65500 38.21400
C  32.81500 57.42300 38.23600
C  34.26700 57.67800 38.30300
C  34.40700 59.13900 38.29600
C  33.01300 59.69100 38.30000
C  35.25500 56.52500 38.21300
C  35.80300 59.83400 38.30400
O  36.85400 59.24300 38.48100
C  35.77900 61.27000 38.29100
N  30.24100 60.93300 38.26500
C  31.38700 61.64300 38.43200
C  31.12500 63.19900 38.55000
C  29.61000 63.23000 38.60700
C  29.18000 61.78200 38.26200
C  31.91300 63.94300 39.66900
C  29.00300 64.35900 37.67900
C  27.92300 65.26100 38.18600
N  28.06700 59.02200 37.84100
C  27.26400 60.16300 37.84400
C  25.91600 59.77000 37.57800
C  25.93000 58.38500 37.53500
C  27.24200 57.96500 37.65400
C  24.74100 60.70500 37.31000
C  25.07900 57.25900 37.37400
O  23.84000 57.18400 37.20700
C  26.04200 56.06100 37.40700
C  25.59600 55.16900 38.51500
O  25.80300 55.35000 39.71200
O  24.95500 54.06700 38.02300
C  24.25100 53.31400 39.05900
H  32.86300 55.32400 37.92700
H  33.31800 61.93500 38.39600
H  27.09700 62.28100 38.10900
H  28.26400 53.79300 38.28800
H  31.05200 53.77200 36.95300
H  30.10800 52.56800 39.18500
H  30.94700 53.95300 39.93400
H  31.75600 52.86200 38.74500
H  27.41100 53.64600 36.15000
H  28.76600 52.55700 36.38100
H  29.53400 53.36200 34.28800
H  29.89200 54.92700 35.07900
H  35.34800 56.18600 37.18100
H  34.78500 55.71400 38.76900
H  36.20500 56.74900 38.69900
H  35.29200 61.65200 39.18800
H  35.20500 61.76100 37.50500
H  36.76200 61.71500 38.13200
H  31.48100 63.56600 37.58700
H  29.39500 63.47700 39.64700
H  32.52500 63.17300 40.13800
H  31.16800 64.40000 40.32100
H  32.55300 64.73500 39.28100
H  28.58900 63.88400 36.78900
H  29.80300 65.03700 37.38200
H  27.18700 65.63900 37.47600
H  28.21400 66.20200 38.65200
H  27.43600 64.67800 38.96800
H  23.96400 60.14600 36.78900
H  25.10700 61.40300 36.55700
H  24.40700 61.09200 38.27300
H  25.93000 55.61000 36.42100
H  23.73800 53.93600 39.79200
H  24.94100 52.60500 39.51600
H  23.40200 52.87600 38.53400

