158

Mg 28.54600 58.35300 42.81700
C  26.34300 56.34400 41.14500
C  31.13000 57.08100 41.00600
C  30.62400 61.07300 43.64100
C  26.03900 60.19200 44.15700
N  28.67200 56.81900 41.31300
C  27.67800 56.10000 40.72900
C  28.13200 54.95900 39.89100
C  29.74500 55.18900 39.95100
C  29.90100 56.41500 40.86300
C  30.64100 53.95000 40.28200
C  27.54200 55.22300 38.48400
C  26.77200 53.97800 37.86900
H  27.22800 53.58700 36.52000
N  30.66900 58.78900 42.64200
C  31.50800 58.09800 41.81400
C  32.81300 58.66000 41.90400
C  32.71000 59.89400 42.60600
C  31.31100 59.96900 43.05300
C  34.04300 58.24400 41.07200
C  33.92500 60.89200 42.82800
O  35.04100 60.62400 42.46900
C  33.78700 62.11800 43.61500
N  28.46100 60.42300 43.72000
C  29.37100 61.33700 44.00200
C  28.88400 62.60700 44.62200
C  27.42000 62.23100 44.95200
C  27.24100 60.85200 44.27100
C  29.61700 63.05400 45.96000
C  26.29700 63.23500 44.55300
C  25.40400 63.63400 45.73800
N  26.58300 58.27100 42.77600
C  25.64600 59.10900 43.34400
C  24.31800 58.57200 43.03700
C  24.53600 57.49800 42.20100
C  25.98100 57.39500 42.03900
C  23.02000 59.12000 43.57500
C  23.90800 56.44200 41.44300
O  22.73500 56.08400 41.45000
C  25.04200 55.62500 40.76700
C  24.93100 54.22600 41.31300
O  25.34200 53.80600 42.37300
O  24.28400 53.49800 40.36100
C  24.05600 52.08500 40.77600
H  31.89900 56.64000 40.36800
H  31.15800 61.95100 44.01000
H  25.25700 60.67800 44.74300
H  27.94400 54.02600 40.42300
H  30.11800 55.51400 38.98000
H  30.15500 52.97500 40.29700
H  31.10800 54.21900 41.22900
H  31.40400 53.75100 39.53000
H  28.35500 55.42900 37.78900
H  26.78200 56.00500 38.44600
H  25.70600 54.19800 37.80200
H  27.02200 53.19300 38.58300
H  33.99300 58.81500 40.14400
H  33.93300 57.21900 40.71800
H  34.99200 58.36600 41.59300
H  33.04500 62.88100 43.38300
H  34.76500 62.59600 43.55700
H  33.73500 61.93200 44.68700
H  28.67400 63.29200 43.80100
H  27.20500 61.98500 45.99200
H  29.40700 64.11400 46.10700
H  30.67200 62.93600 45.71100
H  29.29800 62.48400 46.83200
H  25.63000 62.76100 43.83300
H  26.63500 64.11700 44.00800
H  25.84600 64.26300 46.51000
H  25.07000 62.72200 46.23200
H  24.51400 64.15900 45.39100
H  23.03900 60.21000 43.58300
H  22.86100 58.79900 44.60500
H  22.23600 58.70400 42.94300
H  24.91300 55.56700 39.68600
H  23.81100 52.06200 41.83800
H  24.93300 51.49400 40.51000
H  23.21700 51.70700 40.19200
Mg -11.73800 37.90500 41.11100
C  -9.40600 35.22900 40.43200
C  -9.41500 40.10000 39.92700
C  -14.23700 40.19100 41.03800
C  -13.99700 35.41600 42.14200
N  -9.78500 37.60900 40.03300
C  -8.97900 36.47600 40.00300
C  -7.56300 36.77000 39.42700
C  -7.57700 38.36200 39.44300
C  -9.02200 38.69100 39.81200
C  -6.67100 39.03300 40.50400
C  -7.39100 36.18300 38.02100
C  -6.38900 35.04300 37.90500
H  -5.25600 35.25800 36.87800
N  -11.80500 39.86400 40.63200
C  -10.67800 40.64100 40.25000
C  -11.14500 41.97200 40.18300
C  -12.50400 42.03000 40.51000
C  -12.91500 40.65000 40.69600
C  -10.25800 43.14400 39.80800
C  -13.34800 43.26600 40.58800
O  -12.94800 44.37800 40.22300
C  -14.84300 43.21800 41.04700
N  -13.81800 37.77800 41.43400
C  -14.66300 38.88600 41.38300
C  -16.12300 38.44500 41.67700
C  -15.89200 36.98700 42.20800
C  -14.47500 36.70600 41.94400
C  -16.94500 39.45500 42.57900
C  -16.87500 35.85800 41.75700
C  -17.58400 35.00900 42.89400
N  -11.83100 35.80500 41.29200
C  -12.75400 34.95400 41.85200
C  -12.22200 33.63300 41.99800
C  -10.97900 33.67900 41.38700
C  -10.77200 34.99500 40.96900
C  -12.82200 32.40600 42.60200
C  -9.79600 32.87100 41.14000
O  -9.51700 31.73000 41.43800
C  -8.79300 33.88300 40.57300
C  -7.52700 33.74900 41.34400
O  -6.68600 32.83100 41.14900
O  -7.38900 34.73400 42.22400
C  -6.14000 34.84600 43.05300
H  -8.67300 40.88000 39.74500
H  -15.13100 40.81900 41.06400
H  -14.58000 34.66100 42.67500
H  -6.82400 36.41500 40.14500
H  -7.21700 38.81800 38.52100
H  -6.64500 40.05400 40.12200
H  -5.64500 38.66900 40.54300
H  -7.23500 38.97100 41.43500
H  -6.99600 36.88600 37.28800
H  -8.35500 35.84500 37.64100
H  -6.93400 34.15300 37.58900
H  -5.97500 34.92200 38.90600
H  -9.24400 42.78400 39.63500
H  -10.17900 43.96000 40.52600
H  -10.63800 43.50500 38.85200
H  -15.05000 44.28800 41.03900
H  -14.88400 42.80400 42.05400
H  -15.51300 42.70300 40.35900
H  -16.71000 38.39700 40.75900
H  -16.02200 37.00500 43.29000
H  -17.58800 38.95700 43.30500
H  -17.51700 40.03700 41.85600
H  -16.25300 40.09400 43.12800
H  -16.39200 35.24800 40.99300
H  -17.77400 36.27400 41.30000
H  -18.56400 35.46000 43.05500
H  -17.02700 35.10000 43.82600
H  -17.73700 33.97200 42.59400
H  -13.89900 32.49500 42.74700
H  -12.37200 32.08200 43.54000
H  -12.69800 31.51500 41.98700
H  -8.67600 33.48700 39.56500
H  -5.28100 34.53000 42.46100
H  -6.22300 34.26900 43.97400
H  -5.97000 35.91000 43.21700

