158

Mg 24.01000 -5.82300 45.63100
C  26.19400 -3.43700 44.30800
C  21.47800 -4.32400 43.80700
C  22.03700 -8.45400 46.39600
C  26.88900 -7.62000 46.83500
N  23.94700 -4.28200 44.07200
C  24.96700 -3.43900 43.70000
C  24.51300 -2.40800 42.71900
C  22.93200 -2.49200 42.81800
C  22.77400 -3.80000 43.54400
C  22.12700 -1.30000 43.58800
C  25.17900 -2.70400 41.29100
C  25.76300 -1.45400 40.59500
H  25.78000 -1.49100 39.00500
N  22.00400 -6.31800 45.28300
C  21.15100 -5.45600 44.58400
C  19.82300 -6.15500 44.64600
C  19.95400 -7.41200 45.29300
C  21.34200 -7.45300 45.73700
C  18.57200 -5.57100 43.97500
C  18.77200 -8.30300 45.64300
O  17.59700 -8.06500 45.37400
C  19.00400 -9.54500 46.43300
N  24.40600 -7.72800 46.57700
C  23.34700 -8.55200 46.87500
C  23.85000 -9.84300 47.47500
C  25.40000 -9.57600 47.68500
C  25.57400 -8.23000 47.02000
C  22.99500 -10.29500 48.73000
C  26.35700 -10.65100 47.05700
C  25.98000 -12.17800 47.23300
N  26.05200 -5.52300 45.83500
C  27.06900 -6.31500 46.29300
C  28.30100 -5.62900 46.05700
C  28.00600 -4.44800 45.30400
C  26.64200 -4.43700 45.15800
C  29.64600 -6.08700 46.57500
C  28.54700 -3.30000 44.58800
O  29.72700 -3.06100 44.43600
C  27.39200 -2.54600 43.96000
C  27.27900 -1.16900 44.50900
O  26.39400 -0.75900 45.26200
O  28.22500 -0.38600 43.95600
C  28.19300 1.06600 44.23300
H  20.68100 -3.81000 43.26500
H  21.49400 -9.38400 46.57500
H  27.64300 -8.31000 47.21900
H  24.76500 -1.39400 43.02700
H  22.53000 -2.60800 41.81200
H  21.91300 -1.49400 44.63900
H  21.21000 -1.31600 42.99900
H  22.63500 -0.34200 43.47900
H  24.50700 -3.16200 40.56500
H  26.00100 -3.41300 41.39400
H  26.83100 -1.51900 40.80100
H  25.30700 -0.52100 40.92600
H  18.33600 -6.20200 43.11800
H  18.80700 -4.56900 43.61600
H  17.66700 -5.47000 44.57400
H  18.12000 -10.18100 46.38000
H  19.26900 -9.14200 47.41100
H  19.72600 -10.23200 45.99300
H  23.73600 -10.54200 46.64700
H  25.72000 -9.45800 48.72100
H  22.05200 -9.75900 48.84200
H  23.51100 -10.05400 49.65900
H  22.85300 -11.37500 48.74900
H  27.38400 -10.50200 47.38800
H  26.48300 -10.46700 45.99100
H  25.89600 -12.62200 46.24100
H  25.02200 -12.29200 47.74000
H  26.67000 -12.67400 47.91500
H  29.90100 -6.93400 45.93900
H  29.63900 -6.46100 47.59800
H  30.33100 -5.24100 46.51700
H  27.58800 -2.58200 42.88800
H  28.50200 1.30500 45.25100
H  27.16700 1.43300 44.20200
H  28.73900 1.72900 43.56200
Mg -12.63600 37.75400 41.86200
C  -10.16100 35.47400 40.85700
C  -10.56600 40.24600 40.71100
C  -15.26200 40.04200 42.22800
C  -14.61300 35.21700 42.90700
N  -10.66700 37.79100 40.62800
C  -9.77500 36.75300 40.50100
C  -8.55800 37.28300 39.72500
C  -8.54300 38.77100 40.12600
C  -9.99300 38.97000 40.53300
C  -7.52100 39.17000 41.31500
C  -8.70100 36.79500 38.21800
C  -7.54400 36.00700 37.74300
H  -6.58300 36.68200 36.70700
N  -12.90200 39.90200 41.46400
C  -11.89600 40.68700 41.01700
C  -12.35500 42.03600 40.94400
C  -13.71600 42.04200 41.39300
C  -14.07000 40.63800 41.70000
C  -11.51600 43.18200 40.57900
C  -14.63100 43.32600 41.52000
O  -14.21500 44.43600 41.27500
C  -16.02100 43.13500 41.93300
N  -14.76300 37.56100 42.37000
C  -15.56200 38.65400 42.63700
C  -16.83500 38.23900 43.31100
C  -16.66900 36.62700 43.47300
C  -15.28000 36.41400 42.87900
C  -17.20600 38.84100 44.68300
C  -17.89300 35.84600 42.96100
C  -17.91500 35.79200 41.37100
N  -12.54000 35.73200 41.82700
C  -13.40200 34.81200 42.33000
C  -12.77200 33.50000 42.20700
C  -11.55100 33.65100 41.59600
C  -11.44800 35.05000 41.39600
C  -13.35900 32.33600 42.87700
C  -10.30700 33.01900 40.96800
O  -9.99600 31.83300 40.78500
C  -9.36200 34.22800 40.55800
C  -8.16500 34.16500 41.41700
O  -8.12000 34.67900 42.53100
O  -7.14600 33.43100 40.79700
C  -5.86700 33.41900 41.47300
H  -9.79300 41.00300 40.56000
H  -16.11100 40.70200 42.42200
H  -15.16800 34.40900 43.38900
H  -7.62900 36.90300 40.14900
H  -8.26500 39.41900 39.29500
H  -6.71400 38.44600 41.42700
H  -8.00900 39.40300 42.26100
H  -6.94100 40.05400 41.05000
H  -8.81700 37.67600 37.58800
H  -9.54000 36.11400 38.07500
H  -7.85700 35.10500 37.21700
H  -7.00100 35.64900 38.61700
H  -12.04100 43.93600 39.99300
H  -10.58800 42.87800 40.09300
H  -11.17800 43.63800 41.50900
H  -16.52300 42.41300 41.28800
H  -16.54500 44.08900 41.87100
H  -15.87200 42.77200 42.95000
H  -17.71000 38.50900 42.71900
H  -16.48100 36.30200 44.49700
H  -17.54300 38.06900 45.37500
H  -17.99600 39.56800 44.49400
H  -16.35300 39.25900 45.21800
H  -18.76000 36.37500 43.35600
H  -17.98100 34.83800 43.36700
H  -18.84900 35.94900 40.83100
H  -17.42600 34.88500 41.01600
H  -17.21700 36.52700 40.97000
H  -12.88300 32.08200 43.82400
H  -13.43000 31.48500 42.20000
H  -14.38700 32.47800 43.21000
H  -9.06500 34.00900 39.53200
H  -5.72200 32.42600 41.89800
H  -5.78400 34.04700 42.36000
H  -5.09300 33.48400 40.70900

