158

Mg -0.77300 17.82800 27.07900
C  -1.48700 15.81300 30.02600
C  -1.28900 20.59300 29.21300
C  -0.65200 19.69700 24.39100
C  -1.03800 14.95400 25.14000
N  -1.20200 18.17300 29.43500
C  -1.44400 17.22500 30.35900
C  -1.65400 17.85400 31.76000
C  -2.02000 19.32400 31.38800
C  -1.52700 19.39400 29.92700
C  -3.61000 19.54500 31.61600
C  -0.50000 17.68600 32.76200
C  -0.91000 16.98900 33.99800
H  0.11400 16.38100 35.05700
N  -0.75700 19.94000 26.81300
C  -0.91700 20.87700 27.81900
C  -0.77600 22.17300 27.15600
C  -0.56300 21.93200 25.73600
C  -0.65200 20.44700 25.57700
C  -1.00800 23.54000 27.79400
C  -0.32000 22.91200 24.57900
O  -0.11900 22.54900 23.40300
C  -0.23900 24.42300 24.91800
N  -0.62700 17.39200 25.07900
C  -0.67100 18.34000 24.15200
C  -0.59600 17.67800 22.75900
C  -0.63000 16.18100 23.05700
C  -0.68700 16.13800 24.54600
C  -1.55200 18.20300 21.75600
C  0.53500 15.41400 22.38500
C  1.92900 15.54200 22.99700
N  -1.16500 15.77600 27.48000
C  -1.23300 14.76000 26.51100
C  -1.49300 13.57200 27.20500
C  -1.61600 13.87500 28.58100
C  -1.47500 15.31700 28.68200
C  -1.77500 12.21500 26.64600
C  -1.91500 13.36900 29.89200
O  -2.09100 12.15900 30.18100
C  -1.75000 14.56000 30.92500
C  -0.77100 14.23400 31.90800
O  0.33900 14.67400 31.92000
O  -1.30600 13.45600 32.90700
C  -0.26700 13.12100 33.90600
H  -1.41100 21.52700 29.76500
H  -0.73400 20.18400 23.41700
H  -1.05900 14.05100 24.52700
H  -2.58300 17.35700 32.04000
H  -1.54000 20.05800 32.03600
H  -4.04300 19.62700 30.61900
H  -3.83200 20.44700 32.18500
H  -4.20800 18.74000 32.04200
H  -0.12800 18.64700 33.11700
H  0.43300 17.21900 32.44400
H  -1.82000 16.45000 33.73300
H  -1.32900 17.78300 34.61500
H  -1.72200 24.22600 27.33700
H  -0.10500 24.13000 27.95100
H  -1.35800 23.39000 28.81500
H  -1.20200 24.82000 25.23900
H  0.07300 24.88800 23.98300
H  0.57400 24.66400 25.60200
H  0.40600 17.91300 22.40200
H  -1.61200 15.82300 22.74900
H  -2.23400 18.95700 22.14800
H  -2.19700 17.45900 21.28700
H  -1.05500 18.75200 20.95600
H  0.59700 15.80600 21.36900
H  0.27900 14.36600 22.22900
H  1.96200 16.14300 23.90600
H  2.54800 15.99000 22.22000
H  2.24400 14.54100 23.29400
H  -1.53100 11.52500 27.45400
H  -1.03300 11.97100 25.88500
H  -2.80000 12.05700 26.31100
H  -2.71200 14.51100 31.43500
H  -0.19900 12.03300 33.87800
H  -0.70100 13.47200 34.84200
H  0.76200 13.47100 33.83100
Mg 16.95600 53.06000 26.61700
C  18.85600 51.47500 29.03500
C  14.50200 53.61600 28.90600
C  14.96800 54.19400 24.11300
C  19.32600 52.01600 24.14000
N  16.60400 52.48900 28.64200
C  17.60000 51.96100 29.45700
C  17.27300 52.27200 30.89800
C  15.78900 52.63000 30.82800
C  15.53600 52.81700 29.35400
C  14.86500 51.61600 31.45900
C  18.17600 53.39700 31.50300
C  18.63200 53.18400 32.91500
H  17.67100 52.38000 33.82400
N  15.06700 53.95600 26.52200
C  14.23900 54.16000 27.63200
C  13.04800 54.87700 27.23600
C  13.09300 54.96800 25.81900
C  14.41200 54.38800 25.37300
C  11.98100 55.22500 28.26900
C  12.09200 55.62100 24.85100
O  12.39600 55.64900 23.64600
C  10.89300 56.44000 25.37100
N  17.11400 52.97700 24.42200
C  16.11700 53.55900 23.66800
C  16.44900 53.29600 22.14400
C  17.99800 52.95100 22.18800
C  18.18000 52.63200 23.66400
C  15.48400 52.28100 21.47800
C  19.01700 53.94800 21.59500
C  19.51900 55.20900 22.35500
N  18.75900 51.84200 26.53900
C  19.65300 51.60600 25.47300
C  20.76800 50.79000 26.05100
C  20.47000 50.84500 27.45200
C  19.25200 51.41800 27.69000
C  21.90900 50.22000 25.26600
C  21.06100 50.40500 28.73100
O  22.11900 49.84100 28.95900
C  20.00900 50.90300 29.81500
C  19.65600 49.80000 30.60800
O  19.07500 48.77900 30.25000
O  19.99400 50.00700 31.89600
C  19.54800 48.95400 32.76500
H  13.75200 53.79900 29.67800
H  14.35200 54.51100 23.26800
H  20.01300 51.76000 23.33000
H  17.48800 51.39200 31.50500
H  15.69100 53.62500 31.26200
H  14.14100 52.12500 32.09600
H  15.33100 50.76700 31.95900
H  14.35400 51.22100 30.58000
H  17.73300 54.37500 31.31400
H  19.07200 53.51000 30.89200
H  18.66500 54.10700 33.49400
H  19.56700 52.63400 33.02200
H  11.15500 54.52300 28.38000
H  11.50500 56.15400 27.95700
H  12.46300 55.49600 29.20900
H  10.26000 55.91800 26.08800
H  10.27200 56.66700 24.50400
H  11.27500 57.34100 25.85000
H  16.37300 54.28400 21.68900
H  18.24000 51.98800 21.74000
H  16.13200 51.48800 21.10500
H  14.85100 52.57900 20.64300
H  14.87500 51.74700 22.20900
H  18.50500 54.33600 20.71400
H  19.84700 53.27000 21.39500
H  18.81800 55.49300 23.14000
H  19.43700 56.06800 21.68900
H  20.56500 55.09200 22.63800
H  22.49700 51.12500 25.10900
H  21.79100 49.69800 24.31600
H  22.52700 49.66300 25.97000
H  20.51700 51.69800 30.36000
H  20.38800 48.26200 32.82900
H  18.56600 48.52100 32.57300
H  19.43800 49.49400 33.70600

