158

Mg 8.82900 3.77600 27.80400
C  10.34100 2.24900 30.61700
C  7.14100 5.63300 29.98800
C  7.42100 5.21100 25.10700
C  10.30900 1.38700 25.80100
N  8.88500 3.97200 30.07800
C  9.59300 3.31800 31.01800
C  9.30800 3.75500 32.44300
C  8.12100 4.77900 32.20400
C  8.02200 4.76100 30.63000
C  6.75300 4.30600 32.80100
C  10.57100 4.26500 33.21300
C  10.26800 5.38500 34.27400
H  11.04700 5.48500 35.63800
N  7.47400 5.22400 27.54700
C  6.87400 5.83800 28.61400
C  6.02900 6.88900 28.07800
C  6.05700 6.77000 26.64800
C  7.02200 5.72000 26.38900
C  5.13100 7.82400 28.92700
C  5.19900 7.49800 25.53700
O  5.40200 7.25200 24.32700
C  4.07000 8.39700 25.91300
N  9.02400 3.47600 25.70000
C  8.24000 4.10400 24.86700
C  8.38000 3.56500 23.38600
C  9.46100 2.38000 23.57100
C  9.56300 2.34100 25.08900
C  7.00000 3.12000 22.83200
C  10.75700 2.83600 22.86200
C  11.47700 1.68700 22.13700
N  9.95800 2.02200 28.08700
C  10.64300 1.23500 27.17500
C  11.40200 0.28500 27.84300
C  11.37000 0.63800 29.16800
C  10.47300 1.73400 29.27800
C  12.15600 -0.84600 27.09600
C  11.82900 0.30000 30.51800
O  12.52700 -0.59400 30.94600
C  11.23700 1.42900 31.47300
C  10.61100 0.72200 32.66200
O  9.58800 0.04900 32.61500
O  11.43400 0.82800 33.74100
C  10.73600 0.35700 34.99200
H  6.40900 6.08300 30.66300
H  6.99400 5.61200 24.18600
H  10.70100 0.59300 25.16200
H  8.92900 2.83800 32.89400
H  8.32100 5.80100 32.52600
H  6.74400 3.37700 33.37100
H  5.97400 4.24300 32.04200
H  6.41600 5.06200 33.51100
H  11.30800 4.71200 32.54500
H  11.11800 3.43600 33.66100
H  9.20900 5.29800 34.51700
H  10.53800 6.35500 33.85700
H  5.45000 8.81200 28.59500
H  5.27700 7.58600 29.98100
H  4.08900 7.67500 28.64400
H  3.69000 8.75900 24.95800
H  4.55200 9.25000 26.39200
H  3.33000 7.91900 26.55500
H  8.71700 4.35800 22.71900
H  9.13400 1.46400 23.07900
H  6.36900 3.13800 23.72100
H  7.05000 2.09000 22.48100
H  6.56100 3.89500 22.20400
H  11.47200 3.25300 23.57200
H  10.61600 3.53000 22.03300
H  11.71100 0.98300 22.93600
H  12.36400 1.98800 21.58000
H  10.68900 1.25000 21.52400
H  13.06300 -0.45500 26.63500
H  11.51100 -1.31100 26.35100
H  12.46800 -1.54600 27.87100
H  11.95200 2.14400 31.88100
H  10.59200 1.09700 35.78000
H  11.47900 -0.30900 35.42900
H  9.80900 -0.20900 34.89900
Mg 35.49200 1.54900 29.58900
C  33.57700 3.03600 32.09400
C  38.24400 2.02000 31.63800
C  37.43400 0.75200 26.98600
C  32.74700 1.95000 27.47900
N  35.79300 2.22900 31.68900
C  34.82000 2.65500 32.56600
C  35.34900 2.88700 34.00500
C  36.90300 2.50800 33.80800
C  37.01500 2.29100 32.27100
C  37.93300 3.58900 34.34000
C  34.60800 1.99400 35.09900
C  34.06900 2.73400 36.30800
H  34.85500 3.97100 36.73700
N  37.50900 1.17800 29.36900
C  38.45500 1.45000 30.35800
C  39.80800 1.11500 29.79700
C  39.59000 0.68000 28.45200
C  38.15400 0.96700 28.22900
C  41.16000 1.13700 30.49300
C  40.58800 0.00400 27.44900
O  40.13900 -0.38900 26.31000
C  42.12500 -0.01000 27.65200
N  35.17000 1.42400 27.51200
C  36.08500 0.86400 26.66300
C  35.51300 0.76300 25.25300
C  33.93700 0.86300 25.52100
C  33.95400 1.39600 26.92400
C  35.98800 1.88100 24.17000
C  33.20400 -0.53700 25.39400
C  32.17000 -0.73500 24.23000
N  33.60800 2.42600 29.61600
C  32.61300 2.51600 28.71500
C  31.38400 3.18300 29.15200
C  31.76200 3.33900 30.50900
C  33.07000 2.90000 30.74700
C  30.13200 3.49300 28.34800
C  31.24900 3.92300 31.69900
O  30.17300 4.42100 31.86900
C  32.30500 3.60000 32.77000
C  32.54200 4.90200 33.47500
O  33.39000 5.66800 33.22300
O  31.52200 5.12600 34.35300
C  31.51400 6.39600 35.09600
H  39.14100 2.07900 32.25800
H  37.97300 0.27100 26.16700
H  31.92000 1.85600 26.77100
H  35.31000 3.95100 34.23900
H  37.18500 1.57100 34.28900
H  37.29600 4.37500 34.74600
H  38.52000 4.00200 33.52000
H  38.58000 3.09400 35.06400
H  35.16100 1.12500 35.45700
H  33.70600 1.58100 34.64800
H  33.90000 2.05400 37.14300
H  33.13300 3.17600 35.96700
H  41.80000 2.01000 30.36800
H  41.62900 0.17100 30.30400
H  41.04100 1.08700 31.57500
H  42.69900 0.33500 26.79200
H  42.47400 -0.97700 28.01400
H  42.42700 0.78500 28.33500
H  35.76400 -0.23300 24.88900
H  33.45200 1.58100 24.86000
H  35.24400 2.60600 23.84100
H  36.34000 1.37500 23.27200
H  36.85200 2.35200 24.63800
H  32.71400 -0.70500 26.35400
H  34.01300 -1.24900 25.23300
H  32.43200 -1.52700 23.52900
H  31.99900 0.13200 23.59100
H  31.19800 -0.97400 24.66100
H  30.39700 4.23200 27.59300
H  29.23600 3.72000 28.92500
H  29.86600 2.64700 27.71400
H  31.73200 2.91200 33.39100
H  32.35100 7.04400 34.83600
H  31.70800 6.23300 36.15600
H  30.63600 7.03500 35.00800

