158

Mg 49.73400 44.86100 42.00300
C  46.28400 44.54200 41.12200
C  49.91400 41.36800 41.51200
C  53.03700 45.11400 42.03100
C  49.31600 48.20900 42.44000
N  48.27000 43.21700 41.31800
C  46.93400 43.32200 41.10300
C  46.35800 41.94200 40.72100
C  47.38800 40.93400 41.22800
C  48.62100 41.89500 41.40700
C  47.06900 40.12600 42.57400
C  46.00800 41.83200 39.24000
C  44.60500 41.36900 38.91700
H  44.22300 41.53300 37.46700
N  51.28500 43.43100 41.88500
C  51.12900 42.06600 41.65100
C  52.46400 41.45500 41.77900
C  53.40100 42.51300 41.93300
C  52.58000 43.76100 41.92600
C  52.77600 39.94900 41.57300
C  54.92600 42.41500 41.85600
O  55.55300 41.30900 41.75500
C  55.87300 43.59400 41.90100
N  50.97800 46.44200 42.06500
C  52.32200 46.29300 42.17800
C  52.94800 47.70200 42.51800
C  51.74300 48.65700 42.70300
C  50.61600 47.71100 42.45200
C  53.97400 47.86100 43.68800
C  51.79500 49.89700 41.67800
C  52.30700 51.15700 42.31700
N  48.17900 46.15700 41.78100
C  48.15400 47.49200 42.10000
C  46.70900 48.02300 41.95600
C  46.00700 46.86600 41.54100
C  46.92700 45.77100 41.40600
C  46.17600 49.36300 42.22100
C  44.69100 46.44100 40.95700
O  43.67100 47.09800 40.72200
C  44.84800 44.84100 40.77700
C  43.79400 44.21200 41.61400
O  42.60600 43.97400 41.27300
O  44.27000 43.96500 42.83300
C  43.48100 43.12400 43.74600
H  49.91200 40.27600 41.48400
H  54.08300 45.36800 42.21900
H  49.21600 49.25000 42.75200
H  45.45500 41.83800 41.32300
H  47.60200 40.17400 40.47600
H  48.03000 40.21400 43.08100
H  46.91800 39.05000 42.49400
H  46.37400 40.59800 43.26900
H  46.53600 41.04800 38.69700
H  46.19000 42.82800 38.83600
H  43.95100 41.91600 39.59600
H  44.46600 40.30000 39.08400
H  53.49100 39.84800 40.75600
H  51.85300 39.39800 41.39200
H  53.43900 39.64700 42.38300
H  55.62200 44.17700 41.01500
H  56.87000 43.15300 41.89600
H  55.53700 44.03900 42.83800
H  53.49100 47.95900 41.60900
H  51.69300 49.08100 43.70600
H  54.84400 48.45300 43.40400
H  54.32500 46.84000 43.84200
H  53.59900 48.28300 44.62000
H  50.80200 50.06300 41.26100
H  52.37900 49.69600 40.77900
H  53.12200 51.54300 41.70400
H  52.77100 50.72800 43.20500
H  51.40700 51.75100 42.47400
H  45.36900 49.49200 41.50100
H  46.96300 50.06600 41.94900
H  45.78700 49.76100 43.15800
H  44.59400 44.73300 39.72300
H  42.88200 42.38900 43.20800
H  42.82600 43.75000 44.35100
H  44.20100 42.65000 44.41300
Mg -0.16300 44.35900 26.18400
C  2.00300 44.19400 28.97000
C  -2.78400 43.94500 28.30200
C  -2.03500 43.72100 23.40300
C  2.71500 44.46100 24.15300
N  -0.29900 44.03600 28.39100
C  0.63900 44.21800 29.32500
C  0.02900 44.00300 30.72800
C  -1.46700 43.90800 30.43600
C  -1.50900 43.94900 28.90500
C  -2.20000 42.67800 31.02700
C  0.45900 45.17900 31.68200
C  1.28600 44.94000 32.97300
H  0.67900 43.79500 33.91400
N  -2.20700 44.06700 25.90500
C  -3.09300 43.93800 26.90900
C  -4.42600 43.73300 26.34600
C  -4.24500 43.62000 24.94500
C  -2.76700 43.80100 24.66700
C  -5.65800 43.78100 27.26200
C  -5.29700 43.33500 23.88400
O  -4.96500 43.27000 22.68300
C  -6.65900 43.06400 24.22300
N  0.27100 44.10900 24.11000
C  -0.64900 43.80300 23.16100
C  -0.03600 43.58600 21.67200
C  1.39400 43.95500 22.04200
C  1.49100 44.30100 23.51000
C  -0.21200 42.09200 21.33000
C  1.93600 45.19800 21.20400
C  1.59500 46.50500 21.75400
N  1.90700 44.45500 26.43300
C  2.94100 44.42300 25.50100
C  4.21700 44.28900 26.21800
C  3.88300 44.24100 27.59300
C  2.47400 44.31300 27.66100
C  5.63900 44.27400 25.68400
C  4.49700 44.02400 28.86700
O  5.63100 43.79200 29.20200
C  3.28900 43.99000 29.87100
C  3.32400 42.69900 30.60900
O  2.97100 41.63700 30.19300
O  3.90900 42.88900 31.85600
C  4.13900 41.71800 32.76500
H  -3.55600 43.80900 29.06200
H  -2.68000 43.59700 22.53000
H  3.56400 44.61700 23.48400
H  0.54000 43.16100 31.19600
H  -2.05800 44.78200 30.71200
H  -3.23200 42.96000 31.23100
H  -1.68400 42.45600 31.96200
H  -2.28600 41.78800 30.40400
H  -0.40800 45.79700 31.91800
H  1.09400 45.83100 31.08200
H  1.40600 45.79900 33.63400
H  2.33100 44.69700 32.78200
H  -5.66100 42.82100 27.77700
H  -6.58300 43.98000 26.72000
H  -5.56600 44.64300 27.92300
H  -7.20300 42.78300 23.32200
H  -7.18300 43.86000 24.75200
H  -6.70500 42.24800 24.94500
H  -0.54500 44.31300 21.03900
H  2.07000 43.14100 21.78300
H  -0.60300 41.52200 22.17300
H  0.76100 41.64200 21.13600
H  -0.97100 41.99800 20.55400
H  1.51900 45.23600 20.19700
H  3.02200 45.20700 21.10800
H  2.47800 46.94600 22.21600
H  0.75000 46.45400 22.44100
H  1.28200 47.21000 20.98400
H  5.73500 44.03500 24.62500
H  6.27400 43.53000 26.16600
H  5.95800 45.27600 25.97000
H  3.43700 44.78500 30.60200
H  3.74700 41.92600 33.76100
H  5.21800 41.70200 32.92000
H  3.84700 40.74100 32.38000

