158

Mg 41.79200 41.06200 26.10000
C  40.99700 43.31200 28.67300
C  42.86300 38.74400 28.57100
C  42.84300 39.07800 23.68600
C  41.13800 43.60300 23.76600
N  41.79600 41.03800 28.35000
C  41.39800 42.10000 29.15600
C  41.45600 41.65200 30.65600
C  42.25800 40.23600 30.55000
C  42.21200 39.94200 29.07800
C  43.66600 40.28800 31.10000
C  40.13400 41.45400 31.40200
C  39.67300 42.61300 32.32200
H  39.78000 42.50800 33.84000
N  42.63900 39.13100 26.13200
C  43.12200 38.39100 27.21900
C  43.66000 37.14100 26.68700
C  43.54700 37.18000 25.26800
C  42.97900 38.45600 24.96300
C  44.02000 36.09600 27.60800
C  43.99200 36.16900 24.15400
O  43.97000 36.39500 22.95000
C  44.52800 34.82300 24.61300
N  42.04700 41.31500 24.09700
C  42.39800 40.24400 23.32000
C  42.17100 40.55600 21.80700
C  41.30100 41.83000 21.83200
C  41.56700 42.33500 23.30000
C  43.51900 40.70700 21.06700
C  39.81100 41.75100 21.47600
C  38.96100 40.74000 22.29500
N  41.22600 43.06200 26.11500
C  41.00900 44.01200 25.06000
C  40.51800 45.23700 25.61000
C  40.44300 45.00500 26.97300
C  40.91900 43.72100 27.20100
C  40.08100 46.46900 24.82700
C  40.16900 45.59300 28.22900
O  39.85500 46.74800 28.51100
C  40.57500 44.51000 29.37000
C  41.66300 45.15600 30.18800
O  42.83600 45.26100 29.83300
O  41.18500 45.54300 31.40600
C  42.20400 46.32900 32.21300
H  43.20900 37.95300 29.24000
H  43.10400 38.53100 22.77700
H  40.77200 44.27900 22.99000
H  42.03600 42.44200 31.13300
H  41.73300 39.38200 30.97800
H  43.68600 39.98400 32.14700
H  43.96900 41.33100 31.00600
H  44.32000 39.70700 30.44900
H  40.14800 40.51600 31.95800
H  39.44900 41.28800 30.57100
H  38.66000 42.82300 31.97800
H  40.35200 43.41000 32.01800
H  43.16400 35.42100 27.62400
H  44.31500 36.35300 28.62500
H  44.83800 35.53800 27.15100
H  43.88100 34.24700 25.27500
H  45.44000 35.03100 25.17300
H  44.76800 34.29200 23.69200
H  41.56400 39.75500 21.38600
H  41.73600 42.56500 21.15500
H  43.95300 39.74000 20.81400
H  44.21700 41.34700 21.60700
H  43.26400 41.27300 20.17100
H  39.72400 41.61800 20.39800
H  39.37600 42.74500 21.57800
H  38.04600 41.20300 22.66500
H  39.54000 40.35300 23.13300
H  38.66000 39.90000 21.66900
H  39.13700 46.22700 24.33800
H  40.88000 46.78000 24.15400
H  39.94200 47.23800 25.58600
H  39.84500 44.43100 30.17600
H  42.25400 47.37300 31.90200
H  43.14100 45.77300 32.23100
H  41.81900 46.26700 33.23100
Mg -0.64500 44.11800 26.80900
C  1.63000 44.11700 29.43900
C  -3.09100 42.92500 28.98100
C  -2.82500 43.74700 24.18300
C  1.86400 44.82000 24.61800
N  -0.68900 43.59500 28.98900
C  0.30000 43.88600 29.87600
C  -0.17900 43.57900 31.25400
C  -1.56400 42.89500 31.02400
C  -1.86100 43.12000 29.56900
C  -1.64400 41.33000 31.40200
C  -0.28300 44.90100 32.14000
C  0.00200 44.78300 33.60000
H  0.15700 43.47500 34.24700
N  -2.70100 43.52800 26.65000
C  -3.46800 43.02500 27.59500
C  -4.71600 42.57300 27.04100
C  -4.73400 42.92700 25.64300
C  -3.36300 43.44600 25.42500
C  -5.73100 41.78700 27.93800
C  -5.80700 42.68500 24.57500
O  -5.67700 42.93200 23.39900
C  -7.09900 42.16200 25.06000
N  -0.51500 44.36200 24.68200
C  -1.51100 44.24800 23.84300
C  -1.11700 44.54800 22.36600
C  0.23500 45.24400 22.62900
C  0.57200 44.78300 24.05900
C  -1.15500 43.21900 21.44600
C  0.19200 46.76800 22.67500
C  1.34700 47.41900 21.92600
N  1.47000 44.45300 26.96300
C  2.29600 44.68900 25.96200
C  3.64400 44.74000 26.54400
C  3.47900 44.57100 27.93400
C  2.12100 44.38200 28.08500
C  4.95800 44.86400 25.83800
C  4.12800 44.44200 29.22300
O  5.29600 44.56400 29.58900
C  2.95900 44.09200 30.23900
C  3.19800 42.73400 30.74800
O  3.16200 41.72100 30.06400
O  3.56400 42.75400 32.05800
C  3.76100 41.40400 32.63800
H  -3.80600 42.52600 29.70300
H  -3.50500 43.56100 23.35000
H  2.67200 45.03400 23.91500
H  0.54500 42.87200 31.66000
H  -2.30400 43.46100 31.59000
H  -0.83700 41.01600 32.06500
H  -1.57000 40.67400 30.53500
H  -2.49900 41.18900 32.06400
H  -1.28300 45.31500 32.01400
H  0.39500 45.67400 31.77900
H  -0.80000 45.37800 34.03700
H  0.94600 45.30900 33.74400
H  -6.78600 41.98300 27.74500
H  -5.64500 42.15600 28.96000
H  -5.60800 40.71000 28.04300
H  -7.63400 41.89100 24.15000
H  -7.62700 42.93000 25.62500
H  -7.02300 41.28300 25.70000
H  -1.71200 45.34000 21.91100
H  0.89500 44.75300 21.91400
H  -0.19000 42.92600 21.03300
H  -1.91600 43.45200 20.70100
H  -1.55300 42.37700 22.01200
H  0.16800 47.08700 23.71700
H  -0.72700 47.15500 22.23500
H  2.08500 46.66000 21.66800
H  1.85200 48.20100 22.49300
H  0.83700 47.89600 21.08800
H  5.00400 43.97700 25.20600
H  5.84300 44.87200 26.47600
H  4.90200 45.74700 25.20200
H  2.90500 44.78100 31.08200
H  2.92300 41.01000 33.21200
H  4.56100 41.32000 33.37300
H  4.12400 40.68700 31.90200

