158

Mg 43.53500 2.99100 46.77200
C  42.88700 6.24900 45.52700
C  40.32100 2.18200 45.88000
C  44.34700 -0.26200 47.44500
C  47.01800 3.93200 47.04100
N  41.88900 4.02100 45.75000
C  41.81400 5.37300 45.43400
C  40.37500 5.79900 44.94800
C  39.60500 4.49300 45.19000
C  40.65000 3.55600 45.75100
C  38.32900 4.67100 46.02800
C  40.49400 6.12400 43.45100
C  39.73800 7.30500 42.93100
H  38.73500 7.09900 41.73800
N  42.53900 1.16300 46.72000
C  41.21700 1.05700 46.28500
C  40.88200 -0.31800 46.26400
C  41.94800 -1.08300 46.69700
C  43.01500 -0.08900 47.03300
C  39.70100 -0.88400 45.57100
C  42.02000 -2.57500 46.76000
O  40.98500 -3.18900 46.60000
C  43.25400 -3.22700 47.10500
N  45.34900 2.00100 47.16000
C  45.39200 0.63500 47.52500
C  46.69800 0.27900 48.13100
C  47.62600 1.53700 47.84000
C  46.63300 2.60000 47.35500
C  46.59500 -0.06700 49.64100
C  48.81300 1.24900 46.88400
C  48.65200 0.44200 45.59600
N  44.79100 4.70500 46.36700
C  46.12200 4.91500 46.51400
C  46.35800 6.33000 46.15400
C  45.10900 6.92700 45.91400
C  44.21400 5.88400 45.96700
C  47.69600 6.99400 45.97900
C  44.47700 8.19700 45.58200
O  44.96600 9.28900 45.40100
C  42.98800 7.76200 45.27700
C  42.13900 8.49000 46.25900
O  41.90300 8.09700 47.37300
O  41.74800 9.67100 45.73500
C  40.79700 10.44300 46.51300
H  39.26600 1.93900 45.74000
H  44.88300 -1.20400 47.57300
H  48.04700 4.29400 47.07600
H  40.02100 6.67000 45.49900
H  39.25100 4.11700 44.23100
H  37.45200 4.79100 45.39200
H  38.32600 5.53600 46.69000
H  38.12800 3.78000 46.62300
H  40.08900 5.31500 42.84300
H  41.54000 6.29700 43.19900
H  40.45800 8.07000 42.63900
H  39.09600 7.78600 43.66900
H  38.96900 -1.36100 46.22400
H  39.98900 -1.50100 44.71900
H  39.02900 -0.11300 45.19300
H  43.30100 -3.17600 48.19300
H  44.07800 -2.78400 46.54600
H  43.24700 -4.25200 46.73300
H  47.11200 -0.59600 47.63000
H  48.00700 1.93300 48.78100
H  45.62700 0.23700 50.03900
H  47.40900 0.45200 50.14600
H  46.76700 -1.13800 49.75600
H  49.66900 0.85900 47.43400
H  49.11100 2.25900 46.60200
H  49.11500 0.87400 44.70800
H  47.59300 0.58800 45.38200
H  49.05200 -0.56100 45.74100
H  48.29500 6.82900 46.87400
H  47.56900 8.05400 45.75700
H  48.22200 6.60800 45.10600
H  42.82300 8.11300 44.25800
H  41.23200 11.09200 47.27300
H  40.06900 9.78300 46.98600
H  40.16400 11.00500 45.82700
Mg 9.14600 47.49500 25.34300
C  7.13300 47.43700 28.50400
C  11.74000 48.34300 27.19200
C  10.89300 47.51400 22.52000
C  6.11300 47.44500 23.55900
N  9.29300 47.85500 27.57500
C  8.41500 47.76400 28.71300
C  9.14000 48.08300 30.02500
C  10.48800 48.80300 29.44900
C  10.53300 48.25800 27.96300
C  10.46000 50.35900 29.46700
C  9.39000 46.82400 30.95900
C  9.07100 47.22800 32.44000
H  8.72700 46.16500 33.50200
N  11.11800 47.77600 24.92100
C  12.06700 48.12800 25.83400
C  13.35900 48.22800 25.12900
C  13.17100 47.87800 23.79800
C  11.69700 47.69700 23.71100
C  14.61700 48.58900 25.86500
C  14.12500 47.66600 22.60800
O  13.59800 47.47800 21.48200
C  15.59800 47.58500 22.84400
N  8.60200 47.65900 23.39900
C  9.52400 47.56000 22.35000
C  8.86200 47.61600 20.93500
C  7.37900 47.39900 21.24900
C  7.35300 47.46500 22.83500
C  9.16400 48.92200 20.14000
C  6.67300 46.12900 20.57600
C  5.24700 46.52600 20.08800
N  7.06100 47.47200 25.86800
C  5.99300 47.47300 25.00700
C  4.70400 47.42200 25.76500
C  5.15300 47.29300 27.15600
C  6.55900 47.34900 27.16100
C  3.31500 47.49300 25.25200
C  4.71300 47.15200 28.51400
O  3.63000 46.84100 28.96600
C  5.99500 47.23400 29.41800
C  6.04800 45.90300 30.22800
O  6.42400 44.83400 29.75500
O  5.63700 46.16500 31.46300
C  5.52800 45.04400 32.42200
H  12.57200 48.53400 27.87400
H  11.32800 47.27600 21.54800
H  5.13100 47.39200 23.08500
H  8.46100 48.75900 30.54400
H  11.37100 48.46600 29.99100
H  10.55500 50.74100 28.45000
H  11.23200 50.72000 30.14700
H  9.67100 50.90900 29.98000
H  10.35600 46.32000 30.98300
H  8.79100 45.91700 30.87200
H  8.27600 47.96800 32.53400
H  9.80900 47.98500 32.70700
H  15.29900 47.74200 25.79500
H  14.43200 48.70200 26.93300
H  14.98500 49.56000 25.53500
H  15.67500 48.50700 23.42000
H  16.09800 47.71500 21.88400
H  15.88000 46.72100 23.44500
H  9.33700 46.76500 20.44600
H  6.84300 48.29800 20.94500
H  9.92200 48.75700 19.37500
H  9.64900 49.63200 20.81100
H  8.26500 49.18900 19.58300
H  6.47700 45.35100 21.31300
H  7.10800 45.72600 19.66200
H  5.23500 46.22900 19.03900
H  5.07100 47.60100 20.12900
H  4.43200 45.97700 20.55900
H  3.08000 46.47600 24.93700
H  3.44400 48.27700 24.50500
H  2.74700 47.95000 26.06200
H  6.03000 48.03100 30.16100
H  5.84800 44.04700 32.11900
H  4.49000 45.01600 32.75400
H  6.11500 45.29700 33.30500

