158

Mg 54.49700 25.08100 44.08400
C  51.43900 26.60200 43.45400
C  52.78300 22.05800 43.22000
C  57.47000 23.57300 43.70700
C  55.85000 28.16400 44.73900
N  52.44500 24.40800 43.21500
C  51.37700 25.24300 43.06400
C  50.09300 24.49500 42.56000
C  50.45400 23.03700 42.90300
C  51.98200 23.15300 43.18100
C  49.76100 22.42100 44.18400
C  49.92200 24.65600 41.01700
C  48.62000 24.08800 40.47700
H  48.45400 24.10200 38.93200
N  55.02200 23.03300 43.68100
C  54.16700 21.98800 43.41100
C  55.03500 20.81700 43.22700
C  56.43600 21.23000 43.29000
C  56.37600 22.64600 43.60400
C  54.42600 19.44500 42.89200
C  57.58700 20.38400 42.93500
O  57.40800 19.18500 42.76300
C  59.00500 20.94100 42.81700
N  56.42000 25.82900 43.86000
C  57.49200 25.00100 43.90800
C  58.71800 25.82000 44.29700
C  58.18000 27.27600 44.46100
C  56.69600 27.10100 44.37700
C  59.65500 25.33500 45.46300
C  58.81200 28.37600 43.43600
C  60.28200 28.71000 43.67700
N  53.82200 27.03500 44.22000
C  54.45800 28.16500 44.55300
C  53.48800 29.29700 44.70600
C  52.24700 28.67800 44.24800
C  52.54000 27.31900 43.92100
C  53.79500 30.72000 45.03600
C  50.84500 28.88500 44.01200
O  50.10200 29.83400 44.21800
C  50.30600 27.60900 43.34800
C  50.01500 28.07200 41.91200
O  50.80500 28.16400 40.99000
O  48.72300 28.30200 41.84800
C  48.15700 28.63600 40.52900
H  52.18900 21.19200 42.92100
H  58.46700 23.16100 43.87800
H  56.25300 29.10600 45.11500
H  49.21200 24.90700 43.04900
H  50.46600 22.34600 42.06100
H  49.03700 21.67600 43.85600
H  49.19400 23.27800 44.54800
H  50.53000 22.13600 44.90200
H  50.65300 24.00600 40.53700
H  49.93600 25.68300 40.65100
H  47.72800 24.50400 40.94500
H  48.56300 23.06600 40.85300
H  54.54100 19.10300 41.86300
H  53.39500 19.25500 43.18900
H  54.95100 18.71300 43.50600
H  59.59700 20.13600 42.38000
H  59.33800 21.11100 43.84100
H  59.13600 21.78600 42.14200
H  59.32500 25.77200 43.39300
H  58.39100 27.76000 45.41400
H  59.22300 24.51200 46.03100
H  59.77400 26.09700 46.23400
H  60.63300 25.08900 45.04800
H  58.34700 29.34600 43.61100
H  58.93000 28.02300 42.41200
H  60.73400 27.95800 44.32300
H  60.39600 29.73000 44.04400
H  60.83700 28.71600 42.73800
H  54.11400 31.29600 44.16800
H  54.56500 30.81600 45.80200
H  52.88900 31.20000 45.40500
H  49.33800 27.39400 43.80000
H  48.71900 29.55600 40.36800
H  47.10900 28.90100 40.66800
H  48.21600 27.88800 39.73800
Mg -4.99600 25.23700 26.13100
C  -3.36800 26.51200 28.91600
C  -6.69000 23.03300 28.37800
C  -6.14000 23.63700 23.49600
C  -2.80800 27.10800 24.14100
N  -4.98100 24.80200 28.27500
C  -4.35200 25.58800 29.21800
C  -4.72700 25.36000 30.64700
C  -5.50400 23.98700 30.46500
C  -5.74600 23.93700 28.93900
C  -4.80800 22.75500 31.00000
C  -5.58600 26.52400 31.37500
C  -6.04900 26.20900 32.81000
H  -5.24000 25.26500 33.63200
N  -6.32500 23.59700 25.95000
C  -7.01100 22.95600 26.99500
C  -8.03400 22.07400 26.30700
C  -7.91800 22.24100 24.84800
C  -6.79000 23.18300 24.71100
C  -8.91000 21.22900 27.21900
C  -8.72100 21.67000 23.68200
O  -8.44200 21.85100 22.49500
C  -9.91000 20.83700 24.01900
N  -4.57100 25.38700 24.14600
C  -5.09400 24.57600 23.24600
C  -4.43500 24.73900 21.86000
C  -3.70500 26.13700 22.00700
C  -3.67900 26.19900 23.52000
C  -3.58000 23.50000 21.28700
C  -4.33800 27.50700 21.40600
C  -3.43300 28.44800 20.57000
N  -3.42600 26.63100 26.41700
C  -2.60100 27.31900 25.53100
C  -1.60900 28.10100 26.26000
C  -1.96200 27.79500 27.64000
C  -3.01500 26.92400 27.64900
C  -0.54600 28.91200 25.76700
C  -1.45000 28.04100 28.99300
O  -0.59800 28.84700 29.43200
C  -2.47700 27.28700 29.90000
C  -1.68700 26.49700 30.81500
O  -0.95000 25.52400 30.56200
O  -1.73200 27.09300 32.08900
C  -0.66200 26.68800 33.01200
H  -7.31400 22.49500 29.09400
H  -6.45500 23.15000 22.57100
H  -2.21500 27.64800 23.39900
H  -3.95800 25.21800 31.40600
H  -6.45900 24.00800 30.99200
H  -4.41800 22.19300 30.15100
H  -5.60300 22.23800 31.53800
H  -4.01000 23.04600 31.68300
H  -6.56900 26.51200 30.90600
H  -5.21900 27.53900 31.22400
H  -7.08500 25.89000 32.69800
H  -6.07000 27.18700 33.29100
H  -8.66100 20.89200 28.22500
H  -9.23300 20.35900 26.64700
H  -9.74100 21.90800 27.41200
H  -9.67000 19.98000 24.64900
H  -10.34500 20.54700 23.06300
H  -10.52600 21.61600 24.46800
H  -5.37200 24.84300 21.31400
H  -2.65000 26.10600 21.73600
H  -3.83000 23.23400 20.25900
H  -3.57400 22.62900 21.94100
H  -2.53500 23.80800 21.28600
H  -4.67400 28.15500 22.21600
H  -5.24700 27.20500 20.88600
H  -2.83500 27.88400 19.85300
H  -3.02700 29.19800 21.24800
H  -4.15300 28.90200 19.88900
H  -0.95600 29.50200 24.94700
H  0.23200 28.27500 25.34700
H  -0.16400 29.59900 26.52100
H  -3.00400 28.09600 30.40500
H  -0.57000 27.52700 33.70200
H  0.30200 26.61700 32.50800
H  -0.79300 25.69400 33.44000

