158

Mg 48.81000 34.43800 26.44000
C  46.74700 33.24500 29.04900
C  49.10700 37.43800 28.03400
C  50.00700 35.81700 23.48800
C  47.70000 31.74100 24.48400
N  47.96800 35.21800 28.25800
C  47.28700 34.53700 29.27600
C  47.21700 35.42000 30.59500
C  47.64100 36.83000 30.08100
C  48.30400 36.46900 28.70400
C  46.50600 37.91900 30.00000
C  48.20400 34.88800 31.67200
C  47.53900 34.57300 33.09200
H  46.69800 35.71300 33.70700
N  49.62200 36.28800 25.89300
C  49.76900 37.30900 26.74500
C  50.62900 38.27200 26.07000
C  50.83900 37.81700 24.70700
C  50.12000 36.59300 24.61200
C  50.94200 39.51100 26.75600
C  51.63500 38.52900 23.51200
O  51.57800 38.12200 22.36900
C  52.39400 39.89700 23.62600
N  48.87500 33.83800 24.23200
C  49.38200 34.60800 23.25600
C  49.57100 33.77900 21.86700
C  48.65700 32.58000 22.20900
C  48.42500 32.65500 23.75600
C  49.07700 34.74800 20.71000
C  49.13900 31.20800 21.73000
C  48.94900 31.17200 20.19500
N  47.64300 32.70900 26.74400
C  47.20000 31.72700 25.83100
C  46.39900 30.76600 26.59200
C  46.11100 31.33900 27.82500
C  46.90200 32.52700 27.89000
C  45.83500 29.57400 25.91100
C  45.34300 31.20500 29.12100
O  44.62700 30.31900 29.56000
C  45.68100 32.46200 29.86900
C  46.22000 31.97200 31.10400
O  47.40900 31.65100 31.23500
O  45.26900 31.85800 32.17500
C  45.65000 31.20000 33.43300
H  49.24500 38.36700 28.59100
H  50.45400 36.17300 22.55800
H  47.40100 31.01800 23.72200
H  46.18200 35.28300 30.91000
H  48.30200 37.41300 30.72300
H  46.39200 38.23600 31.03700
H  45.59600 37.49200 29.57800
H  46.90700 38.76100 29.43600
H  48.93200 35.68800 31.80500
H  48.77300 33.99600 31.41200
H  48.28200 34.03300 33.68000
H  46.88800 33.71300 32.93200
H  50.11500 40.20500 26.60600
H  51.84000 39.98900 26.36600
H  51.16200 39.23400 27.78700
H  52.58200 40.36000 22.65700
H  53.27200 39.76300 24.25800
H  51.72400 40.50700 24.23300
H  50.63900 33.57600 21.78100
H  47.69700 32.86500 21.77800
H  48.06200 34.61300 20.33700
H  49.69700 34.68100 19.81600
H  49.11900 35.78500 21.04400
H  48.53200 30.37800 22.09100
H  50.15500 31.11300 22.11100
H  48.66700 32.13700 19.77200
H  48.21200 30.39700 19.98800
H  49.87000 30.82500 19.72500
H  45.20000 29.03000 26.60900
H  46.60800 28.95400 25.45600
H  45.18600 29.91800 25.10600
H  44.76300 33.01900 30.05600
H  44.90000 31.31300 34.21600
H  46.63400 31.44000 33.83500
H  45.73000 30.14200 33.18300
Mg 5.89700 54.34600 39.90700
C  4.99400 50.91300 39.80400
C  8.86200 53.72700 39.07900
C  6.07700 57.66700 39.24300
C  2.25400 54.89200 40.21400
N  6.79600 52.51500 39.25000
C  6.35300 51.22100 39.36700
C  7.50700 50.25100 39.31100
C  8.75200 51.15400 39.42800
C  8.16000 52.57900 39.26800
C  9.54900 51.05700 40.71700
C  7.52200 49.44200 37.94600
C  7.41200 50.13900 36.51300
H  6.19000 49.98100 35.64200
N  7.37900 55.55200 39.45100
C  8.63100 55.08800 39.12500
C  9.50600 56.23900 39.03700
C  8.66900 57.46600 39.20600
C  7.28300 56.90200 39.29200
C  10.95300 56.03700 38.70400
C  9.08200 58.89100 39.34800
O  10.27400 59.09500 39.06200
C  8.23400 60.05300 39.77500
N  4.35700 56.05200 39.53400
C  4.73400 57.33500 39.35200
C  3.54000 58.37800 39.42100
C  2.31900 57.43200 39.60400
C  2.99300 56.05900 39.82100
C  3.67400 59.35800 40.55400
C  1.44700 57.47500 38.39800
C  0.21900 58.41400 38.43100
N  3.98300 53.21200 39.98900
C  2.63500 53.54200 40.28000
C  1.86800 52.38400 40.61400
C  2.77700 51.33100 40.36500
C  4.05000 51.87900 40.02000
C  0.46300 52.33400 41.17500
C  2.84800 49.92200 40.30600
O  2.01500 49.04700 40.42400
C  4.33700 49.57500 40.00000
C  4.26500 48.62200 38.87200
O  4.15700 48.90700 37.71000
O  4.61100 47.36900 39.34400
C  4.77800 46.31400 38.30500
H  9.92200 53.48000 38.99000
H  6.20100 58.71500 38.96400
H  1.17100 55.03700 40.22900
H  7.24000 49.61800 40.15800
H  9.46200 51.03300 38.61100
H  9.46300 50.06900 41.17000
H  9.13600 51.72300 41.47500
H  10.62700 51.11100 40.56100
H  6.69900 48.72800 37.92500
H  8.46600 48.90500 38.03800
H  8.26500 49.80200 35.92600
H  7.50400 51.22300 36.59000
H  11.37100 56.89700 38.17900
H  11.21100 55.17600 38.08800
H  11.51600 55.94000 39.63200
H  8.93800 60.75800 40.21600
H  7.54700 59.67200 40.53000
H  7.83900 60.46200 38.84400
H  3.41900 58.94900 38.50000
H  1.64600 57.67500 40.42500
H  3.38800 58.92400 41.51200
H  3.14100 60.26300 40.26100
H  4.66300 59.79100 40.70400
H  1.05900 56.46200 38.28900
H  2.02900 57.70500 37.50600
H  -0.25700 58.51500 39.40700
H  -0.47100 57.95700 37.72200
H  0.46000 59.43800 38.14600
H  0.34300 51.58000 41.95300
H  -0.11800 52.00400 40.31400
H  0.06000 53.33000 41.35900
H  4.61600 49.09900 40.94100
H  4.75600 45.29200 38.68400
H  5.69000 46.53500 37.75100
H  3.89100 46.44100 37.68400

