158

Mg 46.99300 25.07200 27.59500
C  47.99500 27.27100 30.21600
C  45.82100 23.02500 30.07000
C  46.47500 22.85200 25.17500
C  48.63600 27.10700 25.38800
N  46.92700 25.17400 29.91700
C  47.31400 26.15700 30.72300
C  47.01700 25.96700 32.20900
C  46.31100 24.58300 32.09100
C  46.33900 24.18300 30.60200
C  47.07600 23.54200 32.92900
C  46.07100 27.13100 32.74800
C  46.43700 27.71300 34.15400
H  45.37700 27.70400 35.31500
N  46.15200 23.23700 27.65200
C  45.72300 22.57700 28.74900
C  45.16000 21.30100 28.32900
C  45.46900 21.17900 26.92700
C  46.10100 22.44600 26.49100
C  44.49300 20.36500 29.24000
C  45.15800 20.08100 25.93800
O  45.45000 20.15200 24.74600
C  44.34000 18.89300 26.42400
N  47.42400 24.95300 25.48800
C  46.99400 24.00500 24.68300
C  47.57500 24.10000 23.26400
C  48.07600 25.68800 23.30400
C  48.04800 26.01200 24.84900
C  48.69000 22.99900 23.15400
C  47.16200 26.74700 22.46700
C  47.88200 27.88700 21.77200
N  48.18700 26.75700 27.71000
C  48.74900 27.52500 26.75300
C  49.22200 28.81300 27.19800
C  48.98100 28.70700 28.59500
C  48.38200 27.43400 28.83000
C  49.75800 29.88700 26.38600
C  49.13100 29.38600 29.83900
O  49.64000 30.49500 30.06200
C  48.48500 28.52900 30.90600
C  49.47300 28.30800 31.99600
O  50.47900 27.61400 31.95100
O  49.08700 29.04800 33.10200
C  49.91600 28.91400 34.28500
H  45.40500 22.44100 30.89400
H  46.31900 22.18700 24.32300
H  49.14200 27.81700 24.73100
H  47.97500 25.92600 32.72700
H  45.29300 24.70900 32.46000
H  46.68300 22.54000 32.75700
H  46.79300 23.80200 33.95000
H  48.13200 23.62100 32.67200
H  45.05500 26.73600 32.75300
H  46.15200 27.87700 31.95700
H  46.67700 28.74900 33.91400
H  47.27200 27.14400 34.56400
H  43.59700 19.92300 28.80300
H  44.08600 20.83800 30.13300
H  45.19600 19.63300 29.63800
H  44.64100 18.61900 27.43500
H  44.75800 18.20900 25.68500
H  43.30100 19.13200 26.20000
H  46.71600 23.92700 22.61600
H  49.08400 25.58600 22.90400
H  48.43900 22.19900 22.45700
H  48.97000 22.52200 24.09300
H  49.61600 23.43900 22.78200
H  46.39900 27.05400 23.18200
H  46.62000 26.20800 21.69000
H  48.00300 28.65000 22.54000
H  47.37000 28.25000 20.88100
H  48.88000 27.58300 21.45700
H  50.44300 29.40600 25.68700
H  50.30900 30.63800 26.95200
H  48.99900 30.31100 25.73000
H  47.76300 29.18200 31.39500
H  50.11100 29.94400 34.58400
H  50.86400 28.38100 34.21200
H  49.38000 28.32800 35.03200
Mg 42.51100 41.81100 27.18700
C  41.50600 43.90100 29.82500
C  43.59300 39.50000 29.66900
C  43.59600 39.87300 24.76700
C  41.54500 44.36300 24.89700
N  42.56700 41.74100 29.48400
C  41.87400 42.64900 30.35400
C  41.84500 42.15700 31.79600
C  42.58400 40.68500 31.67400
C  42.88500 40.61200 30.14900
C  43.90300 40.60400 32.55800
C  40.35500 42.07200 32.32400
C  40.15100 42.88900 33.67000
H  39.50100 42.12800 34.87000
N  43.49400 39.95600 27.22000
C  43.81400 39.16300 28.32100
C  44.34200 37.88300 27.84200
C  44.20800 37.87000 26.38100
C  43.74300 39.27800 26.02700
C  44.79900 36.81700 28.81400
C  44.58500 36.83800 25.34200
O  44.48300 36.98400 24.13900
C  45.07400 35.53600 25.83200
N  42.64300 42.11900 25.14300
C  43.07700 41.13100 24.33400
C  43.02700 41.59800 22.83700
C  41.97600 42.77800 22.88700
C  42.03400 43.15200 24.38600
C  44.39400 41.94100 22.25200
C  40.50700 42.41700 22.41100
C  39.78800 41.23700 23.03200
N  41.79000 43.80000 27.26800
C  41.37700 44.68600 26.29800
C  40.86200 45.91100 26.89600
C  40.88000 45.67800 28.30900
C  41.36800 44.33500 28.40200
C  40.45200 47.15900 26.14800
C  40.54200 46.19900 29.61700
O  40.08900 47.28800 29.91700
C  40.85600 45.04800 30.61800
C  41.67300 45.63400 31.73800
O  42.89200 45.89500 31.67300
O  40.84700 45.81800 32.87500
C  41.42000 46.11700 34.20100
H  43.95600 38.88300 30.49400
H  43.97200 39.24000 23.96100
H  41.23400 45.14700 24.20300
H  42.36000 42.83300 32.48000
H  41.89800 39.89100 31.96800
H  44.77300 40.59200 31.90200
H  43.94800 39.61500 33.01500
H  43.71600 41.42200 33.25400
H  40.23400 40.99900 32.47300
H  39.59500 42.23700 31.56000
H  39.50600 43.74700 33.47800
H  41.10000 43.33800 33.96100
H  44.51200 37.14900 29.81200
H  45.87000 36.74100 29.00400
H  44.48400 35.82300 28.49800
H  45.92500 35.80300 26.46000
H  45.55400 35.07400 24.97000
H  44.29300 34.91300 26.26600
H  42.54000 40.80200 22.27500
H  42.33900 43.63900 22.32500
H  45.17400 41.46600 22.84800
H  44.48000 43.02700 22.26600
H  44.26200 41.66800 21.20500
H  40.55100 42.38500 21.32200
H  39.88900 43.27500 22.67400
H  39.24600 40.70100 22.25300
H  39.19100 41.71400 23.80900
H  40.63700 40.76600 23.52700
H  39.96800 46.88000 25.21200
H  41.16700 47.96400 25.97900
H  39.71100 47.62700 26.79600
H  39.94600 44.68400 31.09600
H  42.11700 46.92600 33.98200
H  42.09700 45.36900 34.61200
H  40.59700 46.32800 34.88400

