158

Mg 5.78200 55.22500 41.05400
C  5.15700 51.71200 40.94300
C  8.80700 54.40500 39.50800
C  6.27700 58.44100 40.37600
C  2.53600 55.71500 42.01200
N  6.89600 53.19200 40.38600
C  6.38700 51.96800 40.46300
C  7.36400 50.98100 39.79600
C  8.67500 51.84000 39.88300
C  8.16600 53.23100 39.87600
C  9.62800 51.67700 41.08300
C  7.03600 50.48000 38.41200
C  6.30500 51.49400 37.44400
H  7.17000 52.09900 36.28500
N  7.37500 56.23200 40.11400
C  8.56200 55.73500 39.68600
C  9.43100 56.76000 39.26600
C  8.75000 58.01900 39.59500
C  7.42800 57.60700 40.02900
C  10.89900 56.54700 38.81300
C  9.34900 59.38800 39.36900
O  10.42900 59.55200 38.85300
C  8.57000 60.61300 39.74700
N  4.61700 56.79900 41.11900
C  5.04200 58.04400 40.80200
C  3.89200 59.08700 41.15100
C  2.65300 58.19600 41.48900
C  3.29200 56.80600 41.59300
C  4.21200 60.20000 42.17200
C  1.51400 58.22500 40.45200
C  0.13300 58.62300 41.01900
N  4.21300 54.03300 41.54100
C  2.92300 54.33300 42.03600
C  2.22900 53.08800 42.38800
C  3.13900 52.12400 42.05500
C  4.30400 52.67300 41.49100
C  0.84000 53.03000 42.90900
C  3.26100 50.67100 41.95500
O  2.49300 49.80000 42.29600
C  4.54400 50.37100 41.22400
C  4.20100 49.58300 40.00800
O  3.66900 49.96100 39.01000
O  4.67100 48.34100 40.16900
C  4.42000 47.35700 39.14200
H  9.64700 54.06500 38.89900
H  6.35000 59.50500 40.14300
H  1.53300 55.98400 42.35100
H  7.31700 50.08800 40.41900
H  9.23000 51.90200 38.94600
H  9.67600 52.60100 41.65800
H  10.56600 51.36500 40.62400
H  9.24300 50.95000 41.79900
H  6.58800 49.48700 38.42600
H  8.04100 50.32300 38.02000
H  5.95200 52.38400 37.96500
H  5.58700 50.80200 37.00600
H  11.25500 57.15500 37.98200
H  11.15400 55.50000 38.64800
H  11.61600 57.02700 39.47900
H  7.72800 60.76900 39.07200
H  9.20500 61.47400 39.95600
H  8.28200 60.35800 40.76600
H  3.77800 59.62600 40.21000
H  2.29800 58.41200 42.49600
H  5.20600 60.09600 42.60700
H  3.49100 60.23500 42.98800
H  4.15300 61.16100 41.66100
H  1.43100 57.26100 39.95100
H  1.80400 58.90600 39.65100
H  0.07700 58.50500 42.10100
H  -0.56800 57.91800 40.57200
H  -0.11700 59.62300 40.66400
H  0.25900 53.38600 42.05800
H  0.71600 53.61400 43.82100
H  0.61400 51.99000 43.14200
H  5.19500 49.76600 41.85600
H  4.45100 47.78400 38.14000
H  3.46200 46.89700 39.38400
H  5.16500 46.56200 39.11800
Mg 16.73700 52.56400 26.36900
C  18.21300 51.24300 29.22800
C  14.00200 53.21500 28.38800
C  14.95600 53.58500 23.53500
C  18.94900 50.86300 24.41000
N  16.30800 52.32600 28.52800
C  17.11200 51.94400 29.50900
C  16.50000 52.24300 30.85000
C  15.02500 52.57700 30.56500
C  15.14000 52.73800 29.07600
C  14.08500 51.37400 31.01900
C  17.37900 53.40700 31.45800
C  17.49200 53.40200 32.98600
H  16.43700 52.58800 33.73100
N  14.84300 53.37700 26.00200
C  13.87900 53.57000 27.00800
C  12.73500 54.23600 26.36600
C  12.98300 54.27400 24.97900
C  14.32600 53.70000 24.76600
C  11.51100 54.70800 27.11100
C  12.01900 54.66700 23.78400
O  12.33700 54.57800 22.60600
C  10.56500 55.20100 24.07500
N  16.91900 52.36800 24.31900
C  16.14300 52.86300 23.33300
C  16.64100 52.55800 21.90900
C  18.07600 51.98900 22.30600
C  18.00000 51.70700 23.76600
C  15.60800 51.46700 21.23000
C  19.30000 52.94600 21.88700
C  20.47500 52.23900 21.22400
N  18.27000 51.24300 26.68900
C  19.06000 50.61100 25.76700
C  20.05400 49.85600 26.48100
C  19.74300 50.04700 27.82000
C  18.62600 50.87100 27.88900
C  21.28900 49.26100 25.87000
C  20.23100 49.88300 29.20000
O  21.21600 49.29400 29.52700
C  19.20900 50.69800 30.16300
C  18.56300 49.71500 31.09700
O  17.73600 48.85600 30.74400
O  19.06000 49.91700 32.38800
C  18.62100 49.02200 33.44200
H  13.13700 53.35000 29.04100
H  14.45600 53.94300 22.63300
H  19.71600 50.41400 23.77700
H  16.56000 51.28700 31.37100
H  14.64000 53.44800 31.09600
H  14.58400 50.65200 31.66600
H  13.73100 50.86400 30.12300
H  13.26000 51.83400 31.56300
H  16.79800 54.29300 31.20000
H  18.37800 53.46000 31.02500
H  17.45700 54.36500 33.49400
H  18.50600 53.10600 33.25800
H  10.63800 54.12200 26.82300
H  11.28900 55.71800 26.76500
H  11.75600 54.73100 28.17300
H  10.03000 54.44000 24.64300
H  10.15200 55.16600 23.06700
H  10.65300 56.11400 24.66500
H  16.62900 53.35900 21.16900
H  18.17500 51.01100 21.83600
H  14.86300 51.01300 21.88300
H  16.19600 50.68600 20.74800
H  15.07500 51.99700 20.44000
H  19.62600 53.34800 22.84600
H  18.98200 53.80900 21.30100
H  20.55800 52.66600 20.22400
H  20.18600 51.19600 21.09400
H  21.41600 52.22700 21.77300
H  21.67800 49.85100 25.04000
H  21.02100 48.24700 25.57400
H  22.14500 49.20500 26.54300
H  19.69700 51.51500 30.69500
H  19.37100 48.80400 34.20200
H  18.06200 48.19500 33.00400
H  17.90400 49.55400 34.06800

