158

Mg -1.94000 17.67100 27.34400
C  -2.52100 15.29600 29.92700
C  -2.39400 20.10900 29.68500
C  -1.73200 19.97800 24.90500
C  -2.31300 15.07200 25.05100
N  -2.59000 17.65000 29.59600
C  -2.53200 16.56000 30.46800
C  -2.45700 16.94500 31.89700
C  -2.61000 18.54700 31.76000
C  -2.61500 18.82000 30.24900
C  -3.86600 19.12000 32.45800
C  -1.16500 16.54400 32.72300
C  -0.90100 17.33100 33.99300
H  -0.62000 16.57900 35.27600
N  -1.91500 19.77600 27.31400
C  -2.14700 20.59200 28.41600
C  -2.12900 21.98500 27.98400
C  -1.84900 21.99600 26.58600
C  -1.86100 20.54600 26.23700
C  -2.56000 23.12500 28.95700
C  -1.79500 23.15000 25.67200
O  -1.65000 23.07900 24.43200
C  -2.13200 24.48100 26.16000
N  -2.09000 17.50900 25.31300
C  -1.94000 18.61000 24.50800
C  -2.11300 18.23000 23.03100
C  -2.18100 16.70500 23.10400
C  -2.30400 16.37400 24.59200
C  -3.39500 18.86200 22.37300
C  -1.06000 16.03200 22.28500
C  0.31200 15.96400 22.97700
N  -2.18500 15.57900 27.43500
C  -2.33400 14.68200 26.41700
C  -2.58100 13.35200 26.91600
C  -2.59200 13.52500 28.28800
C  -2.39700 14.92000 28.57700
C  -2.77200 12.15000 26.00600
C  -2.63000 12.83000 29.57300
O  -2.72200 11.69900 29.94600
C  -2.58300 13.96600 30.60100
C  -1.42900 13.70600 31.45900
O  -0.26000 14.06000 31.29000
O  -1.91500 12.89000 32.50700
C  -0.96500 12.81100 33.59000
H  -2.58800 20.89700 30.41600
H  -1.67400 20.79700 24.18400
H  -2.38900 14.21100 24.38500
H  -3.31400 16.40400 32.29800
H  -1.85300 19.13600 32.27800
H  -3.54700 19.46500 33.44200
H  -4.56600 18.29100 32.56600
H  -4.38400 19.91300 31.92000
H  -0.21800 16.54100 32.18300
H  -1.48300 15.59200 33.14900
H  -1.71500 18.02600 34.20200
H  -0.07400 18.00100 33.75600
H  -3.62400 23.25400 28.75500
H  -2.03100 24.06400 28.79500
H  -2.53400 22.85900 30.01400
H  -3.16400 24.52200 26.50900
H  -1.89100 25.28400 25.46300
H  -1.49100 24.85800 26.95700
H  -1.20600 18.57000 22.53200
H  -3.11200 16.27400 22.73400
H  -3.93400 19.48900 23.08300
H  -4.08700 18.10200 22.01100
H  -3.04300 19.46100 21.53200
H  -0.79800 16.46000 21.31700
H  -1.45100 15.03600 22.07900
H  0.30300 16.36800 23.99000
H  0.88300 16.65400 22.35600
H  0.75400 14.97200 22.88200
H  -1.91200 12.13300 25.33800
H  -3.75800 12.20900 25.54500
H  -2.75700 11.26400 26.64200
H  -3.48400 13.99700 31.21300
H  -1.57800 12.53800 34.44800
H  -0.35500 13.68200 33.83100
H  -0.31000 11.96600 33.37400
Mg 2.18700 -2.08600 44.14900
C  5.68900 -1.52600 43.32900
C  1.48100 0.52400 42.06900
C  -0.89800 -3.14200 44.29200
C  3.31100 -5.23400 45.33800
N  3.48800 -0.67000 42.86900
C  4.84300 -0.71800 42.61300
C  5.22100 0.22500 41.49900
C  3.95500 1.11800 41.40200
C  2.87600 0.32000 42.14900
C  3.98200 2.60600 41.91700
C  5.57100 -0.54500 40.10200
C  6.75300 0.06000 39.37200
H  6.50900 0.57700 37.95300
N  0.45200 -1.34000 43.35200
C  0.32300 -0.27800 42.48800
C  -1.10100 0.03200 42.42800
C  -1.77500 -0.95500 43.17200
C  -0.75600 -1.82900 43.71700
C  -1.66600 1.14800 41.58900
C  -3.26200 -1.13600 43.17900
O  -3.95200 -0.37400 42.53600
C  -3.98800 -2.20900 43.99900
N  1.33000 -3.89800 44.93900
C  0.03600 -4.13400 44.63300
C  -0.36200 -5.59300 44.78300
C  1.00800 -6.27100 45.05800
C  1.95900 -5.08300 45.03000
C  -1.48200 -5.84700 45.92100
C  1.37600 -7.41100 44.06100
C  1.44200 -8.80200 44.66700
N  4.08100 -3.06900 44.60800
C  4.33400 -4.34200 45.07600
C  5.76600 -4.53500 45.20800
C  6.35900 -3.44900 44.56600
C  5.26300 -2.63200 44.09800
C  6.44400 -5.53900 46.07100
C  7.57200 -2.76800 44.19500
O  8.75800 -2.98600 44.43100
C  7.20300 -1.58100 43.26300
C  7.86800 -0.34100 43.77000
O  8.78500 0.23400 43.22800
O  7.28300 0.12000 44.92600
C  7.45100 1.58600 45.16100
H  1.24300 1.46800 41.57400
H  -1.91000 -3.55300 44.30200
H  3.64800 -6.23700 45.61000
H  6.10600 0.80300 41.76700
H  3.70500 1.20500 40.34500
H  3.63700 3.27400 41.12800
H  4.97200 2.91800 42.24900
H  3.29800 2.69700 42.76000
H  4.72200 -0.46500 39.42300
H  5.76000 -1.60200 40.29100
H  7.47500 -0.75600 39.39200
H  7.09300 0.93300 39.92900
H  -0.91000 1.86000 41.26100
H  -2.44600 1.72400 42.08700
H  -2.25500 0.67200 40.80500
H  -4.99800 -1.87600 44.23700
H  -3.44600 -2.35000 44.93400
H  -3.99800 -3.08200 43.34600
H  -0.80900 -5.88800 43.83400
H  0.81500 -6.66900 46.05500
H  -1.26400 -6.69600 46.57000
H  -2.47700 -5.89000 45.47800
H  -1.44200 -5.02500 46.63600
H  2.34600 -7.23800 43.59300
H  0.78700 -7.41000 43.14400
H  1.56200 -8.68200 45.74400
H  2.27400 -9.42800 44.34500
H  0.52000 -9.37700 44.58400
H  6.45000 -6.39500 45.39700
H  5.89900 -5.79500 46.98000
H  7.45800 -5.15500 46.18300
H  7.61500 -1.73700 42.26700
H  7.03800 1.92700 44.21100
H  8.48700 1.89600 45.29000
H  6.87500 2.07100 45.94900

