158

Mg 1.37600 7.55600 25.85600
C  2.28600 9.43700 28.59300
C  1.96500 4.66200 27.78200
C  0.64700 5.66300 23.16800
C  1.42200 10.43200 23.88200
N  2.22100 7.09700 27.89600
C  2.33500 8.06200 28.84600
C  2.53000 7.40100 30.21500
C  2.76200 5.91500 29.87100
C  2.28200 5.87800 28.43300
C  4.20100 5.35400 30.02800
C  1.26300 7.56600 31.18200
C  1.41900 8.15600 32.57100
H  2.35500 7.30900 33.55000
N  1.44100 5.47100 25.49900
C  1.57500 4.47500 26.40700
C  1.19900 3.16400 25.82900
C  0.85500 3.43700 24.47800
C  0.98700 4.91700 24.32900
C  1.35400 1.93500 26.52100
C  0.14000 2.50300 23.52300
O  -0.19700 2.88900 22.39300
C  -0.15000 1.06100 23.77200
N  1.30100 7.96700 23.78000
C  0.79000 7.03600 22.91800
C  0.49500 7.69800 21.50200
C  0.43700 9.17100 21.88900
C  1.05400 9.22300 23.30000
C  1.47200 7.21900 20.36500
C  -0.90900 9.94000 21.76700
C  -1.05300 11.10600 20.69400
N  1.85100 9.53700 26.09500
C  1.84100 10.66400 25.22700
C  2.22500 11.87100 25.92400
C  2.45100 11.46300 27.22500
C  2.14200 10.06700 27.29700
C  2.20300 13.26600 25.38800
C  2.75700 11.85400 28.56400
O  3.11000 12.92400 28.95900
C  2.40100 10.62200 29.55400
C  3.57000 10.53100 30.46800
O  4.68600 10.22400 30.16800
O  3.21900 11.00000 31.72900
C  4.26000 11.35400 32.74500
H  2.04000 3.76500 28.40100
H  0.15400 5.12100 22.35800
H  1.41300 11.39900 23.37600
H  3.42000 7.85600 30.65000
H  2.14100 5.36500 30.57900
H  4.58000 5.28800 29.00800
H  4.36200 4.38900 30.50800
H  4.71100 6.13800 30.58800
H  0.79800 6.58900 31.31400
H  0.50800 8.17000 30.67900
H  0.39500 8.22700 32.94000
H  1.90700 9.13000 32.54200
H  1.95000 2.03600 27.42800
H  1.86100 1.24300 25.84900
H  0.32700 1.63500 26.73200
H  -0.82900 0.60300 23.05400
H  -0.75600 1.21400 24.66500
H  0.72300 0.43900 23.97300
H  -0.51600 7.43400 21.19300
H  1.18100 9.57300 21.20200
H  1.90500 8.07800 19.85100
H  0.91600 6.63300 19.63300
H  2.20500 6.58400 20.86300
H  -1.01000 10.33900 22.77600
H  -1.83600 9.37100 21.69700
H  -1.81700 11.02000 19.92100
H  -0.12500 11.18000 20.12800
H  -1.19700 12.07400 21.17400
H  3.21900 13.62900 25.23400
H  1.63400 13.96900 25.99700
H  1.65300 13.15900 24.45400
H  1.48800 10.79400 30.12300
H  4.16600 10.65800 33.57800
H  3.90800 12.31400 33.12300
H  5.29900 11.40400 32.41900
Mg 26.21100 50.49600 26.19900
C  23.92500 51.68700 28.60000
C  28.45700 49.74900 28.76600
C  28.44300 49.65700 23.92400
C  24.08300 51.67800 23.70200
N  26.18400 50.83000 28.35900
C  25.09700 51.10000 29.13000
C  25.43100 50.81300 30.57900
C  27.00300 50.62400 30.66200
C  27.28800 50.40800 29.14600
C  27.86500 51.72900 31.21700
C  24.63000 49.69100 31.30900
C  24.00000 50.12500 32.67000
H  25.05700 50.58400 33.71500
N  28.10900 49.65000 26.33400
C  28.86900 49.40300 27.45800
C  30.07600 48.82700 27.06200
C  30.17300 48.89500 25.62800
C  28.86000 49.37400 25.19100
C  31.27500 48.42500 27.94700
C  31.32400 48.66800 24.71000
O  31.24600 48.74200 23.46500
C  32.78400 48.35500 25.18600
N  26.27100 50.65200 24.11100
C  27.29200 50.32500 23.37700
C  26.99800 50.36700 21.83200
C  25.47400 50.80800 21.80800
C  25.22800 51.05600 23.31800
C  27.90300 51.28500 20.98300
C  24.37300 49.84100 21.23500
C  23.79700 48.73500 21.99700
N  24.33100 51.58300 26.08800
C  23.62500 52.00500 25.02600
C  22.39800 52.61000 25.50000
C  22.44400 52.55300 26.87000
C  23.65100 51.89800 27.23300
C  21.39700 53.39300 24.58700
C  21.76200 52.89900 28.19300
O  20.66700 53.45200 28.32200
C  22.68400 52.25700 29.32300
C  23.12700 53.30000 30.22700
O  23.96300 54.19400 29.93700
O  22.48900 53.13200 31.47800
C  22.92500 54.00900 32.58500
H  29.05100 49.29500 29.56200
H  29.11300 49.30800 23.13500
H  23.49100 52.08800 22.88100
H  25.20500 51.71100 31.15400
H  27.19900 49.66600 31.14400
H  27.26900 52.64100 31.25500
H  28.75500 51.78900 30.59100
H  28.12900 51.52900 32.25500
H  25.11900 48.71800 31.35800
H  23.85700 49.41700 30.59200
H  23.60000 49.16300 32.98900
H  23.23700 50.90200 32.61500
H  30.99600 48.33600 28.99700
H  32.04100 49.19800 27.88300
H  31.70900 47.43900 27.77900
H  33.00200 49.06200 25.98700
H  33.48000 48.41300 24.34900
H  32.85600 47.32700 25.54100
H  27.06800 49.38400 21.36600
H  25.33900 51.85100 21.52300
H  28.75200 50.81100 20.49000
H  28.31000 52.03500 21.66100
H  27.45900 51.91400 20.21100
H  24.87000 49.34500 20.40000
H  23.63600 50.40900 20.66800
H  24.08500 48.68200 23.04600
H  24.06900 47.77100 21.56700
H  22.72600 48.90500 21.88500
H  21.41800 53.11900 23.53300
H  21.59500 54.46500 24.55800
H  20.44600 53.08700 25.02300
H  22.25000 51.49300 29.96800
H  23.00400 55.02100 32.18800
H  23.88000 53.71500 33.02200
H  22.25100 54.01700 33.44200

