158

Mg -9.84000 17.47600 40.77100
C  -6.39200 17.04800 41.02200
C  -9.30200 20.96600 40.38700
C  -13.01100 17.67700 39.89600
C  -10.15900 13.84800 40.74200
N  -8.10300 18.82300 40.62900
C  -6.75800 18.42900 40.75600
C  -5.79400 19.61200 40.64400
C  -6.80800 20.75100 41.01000
C  -8.18500 20.19200 40.64400
C  -6.74600 21.33700 42.37900
C  -5.12200 19.86400 39.19000
C  -3.67200 19.44600 39.10800
H  -3.04600 18.42300 38.17800
N  -10.98900 19.08900 40.10800
C  -10.58300 20.43100 40.00700
C  -11.77700 21.18200 39.69600
C  -12.83600 20.30800 39.66800
C  -12.30200 18.95800 39.94300
C  -11.59100 22.63800 39.26400
C  -14.23400 20.73600 39.45900
O  -14.58200 21.91800 39.19900
C  -15.35100 19.67500 39.54700
N  -11.35100 15.90900 40.50400
C  -12.60700 16.33700 40.15300
C  -13.60200 15.14900 40.25500
C  -12.66800 13.88400 40.18100
C  -11.30900 14.55900 40.54200
C  -14.63600 15.29100 41.37200
C  -12.72800 13.18500 38.79100
C  -12.46600 11.62100 38.82200
N  -8.61400 15.79500 40.84300
C  -8.84100 14.41800 40.93200
C  -7.63400 13.68000 41.03300
C  -6.64900 14.68700 41.10900
C  -7.27700 15.97300 40.93900
C  -7.44200 12.19900 40.95300
C  -5.19800 14.89400 41.30200
O  -4.32100 14.09800 41.54200
C  -4.99600 16.47200 41.25000
C  -4.42900 17.02700 42.46800
O  -3.24100 17.37300 42.52900
O  -5.36600 17.12100 43.46200
C  -4.98800 18.11100 44.54300
H  -9.09500 22.03800 40.34600
H  -14.03200 17.54800 39.53000
H  -10.19000 12.75800 40.70100
H  -5.09800 19.52300 41.47700
H  -6.61900 21.64400 40.41500
H  -7.70500 21.48900 42.87600
H  -6.18900 22.27200 42.31100
H  -6.16700 20.73300 43.07700
H  -5.40100 20.86800 38.87100
H  -5.79600 19.32400 38.52500
H  -3.40800 19.17500 40.13100
H  -3.14000 20.37400 38.90100
H  -12.21700 22.78300 38.38400
H  -10.51500 22.57900 39.10100
H  -11.72700 23.51900 39.89200
H  -15.33500 18.90800 38.77300
H  -16.15700 20.39300 39.39000
H  -15.30400 19.27100 40.55800
H  -14.07900 15.21300 39.27700
H  -12.90200 13.20700 41.00200
H  -14.34700 14.54600 42.11400
H  -15.57900 14.91700 40.97300
H  -14.75600 16.33300 41.66700
H  -12.02300 13.70900 38.14500
H  -13.72100 13.13900 38.34400
H  -11.68200 11.51400 38.07200
H  -13.31300 11.01200 38.50600
H  -12.15100 11.37600 39.83600
H  -8.11400 11.73100 41.67200
H  -6.40500 11.91900 41.14000
H  -7.60200 11.86700 39.92700
H  -4.48000 16.59700 40.29800
H  -5.71200 18.92600 44.55600
H  -4.03500 18.63000 44.44800
H  -5.13000 17.67000 45.53000
Mg -4.71800 25.95600 26.34400
C  -3.55800 27.49100 29.18300
C  -6.49300 23.67400 28.25700
C  -5.25900 24.13900 23.65000
C  -2.52700 28.04200 24.39300
N  -4.98000 25.58500 28.47700
C  -4.46100 26.42400 29.46300
C  -5.01700 26.00000 30.82200
C  -5.72100 24.68200 30.53100
C  -5.73800 24.62700 28.99900
C  -5.05400 23.38600 31.18700
C  -6.10500 27.06900 31.28600
C  -6.43300 27.49500 32.72100
H  -5.82000 26.59800 33.84500
N  -5.96800 24.31300 25.92200
C  -6.64000 23.60100 26.87800
C  -7.38700 22.56700 26.13600
C  -6.98000 22.60900 24.79000
C  -6.03400 23.69600 24.74500
C  -8.42700 21.74100 26.87700
C  -7.41100 21.63800 23.70000
O  -6.87800 21.70700 22.61300
C  -8.31400 20.52700 23.92300
N  -3.98200 26.16100 24.27900
C  -4.37500 25.22200 23.39100
C  -3.84900 25.45800 21.96500
C  -3.04300 26.77400 22.23600
C  -3.18600 27.03200 23.69100
C  -2.96100 24.26800 21.45100
C  -3.51500 27.97100 21.32600
C  -2.79300 28.26400 20.03800
N  -3.26800 27.42300 26.67900
C  -2.47200 28.18500 25.81700
C  -1.70900 29.13600 26.60600
C  -2.15700 28.95000 27.96700
C  -3.09600 27.89600 27.90800
C  -0.70000 30.12600 26.09900
C  -2.11600 29.49400 29.28800
O  -1.50700 30.52900 29.66000
C  -3.07600 28.63200 30.20100
C  -2.42000 28.14100 31.44000
O  -1.48900 27.34100 31.39900
O  -2.87000 28.77900 32.62200
C  -2.07400 28.60400 33.76900
H  -7.01900 22.93500 28.86600
H  -5.50100 23.69300 22.68300
H  -1.85500 28.65100 23.78600
H  -4.22400 25.76500 31.53200
H  -6.79000 24.68600 30.74200
H  -5.63600 22.80600 31.90300
H  -4.06000 23.62400 31.56700
H  -4.98800 22.68600 30.35400
H  -7.07300 26.84600 30.83700
H  -5.91600 28.02600 30.79900
H  -7.50000 27.30400 32.83300
H  -6.13100 28.53700 32.82700
H  -7.92900 21.38400 27.77900
H  -9.06500 20.96700 26.45200
H  -9.14900 22.43100 27.31300
H  -8.28700 19.86200 23.05900
H  -9.32900 20.91300 24.01700
H  -7.90100 20.02200 24.79600
H  -4.66400 25.55900 21.24800
H  -1.97200 26.77100 22.03400
H  -2.86300 23.43700 22.14900
H  -1.94900 24.58700 21.20000
H  -3.36400 23.88600 20.51400
H  -3.68400 28.84200 21.95900
H  -4.56200 27.74400 21.12800
H  -3.40100 28.21000 19.13500
H  -1.98600 27.54200 19.91600
H  -2.44100 29.29500 19.98400
H  -1.08800 30.66400 25.23400
H  0.27800 29.68500 25.90700
H  -0.49000 30.89700 26.84000
H  -3.72300 29.40500 30.61400
H  -2.05400 29.52900 34.34500
H  -1.00600 28.47200 33.59500
H  -2.53700 27.82600 34.37600

