158

Mg 3.01000 -0.62000 43.66400
C  5.92200 1.38600 43.46500
C  1.30400 2.03000 42.16900
C  0.28700 -2.54100 43.67700
C  5.00700 -3.17100 44.98300
N  3.56300 1.42100 42.85400
C  4.79300 2.13100 43.07300
C  4.65900 3.63000 42.61400
C  3.13900 3.79100 42.48300
C  2.63000 2.32600 42.48800
C  2.46800 4.57900 43.57200
C  5.36500 4.06900 41.30500
C  5.26800 3.17000 40.08600
H  5.28000 3.87700 38.71900
N  1.03700 -0.29400 43.00100
C  0.58200 0.76800 42.32100
C  -0.76300 0.54300 41.95500
C  -1.21700 -0.65600 42.53500
C  0.02900 -1.20500 43.11900
C  -1.55200 1.56700 41.08200
C  -2.56700 -1.30900 42.40300
O  -3.54600 -0.68500 41.95200
C  -2.78500 -2.63200 42.97500
N  2.73500 -2.55000 44.23000
C  1.47900 -3.13800 44.13500
C  1.49200 -4.60100 44.66500
C  2.95100 -4.74100 45.16000
C  3.59900 -3.41000 44.76300
C  0.38200 -4.93000 45.67200
C  3.82100 -6.02300 44.58800
C  4.23600 -6.98200 45.62900
N  5.07700 -1.00900 43.95100
C  5.71400 -2.04000 44.63200
C  7.15500 -1.72900 44.84500
C  7.27400 -0.42300 44.30600
C  5.96300 -0.02300 43.82500
C  8.18100 -2.58900 45.48500
C  8.16400 0.71200 44.00500
O  9.34000 0.88300 44.26000
C  7.34500 1.84700 43.42300
C  7.48200 2.98800 44.26300
O  7.76300 4.14300 43.93200
O  7.22200 2.65800 45.61700
C  7.37100 3.69600 46.61300
H  0.85100 2.85100 41.60900
H  -0.50300 -3.29500 43.72100
H  5.49900 -4.03600 45.43200
H  5.16200 4.14200 43.43500
H  2.85600 4.35200 41.59300
H  2.21600 3.94500 44.42200
H  1.53700 4.92500 43.12400
H  3.14900 5.40000 43.80100
H  6.38700 4.35700 41.55100
H  4.89400 4.99000 40.96200
H  4.30800 2.66900 40.20800
H  6.12000 2.49100 40.09000
H  -2.11100 0.95800 40.37200
H  -0.94200 2.22800 40.46700
H  -2.28500 2.16300 41.62600
H  -3.79300 -3.03600 42.87600
H  -2.49000 -2.78100 44.01300
H  -2.22400 -3.35000 42.37700
H  1.38400 -5.33300 43.86500
H  2.97900 -4.75100 46.25000
H  0.73400 -5.04900 46.69700
H  0.13700 -5.90900 45.26200
H  -0.45100 -4.22800 45.63600
H  4.70900 -5.65700 44.07100
H  3.16900 -6.49300 43.85200
H  4.07200 -6.59500 46.63500
H  5.29000 -7.09100 45.37300
H  3.88400 -7.99900 45.45400
H  9.00600 -1.99000 45.86800
H  8.66900 -3.39600 44.93800
H  7.67000 -3.02700 46.34200
H  7.59900 2.05500 42.38400
H  8.03300 4.46400 46.21300
H  7.78800 3.36700 47.56500
H  6.41900 4.21800 46.70300
Mg 40.98700 41.04300 27.02700
C  40.67000 43.50400 29.61400
C  41.67200 38.71600 29.37300
C  41.71900 38.98400 24.57400
C  40.57000 43.69100 24.80000
N  41.22900 41.13000 29.26700
C  41.00900 42.23900 30.14200
C  41.12500 41.74700 31.64400
C  41.41000 40.18000 31.46800
C  41.46400 39.98600 29.95900
C  42.69500 39.67000 32.29100
C  39.86500 42.27100 32.53300
C  39.56100 41.52400 33.89300
H  39.08500 42.36100 35.09100
N  41.44900 39.00700 26.93000
C  41.67800 38.22300 28.02400
C  42.01100 36.83500 27.54400
C  42.11200 36.98500 26.10900
C  41.73700 38.34700 25.82200
C  42.05300 35.57500 28.38500
C  42.45600 35.96800 25.02800
O  42.52700 36.11200 23.85600
C  42.88500 34.56900 25.44400
N  41.04200 41.29200 24.96900
C  41.32600 40.26800 24.14200
C  41.23600 40.69900 22.67300
C  40.70500 42.10900 22.76200
C  40.73600 42.42100 24.27200
C  42.58100 40.53500 21.84600
C  39.28900 42.16900 22.19000
C  38.12300 41.33100 22.76400
N  40.80800 43.17400 27.09900
C  40.61800 44.08800 26.10700
C  40.26500 45.34300 26.69000
C  40.32800 45.16400 28.02900
C  40.61000 43.82500 28.25000
C  39.96000 46.66800 26.06600
C  40.09400 45.82400 29.28700
O  39.80900 47.02700 29.57800
C  40.32900 44.75100 30.37400
C  41.46400 45.14700 31.25800
O  42.63100 44.83900 31.09900
O  41.02300 45.83400 32.34000
C  41.96500 46.44000 33.32100
H  41.79000 37.99500 30.18400
H  41.98000 38.28100 23.78100
H  40.22300 44.43600 24.08200
H  42.03500 42.15300 32.08500
H  40.51400 39.72500 31.89200
H  43.26900 40.43300 32.81700
H  43.45000 39.12900 31.72100
H  42.39400 38.95000 33.05200
H  39.03600 42.19000 31.83000
H  40.16900 43.28500 32.79000
H  40.44800 40.94900 34.15900
H  38.81200 40.75500 33.70500
H  41.42900 35.78300 29.25400
H  43.11200 35.35400 28.51600
H  41.62400 34.66800 27.95900
H  42.07000 33.98200 25.86600
H  43.75200 34.65400 26.10000
H  43.24800 33.88000 24.68200
H  40.52800 40.01400 22.20500
H  41.39400 42.84300 22.34200
H  43.32700 39.95600 22.39100
H  43.06800 41.50600 21.76800
H  42.34500 40.15300 20.85300
H  39.33200 41.79800 21.16600
H  38.95900 43.19800 22.04800
H  37.41200 40.96000 22.02600
H  37.55500 42.04000 23.36600
H  38.43800 40.59500 23.50400
H  39.31600 47.24600 26.72800
H  39.52400 46.52400 25.07700
H  40.86500 47.27400 26.08600
H  39.41900 44.51800 30.92600
H  42.24300 45.64300 34.01100
H  41.48400 47.32500 33.73700
H  42.82500 46.89300 32.82800

