158

Mg 8.34400 2.35900 27.66800
C  9.84800 1.16900 30.59000
C  6.40000 4.38600 29.64400
C  6.84300 3.29200 24.83000
C  10.09900 -0.11700 25.82900
N  7.98600 2.52500 29.87100
C  8.82000 2.04100 30.85400
C  8.48200 2.68500 32.20300
C  7.25700 3.62900 31.86800
C  7.08200 3.44300 30.40600
C  5.89900 3.41300 32.57700
C  9.73000 3.47000 32.80000
C  9.62100 4.28300 34.11100
H  10.49700 3.71400 35.27600
N  6.83100 3.60300 27.23900
C  6.20500 4.43400 28.22600
C  5.24000 5.32900 27.47800
C  5.43000 5.08400 26.08600
C  6.35000 3.93200 26.03100
C  4.32700 6.37400 28.14200
C  4.76100 5.88900 24.84800
O  4.87700 5.48800 23.68400
C  3.80100 7.09200 25.03600
N  8.29100 1.53500 25.64800
C  7.73800 2.21100 24.64400
C  8.22600 1.74700 23.22100
C  9.26000 0.72100 23.62700
C  9.21000 0.66100 25.17200
C  7.03400 1.42500 22.25100
C  10.74900 0.98000 23.16700
C  11.37400 -0.09900 22.18400
N  9.71800 0.82900 28.07800
C  10.32200 -0.04800 27.23500
C  11.31300 -0.80000 27.99900
C  11.17000 -0.35800 29.27200
C  10.15900 0.63700 29.34100
C  12.23200 -1.86000 27.48600
C  11.69300 -0.45000 30.63600
O  12.57000 -1.18500 31.15200
C  10.85900 0.52700 31.46200
C  10.27400 -0.21700 32.61600
O  9.60400 -1.21400 32.59700
O  10.71000 0.32700 33.78700
C  10.27200 -0.28500 35.03000
H  5.99100 5.19700 30.24900
H  6.48100 3.55800 23.83500
H  10.91400 -0.66000 25.34700
H  8.12600 1.88400 32.85100
H  7.42000 4.68600 32.08100
H  5.27400 2.71300 32.02100
H  5.33100 4.32000 32.78200
H  6.09800 2.95000 33.54300
H  10.09300 4.12100 32.00400
H  10.60300 2.82100 32.87000
H  8.58800 4.19500 34.44600
H  9.89600 5.31600 33.89900
H  3.36300 6.12400 27.69800
H  4.48200 7.41100 27.84500
H  4.17900 6.29000 29.21900
H  2.80000 6.83700 25.38200
H  3.82900 7.68400 24.12100
H  4.30600 7.72600 25.76500
H  8.80000 2.63600 22.95700
H  9.02800 -0.31900 23.39900
H  6.04200 1.51600 22.69200
H  7.12700 0.40400 21.88000
H  7.22100 2.14700 21.45500
H  11.36700 1.15500 24.04800
H  10.72500 1.96200 22.69300
H  12.16800 -0.64400 22.69400
H  11.68500 0.38500 21.25800
H  10.56300 -0.82600 22.13800
H  13.04000 -1.90800 28.21600
H  12.59400 -1.66000 26.47700
H  11.65100 -2.78100 27.48400
H  11.55700 1.24500 31.89100
H  10.22500 0.56400 35.71200
H  11.03000 -0.97200 35.40600
H  9.36600 -0.88500 34.94200
Mg -11.45100 16.16500 41.47400
C  -8.86400 13.91400 41.11100
C  -9.68800 18.64600 39.95100
C  -14.40600 17.91600 40.86800
C  -13.57000 13.29800 42.18700
N  -9.61500 16.19100 40.53700
C  -8.64000 15.19800 40.61700
C  -7.27100 15.71800 40.26000
C  -7.55200 17.27900 40.08900
C  -9.06400 17.37100 40.16100
C  -6.76300 18.05100 41.17000
C  -6.61000 15.10600 38.96000
C  -5.13000 15.08100 38.65300
H  -4.77400 15.42600 37.20000
N  -11.97100 18.07300 40.69700
C  -11.09900 18.91800 40.09300
C  -11.74900 20.19100 39.85100
C  -13.10000 20.03600 40.25400
C  -13.21500 18.62400 40.64300
C  -10.95500 21.35400 39.40200
C  -14.13900 21.08100 40.21200
O  -13.91900 22.15000 39.71500
C  -15.46800 20.90300 40.95600
N  -13.72900 15.56100 41.32300
C  -14.73200 16.60000 41.16800
C  -16.13100 15.94200 41.15800
C  -15.72200 14.54600 41.70200
C  -14.25400 14.42200 41.81800
C  -17.00000 16.80300 42.05700
C  -16.47700 13.38400 40.93100
C  -17.05100 12.24800 41.77800
N  -11.25100 14.04600 41.82400
C  -12.14200 13.02800 42.12900
C  -11.39000 11.86300 42.45700
C  -10.07500 12.15700 42.08000
C  -10.08200 13.47900 41.71700
C  -12.02800 10.56200 42.97000
C  -8.75700 11.59900 41.99600
O  -8.36700 10.49500 42.23300
C  -7.85600 12.81200 41.49600
C  -6.88900 13.29500 42.48400
O  -7.11500 13.74600 43.59600
O  -5.60700 13.18200 42.00300
C  -4.53600 13.61300 42.89500
H  -8.93100 19.37600 39.65700
H  -15.30600 18.44700 40.55100
H  -14.15700 12.46000 42.56900
H  -6.57500 15.58500 41.08700
H  -7.22300 17.68500 39.13200
H  -6.14300 17.39200 41.77800
H  -7.42700 18.58500 41.84900
H  -6.13800 18.78200 40.65600
H  -7.22500 15.49700 38.14900
H  -6.94000 14.06900 39.02500
H  -4.84900 14.04000 38.81000
H  -4.70700 15.95400 39.14900
H  -10.25300 21.59400 40.20100
H  -11.53600 22.25000 39.18500
H  -10.48300 20.98300 38.49300
H  -16.34700 20.62700 40.37200
H  -15.68600 21.89400 41.35500
H  -15.31700 20.33700 41.87500
H  -16.45800 15.82400 40.12500
H  -16.06100 14.49600 42.73700
H  -16.42900 17.53000 42.63500
H  -17.72400 16.22600 42.63200
H  -17.70200 17.41500 41.49200
H  -15.80300 12.90200 40.22200
H  -17.34900 13.79000 40.42000
H  -16.84800 11.30800 41.26600
H  -18.11900 12.31400 41.98400
H  -16.54300 12.24300 42.74300
H  -12.77300 10.88300 43.69800
H  -11.38000 9.81400 43.42500
H  -12.57400 10.07200 42.16300
H  -7.26200 12.54100 40.62300
H  -3.69300 13.71200 42.21100
H  -4.28600 12.81300 43.59100
H  -4.73500 14.60800 43.29500

