158

Mg 46.70700 25.18300 27.45300
C  47.77900 27.36000 30.02600
C  45.73000 23.01300 29.83400
C  46.19000 22.82300 25.03700
C  48.16700 27.22100 25.09900
N  46.86300 25.21200 29.73800
C  47.12300 26.26000 30.57200
C  46.78500 26.01800 32.03500
C  46.35500 24.47400 31.86900
C  46.36100 24.17800 30.38800
C  47.08500 23.36500 32.77300
C  45.77500 27.05100 32.65800
C  44.99900 26.69000 33.89800
H  45.27000 27.59200 35.14400
N  45.98700 23.24700 27.47400
C  45.61700 22.55000 28.55900
C  45.14800 21.22500 28.12900
C  45.13300 21.15500 26.69400
C  45.77800 22.43000 26.34000
C  44.74500 20.14700 29.14700
C  44.64300 20.00200 25.76400
O  44.66300 20.02200 24.52700
C  44.14200 18.73900 26.37700
N  47.18100 25.02100 25.46500
C  46.77700 23.99100 24.58600
C  47.18400 24.21900 23.16700
C  47.97400 25.57500 23.24700
C  47.72900 26.00300 24.66000
C  47.82100 23.04200 22.45900
C  47.49300 26.61800 22.08900
C  48.55300 27.17900 21.18500
N  47.74100 26.91900 27.49300
C  48.18700 27.67300 26.44500
C  48.88700 28.80900 26.93300
C  48.70000 28.78400 28.34100
C  47.97700 27.60800 28.60400
C  49.71800 29.77500 26.13600
C  49.17900 29.39800 29.64900
O  49.91700 30.32400 29.87900
C  48.42100 28.59400 30.68000
C  49.37700 28.22900 31.81600
O  50.25600 27.34800 31.76800
O  48.97700 28.98700 32.87300
C  49.61000 28.72400 34.10900
H  45.32400 22.41700 30.65400
H  45.92000 22.08600 24.27800
H  48.55800 28.01700 24.46200
H  47.75200 25.98500 32.53600
H  45.29200 24.33100 32.05900
H  46.37100 22.72000 33.28500
H  47.66700 23.93000 33.50100
H  47.69100 22.72400 32.13300
H  45.01000 27.32000 31.92900
H  46.39700 27.90600 32.92400
H  45.43600 25.74500 34.22100
H  43.91600 26.61300 33.80400
H  43.67100 20.03500 29.00400
H  44.71900 20.49100 30.18100
H  45.40200 19.28200 29.05400
H  44.94300 18.34400 27.00100
H  43.92700 17.96400 25.64000
H  43.16700 18.81200 26.86000
H  46.26900 24.47600 22.63400
H  49.04200 25.36700 23.31000
H  48.25800 22.32100 23.15100
H  48.57800 23.37600 21.75000
H  47.02400 22.46500 21.99000
H  47.04000 27.52400 22.49000
H  46.69500 26.24200 21.44900
H  49.49300 27.29100 21.72600
H  48.22900 28.12400 20.74800
H  48.77300 26.58200 20.30000
H  49.98800 30.70200 26.64200
H  49.13600 30.08100 25.26700
H  50.65500 29.35600 25.76900
H  47.55000 29.10500 31.09100
H  49.35800 29.63700 34.64900
H  50.68700 28.64900 33.95700
H  49.24600 27.79900 34.55600
Mg 16.87000 51.86300 25.08700
C  18.61700 50.50100 27.80000
C  14.28900 52.72800 27.14100
C  15.15800 52.84300 22.31400
C  19.35600 50.42000 22.95100
N  16.54900 51.62500 27.20400
C  17.44800 51.13900 28.14900
C  16.90700 51.49000 29.60500
C  15.43100 51.92100 29.35000
C  15.43300 52.17100 27.82000
C  14.34900 50.87100 29.63600
C  17.73400 52.60500 30.27900
C  17.42800 52.85400 31.83200
H  16.41000 52.06400 32.52700
N  14.89500 52.69900 24.77200
C  14.04800 53.00300 25.78600
C  12.91200 53.65700 25.22100
C  13.05800 53.64600 23.74900
C  14.48300 53.08400 23.53800
C  11.70500 54.10100 26.08300
C  12.15200 54.22000 22.70700
O  12.34700 54.21700 21.48300
C  10.79600 54.86100 23.21000
N  17.18800 51.65400 22.97900
C  16.35500 52.25400 22.07100
C  16.86900 52.19800 20.57900
C  18.27400 51.33400 20.82400
C  18.32800 51.11800 22.32500
C  15.92200 51.36900 19.67800
C  19.63200 51.97400 20.38500
C  19.73400 52.30600 18.92500
N  18.65400 50.75400 25.28200
C  19.48400 50.20800 24.34000
C  20.58300 49.55400 25.00900
C  20.24300 49.60100 26.35200
C  19.02500 50.32700 26.44200
C  21.82800 48.91600 24.38900
C  20.64600 49.27500 27.64900
O  21.59300 48.60800 28.03700
C  19.71900 49.96400 28.63800
C  19.28500 48.97100 29.62700
O  18.38900 48.16000 29.55800
O  20.00100 49.24700 30.78500
C  19.65600 48.60700 32.06000
H  13.44600 53.01300 27.77300
H  14.72200 53.34300 21.44700
H  20.19200 49.99900 22.38900
H  16.98800 50.57100 30.18600
H  15.23500 52.84200 29.90000
H  13.35700 51.27200 29.84200
H  14.60300 50.21000 30.46500
H  14.24800 50.19900 28.78400
H  17.59000 53.51800 29.70100
H  18.78400 52.31800 30.22500
H  17.24400 53.92400 31.93200
H  18.39600 52.55500 32.23300
H  11.39400 55.14200 25.99600
H  11.99500 54.03700 27.13200
H  10.84700 53.43700 25.97100
H  10.27200 54.20100 23.90100
H  10.29400 54.98300 22.25000
H  10.94300 55.79700 23.74800
H  17.07300 53.16800 20.12700
H  18.18500 50.38300 20.29800
H  15.92300 50.33400 20.02100
H  16.28300 51.37300 18.64900
H  14.90100 51.74100 19.76300
H  20.48000 51.31700 20.58100
H  19.68700 52.96400 20.83700
H  20.00400 53.35600 18.80700
H  18.87700 52.00900 18.32100
H  20.58900 51.71400 18.60100
H  22.62900 49.64700 24.27700
H  21.66300 48.46000 23.41300
H  22.17600 48.11300 25.03800
H  20.23800 50.83100 29.04700
H  19.75800 47.53200 31.91500
H  18.65800 48.84000 32.43300
H  20.31400 48.76400 32.91500

