158

Mg 7.57800 2.31000 27.50300
C  9.15900 1.28100 30.49800
C  5.66900 4.50900 29.28000
C  6.00800 3.17100 24.64600
C  9.15000 -0.32700 25.88500
N  7.46700 2.89700 29.65600
C  8.18300 2.29800 30.71400
C  7.73900 2.92300 32.06200
C  6.53600 3.88300 31.66800
C  6.50900 3.69800 30.11400
C  5.13100 3.58600 32.20300
C  8.96100 3.55600 32.87500
C  9.29900 2.92800 34.19800
H  9.85100 3.85700 35.27000
N  6.14100 3.71200 26.99000
C  5.57700 4.58300 27.88300
C  4.71400 5.53000 27.16900
C  4.82200 5.13000 25.79600
C  5.66400 3.98100 25.74300
C  4.07200 6.74700 27.76700
C  4.23400 5.76600 24.58700
O  4.48100 5.31600 23.47400
C  3.45200 7.05200 24.70000
N  7.59200 1.50200 25.59400
C  6.80600 2.01400 24.63100
C  6.88600 1.13200 23.35700
C  7.87400 0.03600 23.81000
C  8.25200 0.45800 25.17300
C  5.49400 0.65200 22.81800
C  9.14200 0.03900 22.77500
C  9.28000 -1.35300 22.17400
N  8.93300 0.80900 28.05100
C  9.45100 -0.22200 27.25200
C  10.43800 -0.99300 28.04600
C  10.37800 -0.41000 29.29100
C  9.38100 0.59700 29.30500
C  11.33000 -2.06700 27.55000
C  10.91200 -0.52100 30.62200
O  11.75300 -1.25700 31.10700
C  10.19100 0.65400 31.48600
C  9.62000 0.05000 32.72100
O  8.44800 -0.29200 32.82900
O  10.54900 -0.14000 33.78000
C  10.05600 -0.62800 35.07600
H  4.99900 5.21200 29.77900
H  5.58300 3.25100 23.64300
H  9.57800 -1.11000 25.25500
H  7.33000 2.03500 32.54300
H  6.62500 4.95400 31.85000
H  4.36000 3.93900 31.51800
H  4.99200 4.19300 33.09800
H  5.00700 2.51500 32.36200
H  8.75500 4.61700 33.01800
H  9.76900 3.58200 32.14400
H  10.12400 2.26300 33.94300
H  8.41200 2.40600 34.55900
H  2.99200 6.61100 27.73600
H  4.40500 7.70900 27.37700
H  4.23100 6.80200 28.84500
H  3.05500 7.31100 23.71800
H  4.16900 7.74400 25.14100
H  2.56900 6.98100 25.33500
H  7.30900 1.79900 22.60600
H  7.29200 -0.88600 23.82600
H  4.70500 0.94800 23.51000
H  5.43500 -0.43500 22.77100
H  5.34300 1.07400 21.82500
H  10.01300 0.46900 23.26800
H  8.95600 0.69200 21.92300
H  10.29700 -1.52500 21.82100
H  8.53700 -1.34300 21.37700
H  8.93500 -2.00900 22.97400
H  10.83400 -2.88100 28.07800
H  12.34000 -1.97000 27.94800
H  11.19900 -2.34800 26.50500
H  10.81700 1.44300 31.90200
H  9.42000 0.10300 35.57500
H  10.81700 -1.05500 35.73000
H  9.33600 -1.43900 34.96500
Mg 16.78300 51.67600 26.08600
C  18.62700 50.22100 28.66300
C  14.28100 52.45000 28.40900
C  15.02200 52.94000 23.66300
C  19.45800 50.89300 23.96600
N  16.51600 51.37300 28.27400
C  17.44300 50.85500 29.12700
C  17.07600 51.22000 30.56600
C  15.60200 51.57800 30.41900
C  15.42100 51.84500 28.93000
C  14.70200 50.42600 31.00800
C  17.99400 52.27900 31.15300
C  18.20200 52.33100 32.63100
H  17.07200 51.70800 33.49400
N  14.93100 52.53800 26.01700
C  14.04800 52.76800 27.04900
C  12.84300 53.47200 26.60900
C  13.08300 53.73700 25.21700
C  14.35900 53.05100 24.89100
C  11.81700 54.20700 27.48900
C  12.41800 54.62500 24.19500
O  12.85900 54.84900 23.09000
C  11.09700 55.30300 24.53200
N  17.09200 51.76300 24.06800
C  16.26900 52.43000 23.30000
C  16.80700 52.70700 21.94400
C  18.39000 52.36600 22.21300
C  18.34500 51.62700 23.49400
C  16.09800 51.86700 20.83100
C  19.31500 53.57100 22.31400
C  20.68700 53.53500 21.52000
N  18.62900 50.68600 26.22200
C  19.53600 50.37500 25.27000
C  20.55000 49.50400 25.85900
C  20.23500 49.46200 27.18600
C  19.06400 50.11000 27.33700
C  21.75900 49.06700 25.09600
C  20.68500 49.04000 28.52000
O  21.71500 48.49800 28.89900
C  19.65000 49.56500 29.55700
C  19.10900 48.49400 30.41800
O  18.60000 47.44200 30.00600
O  19.19000 48.83000 31.74900
C  18.63900 47.80600 32.68700
H  13.46400 52.71900 29.08100
H  14.50800 53.23700 22.74700
H  20.33600 50.66700 23.35800
H  17.13000 50.28700 31.12700
H  15.32500 52.50700 30.91700
H  14.25900 49.92100 30.15000
H  13.85900 50.74400 31.62100
H  15.20400 49.67600 31.61900
H  17.70700 53.22000 30.68400
H  19.01000 52.13000 30.78700
H  18.39700 53.35200 32.96000
H  19.05700 51.70700 32.89100
H  10.82400 54.17300 27.04100
H  12.11200 55.25600 27.48000
H  11.72700 53.94800 28.54400
H  11.24500 55.82000 25.48000
H  10.39400 54.49600 24.74000
H  10.72300 56.00200 23.78400
H  16.74900 53.76800 21.70200
H  18.82700 51.66700 21.49900
H  16.74500 51.01700 20.61200
H  15.90700 52.45500 19.93300
H  15.09900 51.60900 21.18100
H  19.64900 53.64500 23.34900
H  18.78900 54.48400 22.03500
H  21.03800 54.52700 21.23400
H  20.59900 53.00600 20.57100
H  21.41900 53.01500 22.13800
H  22.18900 49.65300 24.28300
H  21.51600 48.06300 24.74800
H  22.45800 48.87400 25.90900
H  20.11900 50.21900 30.29300
H  19.46900 47.44400 33.29500
H  18.14300 46.94700 32.23600
H  17.99800 48.21000 33.47000

