158

Mg 24.81100 -3.85800 45.89800
C  27.01000 -1.50500 44.31600
C  22.43700 -2.73000 43.80900
C  23.19100 -6.52800 46.69700
C  27.57900 -4.91400 47.79700
N  24.78100 -2.48400 44.01400
C  25.72900 -1.49200 43.70000
C  25.25300 -0.58200 42.63300
C  23.67600 -0.80600 42.81600
C  23.64700 -2.11100 43.58700
C  22.89700 0.26100 43.59000
C  25.81700 -1.03500 41.33700
C  25.99000 0.11000 40.31400
H  26.10000 -0.21400 38.79600
N  23.00700 -4.56400 45.28900
C  22.15700 -3.92500 44.46100
C  20.92300 -4.68300 44.41200
C  21.13200 -5.89400 45.19800
C  22.47000 -5.68900 45.79800
C  19.71700 -4.11800 43.70700
C  20.16700 -6.97200 45.33600
O  19.03800 -6.87400 44.88900
C  20.46700 -8.22500 46.08800
N  25.41400 -5.54700 47.01300
C  24.48300 -6.49400 47.23100
C  25.04700 -7.58600 48.18200
C  26.30500 -6.89000 48.75000
C  26.50800 -5.75000 47.76200
C  24.12500 -8.27500 49.18800
C  27.49000 -7.88900 48.78800
C  28.45700 -7.75700 49.96300
N  26.96000 -3.36200 46.05100
C  27.90200 -3.85800 46.87500
C  29.10200 -3.10900 46.61800
C  28.83700 -2.14500 45.64800
C  27.52900 -2.39400 45.31500
C  30.38300 -3.31600 47.37400
C  29.30700 -1.02800 44.92800
O  30.35200 -0.40500 44.93200
C  28.24300 -0.62100 43.99300
C  27.98900 0.79900 44.20200
O  27.58400 1.22800 45.27100
O  28.37500 1.39600 43.01300
C  28.15400 2.86500 43.00000
H  21.55000 -2.32200 43.31900
H  22.70400 -7.46700 46.97100
H  28.31500 -5.12500 48.57500
H  25.58400 0.42600 42.88300
H  23.20000 -0.94200 41.84500
H  23.57700 1.06400 43.87400
H  22.44400 -0.18900 44.47400
H  22.12600 0.64500 42.92200
H  25.15000 -1.74500 40.84700
H  26.81000 -1.47500 41.42800
H  26.80500 0.69600 40.73700
H  25.06300 0.64200 40.53000
H  19.97200 -4.13100 42.64800
H  19.53000 -3.04600 43.76000
H  18.77800 -4.61200 43.96100
H  21.38000 -8.70600 45.73700
H  19.77400 -9.02600 45.83200
H  20.58300 -8.09800 47.16400
H  25.45100 -8.31400 47.48000
H  26.08600 -6.43700 49.71600
H  24.43100 -8.07100 50.21400
H  24.19100 -9.35500 49.05100
H  23.12200 -7.96100 48.90000
H  27.99800 -7.77000 47.83100
H  27.06600 -8.89300 48.80700
H  28.10700 -8.39600 50.77400
H  28.29500 -6.77600 50.41000
H  29.50400 -7.91700 49.70400
H  31.02800 -4.09900 46.97600
H  30.14500 -3.51100 48.41900
H  30.90300 -2.36400 47.48200
H  28.58300 -0.93900 43.00700
H  27.12800 3.19900 42.84800
H  28.73600 3.30600 42.19100
H  28.51900 3.26700 43.94500
Mg 16.98900 -1.01400 27.34200
C  16.25400 0.92400 30.09900
C  19.16600 -2.87600 29.32200
C  18.40200 -2.45500 24.54900
C  15.33000 1.19700 25.28700
N  17.72500 -0.81900 29.41000
C  17.14600 -0.05700 30.41900
C  17.65600 -0.43100 31.78900
C  18.76000 -1.54000 31.51700
C  18.56900 -1.75400 29.92300
C  20.26900 -1.26200 31.89300
C  16.48900 -0.89200 32.71300
C  16.32600 -0.23400 34.01400
H  17.56700 0.49200 34.66900
N  18.41500 -2.57900 26.98400
C  19.12500 -3.27700 27.97400
C  19.74700 -4.42200 27.38900
C  19.53000 -4.33600 25.93900
C  18.78700 -3.06200 25.75600
C  20.57100 -5.43900 28.20900
C  19.89400 -5.25400 24.82900
O  19.74900 -4.86800 23.65100
C  20.69200 -6.63800 25.07600
N  16.85800 -0.69600 25.24500
C  17.49600 -1.40700 24.28500
C  17.06000 -1.02500 22.84700
C  15.99600 0.05300 23.09000
C  16.09900 0.28200 24.65100
C  18.13600 -0.66000 21.81800
C  14.55400 -0.21300 22.51200
C  14.14400 0.77600 21.44500
N  15.81400 0.64300 27.59700
C  15.16500 1.42700 26.67300
C  14.46300 2.43700 27.38900
C  14.74000 2.25700 28.77800
C  15.61700 1.14400 28.84400
C  13.59000 3.49700 26.70200
C  14.60800 2.80900 30.14400
O  14.00700 3.81500 30.49900
C  15.52000 1.89100 31.05200
C  16.48700 2.76900 31.84700
O  17.53400 3.15400 31.48800
O  15.90600 3.11100 33.05700
C  16.44700 4.30700 33.69400
H  19.79000 -3.49500 29.97100
H  18.75500 -2.91200 23.62200
H  14.82600 1.82100 24.54600
H  18.06000 0.46600 32.25700
H  18.49100 -2.44800 32.05700
H  20.61200 -2.21800 32.28900
H  20.28500 -0.63100 32.78100
H  20.82800 -0.91300 31.02500
H  16.72600 -1.93700 32.90800
H  15.54500 -1.00700 32.18100
H  15.97800 -0.96800 34.74100
H  15.54400 0.51300 33.87600
H  20.32800 -6.50000 28.15200
H  20.57500 -5.21000 29.27400
H  21.62100 -5.26800 27.96900
H  21.58100 -6.53400 25.69800
H  21.04800 -7.15700 24.18600
H  19.95600 -7.32700 25.48900
H  16.46600 -1.86600 22.49100
H  16.40600 1.02200 22.80600
H  17.96700 0.33800 21.41500
H  18.23000 -1.52600 21.16200
H  19.07700 -0.55600 22.35700
H  13.80600 -0.01300 23.28000
H  14.36300 -1.23000 22.17200
H  14.88600 1.51700 21.14900
H  13.22900 1.26400 21.78200
H  13.79100 0.22000 20.57600
H  13.54600 3.41600 25.61600
H  13.95900 4.48800 26.96500
H  12.59700 3.34800 27.12700
H  14.91300 1.40900 31.81800
H  17.32000 4.02400 34.28100
H  15.80400 4.69200 34.48600
H  16.71000 5.06500 32.95600

