158

Mg 47.42500 16.68500 29.05100
C  45.17600 16.29300 31.66900
C  49.28000 18.78100 30.94300
C  49.34700 17.48200 26.31500
C  45.20000 15.05600 26.92800
N  47.20100 17.43200 31.10000
C  46.28500 17.03000 32.04600
C  46.87200 17.37500 33.41000
C  47.87000 18.51700 33.07900
C  48.14200 18.18600 31.61300
C  47.28100 19.91700 33.35300
C  47.50700 16.11800 34.03900
C  47.74700 16.13700 35.54000
H  47.67500 17.43800 36.36100
N  49.21100 17.78900 28.70800
C  49.87000 18.48000 29.70500
C  51.14900 18.97000 29.19600
C  51.14700 18.76300 27.76500
C  49.83400 17.96000 27.53300
C  52.05600 19.73500 30.13900
C  52.08900 19.12200 26.69800
O  51.94300 18.88100 25.51900
C  53.30700 19.85200 27.15000
N  47.26800 16.38400 26.97100
C  48.18200 16.75500 26.09200
C  47.78100 16.38400 24.64300
C  46.59200 15.43700 24.84200
C  46.31500 15.64100 26.34800
C  47.36700 17.63600 23.76500
C  46.80200 13.89900 24.38300
C  45.62400 13.26200 23.63600
N  45.62000 15.86300 29.23000
C  44.81500 15.24500 28.25600
C  43.56900 14.78800 28.79100
C  43.71900 15.17100 30.16000
C  44.93400 15.88600 30.30300
C  42.37300 14.19100 28.21700
C  43.02100 15.10700 31.46800
O  41.87200 14.74300 31.76900
C  44.11000 15.70100 32.59800
C  43.46700 16.60700 33.53600
O  43.00900 17.70100 33.10700
O  43.54600 16.25800 34.87400
C  42.94000 17.06800 35.87600
H  49.94800 19.42800 31.51600
H  49.80900 17.77900 25.37100
H  44.59200 14.39900 26.30200
H  46.06900 17.77300 34.03100
H  48.70400 18.38800 33.76900
H  46.20100 19.86800 33.49500
H  47.48200 20.53600 32.47900
H  47.74400 20.41100 34.20600
H  48.44600 15.88900 33.53400
H  46.81500 15.29000 33.88700
H  48.79200 15.83700 35.61600
H  47.27400 15.27700 36.01400
H  53.10100 19.59100 29.86400
H  51.91000 19.30800 31.13100
H  51.81500 20.79500 30.21900
H  53.18600 20.92900 27.26400
H  54.01500 19.64100 26.34900
H  53.75200 19.34300 28.00400
H  48.62300 15.90800 24.14200
H  45.70700 15.74400 24.28400
H  47.62100 18.55300 24.29600
H  46.33700 17.75400 23.42800
H  47.98600 17.47600 22.88200
H  46.92900 13.36900 25.32600
H  47.70700 13.90500 23.77600
H  45.26700 12.37400 24.15700
H  45.98600 12.89400 22.67600
H  44.90600 14.06400 23.46600
H  42.58100 14.01400 27.16100
H  41.56800 14.92500 28.26300
H  42.20600 13.31000 28.83700
H  44.65900 14.93800 33.14900
H  43.70600 17.75000 36.24800
H  42.75000 16.36600 36.68700
H  42.07000 17.67800 35.63100
Mg -12.12000 38.56600 41.82600
C  -9.75400 36.05800 40.97900
C  -10.14300 40.79700 40.09400
C  -14.71200 40.70800 41.89700
C  -14.13400 36.02800 43.15400
N  -10.27100 38.41300 40.43700
C  -9.52900 37.24200 40.30500
C  -8.24200 37.47300 39.57200
C  -8.27700 39.07500 39.45500
C  -9.60100 39.49600 40.02800
C  -7.12600 39.76300 40.17800
C  -8.02100 36.68200 38.24000
C  -6.70600 35.89900 38.09500
H  -6.05300 36.14100 36.73300
N  -12.42500 40.44800 41.12000
C  -11.46600 41.15800 40.48200
C  -12.01700 42.48800 40.14500
C  -13.35700 42.50600 40.61600
C  -13.55900 41.18600 41.25700
C  -11.20700 43.57700 39.36600
C  -14.34300 43.74500 40.45400
O  -14.00100 44.74900 39.89500
C  -15.81100 43.70200 40.95600
N  -14.08500 38.42200 42.54000
C  -14.91200 39.44600 42.54100
C  -16.32100 38.96600 43.10500
C  -16.10400 37.52800 43.52700
C  -14.69000 37.26000 43.02700
C  -16.95800 39.94600 44.13600
C  -17.08000 36.43200 42.98600
C  -17.74800 35.53700 44.04700
N  -11.99000 36.43300 42.05200
C  -12.87000 35.53400 42.66100
C  -12.22100 34.21200 42.75800
C  -10.99000 34.37300 42.17200
C  -10.87100 35.71800 41.74200
C  -12.82000 33.06600 43.48300
C  -9.72700 33.70300 41.76700
O  -9.35900 32.56000 41.95800
C  -8.89900 34.80800 41.02300
C  -7.66300 34.90900 41.79200
O  -6.60700 34.32800 41.53900
O  -7.74200 35.84600 42.77900
C  -6.51700 36.21300 43.52100
H  -9.52000 41.61900 39.73600
H  -15.66700 41.23700 41.90700
H  -14.74000 35.29700 43.69500
H  -7.53700 37.12800 40.32800
H  -8.06500 39.34100 38.41900
H  -7.46400 40.58200 40.81200
H  -6.37500 40.06200 39.44700
H  -6.58400 39.07000 40.82100
H  -8.09100 37.38200 37.40800
H  -8.85400 36.00100 38.06300
H  -6.88800 34.85900 38.36500
H  -6.11100 36.23800 38.94400
H  -10.60200 43.06000 38.62100
H  -10.68200 44.26700 40.02700
H  -11.89700 44.17700 38.77300
H  -15.94300 43.54800 42.02700
H  -16.34400 42.89100 40.45800
H  -16.30500 44.63000 40.66800
H  -16.93000 39.04100 42.20400
H  -16.23100 37.51000 44.60900
H  -16.90400 39.56700 45.15600
H  -18.01000 40.17200 43.96200
H  -16.26500 40.78700 44.14200
H  -16.59300 35.83400 42.21500
H  -17.90400 36.85500 42.41100
H  -17.52800 35.82600 45.07500
H  -17.51600 34.48400 43.88500
H  -18.82700 35.54100 43.89200
H  -12.69500 32.18400 42.85600
H  -13.88200 33.27300 43.61300
H  -12.28900 32.73400 44.37500
H  -8.68100 34.45000 40.01700
H  -6.89600 36.70500 44.41600
H  -5.88500 36.89000 42.94500
H  -5.91900 35.35400 43.82700

