158

Mg 8.63700 2.87400 27.70600
C  9.98900 1.26300 30.52000
C  6.56400 4.73300 29.64800
C  7.35200 4.31700 24.93700
C  10.50900 0.67800 25.76900
N  8.33000 2.97200 29.79300
C  8.99100 2.20400 30.73200
C  8.64600 2.75300 32.16000
C  7.53300 3.77300 31.85800
C  7.36700 3.75300 30.31500
C  6.30200 3.67900 32.70800
C  9.85700 3.40700 32.88600
C  9.48100 4.27500 34.08300
H  10.28800 4.03700 35.39700
N  7.12500 4.40200 27.31900
C  6.47000 5.11400 28.30300
C  5.80100 6.20100 27.62100
C  6.07600 6.13400 26.21500
C  6.96400 4.93100 26.13400
C  5.03500 7.28300 28.43500
C  5.48500 6.90900 25.03400
O  5.64100 6.55300 23.91000
C  4.50100 7.98700 25.33700
N  8.74500 2.49100 25.65400
C  8.18000 3.20600 24.69100
C  8.56900 2.79000 23.25700
C  9.59500 1.68200 23.54300
C  9.69800 1.62600 25.10700
C  7.34000 2.51000 22.38500
C  11.01800 1.80300 22.93600
C  11.61400 0.48700 22.28000
N  9.92700 1.20900 28.00300
C  10.65200 0.43600 27.15700
C  11.49700 -0.50200 27.81900
C  11.16600 -0.26900 29.21400
C  10.31300 0.79400 29.23200
C  12.43700 -1.53100 27.15700
C  11.46700 -0.61500 30.55400
O  12.13400 -1.53000 31.02200
C  10.73200 0.41000 31.46500
C  9.91800 -0.29600 32.56400
O  9.02400 -1.09800 32.27300
O  10.22500 0.17600 33.79900
C  9.44400 -0.45200 34.90400
H  5.88800 5.38200 30.20900
H  7.22500 4.71200 23.92700
H  11.13200 0.18200 25.02200
H  8.40700 1.92300 32.82600
H  7.81800 4.81000 32.03400
H  5.99000 4.67100 33.03700
H  6.52500 3.03300 33.55700
H  5.47500 3.30300 32.10500
H  10.42500 3.99800 32.16800
H  10.56800 2.62100 33.14300
H  8.41000 4.34500 34.27200
H  9.78900 5.27900 33.79100
H  5.41900 8.29600 28.31400
H  5.16200 7.12700 29.50600
H  3.97200 7.28800 28.19500
H  5.00500 8.70300 25.98700
H  3.70900 7.50000 25.90500
H  4.10800 8.56700 24.50200
H  9.00300 3.65400 22.75300
H  9.20800 0.76500 23.09700
H  6.40900 2.72000 22.91200
H  7.44700 1.49500 22.00200
H  7.50800 3.16300 21.52900
H  11.63800 2.10100 23.78200
H  11.01800 2.62000 22.21300
H  12.18900 0.67900 21.37400
H  10.78700 -0.17300 22.01900
H  12.25700 0.04900 23.04300
H  12.00600 -2.52900 27.24200
H  13.48000 -1.59800 27.46500
H  12.46700 -1.31600 26.08900
H  11.51300 0.90900 32.03900
H  10.24800 -0.58000 35.62900
H  9.03500 -1.45500 34.77400
H  8.65400 0.05600 35.45700
Mg -10.06500 40.50900 42.32000
C  -9.31100 37.22700 41.31800
C  -7.22700 41.45200 40.53900
C  -11.29200 43.66800 42.08100
C  -13.42500 39.25700 42.97500
N  -8.55500 39.45500 40.94400
C  -8.37000 38.07300 40.84600
C  -6.96600 37.68700 40.40700
C  -6.24800 39.10000 40.44100
C  -7.39500 40.11400 40.63600
C  -5.16900 39.26000 41.49600
C  -6.95200 37.14700 38.93600
C  -6.32000 35.75100 38.68900
H  -5.19300 35.63700 37.56900
N  -9.25000 42.31100 41.69000
C  -8.09500 42.47500 41.02800
C  -7.84900 43.88000 40.83400
C  -9.08500 44.55700 41.13700
C  -9.94400 43.51400 41.64000
C  -6.52000 44.48900 40.37900
C  -9.31200 46.02700 40.96400
O  -8.39000 46.70100 40.46600
C  -10.63400 46.74300 41.34400
N  -12.03100 41.35500 42.61800
C  -12.25100 42.73900 42.53300
C  -13.70300 43.10900 43.01500
C  -14.34900 41.65100 43.28000
C  -13.19000 40.69100 42.88800
C  -13.67600 43.95400 44.30100
C  -15.62300 41.39400 42.38300
C  -16.93600 41.33800 43.20300
N  -11.17900 38.61200 42.36400
C  -12.47800 38.25900 42.64100
C  -12.62600 36.81600 42.56800
C  -11.43300 36.36800 42.09800
C  -10.57600 37.53200 41.85600
C  -13.87300 35.97500 42.67600
C  -10.67700 35.19600 41.65700
O  -10.89600 34.02700 41.65700
C  -9.36900 35.73700 41.09600
C  -8.23200 35.04300 41.69200
O  -7.52400 35.56500 42.55000
O  -8.06300 33.81300 41.15500
C  -6.82800 33.15900 41.56100
H  -6.26800 41.68300 40.07100
H  -11.78100 44.64300 42.02600
H  -14.44300 38.94500 43.21800
H  -6.36500 37.04100 41.04800
H  -5.75700 39.31600 39.49200
H  -4.21700 39.67400 41.16600
H  -5.15600 38.43800 42.21100
H  -5.39500 40.07100 42.18900
H  -6.41800 37.90300 38.36000
H  -7.93900 37.10700 38.47500
H  -7.17500 35.23000 38.25900
H  -5.90800 35.30700 39.59500
H  -6.22900 45.10100 41.23300
H  -6.78500 45.16600 39.56700
H  -5.83400 43.69400 40.08800
H  -10.87900 46.68200 42.40400
H  -11.39200 46.46800 40.61000
H  -10.39400 47.78100 41.11500
H  -14.15900 43.70900 42.22800
H  -14.52100 41.32600 44.30600
H  -12.67100 43.75200 44.67000
H  -14.50500 43.74100 44.97700
H  -13.76300 44.98900 43.96900
H  -15.54300 40.57900 41.66400
H  -15.72400 42.36800 41.90500
H  -17.04000 42.31900 43.66700
H  -16.86100 40.49300 43.88700
H  -17.81400 41.25500 42.56300
H  -14.13500 35.70300 43.69800
H  -13.78200 35.04900 42.10800
H  -14.68800 36.51700 42.19700
H  -9.34200 35.51100 40.03000
H  -6.73600 33.00000 42.63600
H  -5.92900 33.67200 41.22200
H  -6.85500 32.19300 41.05800

