158

Mg -1.81600 17.07400 27.18000
C  -2.56000 14.94100 30.09900
C  -2.57300 19.66500 29.11200
C  -1.67100 18.80400 24.47300
C  -1.62600 14.10900 25.30800
N  -2.62900 17.22100 29.47700
C  -2.62800 16.29300 30.46800
C  -3.02800 16.91500 31.84000
C  -3.01800 18.55300 31.43700
C  -2.69400 18.48700 29.91700
C  -4.22600 19.46800 31.92900
C  -2.12800 16.46800 33.05800
C  -1.46800 17.42800 34.05900
H  -1.14500 16.80100 35.42600
N  -1.81700 19.03900 26.88400
C  -2.17400 19.90400 27.78900
C  -2.24900 21.23000 27.09600
C  -1.83600 21.02000 25.75000
C  -1.76500 19.56900 25.62800
C  -2.86200 22.45200 27.69400
C  -1.62200 22.01800 24.64600
O  -1.43300 21.72400 23.48700
C  -1.55600 23.36200 25.06500
N  -1.66900 16.50400 25.25100
C  -1.61000 17.42400 24.22900
C  -1.33500 16.86400 22.79900
C  -1.09500 15.39100 23.20300
C  -1.43300 15.31600 24.69400
C  -2.43700 17.02400 21.68600
C  0.31800 14.80100 22.95000
C  1.65000 15.38700 23.51200
N  -2.19600 14.98800 27.58000
C  -2.03500 13.87300 26.67900
C  -2.25200 12.66300 27.41100
C  -2.36900 12.98600 28.74200
C  -2.32200 14.44800 28.79900
C  -2.17600 11.29600 26.75000
C  -2.61400 12.46600 30.04200
O  -2.76300 11.29400 30.36700
C  -2.51800 13.77100 30.97700
C  -1.22900 13.81700 31.70200
O  -0.17000 14.26700 31.32300
O  -1.53500 13.27700 32.89500
C  -0.49500 13.18000 33.92700
H  -2.81200 20.58000 29.65800
H  -1.52500 19.30300 23.51300
H  -1.32200 13.21300 24.76200
H  -4.05800 16.69200 32.11800
H  -2.21000 19.13100 31.88700
H  -4.61300 19.88100 30.99800
H  -3.72200 20.29000 32.43800
H  -5.05500 19.03000 32.48500
H  -1.21500 16.18500 32.53500
H  -2.51900 15.59500 33.58100
H  -2.07500 18.32600 34.16700
H  -0.55700 17.68700 33.51900
H  -2.14800 23.26400 27.82700
H  -3.31000 22.29200 28.67500
H  -3.62500 22.74800 26.97500
H  -0.83700 23.42200 25.88200
H  -2.59100 23.66800 25.21500
H  -1.31300 24.02300 24.23400
H  -0.41800 17.30000 22.40200
H  -1.76800 14.71500 22.67600
H  -3.00800 17.94700 21.79000
H  -3.05900 16.12900 21.65600
H  -2.01000 17.00800 20.68300
H  0.51500 14.90400 21.88300
H  0.16000 13.73200 23.09400
H  2.19100 15.78700 22.65500
H  2.38000 14.69100 23.92400
H  1.34200 16.21200 24.15400
H  -1.57300 11.40000 25.84800
H  -3.16000 11.05600 26.34700
H  -1.68300 10.48500 27.28700
H  -3.40100 13.90500 31.60100
H  0.20300 14.01600 33.96700
H  0.00100 12.22200 33.77000
H  -0.97400 13.07700 34.90000
Mg 48.09100 16.81100 27.86400
C  46.09700 16.68600 30.79300
C  50.47100 18.40400 29.54000
C  49.79100 17.25200 24.86200
C  45.50400 15.31800 26.08700
N  48.28100 17.43200 29.94000
C  47.34300 17.36900 30.96100
C  47.98100 17.82600 32.24100
C  49.27500 18.64500 31.77900
C  49.39300 18.07800 30.35500
C  49.19300 20.16800 31.81000
C  48.19300 16.62900 33.24000
C  48.08100 16.92800 34.79400
H  47.48900 18.22600 35.26700
N  49.96000 17.68200 27.28700
C  50.81500 18.14500 28.20600
C  52.09000 18.33300 27.59800
C  51.86100 18.25100 26.18000
C  50.46300 17.74400 26.03600
C  53.31000 18.62100 28.40200
C  52.74800 18.56400 25.03800
O  52.31600 18.63400 23.87900
C  54.20100 18.96300 25.27600
N  47.64500 16.41000 25.69100
C  48.48600 16.77700 24.70800
C  47.66400 16.62000 23.35400
C  46.47500 15.71100 23.82000
C  46.50700 15.79600 25.26000
C  47.18500 17.92500 22.71400
C  46.57700 14.17000 23.38400
C  45.59200 13.73100 22.26100
N  46.21100 15.93400 28.30300
C  45.29500 15.33000 27.47900
C  44.01400 15.16400 28.17100
C  44.28900 15.64600 29.48600
C  45.61300 16.14700 29.52800
C  42.70700 14.57600 27.68900
C  43.75400 15.83500 30.82300
O  42.59100 15.65700 31.18200
C  44.94300 16.43800 31.74300
C  44.48200 17.62600 32.55700
O  44.80900 18.80900 32.31700
O  43.72400 17.13400 33.54400
C  42.94100 18.14000 34.26800
H  51.19600 19.01000 30.08800
H  50.23400 17.66300 23.95300
H  44.62400 14.96000 25.54900
H  47.35900 18.61700 32.65900
H  50.13900 18.28400 32.33700
H  48.77200 20.47900 30.85400
H  50.21300 20.51400 31.97300
H  48.60200 20.50700 32.66100
H  49.22200 16.30800 33.07400
H  47.58200 15.80500 32.87300
H  49.07200 16.83000 35.23900
H  47.46100 16.13700 35.21600
H  53.26700 18.21900 29.41400
H  53.41700 19.70000 28.51500
H  54.26000 18.25400 28.01400
H  54.31800 19.85300 25.89400
H  54.65400 19.09300 24.29300
H  54.67900 18.07300 25.68500
H  48.30600 16.12100 22.62700
H  45.51900 16.14300 23.52500
H  46.12100 18.13100 22.83300
H  47.21900 17.78900 21.63300
H  47.88500 18.72700 22.95000
H  46.30200 13.46200 24.16500
H  47.62700 14.02700 23.12700
H  46.24000 13.14900 21.60600
H  45.17200 14.57800 21.71700
H  44.72900 13.22600 22.69400
H  42.65500 14.72700 26.61100
H  41.95600 15.16200 28.22000
H  42.53300 13.52600 27.92400
H  45.21400 15.58600 32.36600
H  42.02100 17.60300 34.49700
H  42.64200 19.00800 33.68000
H  43.44000 18.46600 35.18100

