158

Mg 48.10800 16.39000 28.87100
C  45.70400 16.07400 31.32100
C  49.99600 18.34800 31.29300
C  50.32000 16.91100 26.61900
C  45.86100 14.88100 26.59900
N  47.81000 17.25800 30.97200
C  46.79500 16.79800 31.77400
C  46.98300 17.22600 33.25700
C  48.09300 18.31300 33.08500
C  48.70900 17.92800 31.68800
C  47.68800 19.78700 33.21800
C  47.35200 16.10500 34.24600
C  47.11700 16.36300 35.77000
H  46.87300 17.89900 36.21300
N  49.97300 17.33900 28.96300
C  50.60400 18.14800 29.98400
C  51.89800 18.46800 29.53300
C  51.99700 18.16600 28.17000
C  50.74200 17.45900 27.85100
C  52.81800 19.23100 30.50000
C  53.21900 18.50700 27.16800
O  53.19600 18.13300 25.99200
C  54.33400 19.38000 27.53800
N  48.03400 15.98300 26.89400
C  49.12800 16.29300 26.16800
C  49.07800 15.56400 24.82600
C  47.71500 14.78200 24.83400
C  47.13800 15.28000 26.19200
C  49.24000 16.48400 23.61900
C  47.76700 13.27000 24.72900
C  47.92100 12.61900 23.32700
N  46.21900 15.57400 28.92100
C  45.40200 15.03900 27.89400
C  44.09200 14.71200 28.43400
C  44.18100 15.08000 29.79000
C  45.50300 15.55800 29.99300
C  42.99900 14.14800 27.69400
C  43.47700 15.06900 31.03300
O  42.35600 14.61100 31.36900
C  44.42400 15.67700 32.05300
C  43.62600 16.80900 32.60500
O  43.36900 17.83400 32.03400
O  43.00900 16.42900 33.80000
C  42.35100 17.49900 34.50600
H  50.54400 18.92000 32.04600
H  51.00400 16.85100 25.77000
H  45.27200 14.38200 25.82700
H  46.04900 17.66000 33.61500
H  48.92600 18.16300 33.77100
H  46.65400 20.05400 33.43500
H  48.18300 20.29100 32.38800
H  48.17200 20.21800 34.09400
H  48.40500 15.85500 34.11700
H  46.78000 15.18600 34.12200
H  47.87900 15.85300 36.35800
H  46.19200 15.81800 35.96100
H  52.78300 20.16700 29.94300
H  53.83700 18.88100 30.66700
H  52.41600 19.61800 31.43700
H  53.90500 20.36100 27.74100
H  55.02600 19.55600 26.71500
H  54.83600 18.91200 28.38500
H  49.84100 14.78700 24.87200
H  47.07500 15.02800 23.98600
H  48.73200 16.08100 22.74200
H  50.30900 16.42700 23.41800
H  48.97100 17.53200 23.75700
H  46.91900 12.73200 25.15200
H  48.66600 13.08300 25.31700
H  48.90600 12.15400 23.28800
H  48.02500 13.43700 22.61500
H  47.21200 11.84800 23.02600
H  42.39300 13.64500 28.44800
H  43.42700 13.41500 27.01000
H  42.37900 14.87100 27.16500
H  44.67500 14.92400 32.80000
H  41.50100 17.97700 34.01800
H  43.10800 18.27100 34.64000
H  42.22200 17.01400 35.47300
Mg 26.37000 51.06500 25.73200
C  24.63100 52.20200 28.50100
C  28.78700 49.78200 27.79400
C  27.93400 49.97400 23.04600
C  24.01600 52.71700 23.76600
N  26.66100 51.06500 27.89700
C  25.76900 51.53600 28.85200
C  26.26000 51.21900 30.31300
C  27.70700 50.71500 29.93400
C  27.74000 50.48000 28.44600
C  28.95400 51.52800 30.34600
C  25.29400 50.15200 31.01800
C  24.79500 50.43700 32.50000
H  25.89000 50.95000 33.49200
N  28.16100 50.04900 25.44900
C  28.96700 49.62200 26.39900
C  29.96400 48.68400 25.85900
C  29.78300 48.75700 24.41300
C  28.62100 49.67400 24.22700
C  31.10300 48.03300 26.59300
C  30.52200 48.06300 23.34500
O  30.13700 48.14000 22.16600
C  31.69700 47.20800 23.68400
N  26.08600 51.49800 23.66400
C  26.78600 50.70400 22.75300
C  26.04000 50.63600 21.39000
C  24.83000 51.60300 21.57100
C  24.93200 51.94700 23.08700
C  26.91300 50.91200 20.15900
C  23.52100 50.87800 21.40400
C  22.67400 51.26100 20.16300
N  24.61600 52.29200 26.05700
C  23.74200 52.84700 25.09100
C  22.74000 53.64900 25.76100
C  23.04900 53.39600 27.14000
C  24.18400 52.59800 27.24900
C  21.67900 54.50300 25.16200
C  22.59300 53.50700 28.50700
O  21.53400 53.98400 28.89300
C  23.64600 52.91900 29.43400
C  24.26300 53.96000 30.38500
O  25.21300 54.65000 30.12100
O  23.69900 53.98900 31.60700
C  24.45700 54.83900 32.56400
H  29.44200 49.24800 28.48600
H  28.24100 49.39700 22.17100
H  23.27700 53.13000 23.07600
H  26.23500 52.07800 30.98300
H  27.91900 49.74500 30.38500
H  28.61200 52.17300 31.15700
H  29.36400 52.01500 29.46200
H  29.72300 50.84300 30.70300
H  25.71100 49.14900 30.93000
H  24.40100 50.08000 30.39700
H  24.28300 49.55500 32.88400
H  24.00800 51.19100 32.47700
H  31.10500 46.94600 26.51200
H  31.17600 48.29500 27.64800
H  32.01600 48.43800 26.15600
H  32.45600 47.93100 23.98600
H  32.19100 46.60300 22.92400
H  31.42000 46.49200 24.45700
H  25.76700 49.58600 21.28900
H  24.90800 52.49800 20.95400
H  27.89900 51.20900 20.51800
H  26.61300 51.70600 19.47600
H  27.04500 49.96500 19.63600
H  22.93500 50.84100 22.32300
H  23.58300 49.83500 21.09400
H  21.74000 51.58200 20.62500
H  22.50100 50.45300 19.45200
H  23.08000 52.14900 19.67900
H  22.01100 54.71100 24.14500
H  21.45500 55.38700 25.75900
H  20.78900 53.90200 24.97800
H  22.99100 52.24500 29.98500
H  25.52700 54.65000 32.47100
H  24.21100 54.61400 33.60200
H  24.23200 55.89000 32.37800

