158

Mg -2.34900 16.97600 27.25400
C  -2.91900 14.82200 29.86200
C  -3.28000 19.55600 29.19900
C  -2.11400 18.98900 24.52000
C  -2.10300 14.17500 25.11300
N  -3.00500 17.14300 29.20500
C  -2.98000 16.18100 30.17400
C  -3.33000 16.66500 31.61500
C  -3.47500 18.25900 31.28700
C  -3.35700 18.31400 29.80100
C  -4.71000 19.00400 31.96900
C  -2.30600 16.35100 32.76100
C  -2.20500 17.40300 33.89600
H  -1.70500 17.02900 35.31600
N  -2.54100 19.03100 26.90900
C  -2.90100 19.91400 27.87500
C  -2.69100 21.23200 27.38800
C  -2.12600 21.09600 26.03200
C  -2.24300 19.63900 25.72100
C  -3.06800 22.58000 28.09000
C  -1.63600 22.05400 25.03200
O  -1.16900 21.78600 23.91900
C  -1.61900 23.50700 25.26000
N  -2.38200 16.62500 25.16300
C  -2.17300 17.63200 24.23000
C  -2.28700 17.04200 22.78100
C  -2.13100 15.53200 23.00900
C  -2.16600 15.40200 24.55800
C  -3.58900 17.38900 21.95700
C  -0.87900 14.85000 22.32300
C  0.44200 15.14200 22.93300
N  -2.48500 14.88200 27.39200
C  -2.33800 13.88700 26.47200
C  -2.49600 12.65000 27.12800
C  -2.74700 12.94800 28.43600
C  -2.70700 14.33600 28.59100
C  -2.27600 11.28800 26.48000
C  -3.15900 12.41000 29.76900
O  -3.36600 11.28100 30.17200
C  -3.28500 13.58400 30.70200
C  -2.35500 13.37800 31.83200
O  -1.18300 13.43500 31.75800
O  -3.08500 13.06100 32.93800
C  -2.36100 12.76100 34.15800
H  -3.42100 20.38700 29.89400
H  -2.07200 19.62500 23.63300
H  -1.82700 13.28900 24.53700
H  -4.24800 16.13100 31.86100
H  -2.56100 18.73800 31.63900
H  -4.46200 19.92500 32.49700
H  -5.12300 18.37600 32.75800
H  -5.49300 19.28800 31.26600
H  -1.32200 16.09100 32.37000
H  -2.75300 15.48900 33.25500
H  -3.11800 17.99600 33.95700
H  -1.42900 17.99400 33.40900
H  -3.67000 23.11800 27.35800
H  -2.23100 23.17600 28.45400
H  -3.73800 22.31200 28.90700
H  -2.61900 23.92300 25.38300
H  -1.01300 24.00800 24.50500
H  -1.22700 23.72300 26.25300
H  -1.36500 17.41600 22.33600
H  -2.98000 14.96400 22.62700
H  -4.16600 18.11700 22.52700
H  -4.19200 16.54100 21.63100
H  -3.27200 17.86500 21.02900
H  -0.87500 15.06100 21.25300
H  -1.03000 13.78100 22.47600
H  0.22500 15.86700 23.71800
H  1.06700 15.70900 22.24300
H  1.01100 14.35000 23.41900
H  -3.18300 11.21300 25.88000
H  -2.17000 10.38300 27.07900
H  -1.44800 11.28800 25.77200
H  -4.31600 13.51800 31.05100
H  -2.93200 11.98200 34.66300
H  -2.25100 13.66200 34.76200
H  -1.38000 12.31900 33.98300
Mg -13.07800 16.50400 41.82300
C  -10.00600 14.85600 41.22900
C  -11.91900 19.06500 39.83000
C  -16.16500 17.72100 41.78500
C  -14.40200 13.29900 42.69600
N  -11.08800 16.99500 40.82800
C  -10.02900 16.19600 40.71200
C  -8.89200 16.88600 39.89800
C  -9.47500 18.31900 39.63800
C  -10.93700 18.10500 40.12300
C  -8.65100 19.47500 40.30600
C  -8.44700 16.07500 38.61700
C  -6.92800 15.92800 38.64400
H  -6.21900 15.51200 37.31800
N  -13.89800 18.26100 41.15200
C  -13.29600 19.12600 40.26900
C  -14.10500 20.30800 40.12600
C  -15.35000 19.92800 40.74900
C  -15.20900 18.56800 41.21900
C  -13.69800 21.53500 39.28700
C  -16.53500 20.80800 40.69000
O  -16.52700 21.82900 40.04800
C  -17.83700 20.36000 41.41300
N  -15.04000 15.59200 42.14400
C  -16.11600 16.37600 42.20100
C  -17.35100 15.62400 42.68000
C  -16.81100 14.27200 43.12700
C  -15.33500 14.36400 42.67800
C  -18.25100 16.33900 43.75200
C  -17.61600 13.08700 42.61700
C  -17.55300 12.83700 41.09400
N  -12.35800 14.58900 42.11900
C  -13.02300 13.42100 42.42900
C  -12.04700 12.34500 42.40400
C  -10.89800 12.86700 41.98000
C  -11.13800 14.21600 41.82800
C  -12.25600 10.92100 42.80900
C  -9.54300 12.49100 41.63600
O  -8.94400 11.40800 41.54500
C  -8.86900 13.81200 41.28300
C  -7.75200 14.06200 42.23100
O  -7.89400 14.50600 43.37500
O  -6.46400 13.84000 41.70900
C  -5.32700 13.99200 42.58000
H  -11.59600 19.89100 39.19400
H  -17.15700 18.17800 41.81000
H  -14.71600 12.31800 43.05700
H  -8.02300 17.05500 40.53300
H  -9.57600 18.43200 38.55900
H  -7.99100 20.00000 39.61600
H  -7.95700 19.10400 41.06100
H  -9.37900 20.13900 40.77100
H  -8.79100 16.54500 37.69500
H  -8.86700 15.07200 38.54700
H  -6.56200 15.49300 39.57400
H  -6.59700 16.96600 38.67900
H  -14.10500 22.46600 39.68200
H  -14.23700 21.49200 38.34000
H  -12.63600 21.61400 39.05200
H  -18.50500 21.22100 41.44500
H  -17.57300 20.14900 42.44900
H  -18.28900 19.65400 40.71600
H  -17.97300 15.59300 41.78500
H  -16.81800 14.19500 44.21400
H  -18.04300 16.03700 44.77900
H  -19.29300 16.30100 43.43500
H  -17.90800 17.36900 43.65500
H  -18.62200 13.17000 43.02700
H  -17.22300 12.20100 43.11600
H  -17.39000 11.76000 41.06800
H  -16.77000 13.42800 40.61900
H  -18.57700 13.06300 40.79500
H  -12.46900 10.93200 43.87800
H  -11.38500 10.36500 42.46300
H  -13.07500 10.48500 42.23600
H  -8.53200 13.70600 40.25200
H  -4.35100 13.94000 42.09600
H  -5.31100 13.11500 43.22600
H  -5.36300 14.87100 43.22400

