158

Mg 17.50700 -2.20800 27.67800
C  16.29700 -0.15700 30.28300
C  19.25800 -4.05200 30.00800
C  18.76100 -4.06900 25.14900
C  15.86700 -0.11700 25.39700
N  17.79300 -2.01900 29.88900
C  17.13500 -1.17600 30.74100
C  17.73200 -1.36400 32.13000
C  18.58500 -2.63500 32.02900
C  18.55400 -2.97100 30.56600
C  19.99300 -2.35900 32.57400
C  16.53300 -1.47600 33.24200
C  16.62700 -0.41400 34.35800
H  17.99800 0.21200 34.71800
N  18.77800 -3.84900 27.59100
C  19.35500 -4.51600 28.67000
C  20.06500 -5.61600 28.15700
C  20.07900 -5.61400 26.77200
C  19.14900 -4.50800 26.45800
C  20.84200 -6.53300 28.99900
C  20.85900 -6.47200 25.82800
O  20.77700 -6.32100 24.59900
C  21.93200 -7.40500 26.20300
N  17.26900 -2.18300 25.56700
C  17.92900 -2.98800 24.71200
C  17.83600 -2.53600 23.28300
C  16.79400 -1.37800 23.31400
C  16.65000 -1.18400 24.84200
C  19.20400 -2.04700 22.67200
C  15.42800 -1.65300 22.53600
C  15.11200 -0.52700 21.46900
N  16.31200 -0.41400 27.71000
C  15.68400 0.28600 26.72600
C  14.91000 1.38400 27.24900
C  15.08500 1.30300 28.68500
C  15.96000 0.17300 28.86300
C  13.95400 2.28400 26.42300
C  14.73300 1.81700 29.99400
O  13.98600 2.77400 30.31700
C  15.56100 0.97800 31.01800
C  16.57300 1.91500 31.62100
O  17.70500 1.97200 31.22600
O  16.03600 2.78900 32.46400
C  16.87100 3.96300 32.87000
H  19.80000 -4.56900 30.80300
H  19.10000 -4.60700 24.26100
H  15.25900 0.45000 24.68900
H  18.31000 -0.44600 32.24500
H  18.19200 -3.45300 32.63300
H  20.81100 -2.83600 32.03400
H  20.05200 -2.84300 33.54900
H  20.18500 -1.28600 32.59700
H  16.40100 -2.49600 33.60200
H  15.61400 -1.32400 32.67700
H  16.26700 -0.89000 35.27000
H  15.90500 0.30700 33.97400
H  20.73100 -6.34900 30.06800
H  21.88300 -6.23100 28.89100
H  20.62500 -7.58000 28.78700
H  22.08400 -8.14200 25.41400
H  21.65300 -8.06000 27.02800
H  22.83000 -6.86300 26.49700
H  17.48600 -3.36500 22.66800
H  17.32400 -0.52700 22.88700
H  19.71300 -2.82100 22.09700
H  19.83000 -1.90300 23.55200
H  19.05000 -1.18500 22.02200
H  14.67100 -1.40500 23.28000
H  15.35100 -2.61600 22.03200
H  14.47000 0.28000 21.82000
H  14.81400 -1.15900 20.63200
H  16.06800 -0.08600 21.18700
H  14.03800 2.12400 25.34800
H  14.11100 3.31000 26.75400
H  12.97400 1.94800 26.76200
H  14.86000 0.58600 31.75400
H  17.15800 4.58400 32.02200
H  17.72000 3.59600 33.44600
H  16.15500 4.61000 33.37700
Mg -5.59100 24.80200 25.29100
C  -3.61900 26.12900 27.85800
C  -6.55400 22.22500 27.40900
C  -6.77200 23.18000 22.57700
C  -3.90000 27.01100 22.99900
N  -4.98000 24.22900 27.41000
C  -4.38500 25.01800 28.32300
C  -4.64300 24.60100 29.72300
C  -5.41000 23.23800 29.50100
C  -5.73700 23.24300 28.00000
C  -4.59900 22.03300 29.98600
C  -5.41700 25.70300 30.51700
C  -5.22100 25.82700 32.02100
H  -4.57400 24.73300 32.89600
N  -6.67800 23.07600 24.99500
C  -6.94200 22.10800 26.06500
C  -7.99700 21.25500 25.46600
C  -8.14800 21.56100 24.06500
C  -7.10500 22.57600 23.84700
C  -8.76900 20.27100 26.24900
C  -9.08700 20.85300 22.98200
O  -8.82500 20.98600 21.78200
C  -10.30100 19.97200 23.35800
N  -5.33800 25.04400 23.10400
C  -5.93900 24.23700 22.18800
C  -5.74600 24.63800 20.65800
C  -4.79300 25.87900 20.83100
C  -4.70200 25.99200 22.42400
C  -5.25600 23.47100 19.72300
C  -5.16100 27.08800 19.97600
C  -6.03500 28.17800 20.51000
N  -4.11300 26.31100 25.42000
C  -3.54000 27.09100 24.45400
C  -2.61700 28.00800 25.06000
C  -2.66700 27.67200 26.44600
C  -3.49100 26.61400 26.55100
C  -1.82300 29.02800 24.40500
C  -2.14400 28.03000 27.63900
O  -1.31400 28.89100 27.92700
C  -2.81600 27.05600 28.66700
C  -1.76700 26.24500 29.28800
O  -0.98000 25.55300 28.69100
O  -1.82100 26.19700 30.66800
C  -0.61100 25.63800 31.35800
H  -7.01900 21.55200 28.13100
H  -7.26300 22.63200 21.77000
H  -3.35000 27.68300 22.33600
H  -3.62100 24.54000 30.09700
H  -6.35100 23.32000 30.04400
H  -4.12600 21.70700 29.06000
H  -5.15600 21.22000 30.45100
H  -3.87800 22.36400 30.73400
H  -6.50100 25.66800 30.41500
H  -5.08800 26.63800 30.06400
H  -6.20100 26.03500 32.45000
H  -4.68000 26.77000 32.10400
H  -9.84700 20.40700 26.15500
H  -8.51400 20.15600 27.30200
H  -8.59400 19.25400 25.89800
H  -11.05300 20.69100 23.68000
H  -10.10500 19.08600 23.96200
H  -10.79000 19.58800 22.46300
H  -6.71800 24.99400 20.31700
H  -3.80400 25.56500 20.49800
H  -6.07100 22.95000 19.22000
H  -4.94300 22.63300 20.34700
H  -4.58200 23.73100 18.90800
H  -5.59500 26.59200 19.10800
H  -4.20000 27.57900 19.82100
H  -5.59300 29.14200 20.25800
H  -6.27200 28.18100 21.57400
H  -6.94300 28.25000 19.91200
H  -2.36700 29.85500 23.95000
H  -1.16100 28.51100 23.71000
H  -1.15200 29.38200 25.18800
H  -3.27500 27.52400 29.53800
H  -0.88500 24.66800 31.77400
H  -0.45100 26.44400 32.07400
H  0.32800 25.56200 30.80900

