158

Mg 1.70300 -1.12900 43.88200
C  4.99400 0.02300 43.28600
C  0.60100 1.88500 42.75800
C  -1.38800 -2.47900 43.90400
C  3.11300 -4.24200 44.73600
N  2.72300 0.72800 43.19700
C  4.06900 0.95300 42.99700
C  4.33100 2.41400 42.64700
C  2.87600 3.01400 42.68300
C  1.94900 1.78600 42.82900
C  2.59300 4.14100 43.80100
C  5.02800 2.49300 41.23900
C  5.81100 3.70700 40.86500
H  5.52100 4.52200 39.55300
N  -0.14400 -0.32500 43.47900
C  -0.43800 0.93800 43.04300
C  -1.88900 1.08500 42.90200
C  -2.43900 -0.20900 43.19200
C  -1.27900 -1.06900 43.59900
C  -2.54200 2.35200 42.57000
C  -3.92000 -0.56900 43.19600
O  -4.73400 0.31900 42.76400
C  -4.53500 -1.84400 43.78400
N  0.90800 -3.11900 44.17800
C  -0.39800 -3.36200 44.26600
C  -0.68500 -4.85600 44.70200
C  0.78700 -5.39500 44.95100
C  1.68800 -4.20000 44.62200
C  -1.72500 -5.02300 45.83300
C  1.32200 -6.50900 44.08300
C  1.68500 -7.89200 44.77500
N  3.59400 -1.98400 43.99400
C  3.97600 -3.22600 44.48200
C  5.40900 -3.24700 44.51200
C  5.80900 -2.02000 44.06300
C  4.74500 -1.30500 43.70300
C  6.17900 -4.43300 44.85400
C  6.95000 -1.15600 43.88900
O  8.15700 -1.32000 44.05800
C  6.48400 0.16800 43.24800
C  7.00000 1.25200 44.14100
O  6.62400 1.39500 45.29100
O  7.86400 2.13800 43.53700
C  8.32100 3.31200 44.39700
H  0.22400 2.83500 42.37400
H  -2.42400 -2.72000 44.15100
H  3.60800 -5.14800 45.09300
H  4.93000 2.94500 43.38700
H  2.71600 3.47800 41.71000
H  3.49400 4.36200 44.37400
H  1.89600 3.82400 44.57700
H  2.31900 5.09100 43.34100
H  4.23200 2.49500 40.49400
H  5.57100 1.57600 41.01200
H  6.83800 3.44100 40.61600
H  5.87000 4.39100 41.71100
H  -1.82200 3.14700 42.37600
H  -3.20800 2.55000 43.41000
H  -3.25700 2.24000 41.75500
H  -5.59500 -1.59600 43.72600
H  -4.20600 -2.09200 44.79300
H  -4.30000 -2.72500 43.18600
H  -0.96900 -5.52400 43.88900
H  1.02300 -5.56100 46.00300
H  -2.26000 -4.09600 46.03800
H  -1.17500 -5.40300 46.69400
H  -2.57800 -5.67700 45.64600
H  2.15100 -6.33000 43.39800
H  0.54700 -6.83800 43.39100
H  0.79400 -8.46000 45.04300
H  2.23700 -7.74800 45.70300
H  2.31600 -8.53200 44.15800
H  5.97700 -5.26100 44.17500
H  6.05500 -4.71100 45.90100
H  7.23800 -4.17600 44.84000
H  6.89500 0.23200 42.24000
H  8.52900 3.13900 45.45300
H  7.58500 4.10200 44.54600
H  9.18600 3.77500 43.92200
Mg -5.34600 25.82200 25.47800
C  -4.43300 27.14000 28.54400
C  -7.14500 23.34900 27.16000
C  -6.09000 24.34600 22.55300
C  -3.16700 28.11900 23.84000
N  -5.70000 25.33300 27.61300
C  -5.41800 26.14700 28.75300
C  -5.92900 25.56000 30.06800
C  -6.73100 24.35400 29.53400
C  -6.52700 24.35500 27.99700
C  -6.19700 22.97400 29.99100
C  -6.78200 26.50500 30.96900
C  -6.76400 26.42200 32.52700
H  -6.39800 25.17300 33.35400
N  -6.48600 24.06300 24.95500
C  -7.15500 23.16700 25.78200
C  -7.87400 22.22100 24.98200
C  -7.45100 22.44200 23.65800
C  -6.64700 23.69000 23.64400
C  -8.70200 21.12600 25.59800
C  -7.66100 21.63400 22.32100
O  -6.98900 21.85100 21.31800
C  -8.69300 20.49200 22.14000
N  -4.75100 26.24500 23.48300
C  -5.17400 25.44900 22.42300
C  -4.39800 25.82400 21.17000
C  -3.58100 27.11400 21.57000
C  -3.92200 27.26700 23.05300
C  -3.50600 24.61300 20.69700
C  -3.78000 28.45400 20.78100
C  -2.47900 28.89600 19.97800
N  -4.19000 27.41900 26.02900
C  -3.31000 28.22700 25.21800
C  -2.50800 29.02100 26.17700
C  -2.92700 28.65300 27.51900
C  -3.89700 27.66800 27.33300
C  -1.54400 30.05800 25.73400
C  -2.75500 28.96500 28.88400
O  -1.96800 29.75800 29.44200
C  -3.81600 27.99400 29.65500
C  -2.99700 27.19500 30.56400
O  -2.33500 26.20400 30.22100
O  -3.09000 27.60800 31.93000
C  -2.36500 26.85100 32.94000
H  -7.81600 22.70100 27.72800
H  -6.09700 23.95700 21.53300
H  -2.46800 28.76100 23.30000
H  -5.16400 25.32000 30.80700
H  -7.76900 24.37400 29.86700
H  -5.49700 23.23700 30.78400
H  -5.72200 22.35000 29.23400
H  -7.06500 22.55100 30.49800
H  -7.78600 26.47700 30.54600
H  -6.44800 27.51700 30.74000
H  -7.74100 26.81800 32.80600
H  -6.11000 27.25500 32.78300
H  -8.47900 20.12800 25.22000
H  -9.73100 21.37800 25.34100
H  -8.62800 21.16400 26.68500
H  -9.25200 20.18600 23.02400
H  -8.15700 19.64100 21.72100
H  -9.40300 20.76700 21.35900
H  -5.05500 26.14900 20.36300
H  -2.51700 26.87700 21.55700
H  -3.77700 24.48400 19.65000
H  -3.55000 23.69800 21.28800
H  -2.46700 24.88800 20.88100
H  -4.00100 29.27600 21.46200
H  -4.68100 28.31800 20.18300
H  -1.92000 29.78900 20.26000
H  -2.82400 28.98800 18.94900
H  -1.78300 28.07500 20.15200
H  -1.15200 29.88100 24.73300
H  -0.81000 30.27500 26.51100
H  -2.19400 30.91900 25.57600
H  -4.53200 28.49000 30.31000
H  -1.69600 26.09700 32.52700
H  -3.16100 26.55600 33.62300
H  -1.76000 27.53700 33.53300

