158

Mg 16.82000 51.63500 27.06000
C  18.75800 50.44300 29.86300
C  14.36800 52.42900 29.34700
C  14.90100 52.23300 24.53900
C  19.35900 50.32500 24.95600
N  16.64500 51.44500 29.34500
C  17.57500 50.97400 30.26200
C  16.95700 51.21100 31.65100
C  15.46600 51.48700 31.39100
C  15.48700 51.83500 29.90100
C  14.46900 50.29500 31.67000
C  17.87300 52.36300 32.37300
C  18.02000 52.11900 33.94600
H  17.15200 52.93900 34.96200
N  14.88700 52.39000 27.00800
C  14.05000 52.72000 27.99700
C  12.76600 53.19300 27.40600
C  12.81600 52.99500 26.00100
C  14.21300 52.54400 25.77500
C  11.64700 53.61900 28.24900
C  11.70300 53.16900 24.91100
O  11.89100 52.87100 23.75700
C  10.43600 53.77000 25.22400
N  17.06300 51.28100 24.98500
C  16.15000 51.72200 24.15800
C  16.66700 51.68900 22.73100
C  18.03900 51.04600 22.84000
C  18.18600 50.88500 24.35700
C  15.76600 51.07700 21.61700
C  19.25200 51.78100 22.04600
C  20.15900 52.86400 22.73900
N  18.66700 50.58500 27.33900
C  19.58000 50.12600 26.34300
C  20.62500 49.42600 26.95300
C  20.38600 49.63300 28.34300
C  19.18800 50.27600 28.52100
C  21.72500 48.65900 26.29000
C  20.86900 49.35100 29.67600
O  21.78100 48.65700 30.03200
C  19.86300 49.96000 30.75000
C  19.37000 48.92500 31.79800
O  18.60400 48.02700 31.54200
O  19.77600 49.27400 33.07600
C  19.19900 48.38500 34.18800
H  13.58000 52.77700 30.01800
H  14.16500 52.37100 23.74400
H  20.07800 50.10300 24.16500
H  17.04800 50.22000 32.09500
H  15.11300 52.30800 32.01600
H  13.56900 50.29500 31.05500
H  14.04600 50.17000 32.66700
H  15.00700 49.38800 31.39500
H  17.28700 53.27500 32.25800
H  18.86200 52.46200 31.92600
H  19.05100 52.20000 34.29000
H  17.85200 51.07800 34.22100
H  11.43200 54.63300 27.91100
H  11.83600 53.49700 29.31500
H  10.72100 53.06400 28.09800
H  10.54200 54.83200 25.44600
H  9.80800 53.08200 25.79000
H  9.85200 53.79200 24.30400
H  16.92000 52.72000 22.48000
H  18.00200 50.04600 22.40700
H  14.90400 50.48600 21.92800
H  16.37400 50.44600 20.96800
H  15.43700 51.93800 21.03600
H  18.79900 52.37400 21.25100
H  19.84600 50.99000 21.58700
H  19.92400 53.72800 22.11700
H  21.23700 52.71100 22.69200
H  19.89400 53.17300 23.75000
H  22.46600 49.38300 25.94900
H  21.46700 48.17500 25.34800
H  22.14300 47.90000 26.95200
H  20.35900 50.78100 31.26800
H  19.73200 47.43500 34.22200
H  18.12400 48.22900 34.09400
H  19.30900 48.75500 35.20800
Mg -10.01100 39.54200 39.73100
C  -9.12200 36.22900 39.02500
C  -6.95100 40.48700 38.77800
C  -11.27800 42.62300 39.69300
C  -13.30200 38.30800 40.47600
N  -8.24000 38.43200 39.01500
C  -8.07000 37.13400 38.72500
C  -6.61600 36.82000 38.30600
C  -5.86500 38.14500 38.62200
C  -7.09400 39.10700 38.89400
C  -4.93000 37.98300 39.89300
C  -6.59900 36.34000 36.81100
C  -6.73500 37.46600 35.77600
H  -7.85600 37.36100 34.72800
N  -9.20500 41.25300 39.25800
C  -7.94300 41.44400 38.83500
C  -7.69800 42.87000 38.63700
C  -8.92500 43.55200 38.94000
C  -9.89700 42.50200 39.41000
C  -6.38700 43.49700 38.19500
C  -9.11300 45.05700 38.75200
O  -8.20900 45.72100 38.24500
C  -10.36800 45.78200 39.24500
N  -12.14300 40.31100 39.99300
C  -12.26200 41.65700 39.95500
C  -13.74500 42.06600 40.10100
C  -14.42300 40.64400 40.30600
C  -13.24700 39.65800 40.20300
C  -14.03600 43.15200 41.19500
C  -15.61700 40.36700 39.30400
C  -16.71400 39.32300 39.71900
N  -11.06000 37.70900 39.75600
C  -12.31400 37.35300 40.27800
C  -12.49100 35.91300 40.41800
C  -11.26900 35.44800 39.95300
C  -10.44600 36.58400 39.48000
C  -13.68100 35.25800 40.84900
C  -10.53800 34.21800 39.45500
O  -10.87900 33.06900 39.41600
C  -9.04900 34.69600 39.04100
C  -8.26000 34.23200 40.20000
O  -8.61200 34.25800 41.41000
O  -6.95400 33.89000 39.78000
C  -6.12500 33.31300 40.77900
H  -5.96700 40.82100 38.44500
H  -11.64300 43.65000 39.74100
H  -14.22900 37.91000 40.89400
H  -6.26600 35.98300 38.91000
H  -5.22200 38.56300 37.84700
H  -5.46900 38.23900 40.80500
H  -4.14600 38.73100 39.77000
H  -4.42200 37.02000 39.84800
H  -7.46200 35.67400 36.79000
H  -5.64700 35.86800 36.56800
H  -5.72700 37.63600 35.39600
H  -7.04700 38.37000 36.29900
H  -6.53600 44.08000 37.28600
H  -5.82100 42.61400 37.90000
H  -5.89700 44.03800 39.00500
H  -10.55600 45.52500 40.28800
H  -11.18800 45.61400 38.54800
H  -10.27300 46.86200 39.13600
H  -13.91000 42.40100 39.07700
H  -14.80000 40.58100 41.32600
H  -14.71100 43.95700 40.90700
H  -13.12400 43.68900 41.45600
H  -14.26000 42.62800 42.12400
H  -15.23800 40.11200 38.31400
H  -16.06300 41.35700 39.20400
H  -17.20700 38.80400 38.89700
H  -17.50300 39.82200 40.28100
H  -16.24400 38.63100 40.41800
H  -14.48500 35.64800 40.22500
H  -13.89100 35.47500 41.89600
H  -13.56600 34.19700 40.62900
H  -8.83900 34.27500 38.05800
H  -6.67400 32.82400 41.58400
H  -5.70400 34.24600 41.15200
H  -5.34700 32.67700 40.35700

