158

Mg -11.77600 16.88900 40.41600
C  -8.70400 15.27200 40.24300
C  -10.18000 19.74000 39.22200
C  -14.78200 18.38300 40.01300
C  -13.36900 13.71900 40.51700
N  -9.64800 17.46900 39.91000
C  -8.63200 16.58400 39.80300
C  -7.34600 17.27600 39.30500
C  -7.74200 18.67600 39.18000
C  -9.29000 18.59500 39.35500
C  -7.12800 19.67800 40.21300
C  -6.75500 16.71900 37.89700
C  -5.17700 16.67300 37.87600
H  -4.52200 16.96100 36.54800
N  -12.37700 18.82200 39.90400
C  -11.54300 19.83300 39.49300
C  -12.32100 21.09100 39.23100
C  -13.65700 20.74300 39.42500
C  -13.68100 19.25900 39.77700
C  -11.68900 22.34700 38.81400
C  -14.82900 21.72200 39.27000
O  -14.54500 22.91200 39.13800
C  -16.32100 21.37100 39.39000
N  -13.73400 16.15100 40.20500
C  -14.87100 17.00600 40.15700
C  -16.20400 16.25800 40.24300
C  -15.67000 14.78200 40.46800
C  -14.15600 14.85100 40.31200
C  -17.26400 16.68000 41.34400
C  -16.27500 13.80200 39.48200
C  -17.41600 12.98300 39.99500
N  -11.20400 14.93700 40.59900
C  -11.99200 13.73300 40.65800
C  -11.08500 12.59200 40.75100
C  -9.79700 13.17200 40.56600
C  -9.87500 14.58100 40.44300
C  -11.38600 11.15300 40.81700
C  -8.35900 12.88600 40.59200
O  -7.79200 11.86500 40.74900
C  -7.58400 14.24700 40.30500
C  -6.59500 14.45600 41.43200
O  -6.81500 14.98300 42.47500
O  -5.44700 13.86500 41.06400
C  -4.29700 14.24700 41.88800
H  -9.57500 20.53300 38.77800
H  -15.75000 18.87100 39.88400
H  -13.85500 12.74100 40.53000
H  -6.50100 17.12600 39.97700
H  -7.68600 19.13900 38.19500
H  -7.95600 20.23000 40.65800
H  -6.33900 20.23300 39.70500
H  -6.53600 19.12900 40.94500
H  -7.00200 17.33200 37.03000
H  -7.17000 15.74100 37.65600
H  -4.94300 15.64400 38.14600
H  -4.84800 17.27800 38.72200
H  -12.13800 23.10900 39.45300
H  -12.00100 22.47600 37.77800
H  -10.61300 22.38700 38.98100
H  -16.84500 22.31600 39.24800
H  -16.58500 20.82800 40.29800
H  -16.56000 20.70600 38.56100
H  -16.65900 16.35600 39.25800
H  -15.93400 14.39300 41.45200
H  -17.65400 15.93500 42.03900
H  -18.18400 17.11200 40.95000
H  -16.75800 17.45000 41.92500
H  -15.62800 13.01500 39.09400
H  -16.69500 14.34700 38.63700
H  -17.42600 11.89600 39.91500
H  -18.35200 13.35000 39.57400
H  -17.57200 13.36900 41.00300
H  -12.41100 10.86300 40.58300
H  -11.32300 10.86800 41.86800
H  -10.70700 10.59700 40.17200
H  -7.08400 14.26400 39.33700
H  -4.10500 15.31100 42.02900
H  -3.46300 13.74700 41.39500
H  -4.36100 13.88600 42.91400
Mg -5.62100 25.71800 25.99400
C  -3.85100 26.83300 28.88400
C  -7.39600 23.71000 27.82300
C  -6.47400 24.16500 23.11500
C  -3.40100 27.78700 24.08700
N  -5.67000 25.34600 28.12800
C  -4.87900 25.87500 29.10000
C  -5.41000 25.51700 30.43000
C  -6.44700 24.30100 30.10400
C  -6.61200 24.53300 28.64000
C  -5.93500 22.87300 30.42400
C  -6.14400 26.78900 31.01800
C  -5.78200 27.11900 32.38300
H  -5.24400 26.03600 33.33400
N  -6.83000 24.25800 25.52900
C  -7.48300 23.50400 26.45300
C  -8.23600 22.40800 25.86600
C  -7.97600 22.48900 24.49900
C  -7.08000 23.67200 24.31900
C  -9.21200 21.51800 26.59200
C  -8.42800 21.58400 23.37100
O  -8.14500 21.83500 22.23700
C  -9.40000 20.35200 23.59200
N  -5.15500 26.07200 23.85200
C  -5.63900 25.29700 22.84200
C  -5.06100 25.69800 21.44300
C  -4.14000 26.91300 21.78400
C  -4.23100 26.93900 23.33100
C  -4.39900 24.46900 20.80700
C  -4.54400 28.30500 21.17000
C  -3.35800 29.25000 20.74400
N  -3.95000 27.01700 26.28000
C  -3.25000 27.84400 25.43900
C  -2.22400 28.51600 26.23100
C  -2.44100 28.06500 27.53500
C  -3.53800 27.23400 27.52600
C  -1.03100 29.36200 25.82100
C  -1.90800 28.20900 28.90500
O  -0.89400 28.88400 29.27500
C  -2.95600 27.52000 29.87900
C  -2.05600 26.60700 30.58000
O  -1.53000 25.59600 30.08300
O  -1.78200 27.23000 31.79100
C  -0.77500 26.40800 32.42900
H  -8.07800 23.28400 28.56200
H  -6.69000 23.58900 22.21400
H  -2.68000 28.41300 23.55800
H  -4.67300 25.00200 31.04700
H  -7.36300 24.35100 30.69300
H  -5.13600 22.80000 31.16200
H  -5.71700 22.33000 29.50400
H  -6.75900 22.25000 30.77200
H  -7.21000 26.58300 30.92200
H  -6.00200 27.66500 30.38600
H  -6.68000 27.41000 32.92700
H  -4.97500 27.83200 32.21000
H  -10.19000 21.57500 26.11400
H  -9.30300 21.83800 27.63000
H  -8.90900 20.47500 26.68200
H  -9.00000 19.77400 24.42500
H  -9.37900 19.79900 22.65300
H  -10.38300 20.71800 23.88900
H  -6.00100 25.98600 20.97200
H  -3.07700 26.77500 21.58500
H  -5.08700 24.16900 20.01600
H  -4.27600 23.63100 21.49300
H  -3.38500 24.66600 20.45800
H  -5.09100 28.75800 21.99700
H  -5.36900 28.15400 20.47400
H  -2.35900 29.04500 21.12900
H  -3.36800 30.28900 21.07600
H  -3.24500 29.29000 19.66100
H  -0.63100 28.92200 24.90700
H  -0.23100 29.37900 26.56100
H  -1.40100 30.33900 25.51200
H  -3.36400 28.16500 30.65700
H  0.19800 26.59800 31.97700
H  -1.08700 25.36800 32.53200
H  -0.71800 26.63300 33.49400

