158

Mg 45.44300 3.78000 46.98900
C  43.37400 6.48700 46.62900
C  42.65800 1.60200 46.58100
C  47.40400 1.01800 47.07200
C  48.23200 5.88500 46.82600
N  43.31200 4.02600 46.43400
C  42.65400 5.25300 46.42700
C  41.16500 5.11500 46.31000
C  40.94200 3.58200 46.41800
C  42.43900 3.01000 46.44700
C  40.16600 3.22100 47.67900
C  40.72600 5.63500 44.93800
C  39.69400 6.74700 44.87000
H  39.92500 7.83200 43.80700
N  45.05000 1.52200 46.94300
C  43.86000 0.91500 46.76500
C  44.07200 -0.52000 46.89500
C  45.47500 -0.78300 46.93700
C  46.04200 0.58400 46.98900
C  42.92900 -1.45500 46.66000
C  46.19400 -2.09400 46.82500
O  45.54500 -3.09600 46.84500
C  47.68900 -2.18000 46.89000
N  47.53400 3.47400 46.62400
C  48.08000 2.24900 46.99900
C  49.59800 2.41400 47.28300
C  49.83500 3.96700 47.00000
C  48.44300 4.51500 46.76800
C  50.08200 1.85200 48.60900
C  50.63900 4.25800 45.66100
C  51.71200 5.40100 45.66400
N  45.82400 5.81300 46.79800
C  47.01800 6.53300 46.81800
C  46.63600 7.98700 46.91900
C  45.22400 8.03500 46.77900
C  44.75300 6.67400 46.76500
C  47.57100 9.14600 47.09400
C  44.08700 8.87200 46.75000
O  44.00900 10.11700 46.81800
C  42.86800 7.93400 46.61600
C  41.89400 8.28400 47.61300
O  41.93200 7.90000 48.74600
O  40.82800 9.01300 47.03100
C  39.73200 9.29100 48.00200
H  41.75000 1.00100 46.49800
H  48.18300 0.32100 47.38700
H  49.19100 6.34500 47.07300
H  40.58900 5.69000 47.03500
H  40.48500 3.09900 45.55500
H  39.23200 2.74400 47.38300
H  39.75300 4.07600 48.21300
H  40.67100 2.50200 48.32400
H  40.33700 4.88300 44.25100
H  41.58500 5.96100 44.35100
H  39.71800 7.30000 45.81000
H  38.67200 6.42600 44.66800
H  42.29800 -1.66500 47.52300
H  43.21500 -2.47100 46.38900
H  42.22600 -0.97100 45.98100
H  47.97200 -3.20000 46.63100
H  48.06600 -1.92900 47.88100
H  48.10300 -1.57700 46.08200
H  50.01300 1.91300 46.40900
H  50.38500 4.33500 47.86600
H  50.79600 1.04800 48.43400
H  49.26000 1.60200 49.27900
H  50.71800 2.54500 49.16000
H  49.91100 4.48500 44.88200
H  51.21300 3.37400 45.38400
H  51.51200 6.18900 44.93800
H  52.70800 4.98400 45.51200
H  51.75700 5.76700 46.69000
H  47.04400 10.09600 47.00200
H  48.25100 9.05700 46.24600
H  48.10300 8.98900 48.03300
H  42.41200 8.12300 45.64400
H  39.95600 10.10400 48.69200
H  39.31900 8.41500 48.50200
H  38.93400 9.77300 47.43800
Mg 10.13000 48.06100 25.89800
C  7.96100 48.42100 28.73800
C  12.59000 49.62500 27.80700
C  11.87600 48.25500 23.18200
C  7.19300 47.25100 24.02100
N  10.22700 48.87900 28.00400
C  9.29600 48.72900 29.06500
C  9.94500 49.09900 30.40600
C  11.28600 49.80700 29.96700
C  11.46400 49.30300 28.50700
C  11.34200 51.33700 30.21800
C  9.97600 47.99100 31.50400
C  9.55300 48.44400 32.89000
H  9.44700 47.28000 33.91700
N  12.09100 48.50400 25.59100
C  12.91100 49.31700 26.47800
C  14.22400 49.43400 25.84300
C  14.07600 48.95100 24.50100
C  12.64100 48.55600 24.36600
C  15.54200 49.88100 26.59900
C  15.10000 48.68200 23.43500
O  14.88800 48.22900 22.37100
C  16.57500 49.04300 23.70900
N  9.56800 47.96900 23.81300
C  10.57500 47.95700 22.87900
C  10.02500 47.59800 21.44700
C  8.52000 47.09900 21.74800
C  8.40200 47.40900 23.30900
C  10.06700 48.75700 20.40000
C  8.43600 45.57000 21.46100
C  9.00300 44.63100 22.57300
N  8.03900 47.75400 26.23900
C  7.01800 47.48600 25.34600
C  5.76100 47.38000 26.08400
C  6.09300 47.76900 27.40900
C  7.44400 48.06400 27.44400
C  4.32900 47.09000 25.47900
C  5.54900 48.04100 28.69200
O  4.37500 47.93900 29.08800
C  6.73500 48.46200 29.56800
C  6.76400 47.41700 30.63600
O  7.07200 46.27600 30.43600
O  6.22700 47.89400 31.75400
C  5.96500 46.94300 32.84200
H  13.37800 50.07700 28.41400
H  12.51000 48.17300 22.29600
H  6.30300 46.91000 23.48800
H  9.28600 49.86700 30.81200
H  12.01100 49.26900 30.57900
H  12.13900 51.73500 29.59000
H  11.53300 51.44200 31.28600
H  10.37700 51.82200 30.07100
H  11.03800 47.77500 31.62000
H  9.44300 47.08400 31.22000
H  8.67700 49.08700 32.80000
H  10.40500 49.03700 33.22200
H  16.33400 49.17200 26.35800
H  15.35100 50.04200 27.66000
H  15.82400 50.86900 26.23600
H  17.19700 48.95700 22.81900
H  16.90000 48.35500 24.49000
H  16.71700 50.01800 24.17600
H  10.56100 46.73300 21.05600
H  7.80400 47.64300 21.13200
H  10.80200 49.48600 20.74000
H  9.16500 49.36800 20.38500
H  10.31200 48.40700 19.39600
H  8.85400 45.30900 20.48900
H  7.37400 45.36000 21.33200
H  8.15100 44.48700 23.23700
H  9.74000 45.15800 23.17900
H  9.38600 43.69300 22.17000
H  4.54000 46.30600 24.75200
H  3.96300 47.95700 24.92900
H  3.69900 46.74100 26.29700
H  6.61700 49.48600 29.92400
H  4.91600 46.64800 32.84200
H  6.15400 47.46700 33.77900
H  6.62300 46.07700 32.76400

