158

Mg 36.24100 0.96500 29.84700
C  34.24200 2.14300 32.58800
C  38.81400 0.71700 31.97500
C  37.96500 -0.06900 27.29100
C  33.43300 1.54500 27.77600
N  36.46100 1.31900 32.08200
C  35.45200 1.70200 33.05600
C  36.08200 1.67300 34.35700
C  37.59700 1.52900 34.14000
C  37.69000 1.13300 32.67000
C  38.39300 2.73600 34.59700
C  35.41300 0.52100 35.15900
C  35.08200 0.86700 36.60000
H  36.05000 1.76200 37.32700
N  38.20800 0.51500 29.67400
C  39.14800 0.40800 30.64900
C  40.38300 -0.15000 30.08800
C  40.11100 -0.29400 28.63500
C  38.67800 0.04800 28.47600
C  41.60900 -0.36000 30.96700
C  41.04500 -0.69200 27.43600
O  40.65900 -0.92800 26.27600
C  42.43100 -0.98100 27.75000
N  35.71400 0.78000 27.82700
C  36.65000 0.26700 27.01900
C  36.12100 0.39800 25.53200
C  34.65900 0.68400 25.73700
C  34.57600 1.05800 27.16800
C  37.02400 1.33900 24.62400
C  33.56700 -0.29400 25.13800
C  32.29300 0.24200 24.62400
N  34.27000 1.71500 30.03300
C  33.21300 1.81600 29.12600
C  32.05200 2.25400 29.80000
C  32.40900 2.26800 31.17900
C  33.77300 2.03500 31.25200
C  30.75800 2.59700 29.13100
C  31.87900 2.74900 32.43300
O  30.82300 3.26200 32.77400
C  33.07300 2.55400 33.40400
C  33.34700 3.75200 34.20500
O  33.55400 4.89800 33.78300
O  33.29800 3.35600 35.49800
C  33.54800 4.48100 36.44900
H  39.63600 0.63500 32.68900
H  38.54600 -0.47400 26.46000
H  32.68100 1.81900 27.03300
H  35.81900 2.59300 34.87800
H  37.86000 0.69300 34.78800
H  37.98300 3.39200 35.36500
H  38.50400 3.40900 33.74800
H  39.35900 2.37600 34.95300
H  35.99600 -0.40000 35.18200
H  34.52900 0.19500 34.61200
H  34.85700 -0.04800 37.14900
H  34.12200 1.38300 36.58000
H  42.17200 0.57100 31.04100
H  42.21000 -1.21600 30.66100
H  41.27000 -0.69500 31.94700
H  43.00300 -0.90000 26.82500
H  42.35100 -1.97700 28.18600
H  42.74500 -0.31000 28.55000
H  36.08300 -0.55000 24.99300
H  34.45700 1.69200 25.37400
H  37.83300 1.72500 25.24400
H  36.50500 2.23200 24.27500
H  37.45600 0.72800 23.83100
H  33.36700 -0.97400 25.96600
H  34.08000 -0.70400 24.26900
H  32.45300 0.06300 23.56100
H  32.14700 1.31700 24.72400
H  31.43200 -0.19300 25.13200
H  29.86200 2.47300 29.73800
H  30.55400 2.05200 28.20900
H  30.73700 3.65500 28.87100
H  32.73200 1.78600 34.09700
H  34.47200 5.00800 36.21100
H  33.39800 4.06800 37.44600
H  32.66800 5.11200 36.33100
Mg 9.04300 47.23000 26.61500
C  7.13700 47.26600 29.61000
C  11.86900 47.89500 28.53500
C  10.69200 48.04800 23.85900
C  5.98400 47.14300 24.82100
N  9.42300 47.57300 28.84300
C  8.49200 47.41100 29.85900
C  9.22900 47.49400 31.24300
C  10.76000 47.84500 30.81800
C  10.70500 47.74200 29.28800
C  11.20700 49.20200 31.36000
C  9.08200 46.27400 32.22600
C  10.15000 46.11500 33.27300
H  9.50400 45.58800 34.60600
N  11.00700 47.71200 26.21300
C  12.00300 47.90900 27.13800
C  13.27900 47.98200 26.40800
C  12.93300 47.88500 24.98900
C  11.48000 47.85500 25.00900
C  14.65800 48.01100 27.06500
C  13.82800 47.98200 23.77000
O  13.50500 47.75700 22.58600
C  15.20600 48.38600 24.02400
N  8.40800 47.63100 24.61500
C  9.33700 48.08700 23.69700
C  8.66000 48.40400 22.38100
C  7.21800 47.79300 22.57200
C  7.20800 47.51900 24.11500
C  8.59900 49.91500 22.02400
C  6.99400 46.48500 21.74000
C  6.22500 46.55200 20.36600
N  6.99400 47.14800 27.08700
C  5.88200 47.14900 26.20900
C  4.73100 47.12000 27.06700
C  5.13400 47.11000 28.41100
C  6.54500 47.08700 28.37000
C  3.27900 47.02700 26.63400
C  4.71100 47.13600 29.76400
O  3.59400 47.03400 30.30000
C  6.02300 47.14100 30.63200
C  6.11900 45.81900 31.34100
O  6.64000 44.81200 30.88000
O  5.44300 45.89700 32.55200
C  5.65600 44.78600 33.49200
H  12.71200 47.86900 29.22800
H  11.18400 48.52300 23.00800
H  5.12400 47.10900 24.14800
H  8.65200 48.32400 31.65200
H  11.51600 47.11900 31.11900
H  10.62900 49.44900 32.25000
H  10.92600 50.03600 30.71700
H  12.25600 49.18100 31.65500
H  8.99600 45.31600 31.71400
H  8.17300 46.57500 32.74700
H  10.53200 47.09700 33.55400
H  10.93800 45.43900 32.94200
H  15.06300 48.97600 26.76100
H  15.25000 47.12900 26.81700
H  14.50700 48.01900 28.14400
H  15.79500 48.45300 23.10900
H  15.70800 47.64300 24.64300
H  15.32000 49.32600 24.56500
H  9.31600 47.95800 21.63400
H  6.44400 48.50300 22.28000
H  7.60500 50.34400 22.14900
H  8.94500 50.03300 20.99700
H  9.38900 50.42400 22.57500
H  6.56800 45.72700 22.39800
H  7.96600 46.06600 21.48100
H  7.00600 46.57900 19.60600
H  5.55900 47.41200 20.43600
H  5.58400 45.68600 20.19800
H  3.30000 47.34500 25.59200
H  2.71000 47.80600 27.14300
H  2.79100 46.06400 26.78400
H  6.00900 47.94200 31.37000
H  4.66100 44.55600 33.87500
H  6.11100 45.15800 34.41000
H  6.10200 43.87600 33.09100

