158

Mg -2.25400 17.36400 27.53400
C  -2.95800 15.11500 30.31100
C  -2.85600 19.93500 29.62300
C  -2.44200 19.39300 24.86800
C  -2.42800 14.62700 25.51700
N  -2.83300 17.47300 29.70800
C  -3.01400 16.50800 30.68300
C  -3.22600 17.09700 32.08200
C  -3.09800 18.61600 31.72600
C  -2.93800 18.70500 30.20500
C  -4.25800 19.53900 32.33600
C  -2.17400 16.54900 33.07600
C  -1.68700 17.43700 34.28800
H  -1.64700 16.83200 35.71300
N  -2.33700 19.40200 27.23800
C  -2.60200 20.32400 28.24100
C  -2.50000 21.64400 27.68600
C  -2.42600 21.51600 26.27700
C  -2.38200 20.05300 26.11000
C  -2.52200 22.91200 28.60700
C  -2.30400 22.53700 25.25300
O  -2.21700 22.28000 24.06100
C  -2.20700 24.03700 25.74200
N  -2.58100 17.07100 25.50200
C  -2.48000 18.07100 24.58400
C  -2.54400 17.52900 23.15300
C  -2.46200 15.98300 23.36900
C  -2.37900 15.88200 24.87700
C  -3.78400 17.96800 22.24100
C  -1.29900 15.32300 22.63500
C  0.18800 15.48100 23.22900
N  -2.54400 15.24500 27.85800
C  -2.49800 14.28000 26.89400
C  -2.59300 12.97400 27.49200
C  -2.79900 13.27100 28.85400
C  -2.83300 14.65200 28.98600
C  -2.40100 11.63400 26.91800
C  -3.00400 12.65900 30.13100
O  -3.03000 11.49800 30.46000
C  -3.15300 13.85500 31.09500
C  -2.04000 13.61800 32.03300
O  -0.87000 13.80700 31.76300
O  -2.52700 13.02300 33.11600
C  -1.49700 12.69300 34.12300
H  -2.88500 20.72500 30.37700
H  -2.25600 19.99000 23.97300
H  -2.41300 13.81600 24.78700
H  -4.23900 16.85800 32.40500
H  -2.11500 18.91500 32.09000
H  -3.85200 20.24700 33.05800
H  -5.07100 18.95400 32.76500
H  -4.82100 20.00600 31.52700
H  -1.24300 16.36400 32.54000
H  -2.57300 15.71500 33.65400
H  -2.11300 18.44000 34.25300
H  -0.63800 17.69600 34.14400
H  -2.63100 22.64300 29.65800
H  -3.38200 23.53200 28.35400
H  -1.66800 23.51300 28.29400
H  -2.13400 24.71100 24.88800
H  -1.26400 24.11000 26.28400
H  -3.18200 24.17300 26.20900
H  -1.58100 17.86300 22.76700
H  -3.39300 15.58500 22.96500
H  -4.43400 17.15700 21.91300
H  -3.46800 18.47300 21.32700
H  -4.43100 18.69200 22.73500
H  -1.42400 15.72800 21.63100
H  -1.63000 14.30200 22.44200
H  0.78500 15.92600 22.43300
H  0.48100 14.47200 23.51900
H  0.30300 16.13300 24.09400
H  -3.25800 10.96000 26.95500
H  -1.61500 11.24800 27.56700
H  -2.04400 11.78400 25.89900
H  -4.12200 13.76600 31.58600
H  -2.05300 12.70100 35.06000
H  -0.65300 13.36700 34.27200
H  -1.07900 11.69100 34.02100
Mg 15.89600 -2.02800 27.80000
C  15.00600 0.17400 30.43500
C  18.10100 -3.46300 30.06600
C  17.26500 -3.59400 25.20600
C  14.36700 0.30900 25.56500
N  16.45800 -1.70900 30.01900
C  15.89800 -0.88600 30.91600
C  16.44700 -1.17600 32.38200
C  17.39900 -2.32900 32.13700
C  17.41000 -2.50200 30.64300
C  18.82200 -2.09200 32.77800
C  15.23900 -1.38400 33.36900
C  15.29600 -0.69900 34.70000
H  16.59700 -0.16800 35.24500
N  17.35600 -3.48200 27.64800
C  18.16500 -3.96900 28.62100
C  19.04000 -5.01800 28.06200
C  18.69700 -5.14200 26.71700
C  17.73900 -4.05200 26.46600
C  19.96200 -5.86200 28.83700
C  19.21400 -6.06100 25.67900
O  18.78800 -5.99100 24.51900
C  20.05700 -7.30300 26.05200
N  16.03700 -1.54500 25.70400
C  16.47100 -2.51200 24.85600
C  16.19300 -2.15000 23.34400
C  15.31700 -0.87000 23.46400
C  15.24800 -0.62200 25.02700
C  17.50300 -1.86500 22.63800
C  13.87600 -0.93000 22.76800
C  13.46800 0.33600 22.05200
N  14.80000 -0.20800 27.96300
C  14.22500 0.60500 26.97700
C  13.62000 1.74000 27.52200
C  13.86900 1.58600 28.90700
C  14.56500 0.39900 29.13300
C  12.92300 2.83200 26.78500
C  13.49000 2.15300 30.21900
O  12.95600 3.21000 30.51400
C  14.23300 1.23500 31.25200
C  15.06500 2.23700 32.00400
O  15.92300 2.98500 31.58400
O  14.52600 2.34700 33.31200
C  14.90400 3.50900 34.12300
H  18.71800 -4.05700 30.74400
H  17.70600 -4.00400 24.29600
H  13.96700 0.90000 24.73700
H  17.09400 -0.40800 32.80600
H  17.07300 -3.26900 32.58300
H  18.88300 -1.21600 33.42400
H  19.52200 -2.16300 31.94500
H  19.10100 -2.93800 33.40600
H  15.04000 -2.43700 33.57100
H  14.34400 -1.00400 32.87600
H  14.84700 -1.31200 35.48200
H  14.54000 0.08100 34.79400
H  20.96000 -5.98900 28.41700
H  19.62000 -6.89500 28.89600
H  20.00900 -5.58600 29.89100
H  20.27900 -7.80100 25.10800
H  19.40900 -7.86800 26.72200
H  21.01200 -6.89700 26.38500
H  15.63600 -3.01900 22.99300
H  15.74200 0.04300 23.04700
H  17.49700 -0.95400 22.04000
H  17.83300 -2.64400 21.95100
H  18.29900 -1.86800 23.38200
H  13.13300 -1.12600 23.54100
H  13.74600 -1.76600 22.08000
H  14.37300 0.88800 21.79800
H  12.86400 0.91100 22.75300
H  13.02600 0.08800 21.08700
H  12.26700 2.46200 25.99600
H  13.66400 3.49900 26.34600
H  12.35500 3.38000 27.53600
H  13.44200 0.80700 31.86700
H  15.75100 3.43900 34.80500
H  13.96900 3.71200 34.64600
H  15.10900 4.43200 33.58200

