158

Mg 42.18800 42.17000 27.23900
C  41.11500 44.37200 29.83100
C  43.21100 39.99000 29.61800
C  43.15300 40.16500 24.77700
C  41.18900 44.54700 24.95500
N  42.39900 42.29700 29.47300
C  41.80800 43.22200 30.30200
C  42.20400 42.87600 31.78100
C  43.02700 41.55200 31.64300
C  42.85100 41.21000 30.14700
C  44.52000 41.57800 32.07000
C  40.97900 42.74400 32.75300
C  41.09300 43.32200 34.19200
H  40.31100 42.59300 35.32900
N  43.06400 40.29800 27.19800
C  43.33800 39.54700 28.27800
C  43.70300 38.21000 27.91600
C  43.62700 38.22700 26.48500
C  43.24800 39.60200 26.05700
C  44.22800 37.11700 28.87600
C  43.89100 37.07300 25.47000
O  43.81500 37.30200 24.27500
C  44.08700 35.64700 25.95100
N  42.33800 42.40100 25.17600
C  42.73500 41.39600 24.33500
C  42.59000 41.80400 22.89700
C  41.79900 43.12100 22.97500
C  41.77400 43.42700 24.45400
C  43.88700 41.97800 22.17600
C  40.40700 43.21200 22.23200
C  39.13500 42.93200 23.00200
N  41.41200 44.14600 27.33300
C  41.07100 44.98000 26.29500
C  40.36400 46.16900 26.85900
C  40.32000 45.91800 28.25200
C  40.98300 44.72900 28.47800
C  39.87600 47.35800 26.05300
C  39.89700 46.44300 29.55900
O  39.20000 47.45700 29.78600
C  40.34700 45.47400 30.65400
C  41.20600 46.19300 31.60700
O  42.38000 46.41900 31.57300
O  40.53600 46.51700 32.77600
C  41.31800 47.08500 33.88000
H  43.40300 39.17500 30.32000
H  43.47400 39.54000 23.94100
H  40.67100 45.26200 24.31300
H  42.92100 43.52000 32.29000
H  42.66400 40.76100 32.29900
H  45.12100 41.07800 31.31000
H  44.42500 41.09500 33.04300
H  44.82100 42.62500 32.08100
H  40.90700 41.67600 32.96100
H  40.04600 43.11100 32.32700
H  40.62600 44.30700 34.20100
H  42.15700 43.43800 34.39600
H  44.62400 37.57700 29.78200
H  45.09800 36.58100 28.49500
H  43.45100 36.36700 29.02000
H  45.16100 35.55300 26.10800
H  43.74700 34.94800 25.18700
H  43.52900 35.40800 26.85700
H  41.92700 41.04300 22.48600
H  42.40600 43.87800 22.47800
H  43.95700 42.97200 21.73300
H  44.13200 41.24000 21.41200
H  44.67400 41.87700 22.92300
H  40.60400 42.55700 21.38300
H  40.27400 44.18000 21.74900
H  39.27200 42.48900 23.98900
H  38.52600 42.21400 22.45200
H  38.49500 43.80500 23.12800
H  40.29500 47.40100 25.04800
H  40.33900 48.14200 26.65200
H  38.79300 47.47800 26.01400
H  39.43200 45.04500 31.06200
H  41.64400 46.26300 34.51600
H  40.71000 47.66600 34.57300
H  42.15900 47.71800 33.59600
Mg -1.62100 34.25500 27.00600
C  -3.38900 32.44000 29.51600
C  -0.57700 36.42400 29.33100
C  -0.25800 35.85000 24.50600
C  -3.11500 32.01600 24.69900
N  -1.97900 34.37900 29.16200
C  -2.64200 33.47000 29.99900
C  -2.31100 33.84700 31.49500
C  -1.51400 35.16500 31.37000
C  -1.39400 35.42200 29.87000
C  -2.10100 36.42700 32.12800
C  -1.61000 32.67200 32.34000
C  -2.48800 32.02600 33.36100
H  -1.83100 32.00100 34.73100
N  -0.46100 35.85600 26.90400
C  -0.19500 36.63800 27.95700
C  0.60600 37.69700 27.51900
C  0.78400 37.56700 26.12400
C  -0.05600 36.39600 25.78500
C  1.22800 38.68000 28.51400
C  1.63000 38.32100 25.19700
O  1.82500 37.87100 24.06700
C  2.38400 39.50000 25.71400
N  -1.66600 33.88200 24.86900
C  -0.96600 34.72200 24.10500
C  -1.25500 34.38800 22.62400
C  -2.12700 33.11800 22.73600
C  -2.27000 32.92200 24.18900
C  -1.87200 35.52100 21.71900
C  -1.65500 31.88600 21.89100
C  -2.69500 31.27700 20.97100
N  -3.06100 32.72600 27.03200
C  -3.53500 31.86800 26.04500
C  -4.35500 30.83200 26.55200
C  -4.35900 31.01700 27.92500
C  -3.60000 32.20200 28.19000
C  -4.86400 29.63900 25.83700
C  -4.77300 30.39600 29.14500
O  -5.37200 29.32100 29.31900
C  -4.09400 31.28300 30.27100
C  -5.23300 31.76500 31.18200
O  -6.13300 32.53600 30.81100
O  -5.15300 31.11300 32.31700
C  -6.29000 31.26700 33.30900
H  -0.16400 37.08100 30.09900
H  0.09000 36.42900 23.64800
H  -3.42300 31.34400 23.89500
H  -3.30500 34.02400 31.90800
H  -0.47800 34.97500 31.64700
H  -2.33800 37.12500 31.32600
H  -1.33200 36.85900 32.76800
H  -3.08900 36.20600 32.53300
H  -0.74800 33.10500 32.84800
H  -1.26400 31.84400 31.72000
H  -2.61200 31.03000 32.93700
H  -3.48900 32.45400 33.41500
H  0.34600 39.11400 28.98500
H  1.78900 39.50800 28.08300
H  1.88300 38.19000 29.23500
H  2.89700 40.01000 24.89900
H  3.14700 39.09000 26.37600
H  1.87200 40.31000 26.23300
H  -0.28800 34.14600 22.18300
H  -3.11900 33.39200 22.37600
H  -2.29100 36.20500 22.45700
H  -2.70900 35.22400 21.08800
H  -1.05500 35.95500 21.14400
H  -1.25400 31.15200 22.58900
H  -0.91900 32.14500 21.13000
H  -2.52800 31.37200 19.89800
H  -3.66000 31.66300 21.29900
H  -2.83100 30.22900 21.23500
H  -4.15600 28.81200 25.78900
H  -5.12500 29.95600 24.82800
H  -5.80000 29.39700 26.34100
H  -3.36400 30.73700 30.86800
H  -5.86100 31.77900 34.17000
H  -6.61100 30.23400 33.44400
H  -7.24700 31.72200 33.05100

