158

Mg 43.40100 3.83800 47.53200
C  41.48400 6.74400 47.22400
C  40.42000 1.97600 47.55800
C  45.27700 1.17100 47.27400
C  46.14600 5.90300 46.86700
N  41.17800 4.31400 47.44900
C  40.65000 5.57800 47.35300
C  39.11200 5.54300 47.30200
C  38.79500 4.08300 47.88600
C  40.17000 3.36100 47.57600
C  38.46100 4.01900 49.46700
C  38.57700 5.74500 45.90700
C  37.47400 6.80400 45.85400
H  36.85100 6.83000 44.46400
N  42.87900 1.80800 47.43900
C  41.60200 1.24600 47.45200
C  41.82200 -0.17800 47.42100
C  43.20900 -0.46100 47.15400
C  43.86800 0.85300 47.27200
C  40.64300 -1.18700 47.70400
C  43.87900 -1.76200 46.85300
O  43.31800 -2.86100 46.82400
C  45.36400 -1.92900 46.66500
N  45.38000 3.55600 47.10600
C  45.99800 2.35300 47.26400
C  47.59300 2.51400 47.32200
C  47.78900 3.92100 46.76900
C  46.31700 4.49700 47.00100
C  48.17500 2.23000 48.73600
C  48.18200 4.06300 45.26200
C  49.62200 4.67800 44.98500
N  43.82600 5.92000 47.27500
C  44.99300 6.59900 47.01200
C  44.76800 8.02400 47.06000
C  43.32700 8.11900 47.06100
C  42.86900 6.86000 47.19600
C  45.78700 9.16500 47.03700
C  42.16700 9.08700 47.09400
O  42.13900 10.33700 46.99000
C  40.90900 8.14600 47.14400
C  40.02600 8.47800 48.26800
O  40.17200 8.15500 49.44700
O  38.97700 9.15100 47.84300
C  38.02200 9.60500 48.81800
H  39.47900 1.43300 47.66700
H  45.86400 0.25000 47.26400
H  47.14000 6.34500 46.76600
H  38.77900 6.35700 47.94600
H  37.96800 3.62200 47.34500
H  38.22900 5.03300 49.79300
H  39.26300 3.57000 50.05400
H  37.57500 3.42900 49.70500
H  38.12700 4.81400 45.56200
H  39.28000 5.97600 45.10700
H  38.01800 7.72000 46.08300
H  36.70500 6.65000 46.61100
H  40.07000 -1.34200 46.78900
H  39.99200 -0.73600 48.45300
H  40.95000 -2.18500 48.01400
H  45.93900 -1.87000 47.58900
H  45.79400 -1.32600 45.86400
H  45.50400 -2.94000 46.28200
H  48.15900 1.80300 46.71900
H  48.33600 4.55800 47.46500
H  47.41000 1.66400 49.26700
H  48.37300 3.12800 49.32100
H  49.05600 1.60000 48.61900
H  47.46500 4.76000 44.82900
H  48.09200 3.09700 44.76400
H  50.07800 4.06300 44.21000
H  50.24400 4.62700 45.87900
H  49.51700 5.67700 44.56200
H  46.23000 9.17800 46.04100
H  46.52500 8.83900 47.77000
H  45.30100 10.10400 47.30100
H  40.27000 8.21600 46.26400
H  37.52800 8.81900 49.38900
H  37.25400 10.12600 48.24500
H  38.44600 10.28000 49.56200
Mg -1.97100 34.67500 26.12000
C  -3.73500 32.49800 28.42700
C  -0.60800 36.26900 28.80800
C  -0.58900 36.77700 23.92300
C  -3.86300 33.16200 23.54000
N  -2.18700 34.38400 28.42600
C  -2.86800 33.42800 29.08900
C  -2.61000 33.46900 30.61900
C  -1.68900 34.73500 30.75800
C  -1.50700 35.24100 29.25500
C  -2.05300 35.75000 31.84100
C  -1.97200 32.10900 31.09700
C  -2.63300 31.60100 32.40900
H  -1.83500 31.76100 33.69500
N  -0.72900 36.22100 26.32200
C  -0.27100 36.70600 27.50100
C  0.71600 37.67500 27.20200
C  0.81500 37.83700 25.77300
C  -0.16100 36.87900 25.26700
C  1.52100 38.44700 28.29300
C  1.70300 38.76100 24.89600
O  1.57400 38.82200 23.69300
C  2.76600 39.42700 25.51600
N  -2.31100 34.99600 24.04300
C  -1.58700 35.92900 23.32300
C  -1.77600 35.82600 21.82600
C  -2.49300 34.47800 21.79200
C  -2.89900 34.16100 23.22400
C  -2.48000 37.03000 21.12100
C  -1.72500 33.38800 21.12100
C  -0.50900 32.68400 21.74900
N  -3.42200 33.21600 25.97400
C  -4.01700 32.64900 24.86700
C  -4.81700 31.54700 25.24200
C  -4.76700 31.44900 26.66200
C  -3.86500 32.52300 27.02100
C  -5.66500 30.63600 24.30800
C  -5.21500 30.76800 27.84400
O  -5.94600 29.78200 28.00600
C  -4.60900 31.46500 29.07000
C  -5.66000 32.08600 30.05000
O  -6.31700 33.05800 29.77800
O  -5.58300 31.43500 31.25600
C  -6.49500 31.75800 32.37400
H  -0.16600 36.70000 29.70900
H  0.02200 37.22400 23.13600
H  -4.30300 32.75500 22.62700
H  -3.60900 33.67200 31.00400
H  -0.65300 34.51200 31.01600
H  -2.66200 36.58400 31.49400
H  -1.10800 36.07400 32.27800
H  -2.57500 35.24200 32.65200
H  -0.91700 32.23700 31.33800
H  -2.03000 31.34200 30.32500
H  -2.87600 30.54600 32.28400
H  -3.55000 32.15500 32.61200
H  1.36200 39.52300 28.22700
H  2.58300 38.23900 28.16100
H  1.35000 38.13200 29.32200
H  3.44800 39.71200 24.71500
H  3.25400 38.75700 26.22400
H  2.38300 40.28400 26.06900
H  -0.84100 35.77500 21.26800
H  -3.46200 34.69800 21.34500
H  -3.45600 37.11900 21.59700
H  -2.55900 37.03600 20.03400
H  -1.81300 37.85500 21.37300
H  -1.31700 33.76100 20.18100
H  -2.39300 32.56500 20.87000
H  -0.47700 33.04400 22.77700
H  0.41500 32.71700 21.17100
H  -0.64700 31.60300 21.77800
H  -5.51700 29.58800 24.56800
H  -5.47500 30.75900 23.24200
H  -6.71000 30.86800 24.51300
H  -4.13000 30.66100 29.62900
H  -5.94900 32.22800 33.19300
H  -6.94800 30.84700 32.76400
H  -7.18900 32.57800 32.18700

