158

Mg 16.20600 -2.18200 27.57600
C  14.79600 -0.59200 30.37500
C  18.11400 -4.02100 29.75800
C  17.60900 -3.77600 24.90400
C  14.32900 -0.21200 25.49600
N  16.50500 -2.22700 29.80100
C  15.79700 -1.53800 30.79200
C  16.38300 -1.71200 32.20700
C  17.51500 -2.69500 31.83200
C  17.42000 -2.97100 30.36100
C  18.95100 -2.28600 32.34300
C  15.33300 -2.16300 33.16400
C  15.19700 -1.41800 34.50800
H  16.51100 -0.81800 35.02600
N  17.66500 -3.65500 27.38000
C  18.30000 -4.34400 28.43400
C  19.20300 -5.29800 27.95900
C  18.97700 -5.37400 26.51600
C  18.01400 -4.24300 26.19800
C  20.12700 -6.04900 28.79500
C  19.51000 -6.30900 25.46200
O  19.10300 -6.19800 24.26500
C  20.40600 -7.44200 25.89200
N  16.01300 -2.06800 25.44000
C  16.69900 -2.79000 24.51000
C  16.35800 -2.17400 23.09000
C  15.07900 -1.31400 23.35700
C  15.10300 -1.19100 24.87400
C  17.61400 -1.44600 22.56800
C  13.66800 -1.79500 22.69700
C  13.23100 -1.26800 21.27900
N  14.84700 -0.74100 27.79200
C  14.12200 -0.01000 26.88400
C  13.16200 0.87400 27.54600
C  13.48100 0.67800 28.91700
C  14.49000 -0.29100 29.01000
C  12.17400 1.70700 26.90300
C  13.02400 1.12200 30.21500
O  12.25200 2.00700 30.52400
C  13.87600 0.35200 31.15100
C  14.65500 1.26400 31.93900
O  15.69700 1.78700 31.65700
O  13.98000 1.54500 33.06800
C  14.63600 2.48600 34.03100
H  18.60200 -4.66500 30.49200
H  18.13500 -4.17800 24.03500
H  13.76100 0.50000 24.89300
H  16.90100 -0.80300 32.51300
H  17.33500 -3.64800 32.33000
H  19.04300 -1.25400 32.68100
H  19.70400 -2.49600 31.58300
H  19.28000 -2.84200 33.22200
H  15.53400 -3.22500 33.30900
H  14.34400 -2.11800 32.70800
H  14.78900 -2.00500 35.33100
H  14.40300 -0.69500 34.31900
H  19.50300 -6.38900 29.62100
H  20.83500 -5.28400 29.11200
H  20.60400 -6.91000 28.32600
H  19.97800 -7.98500 26.73400
H  21.43000 -7.10700 26.06100
H  20.27300 -8.18200 25.10300
H  16.16900 -2.97800 22.37800
H  15.33900 -0.35000 22.92100
H  18.17500 -2.02900 21.83900
H  18.29100 -1.29700 23.40900
H  17.36600 -0.50000 22.08700
H  12.81700 -1.74900 23.37700
H  13.77800 -2.86100 22.49900
H  12.26900 -0.84200 21.56500
H  13.22400 -2.04300 20.51400
H  13.94600 -0.56100 20.85900
H  12.27600 1.71300 25.81800
H  12.23600 2.67900 27.39200
H  11.16300 1.35300 27.10700
H  13.27100 -0.27700 31.80500
H  14.49400 3.49600 33.64700
H  15.69600 2.25500 34.13400
H  14.05100 2.42800 34.94800
Mg -0.76500 34.06600 26.86900
C  -2.58100 32.35700 29.30500
C  0.78500 35.80600 29.25400
C  0.60100 35.86800 24.35600
C  -2.55100 32.22400 24.35000
N  -1.04800 34.23600 29.09200
C  -1.72100 33.31600 29.88800
C  -1.41600 33.63200 31.41500
C  -0.48800 34.83800 31.34300
C  -0.18200 34.99000 29.83600
C  -1.16900 36.10200 31.96300
C  -0.68400 32.38300 32.03400
C  -1.52200 31.65500 33.09600
H  -0.94200 31.42300 34.51900
N  0.49100 35.55100 26.79700
C  1.12500 36.07800 27.87800
C  2.00100 37.12100 27.48200
C  1.88900 37.24000 26.05000
C  0.93400 36.19600 25.66600
C  2.91500 37.85600 28.45900
C  2.68400 38.16100 25.09900
O  2.72900 38.15500 23.82700
C  3.62600 39.14500 25.73400
N  -1.06100 34.18700 24.55900
C  -0.32400 35.03300 23.80800
C  -0.74200 34.84400 22.29800
C  -1.65900 33.58600 22.39900
C  -1.78900 33.28500 23.86700
C  -1.43800 36.03400 21.69200
C  -0.97300 32.38200 21.67300
C  -0.11200 31.29500 22.36500
N  -2.15900 32.56300 26.76000
C  -2.78000 31.92300 25.65700
C  -3.69500 30.96800 26.18000
C  -3.64300 31.09400 27.58900
C  -2.69100 32.06800 27.89500
C  -4.46000 29.95000 25.44600
C  -4.13600 30.52000 28.78400
O  -4.88500 29.56900 28.93700
C  -3.43700 31.30000 30.00800
C  -4.55100 31.81100 30.86000
O  -5.43300 32.58200 30.51100
O  -4.61500 31.12000 32.04200
C  -5.61700 31.42800 33.02200
H  1.40400 36.21900 30.05300
H  1.04400 36.50300 23.58600
H  -2.98600 31.50300 23.65500
H  -2.44400 33.71100 31.76700
H  0.40100 34.74000 31.96600
H  -2.02300 35.70700 32.51400
H  -1.51300 36.79300 31.19400
H  -0.54500 36.62900 32.68400
H  0.31700 32.59700 32.40900
H  -0.54100 31.63300 31.25600
H  -1.63800 30.67900 32.62300
H  -2.50800 32.11400 33.17200
H  3.93200 37.64400 28.12900
H  2.92900 37.56800 29.51000
H  2.65600 38.91200 28.37700
H  2.98100 39.59900 26.48600
H  3.92600 39.83900 24.94900
H  4.58000 38.74400 26.07600
H  0.15100 34.79900 21.67600
H  -2.67000 33.81100 22.05900
H  -1.24600 35.95600 20.62100
H  -1.10600 37.01500 22.03200
H  -2.51200 35.95700 21.85900
H  -0.33700 32.78700 20.88600
H  -1.77800 31.76100 21.28000
H  0.15500 31.45600 23.40900
H  0.89600 31.43100 21.97300
H  -0.51200 30.29000 22.23000
H  -3.81900 29.59700 24.63800
H  -5.39300 30.39800 25.10500
H  -4.76300 29.10300 26.06100
H  -2.87700 30.52900 30.53900
H  -5.08800 31.59000 33.96100
H  -6.25400 30.54700 33.10600
H  -6.26500 32.28300 32.82900

