158

Mg 25.71000 -8.25000 48.72800
C  27.33000 -5.72900 47.00600
C  23.11200 -8.07200 46.59100
C  24.58900 -11.32100 49.97300
C  28.83300 -8.95100 50.24900
N  25.42400 -7.23400 46.80700
C  26.11900 -6.13400 46.41200
C  25.34700 -5.42000 45.30200
C  23.89300 -5.99900 45.33600
C  24.14100 -7.09200 46.41300
C  22.74900 -5.05800 45.81300
C  26.07700 -5.45200 43.89800
C  26.44700 -4.11200 43.31400
H  25.59800 -3.76000 42.01000
N  23.99900 -9.40000 48.48800
C  22.99900 -9.08700 47.55700
C  21.86300 -9.92600 47.82100
C  22.23700 -10.65000 49.02100
C  23.68500 -10.51000 49.19600
C  20.64400 -9.92100 47.01200
C  21.30500 -11.52600 49.75700
O  20.10900 -11.60800 49.46600
C  21.78400 -12.29600 50.92300
N  26.60800 -9.83900 50.02000
C  25.95600 -11.03500 50.29800
C  26.94300 -12.07800 51.00900
C  28.13600 -11.09500 51.31600
C  27.88500 -9.94800 50.41800
C  26.27600 -12.65300 52.33400
C  29.51100 -11.66700 51.07500
C  30.40500 -11.67800 52.24400
N  27.64100 -7.42600 48.78600
C  28.81000 -7.76900 49.46200
C  29.92600 -6.86100 49.15200
C  29.30200 -5.89900 48.33900
C  27.96800 -6.35600 48.08700
C  31.36300 -6.95700 49.76400
C  29.43300 -4.64200 47.61000
O  30.39000 -3.84400 47.51900
C  28.13900 -4.53300 46.78700
C  27.50400 -3.21100 46.99800
O  26.74800 -2.88000 47.90200
O  27.92600 -2.37400 45.99400
C  27.56900 -1.00500 46.07300
H  22.24300 -7.91100 45.95000
H  24.24800 -12.32500 50.23800
H  29.76100 -9.04200 50.81700
H  25.24400 -4.38000 45.61300
H  23.62500 -6.48300 44.39800
H  22.05700 -4.95600 44.97700
H  23.22200 -4.12800 46.12700
H  22.22000 -5.58600 46.60700
H  25.40100 -5.90500 43.17300
H  26.95200 -6.09200 44.01300
H  27.49600 -4.25400 43.05300
H  26.34500 -3.31800 44.05300
H  20.24500 -10.90100 46.75000
H  20.94100 -9.53900 46.03500
H  19.80000 -9.32500 47.36000
H  22.33300 -13.20300 50.66900
H  21.04100 -12.73100 51.59200
H  22.42900 -11.65100 51.51800
H  27.13900 -12.92800 50.35500
H  27.96100 -10.66700 52.30300
H  25.90200 -13.64800 52.09200
H  25.52000 -11.99700 52.76500
H  27.13200 -12.79700 52.99300
H  30.04300 -11.13200 50.28800
H  29.39200 -12.69600 50.73500
H  31.31700 -11.19700 51.89000
H  30.54700 -12.65500 52.70500
H  29.93100 -11.11000 53.04400
H  31.27200 -7.11400 50.83900
H  31.76200 -5.95600 49.60100
H  32.01900 -7.70300 49.31400
H  28.58300 -4.58200 45.79200
H  28.05800 -0.43200 45.28500
H  27.80600 -0.50300 47.01100
H  26.51800 -0.78900 45.88100
Mg 47.15500 45.21400 43.53000
C  43.81700 44.24800 43.14200
C  47.97000 41.94000 42.89500
C  50.28600 46.22700 43.13900
C  46.03300 48.57200 43.43800
N  45.94600 43.32600 42.96700
C  44.63800 43.13500 42.90100
C  44.23700 41.72500 42.64400
C  45.55400 40.95800 42.78500
C  46.59000 42.13300 42.90900
C  45.68900 39.91800 43.90800
C  43.43500 41.29600 41.34800
C  43.66100 42.10900 40.04400
H  43.22500 41.61000 38.58100
N  48.91700 44.26300 43.10600
C  49.04400 42.85800 43.00100
C  50.43800 42.53800 42.92600
C  51.20700 43.76100 42.76600
C  50.19300 44.82000 43.03200
C  50.95600 41.09500 42.89300
C  52.70000 43.88400 42.51700
O  53.32800 42.84600 42.22600
C  53.40300 45.15100 42.41700
N  47.98000 47.09100 43.33900
C  49.32900 47.26700 43.28600
C  49.82300 48.73200 43.44000
C  48.44100 49.46300 43.49300
C  47.39500 48.31800 43.39000
C  50.85700 49.00700 44.57000
C  48.22400 50.52600 42.35600
C  49.37000 51.58100 42.21000
N  45.29400 46.24000 43.42400
C  45.01500 47.62600 43.47000
C  43.57400 47.87900 43.40500
C  43.06800 46.54800 43.37500
C  44.11700 45.60400 43.31500
C  42.85000 49.13900 43.53800
C  41.83100 45.71800 43.35300
O  40.64800 46.04100 43.30600
C  42.31700 44.20800 43.32800
C  41.75400 43.48500 44.48300
O  40.80600 42.68200 44.42300
O  42.40900 43.79500 45.65700
C  41.74100 43.42300 46.91700
H  48.27400 40.90000 42.76100
H  51.33600 46.50400 43.25500
H  45.81000 49.64100 43.44400
H  43.54000 41.55600 43.46500
H  45.73300 40.35700 41.89400
H  44.76500 39.98100 44.48200
H  46.49400 40.02500 44.63500
H  45.83000 38.94200 43.44200
H  42.39200 41.32300 41.66100
H  43.54300 40.23700 41.11200
H  44.69500 42.42000 39.89700
H  43.03900 42.98700 40.22000
H  50.41700 40.51700 43.64400
H  51.97700 40.93000 43.23600
H  50.80600 40.59300 41.93700
H  52.96100 45.76800 41.63500
H  54.46600 44.99900 42.23100
H  53.34600 45.70500 43.35400
H  50.28300 48.97800 42.48200
H  48.36900 50.01500 44.43000
H  51.85400 48.70300 44.25100
H  50.54700 48.29900 45.33800
H  50.85100 50.03100 44.94500
H  47.37000 51.10800 42.70300
H  47.86300 50.05800 41.44000
H  49.05100 52.58800 42.47700
H  49.68200 51.56200 41.16600
H  50.25700 51.32800 42.79100
H  42.02800 49.21200 44.25000
H  42.43000 49.26200 42.54000
H  43.61000 49.91500 43.63700
H  41.86600 43.67700 42.49000
H  42.14500 42.47500 47.27100
H  40.69800 43.19600 46.69500
H  41.88300 44.19200 47.67700

