158

Mg 24.73600 -8.42500 47.39100
C  27.17000 -6.16800 46.40600
C  22.78200 -7.42700 44.78600
C  22.68300 -11.02500 48.05000
C  27.19700 -9.81500 49.58000
N  24.89900 -6.89800 45.81500
C  26.02900 -6.15700 45.56400
C  25.82700 -5.19300 44.38700
C  24.28100 -5.38400 44.13000
C  23.97300 -6.65000 44.94800
C  23.45600 -4.07100 44.47500
C  26.66900 -5.66700 43.17700
C  27.48700 -4.59200 42.34300
H  26.99000 -4.32700 40.94400
N  22.88500 -9.05100 46.61000
C  22.25100 -8.50000 45.53000
C  21.02300 -9.20200 45.27000
C  20.99200 -10.28800 46.19500
C  22.20400 -10.15700 47.05900
C  20.06000 -8.79200 44.17500
C  19.92000 -11.35700 46.15300
O  19.01400 -11.41400 45.32300
C  19.75300 -12.26100 47.39100
N  24.96500 -10.23400 48.57300
C  23.87000 -10.97100 48.83100
C  24.27100 -12.12400 49.79400
C  25.63100 -11.65900 50.45000
C  26.00800 -10.52100 49.48800
C  23.18400 -12.67000 50.77100
C  26.69700 -12.75100 50.56500
C  27.45200 -12.85100 51.91300
N  26.76100 -8.10000 47.93600
C  27.58200 -8.72800 48.82900
C  28.90900 -8.04500 48.90500
C  28.77200 -6.99700 47.96200
C  27.44300 -7.09200 47.42600
C  30.02400 -8.37600 49.69600
C  29.43200 -5.95700 47.23600
O  30.62700 -5.66700 47.23300
C  28.45700 -5.32300 46.27300
C  28.12700 -3.90400 46.51700
O  27.50400 -3.57900 47.50600
O  28.68100 -3.10800 45.51700
C  28.12300 -1.77700 45.48700
H  22.17400 -7.01600 43.97700
H  21.99400 -11.84000 48.28100
H  27.93500 -10.25000 50.25600
H  26.05100 -4.19600 44.76500
H  24.10800 -5.56700 43.07000
H  22.82800 -4.28400 45.34000
H  22.87700 -3.75500 43.60800
H  24.03900 -3.21300 44.81000
H  26.08300 -6.13800 42.38700
H  27.34100 -6.48300 43.44400
H  28.54700 -4.79200 42.50100
H  27.27800 -3.72200 42.96500
H  19.18200 -9.40400 43.97000
H  20.56600 -8.68400 43.21600
H  19.73200 -7.80300 44.49200
H  20.39800 -13.13700 47.32500
H  18.70000 -12.53900 47.44500
H  19.98700 -11.67400 48.27900
H  24.50000 -12.97900 49.16000
H  25.43300 -11.20700 51.42200
H  22.20800 -12.32800 50.42700
H  23.41200 -12.05900 51.64500
H  23.25500 -13.71500 51.07400
H  27.36100 -12.75900 49.70100
H  26.17500 -13.70800 50.55100
H  28.51200 -12.99700 51.70500
H  27.06000 -13.66200 52.52600
H  27.28400 -11.93800 52.48300
H  30.64200 -9.17600 49.28900
H  29.74900 -8.65900 50.71300
H  30.58600 -7.44300 49.73400
H  28.94400 -5.38300 45.29900
H  27.14000 -1.88300 45.94500
H  28.12300 -1.34500 44.48600
H  28.65900 -1.05900 46.10800
Mg 52.75100 24.28000 44.27300
C  49.86500 26.14000 44.01200
C  50.92000 21.38500 43.70700
C  55.63100 22.73000 43.44500
C  54.54800 27.34700 44.62100
N  50.62300 23.83100 43.70500
C  49.66200 24.68300 43.78800
C  48.28300 23.96800 43.74100
C  48.64100 22.48800 44.06900
C  50.11300 22.53200 43.83200
C  48.35200 22.03700 45.53900
C  47.44700 24.09100 42.42400
C  48.05700 23.45600 41.15600
H  47.92200 24.23200 39.78600
N  53.17600 22.32900 43.70800
C  52.28300 21.28600 43.66100
C  53.03000 20.09200 43.37700
C  54.37500 20.40100 43.24100
C  54.44600 21.87600 43.46500
C  52.31500 18.73300 43.41400
C  55.51700 19.42400 43.05000
O  55.28400 18.19200 43.10200
C  56.90100 19.81400 42.76500
N  54.77000 24.93900 43.77000
C  55.79700 24.06900 43.64800
C  57.21200 24.79100 43.66600
C  56.82800 26.30800 43.92100
C  55.28800 26.22600 44.09800
C  58.25300 24.09300 44.61700
C  57.25900 27.25300 42.84200
C  58.17000 28.31700 43.27700
N  52.32900 26.32300 44.46900
C  53.11800 27.41700 44.72300
C  52.18300 28.63400 44.93200
C  50.95400 28.17200 44.56000
C  51.08400 26.81000 44.28000
C  52.64900 30.01300 45.25100
C  49.55100 28.52300 44.49000
O  48.81400 29.45600 44.81100
C  48.83600 27.22800 44.03100
C  48.31900 27.58900 42.70100
O  48.82800 27.24600 41.62100
O  47.02700 28.08500 42.77900
C  46.28300 28.41300 41.56900
H  50.45000 20.40800 43.57500
H  56.56700 22.20700 43.23600
H  55.12100 28.27500 44.67000
H  47.69700 24.35100 44.57700
H  48.21100 21.84100 43.30500
H  48.94600 22.55700 46.29000
H  48.60800 20.97900 45.60700
H  47.30700 22.32300 45.65700
H  47.21200 25.15400 42.36600
H  46.49600 23.56400 42.49100
H  47.76200 22.41700 41.00700
H  49.13900 23.48700 41.28100
H  52.91600 17.87600 43.10900
H  51.45600 18.74900 42.74300
H  51.82200 18.51700 44.36100
H  57.52200 18.97100 42.46100
H  57.43300 20.32000 43.57000
H  56.83400 20.49900 41.92000
H  57.65000 24.71000 42.67000
H  57.25200 26.52100 44.90200
H  59.05500 23.61800 44.05200
H  57.82300 23.33300 45.27000
H  58.79400 24.85500 45.17700
H  56.35300 27.68400 42.41500
H  57.64600 26.67800 42.00100
H  57.70900 29.26000 42.98600
H  59.21600 28.33800 42.96900
H  58.13200 28.35400 44.36600
H  53.00300 30.55100 44.37200
H  53.38600 29.90300 46.04700
H  51.79600 30.59900 45.59400
H  48.08300 27.04100 44.79700
H  45.21700 28.26400 41.74000
H  46.53600 27.94200 40.61900
H  46.34800 29.47900 41.35000

