158

Mg 0.72900 6.70300 25.06700
C  1.27100 8.91600 27.67100
C  1.17700 4.20300 27.35800
C  0.11900 4.64600 22.64600
C  0.78300 9.43200 22.86000
N  0.87600 6.61300 27.33700
C  1.03700 7.58700 28.10700
C  0.94400 7.10300 29.57400
C  1.22200 5.59000 29.45500
C  1.12200 5.47200 27.96500
C  2.52600 4.91200 30.11700
C  -0.35700 7.47200 30.23000
C  -0.42400 7.42700 31.73400
H  0.75900 6.78200 32.47000
N  0.63000 4.76800 25.03500
C  0.90300 3.82800 26.07900
C  0.76000 2.54900 25.54200
C  0.31800 2.60200 24.18400
C  0.33800 4.05100 23.88000
C  1.15800 1.28900 26.39800
C  -0.00800 1.47500 23.24600
O  -0.40200 1.64400 22.10500
C  0.05000 0.03600 23.72400
N  0.16300 7.08600 23.02600
C  0.10400 6.01000 22.23300
C  0.03000 6.53300 20.76000
C  0.12300 8.09900 20.86700
C  0.42300 8.27300 22.33400
C  0.99600 5.88000 19.77800
C  -1.11500 9.00700 20.49000
C  -0.82100 10.41200 20.01000
N  1.15400 8.75800 25.17400
C  1.10600 9.74500 24.20000
C  1.55800 11.02900 24.77000
C  1.70400 10.69100 26.11200
C  1.35400 9.33300 26.30300
C  1.77000 12.36000 24.00900
C  2.03700 11.29500 27.45500
O  2.43400 12.44200 27.76300
C  1.71800 10.11100 28.51100
C  2.89400 9.86000 29.25100
O  3.97800 9.47300 28.84500
O  2.63300 10.15700 30.51600
C  3.75700 9.85700 31.39700
H  1.54200 3.54200 28.14700
H  -0.17900 3.93100 21.87600
H  0.92100 10.27900 22.18500
H  1.66700 7.63400 30.19300
H  0.38200 4.97200 29.77200
H  2.96000 5.56900 30.87100
H  3.29300 4.76500 29.35700
H  2.30600 3.94100 30.56000
H  -1.22000 6.97800 29.78400
H  -0.52900 8.51600 29.96600
H  -1.43300 7.10700 31.99700
H  -0.42200 8.43300 32.15400
H  1.69000 0.59400 25.74800
H  0.18600 0.88500 26.68100
H  1.64800 1.55600 27.33500
H  -0.69500 -0.29300 24.44800
H  1.08400 -0.08600 24.04800
H  -0.17700 -0.53800 22.82500
H  -0.94700 6.13800 20.48200
H  0.99900 8.52400 20.37800
H  1.73400 6.61100 19.44800
H  0.52500 5.47100 18.88500
H  1.46300 5.03600 20.28400
H  -1.81400 9.05200 21.32600
H  -1.66400 8.47200 19.71600
H  0.25200 10.60400 19.96600
H  -1.32200 11.16100 20.62400
H  -1.11900 10.49700 18.96500
H  1.11700 12.63000 23.17900
H  2.80900 12.29700 23.68400
H  1.72100 13.06200 24.84100
H  0.92800 10.56200 29.11200
H  4.11900 8.83000 31.36200
H  3.51200 9.91800 32.45700
H  4.52800 10.62200 31.30700
Mg 35.49200 1.17100 29.04100
C  33.44300 2.49300 31.60000
C  38.09000 0.97200 31.45400
C  37.52300 0.44000 26.56000
C  32.84700 1.77700 26.77700
N  35.75500 1.72200 31.30500
C  34.72500 2.17000 32.07800
C  35.14100 2.24800 33.55900
C  36.63600 1.78800 33.53800
C  36.88200 1.50400 32.05100
C  37.67300 2.65400 34.25500
C  34.38000 1.55100 34.67700
C  34.18300 2.15000 36.11200
H  35.07700 3.29500 36.62300
N  37.47600 0.58600 29.00400
C  38.37000 0.56900 30.11100
C  39.66600 0.13200 29.57600
C  39.53100 0.07500 28.13100
C  38.14600 0.39200 27.82400
C  40.89700 -0.10900 30.45900
C  40.67200 -0.17000 27.05900
O  40.39900 -0.34400 25.84900
C  42.06100 -0.44900 27.42800
N  35.29600 1.06300 26.97700
C  36.29000 0.84300 26.15700
C  35.82100 0.71500 24.72400
C  34.30200 0.91700 24.73300
C  34.07100 1.28800 26.24500
C  36.50600 1.71200 23.73000
C  33.44800 -0.30600 24.27900
C  32.51600 -0.17100 23.07100
N  33.55700 1.84900 29.12800
C  32.62200 2.13600 28.10400
C  31.45000 2.78900 28.62300
C  31.76400 2.89700 29.99900
C  33.03200 2.39000 30.26200
C  30.34300 3.27700 27.87900
C  31.19700 3.32700 31.20800
O  30.10400 3.88000 31.44000
C  32.22200 3.00600 32.31800
C  32.55600 4.25300 33.02900
O  33.24300 5.19500 32.60700
O  31.82300 4.33100 34.17000
C  31.91600 5.54600 35.00700
H  38.90900 0.97800 32.17700
H  38.17400 0.06700 25.76600
H  32.00500 1.91500 26.09500
H  35.12200 3.31200 33.79600
H  36.75100 0.83000 34.04500
H  37.21900 3.59300 34.57200
H  38.49000 2.90500 33.57900
H  38.24300 2.23800 35.08600
H  34.71400 0.53300 34.87800
H  33.40500 1.24300 34.29900
H  34.36900 1.25100 36.70100
H  33.16000 2.46600 36.31500
H  41.43800 -0.92500 29.98000
H  40.58400 -0.39200 31.46400
H  41.45300 0.81300 30.63300
H  42.20900 -1.42600 27.88600
H  42.32400 0.34600 28.12500
H  42.65400 -0.33900 26.52000
H  36.14600 -0.26800 24.38400
H  34.01900 1.70200 24.03200
H  37.01900 2.52200 24.25000
H  35.77900 2.31500 23.18500
H  37.00800 1.13500 22.95400
H  32.83800 -0.56100 25.14600
H  34.02600 -1.21400 24.10800
H  31.51200 -0.46700 23.37600
H  32.81200 -0.80900 22.23800
H  32.48000 0.87900 22.78100
H  29.48700 2.62100 28.03300
H  30.53300 3.29300 26.80500
H  30.07100 4.30600 28.11300
H  31.66300 2.34500 32.98000
H  30.91800 5.94400 35.19500
H  32.55100 6.32800 34.59100
H  32.31800 5.04200 35.88600

