158

Mg 35.82900 0.79000 29.40900
C  33.55200 2.03400 31.97100
C  38.20500 0.65600 31.88100
C  38.06300 -0.09100 27.05900
C  33.51400 1.70900 26.98900
N  35.80600 0.98500 31.75800
C  34.82600 1.61300 32.50500
C  35.28300 1.70100 33.96900
C  36.84200 1.60600 33.84400
C  36.96500 1.08500 32.39700
C  37.52700 2.97100 34.11200
C  34.57400 0.68500 34.84900
C  34.38600 1.01200 36.36800
H  35.16400 2.21600 36.98300
N  37.80600 0.22300 29.48400
C  38.53900 0.17000 30.60200
C  39.82100 -0.38000 30.29500
C  39.85600 -0.54500 28.84700
C  38.50600 -0.18000 28.40400
C  40.89200 -0.63900 31.36600
C  40.95200 -1.15800 27.94800
O  40.87800 -1.25800 26.68900
C  42.20100 -1.73300 28.67000
N  35.92500 1.07200 27.35300
C  36.84900 0.53500 26.59100
C  36.50400 0.60100 25.01400
C  34.97200 1.00000 25.06700
C  34.81500 1.33600 26.56400
C  37.44400 1.58000 24.14200
C  34.03200 -0.22300 24.72400
C  32.81800 0.14700 23.87300
N  34.00900 1.63100 29.41000
C  33.18700 2.03700 28.37600
C  31.91100 2.55800 28.84800
C  32.08700 2.62600 30.23500
C  33.35300 2.11400 30.55200
C  30.66800 2.89600 28.16300
C  31.37600 2.90200 31.43000
O  30.21300 3.29000 31.55300
C  32.36100 2.66600 32.67500
C  32.60100 4.07600 33.21800
O  33.45600 4.82900 32.82000
O  31.62400 4.44100 34.11900
C  31.72700 5.62700 34.80900
H  38.83900 0.51400 32.75900
H  38.73100 -0.50100 26.29900
H  32.75700 1.96200 26.24400
H  35.07300 2.74300 34.21200
H  37.26500 0.83900 34.49300
H  38.15600 3.30000 33.28500
H  38.19200 2.77000 34.95200
H  36.94800 3.81900 34.47800
H  35.16300 -0.20600 34.63100
H  33.60100 0.44300 34.42100
H  34.59300 0.06200 36.86000
H  33.35100 1.35200 36.37300
H  41.72000 -0.01700 31.02500
H  41.35300 -1.62600 31.40800
H  40.80300 -0.40400 32.42600
H  42.78000 -0.86800 28.99200
H  42.74800 -2.41100 28.01400
H  41.81900 -2.21900 29.56800
H  36.67000 -0.41500 24.65800
H  34.80000 1.87200 24.43600
H  37.14000 2.60500 23.92800
H  37.58900 1.18100 23.13900
H  38.44700 1.76100 24.52900
H  33.66800 -0.53500 25.70300
H  34.59800 -0.98700 24.19100
H  33.02100 0.99500 23.21900
H  32.03000 0.49700 24.54000
H  32.48300 -0.68500 23.25300
H  29.90600 2.12600 28.03700
H  30.77300 3.41500 27.21100
H  30.17000 3.66700 28.75100
H  31.87500 1.97600 33.36400
H  31.07700 5.54000 35.67900
H  31.30900 6.48200 34.27800
H  32.71800 5.98700 35.08400
Mg -1.90200 34.59500 27.09300
C  -3.61600 32.69300 29.53400
C  -0.59200 36.55600 29.61000
C  -0.56900 36.52700 24.72000
C  -3.79100 32.98100 24.65100
N  -2.19000 34.66100 29.31500
C  -2.78600 33.71800 30.06100
C  -2.43600 33.94800 31.54300
C  -1.54400 35.21200 31.51800
C  -1.45600 35.55700 30.02300
C  -2.07800 36.44700 32.28000
C  -1.86000 32.74500 32.35400
C  -2.78800 32.14100 33.45200
H  -2.10100 32.01600 34.91100
N  -0.72500 36.22200 27.10500
C  -0.28200 36.85800 28.23300
C  0.65200 37.87000 27.78800
C  0.75200 37.88700 26.38900
C  -0.19700 36.81000 26.01100
C  1.28900 38.81300 28.73800
C  1.64600 38.74500 25.40000
O  1.54200 38.71600 24.18900
C  2.64000 39.72300 25.89100
N  -2.13800 34.73600 24.97100
C  -1.41700 35.59600 24.17700
C  -1.59500 35.23500 22.74200
C  -2.52300 34.04900 22.77900
C  -2.82300 33.83300 24.26500
C  -2.19200 36.49300 22.02700
C  -1.83100 32.79200 22.14600
C  -0.63400 32.17500 22.84600
N  -3.36300 33.06000 27.02700
C  -4.01000 32.47500 25.99500
C  -4.83100 31.39600 26.50600
C  -4.66300 31.40700 27.85400
C  -3.79300 32.49300 28.18200
C  -5.77400 30.49200 25.73200
C  -5.17300 30.80900 29.16300
O  -6.07500 30.01100 29.42100
C  -4.44900 31.62700 30.29500
C  -5.47200 32.33200 31.15800
O  -5.93100 33.42100 30.95000
O  -5.85500 31.55800 32.30300
C  -6.32100 32.37600 33.39300
H  0.05800 37.04400 30.34000
H  -0.06000 37.16300 23.99300
H  -4.39700 32.47400 23.89700
H  -3.34600 34.25100 32.06000
H  -0.50500 35.02800 31.79200
H  -2.94300 36.25500 32.91600
H  -2.25800 37.30000 31.62600
H  -1.28400 36.79700 32.93900
H  -0.90600 32.94400 32.84200
H  -1.55900 32.01100 31.60600
H  -3.10000 31.12600 33.20700
H  -3.53600 32.93000 33.53300
H  0.76900 38.91600 29.69100
H  1.35700 39.79800 28.27600
H  2.31800 38.57600 29.00800
H  3.06400 39.07600 26.65900
H  2.14800 40.62000 26.27000
H  3.37600 40.01000 25.14100
H  -0.63300 34.83500 22.42100
H  -3.45800 34.23400 22.25200
H  -3.17700 36.75200 22.41500
H  -2.41400 36.34600 20.97000
H  -1.59900 37.40500 22.08900
H  -1.59500 33.02300 21.10700
H  -2.65200 32.07600 22.11300
H  -0.48600 32.57800 23.84800
H  0.20500 32.28200 22.15700
H  -0.84300 31.11800 23.01300
H  -5.19900 29.88500 25.03300
H  -6.54500 31.12500 25.29200
H  -6.29900 29.82100 26.41100
H  -3.82100 31.01400 30.94200
H  -5.55900 32.65800 34.12000
H  -6.96800 31.67900 33.92600
H  -6.95000 33.21500 33.09200

