158

Mg 47.39200 44.96200 43.28800
C  43.90800 44.30500 43.47200
C  47.91900 41.70500 42.78100
C  50.62200 45.71600 42.94100
C  46.50900 48.36500 43.01300
N  46.03800 43.14300 43.26000
C  44.66300 43.08900 43.37300
C  44.16200 41.59400 43.21100
C  45.60300 40.81900 43.25100
C  46.61700 41.96300 43.10700
C  45.88700 39.88700 44.52600
C  43.30400 41.17200 41.95100
C  43.64000 41.99400 40.69200
H  43.11700 41.47600 39.31200
N  49.07900 43.84700 42.97300
C  49.07800 42.47800 42.85900
C  50.47000 41.94700 42.71000
C  51.30100 43.13300 42.83300
C  50.38800 44.33000 43.00000
C  50.76500 40.37300 42.66800
C  52.77900 43.17100 42.77800
O  53.40300 42.12100 42.57000
C  53.59700 44.35900 43.01300
N  48.40800 46.70900 42.97900
C  49.76800 46.81500 43.03100
C  50.20400 48.31500 43.03900
C  48.90900 49.13600 42.80300
C  47.87300 48.02100 42.87300
C  51.01600 48.67500 44.28600
C  48.67700 49.87200 41.38700
C  48.40700 51.36800 41.60200
N  45.62600 46.18200 43.20800
C  45.42900 47.55200 43.09500
C  44.02200 47.86200 43.07300
C  43.41700 46.62700 43.27400
C  44.39000 45.64800 43.33900
C  43.35400 49.18900 42.81500
C  42.09400 45.99300 43.49200
O  40.96400 46.43300 43.56800
C  42.41300 44.42300 43.55600
C  41.96800 44.04500 44.87900
O  42.47100 44.40000 45.90100
O  41.01700 42.97800 44.80200
C  40.70000 42.38400 46.11000
H  48.08200 40.64000 42.60300
H  51.63300 46.12300 42.88600
H  46.27700 49.43100 42.99500
H  43.67000 41.42500 44.16900
H  45.73000 40.13000 42.41600
H  44.90500 39.82600 44.99500
H  46.62700 40.38800 45.15000
H  46.25400 38.88700 44.29400
H  42.24600 41.29300 42.18300
H  43.41000 40.09400 41.82300
H  44.71900 42.14400 40.66300
H  43.13800 42.95100 40.83300
H  51.80100 40.12900 42.90500
H  50.74400 39.87200 41.70000
H  50.00600 39.90600 43.29500
H  53.33900 45.28500 42.49900
H  54.61800 44.07500 42.75900
H  53.66200 44.50300 44.09100
H  50.91900 48.43100 42.22500
H  48.72800 49.74900 43.68600
H  51.62500 49.54300 44.03000
H  51.69900 47.89300 44.61800
H  50.34600 48.94300 45.10300
H  47.89400 49.37200 40.81700
H  49.61100 49.76800 40.83400
H  49.18000 51.93400 41.08200
H  48.35100 51.66800 42.64800
H  47.38500 51.48200 41.24300
H  42.36500 49.13400 43.27000
H  43.22200 49.35000 41.74500
H  43.91300 50.05600 43.16800
H  41.94100 43.91500 42.71500
H  41.56200 42.13700 46.73100
H  40.24100 41.43100 45.84700
H  40.03800 42.95300 46.76200
Mg -10.28100 40.15200 41.91700
C  -9.21100 37.09900 40.63600
C  -7.35400 41.62000 40.54800
C  -11.63200 43.24200 42.29200
C  -13.30900 38.73200 42.82100
N  -8.49100 39.40000 40.69400
C  -8.31500 38.13200 40.34100
C  -7.05700 37.98100 39.47600
C  -6.37400 39.37000 39.64300
C  -7.44800 40.21300 40.39000
C  -4.94000 39.36700 40.03600
C  -7.45300 37.55400 38.01400
C  -6.75900 36.28900 37.46400
H  -5.46400 36.76500 36.66800
N  -9.57800 42.18500 41.47000
C  -8.32900 42.55100 41.03300
C  -8.21500 44.04800 41.18200
C  -9.38100 44.48800 41.73800
C  -10.34300 43.29400 41.75000
C  -7.01800 44.73300 40.70800
C  -9.71000 45.92700 42.09700
O  -8.88000 46.77200 41.76200
C  -11.04300 46.43600 42.72300
N  -12.27000 40.87100 42.25100
C  -12.55800 42.20000 42.53100
C  -14.01800 42.34200 42.93000
C  -14.39700 40.93800 43.50100
C  -13.28600 40.09900 42.80300
C  -14.31200 43.37500 43.97100
C  -15.88700 40.57800 43.10900
C  -16.72300 39.84300 44.25400
N  -11.03300 38.23500 41.98900
C  -12.27200 37.78600 42.30500
C  -12.45100 36.36100 42.05800
C  -11.25600 36.05100 41.35500
C  -10.47300 37.24100 41.35000
C  -13.66000 35.60200 42.22000
C  -10.48100 35.02000 40.65900
O  -10.70900 33.80200 40.57000
C  -9.12200 35.69800 40.21900
C  -8.01800 34.89600 40.91000
O  -7.47800 35.15000 41.99800
O  -7.69000 33.81200 40.14900
C  -7.03500 32.78600 40.88500
H  -6.39100 42.01500 40.21800
H  -12.13500 44.18900 42.49800
H  -14.24300 38.32900 43.21900
H  -6.23000 37.37000 39.83800
H  -6.31800 39.93600 38.71300
H  -4.63700 40.24000 40.61400
H  -4.28200 39.22300 39.17900
H  -4.86300 38.47200 40.65300
H  -7.12800 38.41800 37.43500
H  -8.52600 37.50200 37.82600
H  -7.37900 35.77700 36.72800
H  -6.51600 35.59900 38.27200
H  -6.69000 45.47100 41.44000
H  -7.42500 45.10400 39.76800
H  -6.21900 44.05100 40.41600
H  -11.80000 46.25900 41.95900
H  -10.96500 47.49700 42.96100
H  -11.24900 45.92500 43.66400
H  -14.59000 42.47600 42.01200
H  -14.19100 40.94000 44.57100
H  -14.51900 44.31100 43.45200
H  -13.41200 43.63000 44.53000
H  -15.21700 43.10300 44.51500
H  -15.94600 39.83500 42.31300
H  -16.45500 41.44300 42.76500
H  -16.77200 38.77300 44.05700
H  -17.72600 40.26500 44.31900
H  -16.25600 40.01100 45.22500
H  -14.49800 36.15300 41.79400
H  -13.69100 35.34700 43.27900
H  -13.63100 34.65200 41.68500
H  -9.11100 35.51600 39.14400
H  -7.20900 31.88700 40.29300
H  -7.41900 32.57000 41.88200
H  -5.98100 32.99100 41.07400

