158

Mg 2.55100 -0.40100 43.84700
C  5.88100 0.73400 43.31400
C  1.42500 2.26600 42.10600
C  -0.44800 -1.99700 43.49800
C  3.95300 -3.45800 45.00600
N  3.57200 1.28600 42.87300
C  4.91500 1.67200 42.81200
C  5.08100 3.09700 42.42300
C  3.62700 3.54500 42.07000
C  2.78600 2.25800 42.39600
C  3.08000 4.65500 42.96000
C  6.10000 3.17100 41.23400
C  5.90300 2.22100 40.07100
H  6.15300 2.69600 38.64300
N  0.68600 0.08900 42.97000
C  0.47500 1.24100 42.33900
C  -0.91100 1.23600 42.00400
C  -1.56900 0.10900 42.48100
C  -0.43200 -0.70300 42.92000
C  -1.57600 2.46200 41.31300
C  -3.03300 -0.09800 42.59500
O  -3.77200 0.88000 42.35800
C  -3.54900 -1.39300 43.13100
N  1.81200 -2.44100 44.15000
C  0.52700 -2.76100 44.06900
C  0.25600 -4.23900 44.55000
C  1.62700 -4.61600 45.25000
C  2.55600 -3.42700 44.78400
C  -1.15200 -4.49000 45.34900
C  2.14200 -6.02800 44.92600
C  2.29600 -7.14400 46.04600
N  4.52200 -1.23200 44.24000
C  4.86200 -2.51800 44.70100
C  6.33500 -2.54500 44.86500
C  6.78200 -1.31200 44.30200
C  5.61800 -0.57500 43.90000
C  7.19100 -3.54600 45.56700
C  7.93200 -0.49900 43.98300
O  9.12600 -0.77700 44.13800
C  7.38100 0.86200 43.49200
C  7.59800 1.98100 44.49000
O  7.40800 1.88300 45.68700
O  8.36300 3.03200 43.94500
C  8.80700 4.10300 44.87400
H  1.10800 3.15600 41.55800
H  -1.44700 -2.40300 43.66800
H  4.36000 -4.39300 45.39700
H  5.51200 3.60300 43.28700
H  3.44700 3.69800 41.00500
H  3.20100 5.60600 42.44200
H  3.72500 4.63300 43.83900
H  2.05000 4.56900 43.30600
H  7.13800 3.08200 41.55700
H  6.05100 4.21000 40.91000
H  4.87100 1.90200 39.92400
H  6.68400 1.47200 40.20100
H  -2.03600 3.02300 42.12600
H  -2.27200 2.22500 40.50800
H  -0.87400 3.15200 40.84500
H  -4.63000 -1.24700 43.14100
H  -3.27200 -1.71600 44.13500
H  -3.25400 -2.12500 42.38000
H  0.07500 -4.78600 43.62500
H  1.46000 -4.52000 46.32300
H  -1.74400 -3.58000 45.44400
H  -0.96800 -4.77100 46.38600
H  -1.75800 -5.26200 44.87600
H  3.14200 -6.03200 44.49200
H  1.48400 -6.30000 44.10200
H  1.89200 -6.81700 47.00500
H  3.36100 -7.25300 46.24900
H  1.64800 -7.98200 45.78900
H  6.92700 -4.51400 45.14200
H  7.00600 -3.44200 46.63600
H  8.25400 -3.33300 45.45100
H  7.84800 1.12500 42.54300
H  9.10100 4.99300 44.31800
H  9.74800 3.91600 45.39200
H  8.11900 4.46800 45.63700
Mg -12.42600 16.48900 42.15000
C  -9.29800 14.99500 41.88000
C  -11.29700 19.36100 40.81600
C  -15.69600 17.55600 42.02800
C  -13.72400 13.22300 42.76100
N  -10.50100 17.02200 41.25900
C  -9.28800 16.30700 41.29100
C  -8.09200 17.14700 40.79000
C  -8.72500 18.54400 40.68900
C  -10.27100 18.32600 40.92500
C  -8.04500 19.60600 41.63800
C  -7.50800 16.64000 39.53000
C  -6.03200 16.17900 39.72300
H  -5.51700 15.04400 38.83000
N  -13.34000 18.22900 41.49800
C  -12.67700 19.26400 40.97900
C  -13.55700 20.40700 40.90200
C  -14.83900 19.98400 41.25400
C  -14.70000 18.52300 41.65500
C  -13.15800 21.76600 40.36100
C  -16.05800 20.81100 41.16100
O  -16.08100 21.98600 40.81700
C  -17.38000 20.19000 41.53400
N  -14.44700 15.51500 42.37400
C  -15.60100 16.19400 42.26100
C  -16.80400 15.36700 42.44400
C  -16.19100 13.92600 42.52100
C  -14.72100 14.17200 42.40900
C  -17.63100 15.66300 43.67000
C  -16.66900 12.79400 41.43000
C  -17.01500 11.45600 42.13200
N  -11.74100 14.54500 42.43300
C  -12.35700 13.33300 42.71200
C  -11.36300 12.26500 42.76100
C  -10.15800 12.89000 42.51500
C  -10.44900 14.31500 42.29900
C  -11.59300 10.84600 43.09300
C  -8.65500 12.69000 42.38400
O  -7.96400 11.68300 42.50500
C  -8.12700 14.01900 41.97400
C  -7.16100 14.44900 42.96400
O  -7.35800 15.26200 43.84500
O  -5.94100 13.90000 42.69900
C  -4.79800 14.37500 43.48100
H  -10.83800 20.26700 40.41500
H  -16.72900 17.87000 41.86300
H  -14.21100 12.25300 42.88500
H  -7.31200 17.03100 41.54200
H  -8.59900 19.06400 39.74000
H  -8.56900 20.56100 41.60400
H  -7.05200 19.80400 41.23400
H  -8.21800 19.29700 42.66900
H  -7.39700 17.43400 38.79200
H  -8.15300 15.91600 39.03300
H  -5.78800 15.87200 40.74000
H  -5.37300 17.03400 39.57300
H  -13.75100 21.99100 39.47600
H  -12.17400 21.67100 39.90200
H  -13.11300 22.62200 41.03400
H  -17.60300 19.36100 40.86300
H  -18.17900 20.92100 41.41400
H  -17.48100 19.93300 42.58900
H  -17.31100 15.38400 41.47900
H  -16.44000 13.55700 43.51600
H  -17.50300 16.67900 44.04400
H  -17.40100 15.05500 44.54400
H  -18.67600 15.70400 43.36200
H  -15.82500 12.55000 40.78400
H  -17.46400 13.22700 40.82300
H  -16.65000 11.49300 43.15900
H  -16.48400 10.61600 41.68500
H  -18.09800 11.34400 42.08700
H  -10.71600 10.20100 43.13600
H  -12.28500 10.35400 42.41000
H  -11.92300 10.83100 44.13100
H  -7.58400 13.88800 41.03700
H  -4.25900 15.20000 43.01700
H  -4.17400 13.48200 43.45100
H  -5.07400 14.66800 44.49400

