158

Mg 1.12400 7.65000 25.10500
C  1.84100 9.32000 28.06300
C  0.85700 4.73300 26.82900
C  0.70400 6.17400 22.17100
C  2.09900 10.57900 23.40300
N  1.34200 7.14100 27.21100
C  1.55000 7.99300 28.26400
C  1.45700 7.23600 29.61600
C  1.51700 5.72300 29.13400
C  1.16500 5.88000 27.63700
C  2.83500 5.00500 29.42300
C  0.28200 7.66800 30.43600
C  0.58500 8.03700 31.87700
H  1.80500 7.24500 32.48200
N  0.73100 5.73700 24.55100
C  0.64500 4.66600 25.38800
C  0.39600 3.44700 24.66800
C  0.43400 3.83000 23.21800
C  0.64800 5.31100 23.27200
C  0.22400 2.12700 25.32300
C  0.34000 2.98100 21.97700
O  0.49200 3.47300 20.87700
C  0.08700 1.51600 22.20300
N  1.26500 8.30800 23.08100
C  1.05400 7.49600 22.02600
C  1.03500 8.30400 20.74300
C  1.63100 9.63000 21.14800
C  1.64900 9.50600 22.64500
C  1.79500 7.56500 19.62500
C  0.85000 10.90300 20.57400
C  -0.46200 11.38800 21.25000
N  1.79300 9.67800 25.58900
C  2.16400 10.72400 24.77700
C  2.52100 11.86900 25.63400
C  2.33700 11.36900 26.91200
C  1.99100 10.04000 26.82900
C  2.96500 13.24600 25.10600
C  2.54500 11.75500 28.27000
O  3.06200 12.79000 28.75700
C  2.06500 10.46200 29.06500
C  3.13200 10.25100 30.08000
O  3.98300 9.37600 29.96300
O  3.03900 11.14400 31.12800
C  4.02900 11.10800 32.19000
H  0.88000 3.73900 27.28100
H  0.25600 5.73500 21.27800
H  2.34200 11.42500 22.75700
H  2.39900 7.52600 30.08000
H  0.71300 5.15000 29.59700
H  3.38500 5.65700 30.10200
H  3.42800 4.97600 28.50900
H  2.64500 4.01400 29.83500
H  -0.52400 6.93500 30.40700
H  -0.17300 8.54300 29.97200
H  -0.34800 7.85300 32.40900
H  0.64500 9.11800 32.00400
H  1.16600 1.57800 25.33400
H  -0.51600 1.53100 24.78700
H  -0.17900 2.29000 26.32200
H  -0.94000 1.25200 22.45200
H  0.85000 1.14000 22.88400
H  0.37900 1.00800 21.28400
H  -0.01200 8.42700 20.46700
H  2.64900 9.73000 20.77000
H  2.36600 6.77400 20.11100
H  2.42800 8.27700 19.09600
H  1.16100 6.95500 18.98200
H  0.65800 10.74800 19.51200
H  1.42400 11.82300 20.68200
H  -0.75800 10.69500 22.03800
H  -1.31000 11.46100 20.56800
H  -0.31600 12.34600 21.74900
H  3.60800 13.81700 25.77500
H  2.18700 13.82600 24.61000
H  3.58100 12.87000 24.28900
H  1.11700 10.81600 29.47000
H  3.63000 10.44000 32.95400
H  4.22400 12.07900 32.64500
H  4.95500 10.70700 31.77900
Mg -11.24100 16.41000 41.98000
C  -7.89800 15.01900 41.96900
C  -9.88200 19.29900 40.68800
C  -14.38300 17.46600 41.53500
C  -12.34100 13.28400 42.89200
N  -9.13400 16.97700 41.44200
C  -7.92300 16.36100 41.51700
C  -6.76700 17.17900 41.03700
C  -7.43200 18.53700 40.89400
C  -8.91000 18.25000 40.99500
C  -6.88400 19.61600 41.81600
C  -6.25600 16.56600 39.64300
C  -4.83400 16.77000 39.35000
H  -4.19700 15.80400 38.32100
N  -12.00400 18.11500 41.20500
C  -11.31700 19.23800 40.75700
C  -12.32500 20.20700 40.33700
C  -13.67400 19.71400 40.61600
C  -13.39000 18.31600 41.10100
C  -11.87400 21.58200 39.72900
C  -14.95800 20.54800 40.38300
O  -14.91700 21.69900 39.96100
C  -16.36300 19.93800 40.62000
N  -13.11800 15.40100 41.93400
C  -14.27500 16.10800 41.85500
C  -15.48700 15.20000 42.13600
C  -14.85800 13.94300 42.81600
C  -13.39500 14.17900 42.52300
C  -16.72400 15.81300 42.92000
C  -15.45800 12.58000 42.25100
C  -16.10200 11.68300 43.40800
N  -10.35400 14.59700 42.49100
C  -10.91800 13.40700 42.83000
C  -9.92000 12.38300 43.12900
C  -8.66600 12.98400 42.79800
C  -9.03100 14.29200 42.35400
C  -10.18500 11.00000 43.47600
C  -7.24300 12.80600 42.79700
O  -6.55700 11.79100 43.03900
C  -6.66400 14.07000 42.22400
C  -5.92800 14.55300 43.40400
O  -6.43500 14.78200 44.44300
O  -4.57300 14.57700 43.14400
C  -3.81500 15.29500 44.27500
H  -9.55500 20.24200 40.24700
H  -15.36500 17.93300 41.44100
H  -12.58800 12.29000 43.27200
H  -6.04100 17.17100 41.85000
H  -7.22400 18.93200 39.90000
H  -7.66700 20.23600 42.25200
H  -6.12800 20.26700 41.37700
H  -6.23200 19.23200 42.60100
H  -6.84200 16.95500 38.81000
H  -6.40400 15.49100 39.75000
H  -4.23100 16.68900 40.25400
H  -4.62000 17.78300 39.01100
H  -12.57500 21.85900 38.94200
H  -10.92600 21.44200 39.20900
H  -11.83800 22.34400 40.50800
H  -17.11300 20.69300 40.38600
H  -16.48000 19.62500 41.65800
H  -16.37200 19.19600 39.82200
H  -15.78500 14.89100 41.13400
H  -14.83300 13.98700 43.90500
H  -16.96500 15.44000 43.91600
H  -17.60700 15.91600 42.29000
H  -16.54300 16.87700 43.07300
H  -14.68100 12.03400 41.71700
H  -16.10700 12.79300 41.40200
H  -17.14200 11.56500 43.10400
H  -16.02100 12.13000 44.39900
H  -15.50400 10.77500 43.48100
H  -9.28100 10.39100 43.48500
H  -10.88800 10.58400 42.75300
H  -10.56700 10.93100 44.49400
H  -6.03000 14.01700 41.33900
H  -3.21300 14.51100 44.73400
H  -4.36100 15.77000 45.09100
H  -3.22200 16.06500 43.78000

