158

Mg -2.26500 17.11300 27.70700
C  -2.83900 15.13500 30.57100
C  -2.35600 19.84300 29.62800
C  -2.33400 18.76100 24.88300
C  -2.57000 14.11200 25.83600
N  -2.49300 17.41800 29.88400
C  -2.71800 16.51600 30.81000
C  -2.73700 17.10800 32.23800
C  -2.80000 18.58000 31.88100
C  -2.60800 18.63400 30.36700
C  -3.97500 19.39700 32.45400
C  -1.59300 16.80100 33.26900
C  -1.11800 17.79300 34.37900
H  -1.06500 17.16400 35.73400
N  -2.28500 19.06700 27.28500
C  -2.24700 20.08100 28.22200
C  -1.93800 21.32700 27.50900
C  -1.86600 21.05700 26.10600
C  -2.16100 19.60600 26.04200
C  -1.77300 22.66400 28.21300
C  -1.45200 21.96900 24.97100
O  -1.40700 21.60000 23.83900
C  -1.22600 23.46000 25.22500
N  -2.62900 16.56900 25.68500
C  -2.60000 17.46100 24.71500
C  -2.79400 16.78800 23.28800
C  -2.56800 15.33300 23.66300
C  -2.49700 15.33700 25.20100
C  -4.19100 17.11400 22.71300
C  -1.49500 14.57000 22.84200
C  -0.08000 14.53600 23.33900
N  -2.62000 15.03100 28.10100
C  -2.80700 13.95700 27.22100
C  -2.94500 12.70100 27.99900
C  -3.03400 13.12400 29.33900
C  -2.86200 14.57500 29.32100
C  -3.12700 11.31000 27.43900
C  -3.21000 12.73000 30.68000
O  -3.36500 11.62900 31.12600
C  -3.13500 14.03000 31.56800
C  -1.97300 13.71300 32.41700
O  -0.81800 13.84400 32.15600
O  -2.46500 13.26500 33.64300
C  -1.48700 12.87200 34.60500
H  -2.48100 20.78700 30.16400
H  -2.29700 19.31900 23.94500
H  -2.74200 13.26000 25.17400
H  -3.70500 16.76400 32.60500
H  -1.90500 19.12000 32.19200
H  -4.51400 19.63000 31.53600
H  -3.79900 20.27900 33.06900
H  -4.72300 18.79100 32.96700
H  -0.72100 16.67700 32.62700
H  -1.89900 15.88800 33.77900
H  -1.78400 18.65400 34.41900
H  -0.18600 18.29500 34.12200
H  -0.89800 23.26700 27.96900
H  -1.81600 22.58200 29.29900
H  -2.64100 23.25400 27.92100
H  -2.14600 23.84900 25.66200
H  -1.23700 23.82400 24.19800
H  -0.24100 23.62400 25.66200
H  -2.03000 17.11500 22.58300
H  -3.46000 14.74100 23.46000
H  -4.71100 16.18700 22.47400
H  -4.08600 17.65900 21.77500
H  -4.85000 17.62500 23.41500
H  -1.45900 14.75400 21.76800
H  -1.82600 13.53200 22.85700
H  0.27700 15.24200 24.08900
H  0.45000 14.79900 22.42400
H  0.13700 13.51900 23.66700
H  -2.21000 10.72100 27.42500
H  -3.54200 11.34000 26.43200
H  -3.80500 10.78600 28.11300
H  -4.06100 14.24000 32.10300
H  -1.05900 13.75000 35.09000
H  -0.59100 12.49300 34.11400
H  -1.84700 12.15800 35.34500
Mg 42.01900 41.63900 27.97300
C  40.89000 44.02200 30.47500
C  43.11800 39.67000 30.44300
C  43.25900 39.69100 25.66000
C  41.41000 44.16600 25.52900
N  41.84600 41.82500 30.15600
C  41.40600 42.83200 30.98300
C  41.54400 42.40000 32.45000
C  42.38600 41.04000 32.46600
C  42.50400 40.85800 30.90700
C  43.75400 41.31400 33.11900
C  40.06900 42.28000 33.05100
C  39.92700 43.15000 34.32700
H  39.26900 42.42300 35.54400
N  42.99800 39.82100 28.03200
C  43.35700 39.18300 29.13400
C  43.99500 37.93400 28.78300
C  43.89300 37.86900 27.33500
C  43.32800 39.14900 26.96500
C  44.49900 36.92600 29.83400
C  44.38100 36.75900 26.36100
O  44.54300 36.96000 25.19200
C  44.66100 35.39400 26.92700
N  42.50500 41.98500 25.92600
C  42.92300 40.94300 25.21500
C  42.96000 41.30100 23.71800
C  42.37600 42.70600 23.65900
C  42.12900 43.03000 25.15800
C  44.36300 41.23400 23.03000
C  41.06500 42.81300 22.87200
C  39.87700 42.11800 23.41600
N  41.26200 43.67500 27.98000
C  41.04300 44.49800 26.89100
C  40.34400 45.63100 27.33900
C  40.25900 45.53100 28.73700
C  40.92600 44.36000 29.08700
C  39.74500 46.75500 26.50100
C  39.81400 46.13700 30.02100
O  39.08800 47.08300 30.22300
C  40.30100 45.22200 31.17800
C  41.33500 45.86800 31.94500
O  42.46100 46.19900 31.54900
O  40.89800 45.97100 33.25100
C  41.69300 46.75100 34.26100
H  43.49900 39.00500 31.22100
H  43.48300 39.01200 24.83500
H  41.25200 44.93100 24.76500
H  42.12900 43.19500 32.91300
H  41.95400 40.11800 32.85700
H  43.95300 40.53000 33.85100
H  43.74200 42.25100 33.67600
H  44.50500 41.16100 32.34500
H  39.88000 41.25400 33.36700
H  39.32700 42.67600 32.35800
H  39.30500 43.99200 34.02300
H  40.90700 43.50000 34.65100
H  45.54900 36.84800 29.55400
H  43.97600 35.97100 29.78900
H  44.46400 37.25700 30.87200
H  43.77000 35.01200 27.42500
H  45.43800 35.45700 27.68800
H  44.98800 34.68600 26.16500
H  42.26100 40.58700 23.28200
H  43.02600 43.52900 23.36000
H  44.72000 42.26300 23.06200
H  44.23300 40.81500 22.03200
H  44.96400 40.55700 23.63800
H  41.17800 42.44200 21.85300
H  40.84700 43.85700 22.64300
H  39.19900 42.95300 23.59500
H  39.98700 41.45700 24.27500
H  39.44800 41.58700 22.56600
H  39.16100 46.29500 25.70300
H  40.56600 47.32100 26.06000
H  39.11000 47.34200 27.16400
H  39.46700 44.81200 31.74800
H  41.10800 47.64900 34.46200
H  42.66300 47.17200 33.99500
H  41.85600 46.07400 35.09900

