158

Mg 17.04600 -1.77100 28.07700
C  16.30600 0.26600 30.95000
C  18.88300 -3.73400 30.29400
C  18.31600 -3.44700 25.39700
C  15.73300 0.59500 26.02000
N  17.57500 -1.67500 30.37900
C  17.08200 -0.86000 31.33700
C  17.60600 -1.16200 32.72200
C  18.55100 -2.36600 32.44100
C  18.27500 -2.63200 30.96400
C  20.11600 -2.28500 32.73900
C  16.46400 -1.48000 33.79000
C  16.68200 -0.91800 35.19400
H  18.07000 -0.34600 35.55800
N  18.24100 -3.45300 27.86100
C  18.84800 -4.15200 28.90600
C  19.42200 -5.40000 28.38600
C  19.33000 -5.33400 26.95700
C  18.59200 -4.03800 26.69200
C  20.04800 -6.46600 29.29000
C  19.78900 -6.30100 25.97400
O  19.71000 -6.12500 24.76600
C  20.64700 -7.48400 26.38500
N  17.00000 -1.53800 26.05500
C  17.57400 -2.27700 25.11100
C  17.54800 -1.68700 23.72900
C  16.58500 -0.55000 24.04900
C  16.39700 -0.52400 25.46200
C  18.95300 -1.18500 23.26000
C  15.22500 -0.67800 23.23200
C  14.98600 0.54500 22.22800
N  16.14200 -0.02500 28.35800
C  15.63700 0.75500 27.41400
C  14.88100 1.85400 28.00600
C  15.11400 1.69800 29.42000
C  15.99900 0.60500 29.58200
C  14.06800 2.85000 27.31700
C  14.90700 2.32900 30.72700
O  14.38000 3.31600 31.07500
C  15.55400 1.34600 31.75200
C  16.55500 2.11000 32.51900
O  17.66500 2.40400 32.21500
O  15.98200 2.52500 33.74100
C  16.82400 3.51300 34.42900
H  19.46800 -4.25900 31.05200
H  18.50600 -4.04100 24.50000
H  15.23700 1.24900 25.30000
H  18.26200 -0.35500 33.04900
H  18.23800 -3.26900 32.96600
H  20.33800 -1.33800 33.23100
H  20.71900 -2.38500 31.83700
H  20.28500 -3.20600 33.29700
H  16.21600 -2.53900 33.72900
H  15.64900 -0.85800 33.42100
H  16.40000 -1.75700 35.83100
H  15.93200 -0.14600 35.36700
H  19.87300 -6.33500 30.35800
H  21.13400 -6.53100 29.35800
H  19.69800 -7.47700 29.08300
H  19.97100 -8.19300 26.86200
H  21.47600 -7.28500 27.06300
H  21.18600 -8.08300 25.65000
H  17.26700 -2.45800 23.01200
H  17.04000 0.36800 23.67600
H  19.03200 -0.09900 23.32200
H  19.02100 -1.50900 22.22200
H  19.74900 -1.71600 23.78200
H  14.43500 -0.79400 23.97400
H  15.11100 -1.52100 22.55000
H  14.60700 0.16400 21.27900
H  15.88400 1.14300 22.07200
H  14.18700 1.16000 22.64100
H  13.13300 2.45600 26.91700
H  14.56700 3.32000 26.47000
H  13.75600 3.70100 27.92300
H  14.89400 1.01400 32.55400
H  17.03000 4.27300 33.67600
H  17.74600 3.06300 34.79700
H  16.28100 4.03800 35.21500
Mg 36.37300 49.74900 24.70000
C  36.22500 48.06700 27.77100
C  35.34900 52.65000 26.23000
C  35.97200 51.23400 21.58400
C  36.99600 46.67800 23.12700
N  35.76400 50.21400 26.71300
C  35.99000 49.42800 27.83400
C  35.74200 50.31700 29.15300
C  35.28000 51.72400 28.58300
C  35.47600 51.55000 27.09600
C  33.98600 52.22500 29.09800
C  37.09800 50.39300 29.95600
C  37.14900 50.51000 31.49300
H  35.93300 50.76600 32.31400
N  35.75300 51.70900 23.99000
C  35.48400 52.74300 24.81000
C  35.17600 53.91100 24.03300
C  35.39100 53.58900 22.65300
C  35.75100 52.11000 22.67700
C  34.74200 55.31700 24.60100
C  35.16900 54.32500 21.34000
O  35.28500 53.76400 20.22000
C  34.66600 55.76900 21.42800
N  36.51100 49.03000 22.66000
C  36.34600 49.87400 21.60700
C  36.77100 49.15200 20.29700
C  37.22300 47.75400 20.82500
C  36.79700 47.76900 22.25000
C  35.70500 49.09900 19.21700
C  38.79900 47.46400 20.69700
C  39.28400 46.04500 20.37900
N  36.60800 47.75800 25.24700
C  36.78300 46.61300 24.52100
C  36.90100 45.51300 25.39400
C  36.71600 45.96700 26.68300
C  36.50400 47.32800 26.57700
C  37.15700 44.11400 24.98100
C  36.60600 45.62700 28.09000
O  36.76900 44.56600 28.65900
C  36.28700 47.03200 28.83500
C  35.07200 46.90500 29.70900
O  33.96300 47.06600 29.35500
O  35.44700 46.41500 30.97300
C  34.32000 46.36400 31.94000
H  35.11700 53.56900 26.77400
H  35.75600 51.61300 20.58300
H  37.36200 45.71700 22.76000
H  34.95300 49.80800 29.70700
H  35.97300 52.50500 28.89200
H  33.80100 51.78500 30.07800
H  33.11700 52.23600 28.44000
H  34.25900 53.26200 29.29300
H  37.67900 51.22700 29.56300
H  37.66700 49.50200 29.69000
H  37.86600 51.30900 31.68000
H  37.68700 49.70400 31.99300
H  35.53800 56.04100 24.42700
H  34.43100 55.24200 25.64300
H  33.86400 55.60400 24.02200
H  35.36600 56.42500 21.94600
H  33.65000 55.78300 21.82200
H  34.58500 56.04900 20.37800
H  37.56600 49.71100 19.80200
H  36.70100 46.93600 20.32800
H  35.85900 49.87400 18.46700
H  34.70300 49.31300 19.58700
H  35.55700 48.11000 18.78500
H  39.32100 47.75400 21.60800
H  39.13800 48.26800 20.04200
H  39.99400 46.18000 19.56300
H  38.45600 45.42500 20.03400
H  39.70100 45.49300 21.22200
H  37.91100 43.98200 24.20400
H  36.20100 43.65900 24.72100
H  37.67200 43.67700 25.83600
H  37.06600 47.21800 29.57500
H  34.56700 46.04700 32.95300
H  33.51200 45.80500 31.46700
H  33.90500 47.36900 32.01900

