158

Mg 17.10200 -1.53000 27.89500
C  15.78900 0.65000 30.43600
C  18.76400 -3.18600 30.39600
C  18.63300 -3.19700 25.41100
C  15.85700 0.76700 25.50300
N  17.36800 -1.13400 30.15500
C  16.62700 -0.34500 30.96100
C  16.98500 -0.52800 32.39300
C  17.98900 -1.70300 32.33600
C  18.09000 -2.02100 30.87500
C  19.47700 -1.42900 32.99100
C  15.72400 -0.76000 33.30900
C  15.75800 -0.09200 34.69800
H  17.09900 0.34500 35.32900
N  18.38300 -2.98500 27.92000
C  18.86700 -3.70200 29.05700
C  19.50000 -4.92400 28.60000
C  19.54100 -4.94100 27.16300
C  18.78200 -3.71000 26.75900
C  20.05200 -6.08300 29.49600
C  20.11600 -5.93000 26.19900
O  19.84100 -5.90200 25.01400
C  21.03600 -6.92400 26.67300
N  17.27300 -1.23700 25.71500
C  18.04600 -2.02800 24.97800
C  18.21200 -1.49100 23.54800
C  17.19300 -0.26300 23.57500
C  16.65100 -0.28200 25.00700
C  19.65400 -1.11900 23.23200
C  16.01000 -0.30400 22.55700
C  15.71500 1.09500 21.92000
N  16.01400 0.25400 27.88600
C  15.53300 1.05800 26.83900
C  14.70800 2.14100 27.27700
C  14.77500 1.96800 28.68900
C  15.59000 0.87600 29.00100
C  13.78700 2.90700 26.37700
C  14.32800 2.56900 29.94000
O  13.58600 3.52700 30.20600
C  15.00400 1.75500 31.08500
C  16.01700 2.75100 31.57900
O  16.86600 3.34400 30.91300
O  15.74100 3.04100 32.87500
C  16.26900 4.29700 33.44400
H  19.43400 -3.70600 31.08300
H  19.16300 -3.75500 24.63600
H  15.49300 1.49600 24.77600
H  17.36300 0.41800 32.78000
H  17.60900 -2.63700 32.75000
H  20.29400 -1.24300 32.29300
H  19.55000 -2.28000 33.66700
H  19.48600 -0.51600 33.58600
H  15.59200 -1.83600 33.42100
H  14.84800 -0.38200 32.78300
H  15.30300 -0.77600 35.41400
H  15.17500 0.82600 34.62300
H  19.80100 -7.08300 29.14400
H  19.70200 -6.06000 30.52900
H  21.12200 -5.93700 29.64400
H  21.85800 -6.41900 27.18000
H  21.60100 -7.36500 25.85200
H  20.64000 -7.72000 27.30300
H  17.86400 -2.27500 22.87500
H  17.75000 0.65800 23.40000
H  19.88800 -0.05500 23.25100
H  19.94200 -1.59500 22.29400
H  20.34200 -1.57300 23.94500
H  15.07000 -0.64500 22.99000
H  16.24500 -0.86300 21.65100
H  14.69000 1.35900 22.18000
H  15.86900 1.11400 20.84100
H  16.23500 1.95200 22.35100
H  13.28300 2.30300 25.62300
H  14.34400 3.68100 25.84900
H  13.12800 3.40600 27.08700
H  14.24600 1.70600 31.86700
H  16.07000 5.14700 32.79100
H  17.34300 4.27500 33.62800
H  15.74700 4.54000 34.36900
Mg 48.87100 34.82400 26.52500
C  46.79700 33.23000 28.89200
C  48.97800 37.56100 28.52800
C  50.58000 36.42300 24.08700
C  48.16100 32.18000 24.23900
N  48.00600 35.21900 28.64100
C  47.24600 34.44100 29.39800
C  47.05700 35.11900 30.77600
C  47.41000 36.65300 30.39900
C  48.23100 36.47400 29.13600
C  46.24000 37.69500 30.35600
C  47.90100 34.41300 31.95800
C  48.58400 35.30000 33.04300
H  47.62900 36.09100 34.03300
N  49.65900 36.67900 26.35600
C  49.66100 37.68400 27.30400
C  50.44200 38.85100 26.78600
C  51.03700 38.44200 25.55900
C  50.47500 37.09700 25.31000
C  50.47700 40.25200 27.39500
C  52.06800 39.12800 24.61800
O  52.44400 38.70000 23.51400
C  52.63700 40.42500 25.10800
N  49.02100 34.52900 24.39300
C  49.92400 35.27200 23.63700
C  50.14100 34.78100 22.18000
C  49.55900 33.30400 22.37900
C  48.91600 33.27900 23.76000
C  49.46800 35.63700 21.00300
C  50.50200 32.14600 22.06400
C  50.46100 31.67200 20.61600
N  47.71700 33.02600 26.61400
C  47.53400 32.11800 25.55000
C  46.56500 31.14300 26.05200
C  46.21700 31.55400 27.36400
C  46.99500 32.66200 27.64200
C  46.12100 29.96100 25.32500
C  45.38700 31.20400 28.53200
O  44.53600 30.32700 28.72200
C  45.69900 32.31900 29.54700
C  46.15200 31.63000 30.82300
O  47.28200 31.19500 31.04200
O  45.14200 31.72100 31.72600
C  45.41400 31.58200 33.19200
H  48.94100 38.44100 29.17300
H  51.03900 36.92300 23.23100
H  48.05200 31.23900 23.69500
H  46.00100 35.00800 31.02100
H  48.06700 37.03300 31.18100
H  46.60200 38.66200 30.70500
H  45.30000 37.50500 30.87500
H  46.06100 37.96200 29.31400
H  48.77900 33.95700 31.49900
H  47.31100 33.65400 32.47200
H  49.28200 35.94000 32.50300
H  49.28500 34.75100 33.67100
H  49.70700 40.32300 28.16400
H  50.25500 41.03100 26.66600
H  51.50100 40.48000 27.68900
H  53.30100 40.68200 24.28300
H  53.22800 40.18600 25.99200
H  51.86100 41.18900 25.15900
H  51.21100 34.74400 21.97200
H  48.77700 33.34600 21.62100
H  49.97800 36.59700 21.08500
H  48.40900 35.84600 21.15500
H  49.65700 35.05200 20.10200
H  50.23800 31.37300 22.78600
H  51.50600 32.53100 22.24200
H  50.08900 30.64800 20.62500
H  51.43000 31.67300 20.11700
H  49.74300 32.20100 19.98900
H  46.05600 30.20100 24.26400
H  45.10400 29.71200 25.62800
H  46.82000 29.15500 25.55200
H  44.77900 32.90200 29.59600
H  46.38900 31.14200 33.39900
H  44.69600 30.91000 33.66300
H  45.42300 32.48400 33.80400

