158

Mg 17.32900 -1.20200 27.54800
C  16.21000 0.87400 30.04800
C  19.75100 -2.39000 29.72200
C  18.62000 -2.91700 25.00800
C  15.23500 0.56400 25.32000
N  18.00200 -0.74800 29.58700
C  17.21100 0.05000 30.47400
C  17.70000 -0.07000 31.96600
C  18.96200 -0.93900 31.83300
C  18.88300 -1.42600 30.29200
C  20.29800 -0.33300 32.23100
C  16.63100 -0.85100 32.85200
C  16.52000 -0.48300 34.35100
H  17.75300 0.06200 35.09200
N  18.81600 -2.66000 27.49100
C  19.76400 -2.95300 28.44000
C  20.52000 -4.09200 27.99700
C  20.31600 -4.10200 26.55800
C  19.16800 -3.18800 26.32900
C  21.59600 -4.86400 28.90100
C  21.06300 -4.94200 25.46700
O  20.80000 -4.84400 24.29000
C  22.10200 -5.97000 25.95600
N  16.97400 -1.20900 25.41100
C  17.63600 -1.99000 24.54000
C  17.31500 -1.68500 23.12200
C  16.13100 -0.66800 23.23900
C  16.08100 -0.41100 24.76500
C  18.52600 -1.07000 22.39600
C  14.82000 -1.09300 22.56100
C  13.79200 -1.84200 23.46000
N  15.94900 0.37900 27.58200
C  15.13100 0.99100 26.65800
C  14.31500 2.00000 27.27400
C  14.69000 1.91200 28.60800
C  15.63600 0.94400 28.75500
C  13.34100 2.91800 26.60200
C  14.39400 2.49600 29.86700
O  13.71200 3.50700 30.11600
C  15.39700 1.85500 30.91900
C  16.26000 2.90400 31.52400
O  17.40800 3.13200 31.38700
O  15.52800 3.53500 32.46900
C  16.20300 4.54300 33.32400
H  20.58400 -2.62100 30.39000
H  19.07400 -3.33200 24.10600
H  14.51000 0.95200 24.60100
H  17.88700 0.94300 32.32300
H  18.95100 -1.94200 32.26000
H  20.43800 -0.61900 33.27300
H  20.34200 0.75600 32.26200
H  21.11000 -0.71600 31.61200
H  16.85400 -1.91600 32.78600
H  15.67500 -0.73400 32.34300
H  16.18700 -1.33100 34.94900
H  15.67700 0.20500 34.40200
H  22.63200 -4.92800 28.57000
H  21.18400 -5.86700 29.01500
H  21.43900 -4.52000 29.92300
H  21.82600 -6.37900 26.92800
H  23.05100 -5.44000 26.02400
H  22.17300 -6.86500 25.33700
H  16.94700 -2.56400 22.59200
H  16.27700 0.30800 22.77700
H  19.26600 -0.73100 23.12200
H  18.24400 -0.21100 21.78800
H  19.04500 -1.82700 21.80900
H  15.15900 -1.70700 21.72700
H  14.42800 -0.16000 22.15700
H  12.77500 -1.45000 23.46000
H  14.12600 -1.96500 24.49100
H  13.69500 -2.90600 23.24500
H  13.02600 2.54400 25.62800
H  13.79300 3.89800 26.44900
H  12.53900 3.03800 27.33000
H  14.82900 1.31600 31.67800
H  16.70000 5.29500 32.71000
H  16.90400 3.99600 33.95500
H  15.45800 4.98800 33.98400
Mg -11.18200 16.42300 41.27800
C  -7.86300 15.26800 41.03200
C  -10.35100 19.35600 39.92400
C  -14.42100 17.04400 40.98200
C  -12.13900 13.04800 42.13100
N  -9.26200 17.16500 40.58900
C  -8.00900 16.56400 40.53200
C  -6.96800 17.58200 40.09600
C  -7.82600 18.91400 39.95100
C  -9.23800 18.44900 40.07800
C  -7.47600 19.90700 41.15600
C  -6.28500 17.15900 38.71500
C  -4.74100 16.92600 38.64300
H  -4.23200 16.70200 37.17200
N  -12.27300 18.01100 40.69000
C  -11.73900 19.16500 40.16200
C  -12.77400 20.13100 39.94600
C  -13.95000 19.57500 40.34300
C  -13.61200 18.15200 40.77700
C  -12.51100 21.53400 39.52900
C  -15.34000 20.26900 40.51600
O  -15.57200 21.28400 39.87500
C  -16.40400 19.70400 41.25300
N  -13.02000 15.20400 41.28700
C  -14.22300 15.74900 41.13900
C  -15.38100 14.71300 41.09900
C  -14.71800 13.43300 41.70300
C  -13.15800 13.87200 41.57800
C  -16.71600 15.22600 41.80800
C  -15.09600 12.06600 41.28000
C  -15.41100 11.00500 42.44000
N  -10.27500 14.54300 41.61100
C  -10.77100 13.31800 42.00200
C  -9.61900 12.41400 42.20500
C  -8.47400 13.12500 41.88000
C  -8.90900 14.39900 41.45000
C  -9.65400 11.02300 42.68000
C  -7.02900 13.10100 41.75900
O  -6.20900 12.18500 41.93800
C  -6.54500 14.48700 41.18000
C  -5.54700 15.17300 42.07200
O  -5.77400 16.00000 42.97000
O  -4.26200 14.80700 41.78700
C  -3.25700 15.48700 42.66900
H  -9.93800 20.35400 39.76300
H  -15.49500 17.20100 40.86400
H  -12.44500 12.03400 42.39700
H  -6.15600 17.58700 40.82200
H  -7.66400 19.44600 39.01400
H  -6.79700 20.68800 40.81400
H  -6.82300 19.40000 41.86600
H  -8.38700 20.19300 41.68200
H  -6.58300 17.87700 37.95000
H  -6.69200 16.18100 38.46000
H  -4.52700 16.06600 39.27700
H  -4.32500 17.78900 39.16500
H  -12.99100 21.70000 38.56500
H  -11.47300 21.86600 39.51500
H  -13.09100 22.20800 40.16000
H  -17.34200 20.25500 41.31800
H  -16.12100 19.34700 42.24300
H  -16.57400 18.78300 40.69500
H  -15.58800 14.59400 40.03500
H  -14.88600 13.43400 42.78000
H  -16.58000 16.14700 42.37500
H  -16.69400 14.48400 42.60600
H  -17.65600 15.11100 41.26800
H  -14.46200 11.64600 40.49900
H  -16.04100 12.13300 40.74300
H  -14.78700 11.10300 43.32800
H  -15.36200 9.96300 42.12400
H  -16.47000 11.11900 42.66700
H  -8.77300 10.88300 43.30600
H  -9.63400 10.24300 41.91900
H  -10.60100 10.89000 43.20300
H  -6.06900 14.39500 40.20300
H  -2.38100 15.71300 42.06000
H  -3.07000 14.83200 43.52000
H  -3.58400 16.47000 43.00700

