158

Mg 15.71800 -2.10700 27.34000
C  15.08800 -0.05800 30.05600
C  17.88600 -3.95700 29.34600
C  16.88400 -3.76800 24.63700
C  14.07200 0.12200 25.16100
N  16.57200 -1.93300 29.41200
C  15.93500 -1.11800 30.41900
C  16.41000 -1.55800 31.81400
C  17.50600 -2.66200 31.47600
C  17.40700 -2.85200 29.93200
C  19.04400 -2.34400 31.86400
C  15.23500 -1.92200 32.74900
C  15.29300 -1.19100 34.10300
H  16.52800 -0.37500 34.47300
N  16.97800 -3.68900 27.04900
C  17.78400 -4.32700 27.98700
C  18.21100 -5.61800 27.48600
C  18.02300 -5.58000 26.07700
C  17.26700 -4.31500 25.85000
C  18.87900 -6.69200 28.36400
C  18.35900 -6.52600 25.00300
O  18.04600 -6.40700 23.79500
C  19.17100 -7.76300 25.38000
N  15.58300 -1.71700 25.13200
C  16.20700 -2.58700 24.28300
C  15.83800 -2.20900 22.85600
C  14.63200 -1.25900 22.98100
C  14.77800 -0.88200 24.48700
C  16.96500 -1.60000 22.06000
C  13.22000 -1.84600 22.69700
C  12.62100 -1.71500 21.25000
N  14.75300 -0.36800 27.48700
C  14.03200 0.36900 26.55300
C  13.42500 1.51100 27.20200
C  13.68100 1.29700 28.61700
C  14.56900 0.20300 28.70000
C  12.56900 2.60600 26.55800
C  13.46400 1.82000 29.90500
O  12.76400 2.83400 30.23600
C  14.35700 0.94300 30.93200
C  15.31400 1.78800 31.68000
O  16.54900 1.87500 31.52100
O  14.61800 2.69300 32.41700
C  15.40100 3.66600 33.18700
H  18.52200 -4.56700 29.99100
H  16.99300 -4.43900 23.78300
H  13.40300 0.71000 24.53000
H  16.88200 -0.63800 32.15800
H  17.19800 -3.56100 32.01100
H  19.41400 -3.00200 32.65000
H  19.01300 -1.31600 32.22400
H  19.58600 -2.34900 30.91800
H  15.28800 -2.96500 33.06100
H  14.30300 -1.61500 32.27500
H  15.32500 -1.97200 34.86300
H  14.40600 -0.62900 34.39500
H  18.67400 -7.72100 28.06800
H  18.71700 -6.66200 29.44200
H  19.94700 -6.58900 28.17600
H  19.63700 -8.04300 24.43500
H  18.60900 -8.60700 25.78000
H  19.96500 -7.35200 26.00200
H  15.46100 -3.11800 22.38700
H  14.88600 -0.42000 22.33400
H  16.57500 -1.05400 21.20000
H  17.61000 -2.44700 21.82500
H  17.54700 -0.81900 22.54800
H  12.48700 -1.50100 23.42500
H  13.22600 -2.92200 22.87100
H  11.61600 -1.29500 21.28400
H  12.47200 -2.70400 20.81700
H  13.24300 -1.04800 20.65200
H  12.97800 3.11400 25.68500
H  12.42400 3.42000 27.26900
H  11.68900 2.02600 26.27900
H  13.63900 0.52800 31.63900
H  16.22400 4.12900 32.64200
H  15.78900 3.22400 34.10500
H  14.69600 4.46500 33.41700
Mg -2.00500 33.50300 27.37400
C  -3.74800 31.49800 29.48000
C  -0.79400 35.29300 30.15900
C  -0.29800 35.77300 25.34500
C  -3.32900 32.16500 24.63700
N  -2.45000 33.56600 29.59600
C  -3.09800 32.54600 30.20000
C  -2.93400 32.65800 31.75200
C  -1.83500 33.72200 31.98600
C  -1.76300 34.32800 30.54600
C  -2.18000 35.02000 32.87900
C  -2.64900 31.27800 32.50900
C  -3.41000 30.96200 33.75500
H  -2.58300 30.76100 35.02500
N  -0.78400 35.34700 27.75600
C  -0.37300 35.84500 28.91500
C  0.52800 36.93400 28.70600
C  0.74600 37.10400 27.30700
C  -0.12400 36.07900 26.73100
C  1.05700 37.83400 29.82500
C  1.70400 38.13300 26.60700
O  1.84000 38.14700 25.41000
C  2.56300 39.01800 27.37400
N  -1.93500 33.99800 25.34000
C  -1.16300 34.89200 24.69900
C  -1.16600 34.77800 23.16100
C  -1.97000 33.42600 22.96100
C  -2.44700 33.21000 24.39200
C  -1.83700 35.96000 22.47700
C  -1.11800 32.24400 22.43200
C  -1.46100 31.77800 21.05300
N  -3.39600 32.15500 27.07100
C  -3.81400 31.60100 25.89900
C  -4.78700 30.55900 26.15900
C  -4.78700 30.40500 27.58300
C  -3.90000 31.40500 28.09500
C  -5.44200 29.76300 25.13700
C  -5.26300 29.68400 28.70600
O  -6.05200 28.71100 28.70500
C  -4.66400 30.35200 29.94400
C  -5.74800 30.78300 30.90700
O  -6.51400 31.79200 30.87500
O  -5.81100 29.73000 31.81200
C  -6.94300 29.62400 32.73200
H  -0.26700 35.70100 31.02300
H  0.17200 36.51500 24.69600
H  -3.51800 31.52900 23.76900
H  -3.87500 33.07000 32.11800
H  -0.94500 33.23200 32.37800
H  -2.61200 35.83700 32.30200
H  -1.29100 35.37700 33.39700
H  -2.84000 34.60400 33.64100
H  -1.57700 31.24700 32.69900
H  -2.79200 30.45300 31.81100
H  -3.86700 30.00100 33.51600
H  -4.32400 31.55300 33.81700
H  2.09800 37.58100 30.02800
H  0.42900 37.55400 30.67100
H  1.03500 38.89900 29.59200
H  2.04100 39.74900 27.99100
H  3.21000 39.51000 26.64700
H  3.21100 38.35800 27.95000
H  -0.12600 34.68700 22.84800
H  -2.89800 33.68000 22.44800
H  -2.59100 36.32700 23.17400
H  -2.44600 35.73500 21.60200
H  -1.09000 36.73200 22.29000
H  -1.13200 31.41000 23.13400
H  -0.09300 32.61100 22.37600
H  -1.87800 30.77900 20.93400
H  -0.55600 31.74600 20.44600
H  -2.11500 32.47500 20.52900
H  -6.29700 30.34900 24.79700
H  -5.76600 28.79100 25.50800
H  -4.72600 29.64700 24.32300
H  -4.03200 29.59600 30.41100
H  -6.50200 29.65000 33.72800
H  -7.40100 28.63800 32.65900
H  -7.71500 30.38200 32.59400

