158

Mg 40.81000 8.82700 29.83900
C  42.77900 9.89300 32.61400
C  38.72100 7.48000 31.96400
C  39.00300 7.88100 27.23800
C  43.22200 10.23900 27.67000
N  40.73700 8.80300 32.08500
C  41.60200 9.27300 33.01900
C  41.09500 9.01900 34.49000
C  39.74800 8.34000 34.23800
C  39.74900 8.10200 32.65900
C  39.50400 7.14600 35.01300
C  40.96000 10.36000 35.29000
C  40.03400 10.28100 36.58800
H  40.37600 11.13900 37.76800
N  39.12800 7.78100 29.63400
C  38.41200 7.27000 30.64900
C  37.26600 6.47200 30.23900
C  37.10200 6.84000 28.87700
C  38.46300 7.53700 28.50200
C  36.35600 5.68200 31.19300
C  36.00100 6.67200 27.87800
O  36.05800 7.24100 26.77800
C  34.76500 5.95400 28.25300
N  40.96700 9.21900 27.76000
C  40.16300 8.61400 26.86400
C  40.63800 8.80800 25.42200
C  41.91300 9.64500 25.63400
C  42.03500 9.73300 27.09600
C  40.91400 7.41900 24.66400
C  41.99000 11.05600 25.01100
C  41.47000 12.26800 25.76800
N  42.66200 9.80300 30.05900
C  43.50900 10.28200 29.08300
C  44.68500 10.88200 29.76900
C  44.43300 10.68300 31.16000
C  43.16600 10.12700 31.24300
C  45.87600 11.48300 29.05000
C  45.05300 10.85000 32.49100
O  46.17100 11.19500 32.78600
C  43.89800 10.47100 33.46400
C  44.47900 9.48900 34.39400
O  45.02900 8.46400 34.10000
O  44.39400 9.88500 35.68500
C  44.79700 8.98300 36.73600
H  37.96600 7.06100 32.63300
H  38.53900 7.45200 26.34800
H  44.00500 10.54200 26.97200
H  41.64400 8.25200 35.03700
H  38.96400 9.07800 34.40500
H  39.57500 6.27300 34.36500
H  38.49200 7.17100 35.41700
H  40.22500 6.88400 35.78800
H  40.48000 11.03000 34.57700
H  41.91400 10.76500 35.62700
H  39.93400 9.32200 37.09600
H  39.08800 10.48200 36.08400
H  35.69300 6.46100 31.56900
H  37.01800 5.24300 31.93900
H  35.75400 4.89800 30.73200
H  35.01000 4.98200 28.67900
H  34.20700 5.98600 27.31700
H  34.14100 6.45400 28.99300
H  39.86500 9.34800 24.87400
H  42.73700 8.99900 25.33100
H  41.67000 6.93200 25.28000
H  41.19900 7.61300 23.63000
H  40.06100 6.74100 24.69500
H  41.40300 11.05000 24.09300
H  43.06800 11.15400 24.88600
H  40.95300 12.03900 26.70000
H  40.79200 12.78400 25.08800
H  42.34100 12.89900 25.94700
H  46.73400 10.81600 28.96800
H  46.02000 12.33900 29.71000
H  45.56400 11.91600 28.09900
H  43.56400 11.36200 33.99600
H  45.33200 8.05300 36.54500
H  43.91900 8.74900 37.33800
H  45.42200 9.51300 37.45500
Mg 49.25700 45.79400 42.01000
C  45.85300 46.52200 41.12100
C  48.88200 42.79200 40.55000
C  52.59900 45.46400 42.21500
C  49.61600 49.23700 42.98100
N  47.60300 44.85200 40.92700
C  46.28500 45.27000 40.74200
C  45.40600 44.13900 40.10800
C  46.39000 42.96300 40.06000
C  47.72200 43.57000 40.55300
C  46.03100 41.69300 40.78100
C  45.00900 44.53900 38.62700
C  43.48000 44.28500 38.19800
H  43.23500 43.27100 37.16300
N  50.55300 44.30000 41.55200
C  50.15400 43.08100 41.01500
C  51.27900 42.20200 40.88800
C  52.46900 42.93300 41.33300
C  51.91200 44.31400 41.76600
C  51.16700 40.68700 40.49700
C  53.92700 42.45400 41.40900
O  54.14100 41.32400 41.03200
C  55.05900 43.36200 41.71000
N  50.88500 47.15300 42.44100
C  52.13700 46.74100 42.50200
C  53.04000 47.85200 42.99600
C  52.09900 49.05400 43.25100
C  50.76200 48.49600 42.76900
C  53.97400 47.39100 44.14700
C  52.49100 50.46500 42.61500
C  53.33400 51.35900 43.53800
N  48.03000 47.58000 42.08400
C  48.27000 48.87300 42.61500
C  47.00500 49.58800 42.51600
C  46.02400 48.63100 42.11900
C  46.71800 47.53500 41.69600
C  46.78300 51.01200 43.09000
C  44.59800 48.43600 42.04400
O  43.62700 49.12400 42.34300
C  44.39400 47.07900 41.23500
C  43.37600 46.25300 41.84100
O  42.24200 46.02600 41.33900
O  43.73200 45.67700 43.02100
C  42.91100 44.56200 43.45500
H  48.63500 41.78400 40.21100
H  53.68700 45.42800 42.30700
H  49.51900 50.21800 43.45100
H  44.43000 44.06700 40.58800
H  46.51400 42.66000 39.02000
H  46.37700 41.56200 41.80600
H  46.39500 40.88700 40.14300
H  44.95000 41.55800 40.80100
H  45.75900 44.21100 37.90700
H  45.06100 45.61500 38.46100
H  43.12800 45.20700 37.73400
H  42.80100 44.14600 39.03900
H  50.99600 40.47300 39.44100
H  50.43400 40.22700 41.15900
H  52.09800 40.17800 40.74500
H  55.00300 43.67100 42.75300
H  55.11900 44.30300 41.16300
H  55.99000 42.83600 41.50000
H  53.69900 48.11700 42.16900
H  52.09900 49.15700 44.33600
H  54.07800 48.17500 44.89600
H  54.94000 47.05300 43.77200
H  53.48300 46.47800 44.48300
H  51.57800 50.95000 42.27000
H  53.14300 50.39400 41.74400
H  54.35100 51.55800 43.20000
H  53.36000 50.94000 44.54400
H  52.80800 52.30900 43.63600
H  47.31000 51.03100 44.04400
H  45.75100 51.26300 43.33500
H  47.20100 51.78300 42.44300
H  44.18300 47.34500 40.19900
H  42.85600 43.84900 42.63200
H  41.91900 44.91000 43.74400
H  43.37800 44.22400 44.38000

