158

Mg 3.21600 0.07900 44.43700
C  6.09100 1.85200 44.00600
C  1.44100 2.84900 43.22000
C  0.43000 -1.89600 44.11400
C  5.10100 -2.70900 45.29800
N  3.79500 2.10700 43.56400
C  4.99500 2.61200 43.52900
C  5.06400 3.98900 42.84400
C  3.54600 4.40700 42.99700
C  2.85100 3.04000 43.27600
C  3.27900 5.44000 44.00600
C  5.64500 4.00800 41.42400
C  5.51700 2.80000 40.44800
H  5.93700 3.14400 38.94500
N  1.16500 0.39600 43.77900
C  0.64100 1.69600 43.49700
C  -0.80600 1.56900 43.35800
C  -1.10300 0.25900 43.61900
C  0.18500 -0.50600 43.90300
C  -1.70900 2.76900 42.92100
C  -2.56700 -0.39200 43.77600
O  -3.50000 0.35600 43.64800
C  -2.85400 -1.86500 44.09900
N  2.89400 -1.99800 44.40600
C  1.64700 -2.59200 44.30200
C  1.71600 -4.13500 44.69600
C  3.24800 -4.38400 45.00100
C  3.75800 -2.94100 44.98500
C  0.70500 -4.60900 45.69500
C  3.91400 -5.36900 43.98900
C  4.87300 -6.21400 44.76600
N  5.16700 -0.32900 44.87500
C  5.76300 -1.48300 45.34400
C  7.18000 -1.23100 45.52400
C  7.33200 0.12500 45.10000
C  6.08900 0.57100 44.60900
C  8.20700 -2.22100 45.96900
C  8.26300 1.20000 44.87300
O  9.47100 1.17600 45.10700
C  7.50400 2.36000 44.13800
C  7.70800 3.64300 44.87000
O  8.68600 4.36300 44.84100
O  6.60700 3.91400 45.60600
C  6.79100 5.14000 46.45700
H  0.95000 3.76100 42.87600
H  -0.38100 -2.59400 43.89600
H  5.70700 -3.56600 45.59900
H  5.76900 4.67700 43.31000
H  3.15500 4.69700 42.02100
H  4.06600 5.77300 44.68300
H  2.42900 5.15800 44.62700
H  3.02400 6.32200 43.41900
H  6.68200 4.33100 41.51600
H  5.21000 4.89200 40.95700
H  4.49600 2.42300 40.38700
H  6.08300 1.93000 40.78100
H  -2.61200 2.38100 42.45000
H  -1.38400 3.35700 42.06300
H  -2.01000 3.36500 43.78200
H  -3.91100 -2.11200 44.00100
H  -2.69800 -2.15300 45.13800
H  -2.31100 -2.58300 43.48500
H  1.41700 -4.56300 43.73900
H  3.41900 -4.73000 46.02000
H  -0.01000 -5.28600 45.22600
H  0.17100 -3.76000 46.12200
H  1.21800 -5.15600 46.48500
H  4.49100 -4.87500 43.20700
H  3.19100 -6.04700 43.53600
H  4.96000 -6.04300 45.83900
H  5.85400 -5.99400 44.34600
H  4.58600 -7.23500 44.51400
H  9.20300 -1.81200 45.79900
H  8.08500 -3.16900 45.44400
H  7.93800 -2.42500 47.00600
H  7.99900 2.40900 43.16800
H  6.07800 5.21800 47.27800
H  6.84700 6.06800 45.88700
H  7.73100 4.97700 46.98300
Mg 46.94600 24.97500 29.18300
C  47.72100 27.39000 31.65800
C  46.03400 22.80000 31.58900
C  46.81100 22.65300 26.79000
C  48.22200 27.27700 26.93700
N  46.83600 25.10000 31.38300
C  47.23200 26.18200 32.21400
C  46.80600 25.88200 33.69500
C  46.36900 24.37600 33.67300
C  46.34800 24.03800 32.12300
C  47.09800 23.29900 34.46100
C  45.67900 26.88600 34.22400
C  46.10100 27.74400 35.38900
H  45.06400 27.87200 36.53300
N  46.35700 23.01400 29.19300
C  46.00900 22.25500 30.26900
C  45.56000 20.96600 29.89900
C  45.79800 20.90900 28.49900
C  46.27900 22.21800 28.04400
C  44.93600 19.93900 30.94300
C  45.48000 19.79700 27.49300
O  45.69400 19.94700 26.28600
C  44.91300 18.53300 27.88500
N  47.46300 24.99400 27.11800
C  47.32600 23.90400 26.40600
C  47.72500 24.13600 24.85600
C  47.81800 25.74300 24.96800
C  47.83500 26.04800 26.40200
C  49.09600 23.39000 24.49100
C  46.61400 26.41400 24.27100
C  45.27500 26.17800 24.92900
N  47.75300 26.97900 29.23100
C  48.32400 27.71400 28.23900
C  48.86700 28.96800 28.74400
C  48.59100 28.86900 30.12400
C  47.94200 27.68600 30.33900
C  49.64600 30.05900 27.96500
C  48.70400 29.54200 31.43000
O  49.13600 30.63900 31.74700
C  48.18400 28.59500 32.49300
C  49.31900 28.30100 33.39200
O  50.23900 27.52600 33.13400
O  49.02100 28.90100 34.63400
C  50.05500 28.62200 35.68300
H  45.49600 22.22500 32.34600
H  46.89000 21.83200 26.07300
H  48.73400 27.88700 26.19000
H  47.69700 25.84600 34.32300
H  45.33500 24.23100 33.98700
H  46.56500 23.17500 35.40400
H  48.09400 23.67900 34.69100
H  47.00800 22.33100 33.96900
H  44.77900 26.32700 34.48500
H  45.41900 27.65500 33.49700
H  46.19000 28.77300 35.04100
H  47.06100 27.42000 35.79100
H  45.13000 18.90100 30.67400
H  43.87300 20.06900 31.14500
H  45.29600 20.12800 31.95500
H  45.74700 17.88600 28.15700
H  44.43500 17.98800 27.07100
H  44.15600 18.59000 28.66700
H  46.97800 23.84900 24.11500
H  48.77100 26.07400 24.55600
H  49.55400 23.05000 25.42000
H  49.86700 24.04500 24.08700
H  48.87500 22.56800 23.81000
H  46.59000 26.00100 23.26300
H  46.74200 27.49300 24.18800
H  44.47600 26.10900 24.19100
H  45.11000 27.03400 25.58400
H  45.26500 25.18800 25.38600
H  50.52000 30.35400 28.54600
H  48.93200 30.87800 27.88400
H  50.00400 29.79800 26.96900
H  47.39800 29.14900 33.00700
H  50.01700 29.43700 36.40700
H  51.07900 28.58800 35.31100
H  49.79500 27.73200 36.25600

