158

Mg 25.63300 0.05700 28.85600
C  27.37000 0.24100 31.83200
C  22.78300 0.28600 30.58600
C  24.09900 0.14600 25.81600
C  28.63900 -0.67000 27.29400
N  25.21100 0.24200 31.03400
C  26.02000 0.41200 32.02900
C  25.25700 0.66300 33.34200
C  23.78800 0.64000 32.91100
C  23.92400 0.36000 31.44100
C  22.92300 -0.42600 33.56300
C  25.69100 1.92900 34.13500
C  26.22500 1.71800 35.55200
H  25.39500 2.39700 36.64400
N  23.74600 0.15300 28.28900
C  22.70500 0.20000 29.17600
C  21.45300 0.21500 28.36400
C  21.84300 0.26300 26.99400
C  23.33200 0.20000 26.98200
C  20.09200 0.23800 29.01000
C  20.95400 0.47700 25.76500
O  21.36400 0.43600 24.62000
C  19.45100 0.87500 25.90400
N  26.31500 -0.13300 26.76300
C  25.47600 -0.06100 25.71200
C  26.24700 -0.02900 24.41800
C  27.64400 -0.49200 24.85400
C  27.54000 -0.49700 26.40000
C  25.53900 -0.95400 23.37800
C  28.80900 0.37800 24.31500
C  28.69500 1.87600 24.43200
N  27.54300 -0.29600 29.41000
C  28.68500 -0.63400 28.68500
C  29.82300 -0.87800 29.54600
C  29.30500 -0.49600 30.78700
C  27.95200 -0.11900 30.62600
C  31.07500 -1.48700 29.08400
C  29.75900 -0.42900 32.17600
O  30.83500 -0.73800 32.61100
C  28.44100 0.09700 32.90200
C  28.11900 -1.05400 33.83000
O  27.65100 -2.15000 33.44400
O  28.49700 -0.71500 35.06700
C  28.58900 -1.82700 36.07800
H  21.80400 0.53900 31.00000
H  23.70600 0.35300 24.81800
H  29.58300 -0.88400 26.78900
H  25.36500 -0.27400 33.88800
H  23.41700 1.65500 33.05400
H  23.01800 -0.25000 34.63500
H  23.27000 -1.44600 33.39800
H  21.84900 -0.43700 33.37700
H  24.94500 2.72400 34.13900
H  26.50100 2.40900 33.58600
H  27.22800 2.14100 35.61700
H  26.45100 0.67400 35.77300
H  19.60000 1.16000 28.70100
H  20.02800 0.20600 30.09700
H  19.50300 -0.60400 28.64600
H  18.96800 0.01700 26.37100
H  19.11500 1.16700 24.90900
H  19.36500 1.72100 26.58700
H  26.23300 0.98100 24.00800
H  27.86800 -1.54900 24.71500
H  25.25300 -1.84500 23.93700
H  26.18100 -1.33100 22.58100
H  24.71600 -0.48200 22.84100
H  28.91000 -0.02300 23.30700
H  29.59900 0.06200 24.99600
H  27.84200 2.28100 24.97600
H  28.76100 2.41800 23.48900
H  29.62400 2.18200 24.91300
H  31.82700 -1.38100 29.86600
H  31.45200 -1.01300 28.17800
H  30.76000 -2.52100 28.94200
H  28.59000 0.97700 33.52800
H  28.50400 -2.83900 35.68000
H  27.76900 -1.55800 36.74300
H  29.44400 -1.86100 36.75300
Mg 7.00500 53.13500 41.10200
C  6.44700 49.67300 40.43900
C  10.22700 52.63400 40.28200
C  7.28200 56.48000 40.77200
C  3.54100 53.45600 41.62400
N  8.11400 51.30500 40.38900
C  7.73100 50.05600 40.11600
C  8.96100 49.25100 39.86000
C  10.16100 50.14900 40.41300
C  9.47500 51.44600 40.39500
C  10.86300 49.70600 41.78000
C  9.07800 48.71100 38.42500
C  8.86700 49.69800 37.26100
H  7.59700 49.61600 36.47500
N  8.63900 54.48300 40.58900
C  9.88900 54.05600 40.30700
C  10.78700 55.18600 40.05100
C  9.92400 56.37900 40.30000
C  8.58900 55.85000 40.62200
C  12.20300 55.13500 39.57400
C  10.35700 57.87900 40.22200
O  11.48600 58.06400 39.80400
C  9.41800 59.03000 40.51400
N  5.56600 54.72100 41.03000
C  5.99400 55.99500 41.07400
C  4.84900 57.02900 41.30900
C  3.64200 56.06000 41.36300
C  4.27300 54.66700 41.35000
C  5.01700 57.96700 42.48100
C  2.69700 56.25900 40.16500
C  1.39000 56.95900 40.55000
N  5.32100 51.90700 41.21000
C  4.00400 52.15200 41.50400
C  3.23200 50.92100 41.49300
C  4.20100 49.88800 41.19100
C  5.41600 50.58600 40.92700
C  1.87500 50.77800 41.87800
C  4.42200 48.49400 41.01600
O  3.65900 47.62100 41.25800
C  5.82700 48.33900 40.52700
C  5.79000 47.73900 39.27100
O  5.10500 48.07600 38.25800
O  6.53400 46.65900 39.34600
C  6.55900 45.86000 38.11600
H  11.28300 52.48800 40.04700
H  7.42000 57.56200 40.83100
H  2.48700 53.48100 41.91100
H  8.88300 48.38900 40.52200
H  10.95500 50.14400 39.66600
H  10.64400 48.70000 42.13800
H  10.57800 50.46100 42.51400
H  11.94100 49.70800 41.61800
H  8.36000 47.91400 38.23300
H  10.12400 48.40400 38.38900
H  9.71800 49.61800 36.58400
H  8.95300 50.73600 37.58200
H  12.47000 55.62900 38.63900
H  12.56600 54.10700 39.54900
H  12.76600 55.59000 40.38800
H  9.11400 58.89800 41.55200
H  8.65900 58.89300 39.74400
H  9.94300 59.96000 40.29700
H  4.83600 57.69500 40.44600
H  3.02000 56.19800 42.24800
H  4.06300 58.14100 42.97800
H  5.34100 58.92300 42.06900
H  5.80000 57.60900 43.14900
H  2.33700 55.32000 39.74500
H  3.17700 56.73700 39.31100
H  1.48200 57.37700 41.55200
H  0.49300 56.33900 40.57500
H  1.29800 57.76700 39.82500
H  1.38500 51.74100 42.02100
H  1.89100 50.33000 42.87200
H  1.28700 50.20400 41.16200
H  6.38900 47.73500 41.24000
H  7.30900 45.07300 38.18900
H  6.74500 46.50900 37.26100
H  5.55300 45.55200 37.83000

