158

Mg 8.33200 3.10200 27.67200
C  9.48700 1.52300 30.65000
C  6.18600 4.87100 29.69300
C  6.98500 4.45300 24.92000
C  10.00000 0.82400 25.88500
N  7.91100 3.16600 29.90200
C  8.55700 2.57200 30.89700
C  8.05700 3.01500 32.32800
C  6.91600 4.03000 31.94200
C  6.96600 3.98400 30.38400
C  5.46300 3.64600 32.56400
C  9.14800 3.48600 33.26500
C  8.77800 4.59500 34.18100
H  9.64800 4.67700 35.46000
N  6.76300 4.52800 27.32300
C  6.12600 5.26800 28.29200
C  5.21800 6.19300 27.63000
C  5.33200 5.98100 26.23000
C  6.39400 4.99300 26.10600
C  4.22800 7.02500 28.42200
C  4.58100 6.62000 25.14600
O  4.89700 6.41600 24.00000
C  3.62000 7.70300 25.41000
N  8.47200 2.72100 25.64900
C  7.85500 3.42900 24.70800
C  8.28800 3.02600 23.32600
C  9.43900 1.96000 23.59200
C  9.28900 1.78800 25.13900
C  7.24400 2.61800 22.29000
C  10.88700 2.33300 23.16800
C  11.85500 3.07400 24.09600
N  9.46300 1.44900 28.11400
C  10.15600 0.67200 27.28400
C  10.91500 -0.31200 28.00000
C  10.74500 -0.00100 29.38900
C  9.85600 1.05600 29.34800
C  11.81900 -1.34600 27.33600
C  11.19700 -0.26100 30.74100
O  12.09500 -0.97100 31.17000
C  10.36100 0.68000 31.70000
C  9.62500 -0.02700 32.76500
O  8.58200 -0.63800 32.64600
O  10.39600 -0.03000 33.85100
C  9.77800 -0.56900 35.10700
H  5.48800 5.23800 30.44900
H  6.59700 4.91200 24.00900
H  10.47500 0.07000 25.25400
H  7.56700 2.24000 32.91700
H  7.10100 5.04200 32.30200
H  4.60200 4.05700 32.03700
H  5.40300 4.12700 33.54000
H  5.51800 2.55800 32.60400
H  10.00500 3.93800 32.76600
H  9.59200 2.72400 33.90600
H  7.74500 4.61300 34.52900
H  9.00500 5.47700 33.58400
H  3.24500 6.81100 28.00400
H  4.56500 8.05300 28.28700
H  4.30000 6.77200 29.48000
H  3.37200 8.15800 24.45200
H  4.16400 8.49500 25.92500
H  2.80800 7.25900 25.98700
H  8.82200 3.91800 22.99800
H  9.22900 1.09900 22.95800
H  6.22200 2.69300 22.66200
H  7.46900 1.61700 21.92200
H  7.17200 3.30700 21.44800
H  10.66700 3.06300 22.38800
H  11.33900 1.55200 22.55700
H  11.39600 3.64000 24.90700
H  12.38000 3.76400 23.43500
H  12.62500 2.41400 24.49600
H  12.16300 -0.96300 26.37500
H  11.29800 -2.24100 26.99600
H  12.55200 -1.68600 28.06800
H  11.08500 1.40800 32.06700
H  10.41000 -1.36700 35.49700
H  8.84400 -1.11000 34.95900
H  9.80600 0.24600 35.83100
Mg 16.87000 51.86300 25.08700
C  18.61700 50.50100 27.80000
C  14.28900 52.72800 27.14100
C  15.15800 52.84300 22.31400
C  19.35600 50.42000 22.95100
N  16.54900 51.62500 27.20400
C  17.44800 51.13900 28.14900
C  16.90700 51.49000 29.60500
C  15.43100 51.92100 29.35000
C  15.43300 52.17100 27.82000
C  14.34900 50.87100 29.63600
C  17.73400 52.60500 30.27900
C  17.42800 52.85400 31.83200
H  16.41000 52.06400 32.52700
N  14.89500 52.69900 24.77200
C  14.04800 53.00300 25.78600
C  12.91200 53.65700 25.22100
C  13.05800 53.64600 23.74900
C  14.48300 53.08400 23.53800
C  11.70500 54.10100 26.08300
C  12.15200 54.22000 22.70700
O  12.34700 54.21700 21.48300
C  10.79600 54.86100 23.21000
N  17.18800 51.65400 22.97900
C  16.35500 52.25400 22.07100
C  16.86900 52.19800 20.57900
C  18.27400 51.33400 20.82400
C  18.32800 51.11800 22.32500
C  15.92200 51.36900 19.67800
C  19.63200 51.97400 20.38500
C  19.73400 52.30600 18.92500
N  18.65400 50.75400 25.28200
C  19.48400 50.20800 24.34000
C  20.58300 49.55400 25.00900
C  20.24300 49.60100 26.35200
C  19.02500 50.32700 26.44200
C  21.82800 48.91600 24.38900
C  20.64600 49.27500 27.64900
O  21.59300 48.60800 28.03700
C  19.71900 49.96400 28.63800
C  19.28500 48.97100 29.62700
O  18.38900 48.16000 29.55800
O  20.00100 49.24700 30.78500
C  19.65600 48.60700 32.06000
H  13.44600 53.01300 27.77300
H  14.72200 53.34300 21.44700
H  20.19200 49.99900 22.38900
H  16.98800 50.57100 30.18600
H  15.23500 52.84200 29.90000
H  13.35700 51.27200 29.84200
H  14.60300 50.21000 30.46500
H  14.24800 50.19900 28.78400
H  17.59000 53.51800 29.70100
H  18.78400 52.31800 30.22500
H  17.24400 53.92400 31.93200
H  18.39600 52.55500 32.23300
H  11.39400 55.14200 25.99600
H  11.99500 54.03700 27.13200
H  10.84700 53.43700 25.97100
H  10.27200 54.20100 23.90100
H  10.29400 54.98300 22.25000
H  10.94300 55.79700 23.74800
H  17.07300 53.16800 20.12700
H  18.18500 50.38300 20.29800
H  15.92300 50.33400 20.02100
H  16.28300 51.37300 18.64900
H  14.90100 51.74100 19.76300
H  20.48000 51.31700 20.58100
H  19.68700 52.96400 20.83700
H  20.00400 53.35600 18.80700
H  18.87700 52.00900 18.32100
H  20.58900 51.71400 18.60100
H  22.62900 49.64700 24.27700
H  21.66300 48.46000 23.41300
H  22.17600 48.11300 25.03800
H  20.23800 50.83100 29.04700
H  19.75800 47.53200 31.91500
H  18.65800 48.84000 32.43300
H  20.31400 48.76400 32.91500

