158

Mg 30.11900 58.19200 40.33200
C  27.09600 56.44000 39.74200
C  31.81900 55.64500 38.71500
C  32.98600 60.13600 40.32600
C  28.15300 60.97500 41.43400
N  29.52700 56.27600 39.42300
C  28.21600 55.71300 39.33100
C  28.25400 54.43200 38.47500
C  29.77300 54.22200 38.15200
C  30.43800 55.42800 38.79800
C  30.41600 52.82000 38.59400
C  27.31500 54.42700 37.17400
C  27.65800 55.36900 36.02300
H  26.64800 56.29600 35.39900
N  32.11600 57.93300 39.66200
C  32.60300 56.85500 38.94600
C  34.04700 57.04000 38.74800
C  34.42900 58.31200 39.32600
C  33.13000 58.83900 39.81800
C  34.96900 55.95600 38.13700
C  35.86000 58.85600 39.48200
O  36.74900 58.30000 38.84600
C  36.26700 59.96100 40.34900
N  30.48300 60.23600 40.82500
C  31.74000 60.71500 40.81600
C  31.78800 62.16200 41.35700
C  30.33400 62.36300 41.71100
C  29.52000 61.17800 41.18200
C  32.73800 62.25900 42.59900
C  29.74200 63.74500 41.14000
C  29.56500 64.88300 42.10500
N  28.08600 58.60900 40.62700
C  27.44000 59.81100 41.09200
C  26.01300 59.47900 41.15400
C  25.92400 58.23400 40.60300
C  27.16500 57.70300 40.29600
C  24.94000 60.48500 41.61100
C  24.87500 57.28300 40.21300
O  23.67300 57.36200 40.28800
C  25.62100 56.06400 39.54600
C  25.18600 54.85200 40.27600
O  25.39900 54.65100 41.45300
O  24.45300 54.08400 39.44000
C  24.00900 52.77800 39.94100
H  32.23500 54.88800 38.04600
H  33.87200 60.76500 40.21800
H  27.46800 61.74500 41.79500
H  27.91800 53.66700 39.17500
H  29.89100 54.30500 37.07100
H  30.87200 52.23000 37.79800
H  29.61600 52.17700 38.95900
H  31.16200 52.94200 39.37900
H  26.24900 54.59600 37.32100
H  27.31700 53.37500 36.88900
H  27.87300 54.65900 35.22400
H  28.58300 55.91700 36.20200
H  35.67000 55.59400 38.88900
H  35.58300 56.36700 37.33500
H  34.46100 55.06900 37.76000
H  36.22700 60.97700 39.95800
H  37.29300 59.71400 40.62200
H  35.66900 59.81400 41.24900
H  32.18300 62.87200 40.63000
H  30.18600 62.29200 42.78800
H  32.19100 62.29600 43.54100
H  33.34100 63.15400 42.44400
H  33.58200 61.57200 42.66700
H  28.78700 63.53600 40.65800
H  30.38700 64.10800 40.34000
H  30.12300 65.79800 41.90700
H  29.84000 64.52000 43.09600
H  28.51700 65.14700 42.24400
H  25.26800 61.07700 42.46500
H  24.00700 59.93200 41.71700
H  24.77900 61.14500 40.75800
H  25.27900 56.16900 38.51700
H  23.46200 52.93200 40.87200
H  24.88000 52.15000 40.12800
H  23.46000 52.32800 39.11400
Mg -4.77900 25.81600 26.10700
C  -3.56900 27.62800 28.84900
C  -6.41400 23.67100 28.24000
C  -5.84100 24.02100 23.35100
C  -2.57500 27.61600 24.00400
N  -4.80500 25.58800 28.22800
C  -4.36700 26.48100 29.19600
C  -4.79100 25.90300 30.64200
C  -5.27200 24.50900 30.34600
C  -5.52700 24.57800 28.85800
C  -4.43200 23.34300 30.89800
C  -5.91600 26.88000 31.10700
C  -6.60400 26.64400 32.48500
H  -5.97100 25.66200 33.53300
N  -6.08600 24.11600 25.80100
C  -6.69700 23.45100 26.82600
C  -7.63700 22.52200 26.24500
C  -7.48900 22.53300 24.79000
C  -6.47300 23.60300 24.51400
C  -8.54300 21.71200 27.12700
C  -8.10800 21.61400 23.76000
O  -7.79400 21.61800 22.54800
C  -9.03500 20.47900 24.13800
N  -4.25500 25.81500 23.94700
C  -4.73600 24.87500 23.09900
C  -4.15200 25.10200 21.71500
C  -2.97000 26.16500 21.94100
C  -3.30400 26.58200 23.39100
C  -3.63300 23.75200 20.98700
C  -3.04800 27.42700 20.98500
C  -2.43000 27.24300 19.58100
N  -3.40500 27.35900 26.30000
C  -2.62600 28.06500 25.40200
C  -1.88000 29.11000 26.11300
C  -2.20500 28.99700 27.47500
C  -3.09900 27.91000 27.50700
C  -1.07000 30.10700 25.48700
C  -2.01700 29.52900 28.80600
O  -1.28600 30.46200 29.18400
C  -2.91300 28.66300 29.72400
C  -2.02200 28.07400 30.77500
O  -1.00500 27.49700 30.61600
O  -2.73900 28.25500 31.98600
C  -2.09500 27.62800 33.22400
H  -6.82500 22.94200 28.94100
H  -6.22500 23.55700 22.43900
H  -1.73800 28.10800 23.50500
H  -3.98100 25.80000 31.36500
H  -6.30200 24.42700 30.69300
H  -4.94200 22.91300 31.76100
H  -3.49100 23.73800 31.28100
H  -4.30000 22.57900 30.13200
H  -6.67900 26.78300 30.33500
H  -5.55300 27.90600 31.05600
H  -7.65400 26.42600 32.29100
H  -6.59100 27.65100 32.90300
H  -9.54400 21.80500 26.70400
H  -8.62300 22.14200 28.12500
H  -8.25600 20.66000 27.11200
H  -10.05600 20.82800 24.29000
H  -8.61600 19.89600 24.95900
H  -9.12900 19.86200 23.24500
H  -4.91800 25.47900 21.03800
H  -2.00700 25.65400 21.95000
H  -2.55200 23.65300 20.88500
H  -4.05300 23.65000 19.98700
H  -3.96500 22.94400 21.63900
H  -2.45700 28.24200 21.40100
H  -4.05200 27.80700 20.79000
H  -1.38500 27.55300 19.61000
H  -3.00000 27.85600 18.88300
H  -2.42700 26.18000 19.34100
H  -1.62500 31.03600 25.36300
H  -0.76800 29.71400 24.51600
H  -0.14100 30.23400 26.04300
H  -3.65300 29.32300 30.17800
H  -2.02600 26.57100 32.96500
H  -2.82600 27.66900 34.03100
H  -1.06600 27.91300 33.44500

