158

Mg 2.62700 -0.63700 44.85600
C  5.99800 0.04600 43.88200
C  1.67600 2.27200 43.02000
C  -0.49300 -1.89300 44.63300
C  3.81000 -3.87000 45.96600
N  3.68500 0.93100 43.51300
C  5.08700 1.11700 43.41100
C  5.46100 2.43400 42.75700
C  4.06900 3.19100 42.62300
C  3.04700 2.07500 43.17200
C  3.94200 4.51000 43.47100
C  6.02100 2.11000 41.37200
C  7.20200 3.04900 40.91000
H  6.86600 4.06100 39.70500
N  0.80500 0.17100 44.09400
C  0.65900 1.39400 43.44500
C  -0.75200 1.63000 43.35800
C  -1.41800 0.48800 43.83500
C  -0.35200 -0.53400 44.22100
C  -1.31900 2.83300 42.73100
C  -2.92900 0.29300 43.90400
O  -3.70500 1.22200 43.57000
C  -3.55500 -0.95800 44.59000
N  1.74400 -2.68600 45.06600
C  0.41100 -2.82000 45.11200
C  0.03600 -4.23000 45.56100
C  1.39600 -4.71500 46.18200
C  2.45500 -3.78700 45.66200
C  -1.24700 -4.36600 46.44200
C  1.60500 -6.23700 45.76400
C  1.87500 -7.15600 46.94000
N  4.48700 -1.70500 45.12100
C  4.78000 -2.92200 45.57700
C  6.23900 -3.13200 45.49300
C  6.79500 -1.97800 44.92900
C  5.68600 -1.14300 44.60900
C  6.87100 -4.37600 46.00800
C  7.97400 -1.30600 44.48200
O  9.15800 -1.56600 44.67000
C  7.54600 0.04600 43.81900
C  8.26400 1.16600 44.59100
O  7.98600 1.50800 45.73900
O  9.15300 1.89200 43.88300
C  9.68600 3.13900 44.54500
H  1.48700 3.26700 42.61200
H  -1.51500 -2.27200 44.69500
H  4.22400 -4.77000 46.42500
H  6.17200 3.03700 43.32200
H  3.82000 3.55200 41.62500
H  4.89900 4.60800 43.98300
H  3.14700 4.55000 44.21600
H  3.74300 5.39000 42.85900
H  5.42200 2.10300 40.46100
H  6.35600 1.07300 41.38000
H  8.10200 2.50100 40.63100
H  7.49300 3.66100 41.76500
H  -1.38000 2.77200 41.64400
H  -0.77000 3.65400 43.19100
H  -2.34400 3.10200 42.98500
H  -4.62300 -0.79000 44.72900
H  -3.05400 -1.13500 45.54200
H  -3.34700 -1.82000 43.95700
H  -0.16600 -4.80500 44.65700
H  1.43600 -4.64700 47.26900
H  -1.42600 -3.41800 46.95000
H  -1.05300 -5.06900 47.25200
H  -2.16500 -4.64900 45.92800
H  2.52200 -6.32800 45.18200
H  0.80500 -6.64700 45.14700
H  2.95700 -7.29100 46.95700
H  1.37700 -8.12500 46.91000
H  1.64300 -6.62000 47.86000
H  6.89900 -4.33000 47.09600
H  7.92100 -4.22800 45.75800
H  6.25900 -5.24700 45.77300
H  8.09900 -0.03600 42.88300
H  9.47800 3.89400 43.78700
H  10.76400 3.10100 44.70600
H  9.20500 3.50800 45.45000
Mg 45.20100 4.69900 46.50700
C  42.96900 7.45500 46.58600
C  42.26800 2.74000 46.13900
C  47.13400 2.10200 45.71100
C  47.85600 6.95100 46.06000
N  42.85600 5.09500 46.33600
C  42.25500 6.30200 46.45800
C  40.69800 6.18200 46.32300
C  40.48500 4.65000 46.36700
C  41.97700 4.10800 46.35700
C  39.59300 4.09600 47.51700
C  40.03300 6.94800 45.08300
C  40.81300 6.77500 43.77500
H  40.11000 6.23700 42.50600
N  44.71200 2.69100 45.95100
C  43.47600 2.09000 45.92300
C  43.73300 0.64800 45.87100
C  45.08600 0.48100 45.44200
C  45.73400 1.81700 45.67500
C  42.61100 -0.32400 45.70500
C  45.76800 -0.76400 44.92900
O  45.19900 -1.84200 44.87500
C  47.12100 -0.76600 44.30600
N  47.20300 4.59000 45.93500
C  47.82600 3.39000 45.77500
C  49.33400 3.53100 45.47600
C  49.50100 5.10800 45.63700
C  48.09600 5.61800 45.85300
C  50.39400 2.75800 46.32800
C  50.23400 5.85600 44.45700
C  49.39200 5.96500 43.18800
N  45.41900 6.72800 46.43500
C  46.58200 7.55200 46.32100
C  46.16900 8.94200 46.62400
C  44.80500 8.93000 46.67700
C  44.36000 7.57900 46.57400
C  47.06800 10.17400 46.55100
C  43.71200 9.78900 46.83000
O  43.54200 11.01200 46.86600
C  42.40100 8.80800 46.77600
C  41.71100 8.88800 48.12200
O  41.94800 8.14800 49.08800
O  40.67000 9.79300 48.01200
C  39.83300 10.00000 49.20700
H  41.38400 2.10900 46.25300
H  47.75700 1.20600 45.67900
H  48.70000 7.64100 46.00100
H  40.39800 6.73500 47.21300
H  40.04700 4.30500 45.43000
H  38.85700 3.37200 47.16600
H  38.95800 4.91000 47.86600
H  40.20100 3.62800 48.29100
H  39.98400 8.01300 45.31300
H  38.96400 6.73700 45.11100
H  41.60200 6.03500 43.90800
H  41.27300 7.71500 43.47000
H  42.39800 -0.95300 46.56900
H  42.79200 -1.02600 44.89100
H  41.63900 0.15900 45.60800
H  47.85200 -0.90400 45.10300
H  47.20200 0.11100 43.66300
H  47.24400 -1.61600 43.63600
H  49.46700 3.15300 44.46300
H  49.98600 5.29700 46.59400
H  49.92600 2.37200 47.23300
H  51.25700 3.38200 46.56300
H  50.85700 1.94200 45.77400
H  51.11800 5.34000 44.08200
H  50.55600 6.87300 44.67900
H  49.98800 5.46000 42.42700
H  49.17500 6.92800 42.72800
H  48.41600 5.49700 43.31200
H  46.67500 11.19000 46.58300
H  47.60000 10.30100 45.60800
H  47.76400 10.23600 47.38800
H  41.71500 9.15100 46.00100
H  39.97000 9.06400 49.74700
H  38.84700 10.39900 48.96600
H  40.35700 10.76200 49.78300

