158

Mg 1.39400 -0.30500 44.31100
C  4.78000 0.15700 43.65600
C  0.80100 2.52800 42.55800
C  -1.80100 -1.20900 44.31800
C  2.17900 -3.45000 45.69300
N  2.71300 1.13400 43.18100
C  4.02200 1.17500 43.11300
C  4.49600 2.52200 42.41700
C  3.17300 3.38500 42.41400
C  2.16600 2.28600 42.71400
C  3.16800 4.54800 43.40400
C  4.98400 2.19000 40.90900
C  6.44100 2.62400 40.57000
H  6.47600 3.53200 39.30200
N  -0.28800 0.49800 43.44000
C  -0.37300 1.73500 42.82300
C  -1.77700 2.00500 42.57200
C  -2.47400 0.79800 42.87700
C  -1.48900 -0.10700 43.56100
C  -2.30900 3.29800 42.05000
C  -3.89000 0.48500 42.48800
O  -4.65500 1.34100 42.04500
C  -4.33000 -0.92200 42.42700
N  0.29600 -1.99800 45.21200
C  -1.04200 -2.13600 45.04100
C  -1.59600 -3.53000 45.53000
C  -0.22400 -4.22200 45.92000
C  0.82800 -3.14600 45.67500
C  -2.66600 -3.35600 46.64900
C  0.13100 -5.60400 45.15100
C  0.34600 -6.75200 46.16600
N  3.11600 -1.37400 44.76800
C  3.30600 -2.66900 45.22700
C  4.72400 -2.99200 45.26400
C  5.34200 -1.87300 44.71600
C  4.32500 -0.97500 44.33800
C  5.22900 -4.28500 45.84500
C  6.65000 -1.38500 44.38200
O  7.80500 -1.85400 44.49200
C  6.32000 0.05600 43.79900
C  6.93800 1.12100 44.63600
O  6.32100 1.83100 45.41500
O  8.32200 1.14600 44.43000
C  8.98300 2.24900 45.16600
H  0.69900 3.54100 42.16400
H  -2.83600 -1.52400 44.47000
H  2.39100 -4.47500 46.00400
H  5.35200 2.94800 42.94000
H  2.94700 3.81800 41.44000
H  2.93400 5.45600 42.84900
H  4.13100 4.70600 43.89000
H  2.54500 4.53200 44.29800
H  4.33800 2.68900 40.18700
H  4.98200 1.13300 40.64500
H  7.03300 1.71800 40.43700
H  7.01300 3.15200 41.33400
H  -1.56100 4.05800 42.27500
H  -3.20100 3.50200 42.64300
H  -2.48400 3.23500 40.97600
H  -5.25400 -0.93300 41.84900
H  -4.50400 -1.17300 43.47400
H  -3.52200 -1.51400 41.99800
H  -2.17900 -4.03700 44.76100
H  -0.11500 -4.37800 46.99300
H  -2.34800 -3.91800 47.52700
H  -3.67400 -3.72200 46.45200
H  -2.78300 -2.36400 47.08500
H  1.04200 -5.64000 44.55400
H  -0.64400 -5.85200 44.42600
H  -0.34500 -6.60600 46.99600
H  1.39100 -6.84400 46.46200
H  -0.09200 -7.67700 45.79100
H  6.31400 -4.29700 45.94100
H  4.78400 -5.06600 45.22800
H  4.85800 -4.26400 46.87000
H  6.80700 0.12800 42.82600
H  8.85200 2.13100 46.24100
H  8.67100 3.23400 44.81700
H  10.04600 2.05900 45.01600
Mg 8.86000 3.33300 27.91200
C  9.91600 1.62100 30.92800
C  7.25800 5.45900 29.76300
C  7.24400 4.28100 25.08300
C  10.23000 0.64000 26.09700
N  8.38700 3.23800 30.04800
C  9.11500 2.77400 31.14300
C  8.90400 3.57400 32.40200
C  7.72500 4.49500 32.00900
C  7.76300 4.40000 30.48100
C  6.34700 4.31200 32.63600
C  10.26900 4.31300 32.86100
C  10.13800 4.85000 34.30300
H  10.99400 4.08500 35.30500
N  7.41600 4.70900 27.50500
C  6.96500 5.59200 28.41800
C  6.15200 6.58000 27.72000
C  6.14500 6.32000 26.28500
C  6.95100 5.06200 26.21400
C  5.44700 7.69000 28.50700
C  5.38900 7.06200 25.19700
O  5.51000 6.68500 24.00500
C  4.67900 8.33100 25.55000
N  8.82900 2.67100 25.88700
C  8.10500 3.22500 24.89400
C  8.46200 2.70500 23.55200
C  9.51700 1.64400 23.88100
C  9.48800 1.59800 25.39000
C  7.21300 2.17600 22.77200
C  10.94700 1.90700 23.33000
C  11.31000 1.08500 22.09300
N  9.97300 1.47500 28.31400
C  10.42700 0.51000 27.45900
C  11.02800 -0.55200 28.29400
C  10.85900 -0.19400 29.63800
C  10.16100 1.05500 29.63100
C  11.78400 -1.69700 27.71300
C  11.16200 -0.47700 31.03800
O  11.83500 -1.31200 31.52300
C  10.63800 0.64800 31.86400
C  9.60700 0.01700 32.75100
O  8.47100 -0.21700 32.37500
O  10.14400 -0.46300 33.85300
C  9.38500 -1.20600 34.82400
H  7.04500 6.37500 30.31800
H  6.69400 4.65700 24.21800
H  10.62600 -0.18200 25.49700
H  8.57300 2.85500 33.15200
H  8.08600 5.50900 32.18100
H  5.67100 3.84900 31.91700
H  6.00800 5.31700 32.88900
H  6.38600 3.74200 33.56400
H  10.40400 5.19000 32.22900
H  11.16600 3.72100 32.68000
H  9.09200 4.98000 34.58100
H  10.57000 5.85000 34.32400
H  5.91000 8.66600 28.35900
H  5.47000 7.57500 29.59000
H  4.36900 7.62900 28.35600
H  3.84100 8.20500 26.23600
H  4.27100 8.83600 24.67500
H  5.41100 9.00700 25.99300
H  8.94200 3.46100 22.93100
H  9.09300 0.65600 23.70200
H  7.10300 1.14200 22.44500
H  7.19300 2.67800 21.80400
H  6.31400 2.57200 23.24300
H  11.75000 1.70900 24.03900
H  10.92200 2.89800 22.87800
H  11.33700 1.60400 21.13500
H  10.52700 0.32700 22.11200
H  12.29200 0.62300 22.19600
H  11.37100 -1.79300 26.70800
H  11.54100 -2.57100 28.31700
H  12.81800 -1.35600 27.66800
H  11.38700 1.01800 32.56500
H  10.16800 -1.82800 35.25800
H  8.63900 -1.77700 34.27100
H  8.94800 -0.47700 35.50700

