158

Mg 2.39100 -2.24600 43.92000
C  5.83200 -1.71200 43.71700
C  1.93700 0.35900 41.89500
C  -0.82600 -2.92800 44.01000
C  3.04900 -5.46800 45.33000
N  3.76000 -0.95800 42.69400
C  5.11100 -0.84100 42.91400
C  5.62200 0.32300 42.03100
C  4.30400 1.10600 41.64900
C  3.25300 0.07800 42.06900
C  4.21700 2.42800 42.41100
C  6.33100 -0.31400 40.72500
C  7.67800 0.40400 40.35200
H  8.13000 0.48500 38.85500
N  0.69000 -1.41800 43.05300
C  0.75800 -0.24500 42.35200
C  -0.62800 0.12000 42.11700
C  -1.50000 -0.82000 42.74100
C  -0.59000 -1.76200 43.28900
C  -1.02400 1.43000 41.45800
C  -3.03900 -0.77300 42.80200
O  -3.67700 0.07200 42.11200
C  -3.96700 -1.76400 43.50500
N  1.25000 -3.99400 44.55600
C  -0.09000 -3.98500 44.51000
C  -0.65500 -5.34400 44.93400
C  0.61100 -6.25400 45.36100
C  1.77100 -5.17300 45.05700
C  -1.78800 -5.36500 45.91300
C  0.88100 -7.67800 44.67500
C  1.52100 -8.81100 45.59700
N  4.09600 -3.41900 44.46400
C  4.21800 -4.59000 45.14700
C  5.65000 -4.79500 45.45100
C  6.36900 -3.63800 45.01300
C  5.34700 -2.88000 44.35300
C  6.24400 -5.92200 46.21000
C  7.63000 -2.95600 44.98400
O  8.71400 -3.15200 45.50700
C  7.37800 -1.68400 44.13600
C  7.64500 -0.49500 45.04300
O  7.22200 -0.25200 46.15200
O  8.34700 0.40600 44.23800
C  8.48900 1.75400 44.74100
H  1.70600 1.20300 41.24200
H  -1.89800 -3.13500 43.99600
H  3.38200 -6.40700 45.77700
H  6.37900 0.81500 42.64200
H  4.11600 1.35100 40.60400
H  3.32500 3.03900 42.26700
H  5.09700 3.03000 42.18300
H  4.31900 2.18000 43.46700
H  5.63100 -0.19800 39.89800
H  6.48900 -1.38500 40.84800
H  8.46200 -0.07900 40.93500
H  7.59600 1.40300 40.77800
H  -1.62100 2.06100 42.11600
H  -1.59500 1.28100 40.54100
H  -0.14600 2.00600 41.16600
H  -4.00100 -2.73000 43.00200
H  -4.93200 -1.27300 43.63400
H  -3.44300 -1.87300 44.45500
H  -1.10300 -5.63500 43.98500
H  0.48600 -6.42400 46.43100
H  -1.79900 -4.54900 46.63500
H  -1.90500 -6.39300 46.25600
H  -2.67100 -5.10300 45.33000
H  1.52300 -7.44000 43.82600
H  -0.03900 -8.10900 44.27900
H  2.28300 -9.34600 45.03000
H  0.76700 -9.56500 45.81900
H  1.99400 -8.48700 46.52400
H  6.50200 -6.69400 45.48400
H  5.48500 -6.31000 46.89000
H  7.13800 -5.61800 46.75500
H  8.01800 -1.73000 43.25400
H  8.40800 1.83400 45.82500
H  7.78800 2.49400 44.35500
H  9.44100 2.13000 44.36800
Mg 7.89200 3.22100 27.83200
C  9.73400 1.76000 30.54400
C  6.01500 4.64600 30.18000
C  6.22900 4.37900 25.33500
C  9.51000 0.97100 25.71200
N  7.87500 3.20000 30.11700
C  8.86000 2.71600 30.93600
C  8.64700 3.09500 32.44100
C  7.25600 3.87900 32.25900
C  6.98000 3.92200 30.74500
C  6.08600 3.12900 32.98900
C  9.79700 3.95100 33.09300
C  9.47200 4.79400 34.33800
H  10.43900 4.58300 35.47400
N  6.27100 4.30200 27.79100
C  5.62200 4.83100 28.86700
C  4.61300 5.68600 28.35300
C  4.75600 5.74700 26.92800
C  5.82100 4.79200 26.60100
C  3.48600 6.32200 29.27000
C  3.98400 6.56100 25.90300
O  3.97200 6.36500 24.67000
C  3.07200 7.64200 26.33700
N  7.64900 2.50000 25.76800
C  7.00800 3.30200 24.94200
C  7.19300 2.88300 23.48200
C  8.32500 1.80500 23.60000
C  8.48900 1.68200 25.13700
C  5.91700 2.44800 22.70800
C  9.69000 2.26400 23.06800
C  10.39600 1.09900 22.41300
N  9.37900 1.70700 27.99900
C  9.98100 0.97800 27.01500
C  10.97700 0.12300 27.65900
C  10.93900 0.43700 28.99700
C  9.97300 1.44700 29.15400
C  11.75800 -0.92100 26.90200
C  11.64800 0.17500 30.22200
O  12.66700 -0.41700 30.41200
C  10.91700 1.05700 31.31700
C  10.44000 0.17800 32.38900
O  9.64200 -0.70200 32.32000
O  11.13100 0.48300 33.59600
C  10.80400 -0.30600 34.77500
H  5.49100 5.28600 30.89400
H  5.68200 4.88700 24.53800
H  10.03700 0.44300 24.91400
H  8.57900 2.10500 32.89100
H  7.29900 4.90700 32.62000
H  6.59400 2.42600 33.64900
H  5.49300 2.58500 32.25300
H  5.51000 3.82900 33.59400
H  10.11900 4.62300 32.29700
H  10.60400 3.26000 33.33700
H  8.50100 4.46700 34.71100
H  9.27500 5.80900 33.99300
H  3.62900 5.93700 30.28000
H  2.49000 6.07900 28.89900
H  3.64100 7.39600 29.17000
H  2.91600 8.31800 25.49600
H  3.54600 8.25000 27.10700
H  2.13200 7.24200 26.71800
H  7.60100 3.80500 23.06600
H  7.99200 0.87000 23.15100
H  4.98000 2.49200 23.26400
H  5.85100 1.38900 22.46100
H  5.87800 2.89700 21.71500
H  10.24600 2.67100 23.91400
H  9.50300 3.09700 22.39100
H  10.69900 1.47000 21.43400
H  9.75000 0.23300 22.27000
H  11.25800 0.80800 23.01300
H  12.62500 -1.20300 27.49800
H  12.23300 -0.48400 26.02400
H  11.12800 -1.79800 26.75200
H  11.59700 1.82600 31.68300
H  10.39200 0.39300 35.50200
H  11.70500 -0.70100 35.24600
H  10.10900 -1.12000 34.57200

