158

Mg 48.01900 15.69900 28.33500
C  46.12500 15.55700 31.28500
C  50.27400 17.79700 30.00800
C  49.63700 16.18000 25.50300
C  45.24900 14.34300 26.61800
N  48.11600 16.61700 30.32800
C  47.40300 16.21900 31.36500
C  47.96300 16.72900 32.71100
C  49.11500 17.69600 32.31500
C  49.21800 17.28100 30.81000
C  48.79000 19.21400 32.47500
C  48.40100 15.60400 33.59600
C  48.34700 15.76200 35.10400
H  48.39300 17.11400 35.82200
N  49.73900 16.78500 27.84900
C  50.55200 17.58900 28.62100
C  51.69600 18.04900 27.89000
C  51.61900 17.37600 26.66300
C  50.29500 16.74400 26.63800
C  52.75600 18.99000 28.54100
C  52.53300 17.45100 25.46400
O  52.33600 16.82300 24.51800
C  53.78700 18.32100 25.48600
N  47.45100 15.37300 26.35900
C  48.38600 15.51100 25.41100
C  47.88400 15.01800 24.08800
C  46.69400 14.19000 24.52600
C  46.45500 14.59400 25.91900
C  47.49000 16.21900 23.18900
C  46.77700 12.70100 24.33000
C  45.75000 12.01300 23.44400
N  46.03600 15.06500 28.80200
C  45.01500 14.49900 28.04700
C  43.82200 14.31100 28.82700
C  44.25500 14.64300 30.10100
C  45.58500 15.06000 30.05800
C  42.47800 13.83400 28.37800
C  43.80100 14.81000 31.54300
O  42.73500 14.55800 32.00800
C  45.04700 15.24400 32.34900
C  44.56700 16.41600 33.13000
O  44.27200 17.50200 32.67000
O  44.24100 16.07700 34.39700
C  43.31600 16.97300 35.14300
H  51.04600 18.39200 30.50100
H  50.15200 16.10700 24.54300
H  44.36000 14.00000 26.08500
H  47.15200 17.18600 33.27800
H  50.02200 17.53200 32.89700
H  48.94300 19.73900 31.53100
H  49.63300 19.46300 33.12000
H  47.88900 19.52100 33.00600
H  49.45600 15.38000 33.43600
H  47.87000 14.70800 33.27400
H  49.17500 15.18500 35.51600
H  47.44800 15.18400 35.32100
H  53.35600 19.57600 27.84500
H  53.46100 18.25600 28.93100
H  52.35800 19.63300 29.32600
H  54.28800 18.00300 26.40000
H  53.51600 19.37700 25.48600
H  54.49600 18.21400 24.66500
H  48.60200 14.44700 23.49900
H  45.78500 14.53700 24.03400
H  47.68700 17.08700 23.81800
H  46.44200 16.39200 22.94300
H  48.07900 16.22400 22.27200
H  46.61400 12.20900 25.28900
H  47.74000 12.39000 23.92600
H  46.30900 11.66500 22.57500
H  44.95100 12.73200 23.26300
H  45.36000 11.11400 23.92200
H  42.33000 14.30000 27.40400
H  41.85900 14.27100 29.16200
H  42.31500 12.75800 28.32700
H  45.29800 14.41200 33.00700
H  42.45100 17.29600 34.56500
H  43.90500 17.76000 35.61500
H  42.95200 16.40900 36.00200
Mg -2.50800 35.39800 26.41000
C  -4.29600 33.99200 29.16600
C  -1.41700 37.74900 28.53000
C  -0.82300 36.83900 23.84000
C  -3.71900 33.00800 24.39700
N  -2.93300 35.82000 28.62000
C  -3.47300 35.05700 29.62000
C  -3.38200 35.67200 30.98600
C  -2.43300 36.87100 30.75300
C  -2.23500 36.82100 29.19600
C  -2.88900 38.15400 31.46100
C  -3.01100 34.63600 32.02700
C  -3.98200 34.62100 33.30500
H  -3.46400 34.19900 34.77000
N  -1.23300 37.06600 26.21500
C  -0.94900 37.88100 27.23400
C  0.04100 38.85900 26.72800
C  0.46800 38.37500 25.43000
C  -0.53100 37.35200 25.08200
C  0.57500 40.05100 27.51400
C  1.56700 38.93800 24.60100
O  1.76100 38.53300 23.47100
C  2.49000 40.00900 25.20600
N  -2.50000 35.13000 24.38600
C  -1.67700 35.78800 23.53500
C  -1.54000 35.09300 22.25400
C  -2.51800 33.81000 22.41600
C  -2.90900 33.96600 23.82600
C  -1.78200 35.97400 21.00700
C  -1.81500 32.46200 22.05200
C  -2.66400 31.38000 21.47900
N  -3.96900 33.95800 26.54600
C  -4.30400 32.99800 25.63500
C  -5.31300 32.12000 26.19900
C  -5.40300 32.51200 27.59500
C  -4.45600 33.58600 27.75000
C  -6.16600 31.03000 25.49600
C  -6.00700 32.13300 28.84600
O  -6.72600 31.18900 29.19200
C  -5.27000 33.08000 29.93000
C  -6.38400 33.91200 30.53700
O  -6.71400 35.07500 30.30300
O  -7.02600 33.22300 31.59200
C  -8.02800 33.99600 32.44300
H  -1.00400 38.50000 29.20600
H  -0.18800 37.25700 23.05500
H  -4.04200 32.19000 23.74900
H  -4.41200 35.96900 31.18500
H  -1.58100 36.47500 31.30500
H  -2.05500 38.52900 32.05400
H  -3.70000 37.81900 32.10800
H  -3.34700 38.88200 30.79200
H  -1.95500 34.69600 32.29200
H  -3.04200 33.69000 31.48600
H  -4.70100 33.83700 33.06900
H  -4.53400 35.56100 33.29400
H  1.64000 40.09700 27.73800
H  0.09100 40.12400 28.48800
H  0.41800 40.97600 26.95900
H  3.33700 40.27100 24.57200
H  2.97700 39.77100 26.15200
H  1.88300 40.90600 25.32700
H  -0.53700 34.68300 22.13300
H  -3.47900 33.85000 21.90300
H  -2.78800 35.77300 20.64000
H  -1.02200 35.93900 20.22600
H  -1.89800 36.99800 21.36300
H  -1.27700 31.94100 22.84400
H  -0.99200 32.58500 21.34800
H  -3.18300 30.85600 22.28100
H  -2.06800 30.75100 20.81800
H  -3.40700 31.79800 20.80000
H  -7.21600 31.32400 25.51200
H  -5.96300 30.09300 26.01500
H  -5.87600 31.07900 24.44700
H  -4.79200 32.54000 30.74700
H  -7.56500 34.75300 33.07600
H  -8.49200 33.24200 33.07800
H  -8.74800 34.46200 31.76900

