158

Mg 24.85900 1.69600 29.25700
C  26.95700 1.76800 32.18700
C  22.19100 1.65600 31.32000
C  22.95100 1.53600 26.51600
C  27.69000 1.15400 27.29700
N  24.63100 1.79200 31.53700
C  25.58600 1.86300 32.53700
C  24.92200 2.17700 33.97600
C  23.41500 1.99800 33.54900
C  23.36500 1.74800 32.02000
C  22.64500 0.87600 34.33700
C  25.30600 3.53500 34.46600
C  24.76200 4.06200 35.84700
H  25.65200 3.85100 37.15000
N  22.88900 1.57600 29.00700
C  21.93200 1.61100 29.94500
C  20.57900 1.40000 29.39200
C  20.77200 1.30100 27.94200
C  22.24300 1.49000 27.76300
C  19.25800 1.40100 30.18300
C  19.77900 1.12700 26.81000
O  20.12700 1.20700 25.63600
C  18.29300 0.89700 27.13800
N  25.22900 1.47600 27.19600
C  24.34200 1.48400 26.22100
C  24.97600 1.52000 24.87300
C  26.46400 1.54800 25.13000
C  26.49100 1.31500 26.64500
C  24.48300 0.28600 24.00800
C  27.29500 2.81400 24.74900
C  26.79300 4.12100 25.34000
N  26.94200 1.33500 29.64600
C  27.96000 1.16700 28.72500
C  29.15000 1.01700 29.42900
C  28.86500 1.30500 30.81700
C  27.44000 1.50800 30.88300
C  30.39700 0.58600 28.74900
C  29.36800 1.34700 32.17300
O  30.49100 1.11600 32.61600
C  28.25800 1.92600 33.02500
C  28.13200 1.17800 34.30000
O  27.65200 0.06800 34.39900
O  28.79900 1.87400 35.30300
C  29.16800 1.10300 36.52400
H  21.34000 1.71900 32.00200
H  22.34700 1.53400 25.60600
H  28.56500 1.18200 26.64500
H  25.17400 1.37500 34.67100
H  22.89100 2.92200 33.79500
H  22.54800 0.11200 33.56500
H  21.71300 1.29500 34.71400
H  23.19900 0.39400 35.14300
H  25.13200 4.22000 33.63600
H  26.38000 3.39900 34.59800
H  23.81100 3.56400 36.03700
H  24.48400 5.11000 35.73500
H  18.69400 2.19400 29.69100
H  19.26200 1.69100 31.23400
H  18.83200 0.39800 30.17400
H  18.26800 0.03100 27.80000
H  17.73800 0.79000 26.20500
H  17.87400 1.70700 27.73500
H  24.60200 2.43000 24.40300
H  27.01000 0.77900 24.58300
H  23.66500 -0.20700 24.53300
H  25.31800 -0.40200 23.87300
H  24.15800 0.77100 23.08700
H  27.28800 2.96700 23.67000
H  28.36000 2.61800 24.87300
H  26.35300 4.02000 26.33200
H  26.00300 4.44200 24.66000
H  27.60300 4.83400 25.49100
H  30.34500 0.35900 27.68500
H  30.70600 -0.30700 29.29200
H  31.18000 1.33900 28.84000
H  28.43800 2.99100 33.17100
H  29.26000 0.04300 36.28600
H  28.39400 1.16200 37.28900
H  30.11600 1.46700 36.92200
Mg 16.94700 51.67300 26.51600
C  18.91900 50.27200 29.16500
C  14.63000 52.45300 28.85500
C  15.25200 53.01400 24.08700
C  19.55400 50.64300 24.34600
N  16.84000 51.41500 28.75700
C  17.78800 50.89700 29.67600
C  17.21700 50.80900 31.08000
C  15.75600 51.43700 30.89400
C  15.71800 51.77600 29.39800
C  14.55700 50.49000 31.25700
C  18.09300 51.43500 32.14000
C  18.09000 50.77200 33.49700
H  17.23300 51.28800 34.67500
N  15.18100 52.54700 26.49200
C  14.33000 52.82800 27.59200
C  13.17000 53.47600 27.15700
C  13.22600 53.69600 25.74800
C  14.63200 53.10700 25.39700
C  12.06900 53.88900 28.09100
C  12.34600 54.31900 24.69900
O  12.71700 54.52700 23.54700
C  10.93100 54.57200 25.23100
N  17.32700 51.71600 24.52600
C  16.44400 52.39600 23.73000
C  16.91200 52.28800 22.25600
C  18.26800 51.66100 22.38600
C  18.41000 51.31300 23.83900
C  15.94100 51.44000 21.48100
C  19.51000 52.37000 21.68100
C  20.24800 53.44300 22.45300
N  18.73600 50.53000 26.62200
C  19.74500 50.29400 25.69100
C  20.83800 49.70800 26.29700
C  20.53600 49.59700 27.57600
C  19.28200 50.16100 27.80600
C  22.07500 49.22300 25.59000
C  21.05200 49.07700 28.82800
O  22.01600 48.39300 29.02600
C  20.06200 49.62900 29.96800
C  19.69300 48.51600 30.88800
O  19.23000 47.48300 30.50700
O  20.23400 48.75200 32.11500
C  20.18900 47.66900 33.04200
H  13.94200 52.71800 29.66000
H  14.70500 53.39400 23.22200
H  20.33400 50.29500 23.66500
H  17.02200 49.76700 31.33500
H  15.72900 52.34700 31.49300
H  13.78400 51.10100 31.72200
H  14.86800 49.75000 31.99500
H  14.19700 49.83600 30.46200
H  17.66700 52.40200 32.40700
H  19.12500 51.57600 31.82100
H  19.13400 50.82200 33.80700
H  17.84400 49.72500 33.32000
H  12.42000 53.93700 29.12200
H  11.32900 53.09800 27.97000
H  11.65100 54.87900 27.90500
H  10.27400 54.60900 24.36200
H  10.88700 55.54500 25.72000
H  10.54400 53.86800 25.96700
H  16.93800 53.25900 21.76100
H  18.27800 50.69900 21.87300
H  15.78700 51.96000 20.53600
H  14.98700 51.25400 21.97400
H  16.40800 50.50200 21.18000
H  19.17200 52.90300 20.79200
H  20.26500 51.65200 21.36300
H  20.09200 54.43400 22.02500
H  21.30900 53.22800 22.32900
H  19.98100 53.45200 23.51000
H  21.85300 48.37800 24.93800
H  22.82200 48.76900 26.24100
H  22.43100 50.05400 24.98000
H  20.52300 50.41600 30.56500
H  21.14100 47.68800 33.57300
H  20.02600 46.68600 32.60000
H  19.42500 47.85000 33.79800

