158

Mg 24.64400 -4.89700 45.68500
C  26.70100 -2.34400 44.62600
C  22.05900 -3.70900 43.92100
C  23.10700 -7.95700 46.11500
C  27.46600 -6.24200 47.53300
N  24.44700 -3.29500 44.22000
C  25.38200 -2.28400 44.13700
C  24.89800 -1.36600 43.00300
C  23.32200 -1.58500 43.08000
C  23.25200 -2.94900 43.73700
C  22.51200 -0.59000 43.94100
C  25.66000 -1.79500 41.71400
C  26.25000 -0.75300 40.73900
H  25.95800 -0.80700 39.23000
N  22.76400 -5.64600 45.21600
C  21.86000 -4.99500 44.48600
C  20.67900 -5.81500 44.32800
C  20.99700 -7.06400 44.92800
C  22.35100 -6.94700 45.47900
C  19.42500 -5.46000 43.58100
C  20.07200 -8.27800 45.00600
O  18.86300 -8.22300 44.61800
C  20.51900 -9.67600 45.47600
N  25.32700 -6.92400 46.39300
C  24.37300 -7.91900 46.62200
C  25.01500 -9.07400 47.49400
C  26.29400 -8.43300 48.00900
C  26.43900 -7.15700 47.26100
C  23.94500 -9.55100 48.52300
C  27.59100 -9.27300 47.74600
C  28.63400 -9.29800 48.89100
N  26.77300 -4.47800 45.97700
C  27.73200 -5.05900 46.85000
C  28.90100 -4.18500 46.85600
C  28.56400 -3.10200 45.94000
C  27.25500 -3.35800 45.40900
C  30.14700 -4.32400 47.60200
C  29.04300 -1.98200 45.33000
O  30.09800 -1.40000 45.45500
C  27.83400 -1.40500 44.35800
C  27.56000 0.01900 44.59100
O  26.93000 0.47400 45.52300
O  28.19600 0.74100 43.64900
C  27.99800 2.18000 43.83000
H  21.19100 -3.34500 43.36700
H  22.67700 -8.92500 46.38000
H  28.30500 -6.57800 48.14600
H  25.16400 -0.32500 43.18400
H  22.80900 -1.62900 42.11900
H  21.82100 -0.02000 43.32100
H  23.16000 0.08400 44.50200
H  21.92000 -1.08100 44.71300
H  24.83900 -2.13300 41.08100
H  26.37300 -2.59000 41.93200
H  27.33600 -0.84700 40.72600
H  25.93700 0.25100 41.02600
H  19.05900 -6.15500 42.82500
H  19.59600 -4.50900 43.07700
H  18.51000 -5.25000 44.13500
H  20.76800 -9.72800 46.53600
H  21.43500 -10.00000 44.98300
H  19.71800 -10.40000 45.32400
H  25.19100 -9.97000 46.89900
H  26.17100 -8.10200 49.04100
H  24.36300 -9.58200 49.53000
H  23.47300 -10.51700 48.34800
H  23.17700 -8.78000 48.57400
H  28.07700 -8.88900 46.84900
H  27.13400 -10.25400 47.62000
H  28.47900 -10.26000 49.37900
H  28.38700 -8.56200 49.65800
H  29.64200 -9.13000 48.51400
H  30.27400 -3.51600 48.32200
H  31.01100 -4.36900 46.93900
H  30.15400 -5.23600 48.19800
H  28.11300 -1.50600 43.30900
H  28.68500 2.93500 43.44600
H  28.04700 2.38800 44.89900
H  26.99600 2.47900 43.52500
Mg 35.40800 3.29700 30.06200
C  33.06000 4.18400 32.53000
C  37.75800 3.08500 32.40900
C  37.56100 2.59600 27.59600
C  32.85400 3.62400 27.67200
N  35.36800 3.75500 32.15200
C  34.28500 3.97300 33.02400
C  34.72900 4.15900 34.49300
C  36.30400 4.09700 34.29000
C  36.50400 3.57600 32.88600
C  37.18800 5.32800 34.57000
C  34.06700 3.01000 35.32000
C  33.83400 3.42800 36.83700
H  34.58700 4.60300 37.50800
N  37.42000 2.93900 29.97500
C  38.19600 2.84100 31.06200
C  39.56400 2.35300 30.67100
C  39.49500 2.08500 29.29100
C  38.16300 2.58800 28.85800
C  40.58400 1.97800 31.58000
C  40.65100 1.62500 28.27800
O  40.44700 1.66000 27.07100
C  42.12500 1.47300 28.76000
N  35.34100 3.43200 27.85400
C  36.28700 2.94400 27.12100
C  35.83700 2.92300 25.60300
C  34.33400 2.95100 25.67900
C  34.14200 3.35000 27.18500
C  36.49900 3.99900 24.59700
C  33.56000 1.67100 25.22100
C  33.25300 0.55600 26.23000
N  33.43900 3.90400 29.96400
C  32.51400 3.94100 28.97900
C  31.19600 4.22600 29.47500
C  31.35000 4.38400 30.83500
C  32.73100 4.10600 31.10400
C  29.87400 4.27500 28.66300
C  30.63900 4.68700 32.09400
O  29.51800 4.90900 32.31300
C  31.76500 4.67300 33.19800
C  31.91100 6.00300 33.93200
O  32.23500 7.06500 33.42100
O  31.54300 5.76500 35.26400
C  31.48200 7.09800 36.02200
H  38.50300 2.81500 33.16000
H  38.20100 2.27500 26.77100
H  32.02700 3.58200 26.96000
H  34.30300 5.09900 34.84500
H  36.70800 3.27200 34.87600
H  36.61100 6.24300 34.70200
H  37.77300 5.52900 33.67300
H  37.75700 5.15100 35.48400
H  34.70000 2.13500 35.17200
H  33.01800 2.89800 35.04700
H  33.91700 2.55100 37.47800
H  32.77200 3.65700 36.92500
H  40.24200 1.99000 32.61500
H  41.46400 2.57600 31.34200
H  40.83200 0.93100 31.40900
H  42.33100 2.41200 29.27400
H  42.82200 1.33100 27.93400
H  42.21400 0.58300 29.38400
H  36.01900 1.92900 25.19500
H  34.00600 3.80500 25.08700
H  35.89400 4.90600 24.59400
H  36.60200 3.64200 23.57200
H  37.48100 4.30900 24.95300
H  34.01000 1.13100 24.38900
H  32.62300 2.00300 24.77300
H  33.12300 1.00800 27.21300
H  33.95700 -0.27500 26.24300
H  32.25600 0.22200 25.94400
H  29.10800 3.69300 29.17600
H  29.90000 3.79700 27.68400
H  29.46600 5.27000 28.48600
H  31.48800 3.88800 33.90200
H  31.95800 7.90300 35.46200
H  31.94800 7.02100 37.00400
H  30.46200 7.46100 36.14300

