158

Mg 23.53400 -5.76100 44.82400
C  25.81400 -3.41000 43.71000
C  21.14600 -4.28300 42.80400
C  21.76600 -8.56400 44.89900
C  26.29800 -7.56300 46.07400
N  23.53800 -4.13500 43.42500
C  24.53900 -3.25500 43.19500
C  24.14700 -2.10900 42.29000
C  22.56100 -2.23800 42.28100
C  22.35700 -3.58500 42.93700
C  21.70300 -1.10700 42.93900
C  24.69000 -2.06200 40.84000
C  25.11900 -0.67100 40.37000
H  24.88400 -0.34400 38.86300
N  21.59900 -6.24300 44.14800
C  20.87600 -5.59100 43.28700
C  19.76100 -6.30500 42.98000
C  19.91100 -7.53400 43.46900
C  21.12400 -7.50600 44.28100
C  18.69600 -5.80800 41.99100
C  19.04300 -8.79100 43.13800
O  18.13100 -8.70500 42.35300
C  19.22500 -10.13200 43.84200
N  24.02800 -7.75300 45.54200
C  23.00100 -8.71900 45.53700
C  23.51200 -10.09600 45.90500
C  24.97300 -9.72200 46.50100
C  25.10400 -8.27300 46.07300
C  22.56100 -10.79300 46.97900
C  26.14800 -10.51800 45.82300
C  26.26700 -12.00900 46.27700
N  25.65200 -5.42000 45.18000
C  26.60400 -6.29100 45.57900
C  27.98000 -5.65300 45.47400
C  27.70300 -4.51000 44.75600
C  26.28900 -4.47700 44.55200
C  29.34800 -6.22700 45.72900
C  28.21800 -3.27400 44.16400
O  29.37600 -2.81100 44.17900
C  27.08000 -2.63400 43.35000
C  27.07400 -1.18700 43.60600
O  26.50100 -0.60500 44.46200
O  27.97600 -0.56200 42.70600
C  28.15600 0.85400 42.84600
H  20.29900 -3.82300 42.29000
H  21.23200 -9.50700 45.03300
H  27.17400 -8.02400 46.53500
H  24.34900 -1.22100 42.88700
H  22.22500 -2.48100 41.27300
H  22.30800 -0.23400 43.18400
H  21.29400 -1.59300 43.82500
H  20.87200 -0.85300 42.28200
H  24.02800 -2.45500 40.06900
H  25.52900 -2.75800 40.85400
H  26.20400 -0.61000 40.45500
H  24.83100 0.14200 41.03700
H  18.82800 -5.95100 40.91900
H  18.55700 -4.72800 42.04300
H  17.73300 -6.29300 42.15600
H  18.48400 -10.91000 43.66000
H  19.10800 -9.82800 44.88200
H  20.23400 -10.50500 43.66300
H  23.70300 -10.85000 45.14100
H  24.90600 -9.80800 47.58500
H  22.26400 -11.82700 46.80100
H  21.61000 -10.26800 47.06300
H  23.07100 -10.93200 47.93200
H  27.10300 -10.15800 46.20500
H  26.08900 -10.49600 44.73500
H  27.22100 -12.42300 45.94800
H  25.36000 -12.53400 45.97600
H  26.17700 -12.06500 47.36200
H  29.67200 -6.64300 44.77400
H  29.23500 -6.99900 46.48900
H  30.00100 -5.41900 46.05900
H  27.34800 -2.74000 42.29900
H  28.00000 1.26600 41.84900
H  29.16600 1.03100 43.21600
H  27.53100 1.46100 43.50100
Mg 0.99600 42.93600 26.22400
C  2.65700 42.63500 29.41100
C  -2.07200 42.38600 27.80700
C  -0.29700 42.45400 23.22100
C  4.10900 43.39300 24.81800
N  0.37400 42.57000 28.32100
C  1.24100 42.56300 29.53100
C  0.36800 42.61200 30.78400
C  -1.02300 42.05100 30.13600
C  -0.92600 42.36500 28.63700
C  -1.44600 40.53200 30.20900
C  0.27300 44.07500 31.40200
C  0.73200 44.42300 32.79100
H  0.60000 43.31900 33.89100
N  -0.96500 42.70400 25.56700
C  -2.03500 42.53800 26.42400
C  -3.18400 42.33000 25.57200
C  -2.74100 42.26600 24.18300
C  -1.25100 42.40700 24.27200
C  -4.62200 42.30900 26.17200
C  -3.46500 41.96900 22.89100
O  -2.95200 41.93800 21.80500
C  -5.00000 41.76400 22.87600
N  1.77200 42.81600 24.31700
C  1.01200 42.82500 23.19400
C  1.91800 42.97000 21.88200
C  3.24900 43.56900 22.51500
C  3.00300 43.28900 23.99400
C  1.94000 41.62800 20.97600
C  3.24600 45.15400 22.32100
C  3.38700 45.71900 20.90200
N  3.01100 42.99400 26.90200
C  4.19500 43.23600 26.21700
C  5.30100 43.41600 27.17800
C  4.70600 43.14700 28.38400
C  3.34300 42.84900 28.23100
C  6.72800 43.65700 26.93000
C  5.04600 42.95000 29.82800
O  6.11400 42.96600 30.40300
C  3.66800 42.81400 30.51600
C  3.76600 41.64600 31.41200
O  3.46500 40.50400 31.04400
O  4.12800 42.05400 32.66500
C  4.27700 40.97600 33.61500
H  -3.06500 42.29300 28.25200
H  -0.70000 42.39700 22.20700
H  5.06600 43.60700 24.33800
H  0.68100 41.91500 31.56100
H  -1.91500 42.56700 30.49200
H  -2.46600 40.55100 30.59500
H  -0.86600 40.13600 31.04200
H  -1.22000 40.03800 29.26300
H  -0.70000 44.53400 31.23200
H  0.92000 44.67300 30.75900
H  -0.05100 45.09900 33.13600
H  1.75400 44.79800 32.84200
H  -5.50600 42.27900 25.53600
H  -4.67700 43.24500 26.72700
H  -4.78600 41.48600 26.86800
H  -5.26100 41.65000 21.82400
H  -5.32500 42.70200 23.32500
H  -5.35400 40.86400 23.37800
H  1.60300 43.80600 21.25800
H  4.14600 43.13700 22.07100
H  1.06900 41.04200 21.26900
H  2.76500 40.91600 20.95100
H  1.78800 41.94800 19.94500
H  4.03200 45.63900 22.90100
H  2.28400 45.51400 22.68600
H  3.49100 44.86400 20.23300
H  4.25400 46.37900 20.89000
H  2.52100 46.27600 20.54600
H  7.28600 43.14400 27.71300
H  6.99300 44.71000 27.03300
H  7.05000 43.30700 25.94900
H  3.46700 43.77500 30.98900
H  5.14500 40.36100 33.37700
H  3.41600 40.30800 33.63900
H  4.49300 41.42000 34.58700

