158

Mg 47.88300 16.23900 29.26400
C  45.65400 15.63600 31.96300
C  49.76100 18.12700 31.33700
C  49.58800 17.18500 26.53400
C  45.55600 14.75900 27.14300
N  47.68500 16.79700 31.38000
C  46.82700 16.30200 32.39800
C  47.26700 16.66600 33.75700
C  48.39100 17.71200 33.48600
C  48.65700 17.58000 31.94300
C  48.00800 19.21300 33.79900
C  47.73500 15.34900 34.45800
C  47.90700 15.41200 35.96400
H  47.81500 16.77700 36.73500
N  49.57900 17.29600 29.00000
C  50.24100 18.03200 29.99500
C  51.36500 18.59500 29.40300
C  51.39000 18.31000 28.03000
C  50.14300 17.56300 27.79500
C  52.41100 19.30700 30.24100
C  52.49000 18.54700 26.95100
O  52.16300 18.24100 25.83300
C  53.75900 19.12800 27.27800
N  47.51800 15.96200 27.08000
C  48.46600 16.45600 26.23300
C  48.15100 16.09300 24.78000
C  46.86100 15.17900 24.86500
C  46.58100 15.33400 26.37200
C  48.01800 17.36200 23.90500
C  46.95800 13.74200 24.33800
C  46.37800 13.37800 22.94800
N  45.95800 15.44400 29.47700
C  45.22500 14.82300 28.49500
C  44.01100 14.31200 29.12400
C  44.12700 14.55900 30.47000
C  45.32000 15.32400 30.63300
C  42.97000 13.40100 28.50900
C  43.58900 14.39000 31.79500
O  42.54300 13.88500 32.21500
C  44.54000 15.12500 32.82300
C  43.98800 16.16400 33.63300
O  43.34900 17.13200 33.27400
O  44.22500 15.75700 34.87300
C  43.86700 16.71700 35.94700
H  50.30100 18.77600 32.02900
H  50.02600 17.37900 25.55300
H  44.86600 14.25000 26.46700
H  46.43100 17.10900 34.29800
H  49.30500 17.47500 34.03000
H  48.46700 19.44000 34.76100
H  46.93700 19.21100 34.00500
H  48.23600 19.93600 33.01500
H  48.57200 14.84300 33.97800
H  46.96300 14.59900 34.28800
H  48.80900 14.89200 36.28700
H  46.96000 14.98400 36.29500
H  52.07000 20.24300 30.68300
H  53.39400 19.51300 29.81700
H  52.43400 18.58500 31.05700
H  53.59300 20.14900 27.62100
H  54.31800 19.25400 26.35100
H  54.18800 18.44100 28.00700
H  48.97100 15.43900 24.48200
H  46.06900 15.63000 24.26800
H  48.02600 18.25000 24.53600
H  47.09000 17.47400 23.34500
H  48.94400 17.24200 23.34400
H  46.50900 13.14000 25.12700
H  48.02400 13.52400 24.27000
H  45.92900 14.27900 22.52800
H  45.60200 12.65000 23.18400
H  47.13600 12.98800 22.26800
H  42.15200 13.99800 28.10600
H  42.53300 12.66900 29.18800
H  43.54100 12.87800 27.74200
H  44.86800 14.27400 33.42100
H  44.28000 17.70600 35.74900
H  44.23200 16.21900 36.84600
H  42.81200 16.70900 36.21800
Mg 48.74500 25.03600 28.44600
C  49.59700 27.26800 30.90200
C  47.76200 22.77200 30.81900
C  47.64300 23.13000 25.95000
C  50.23900 27.26500 26.12100
N  48.78500 25.02600 30.69700
C  48.92100 26.12700 31.39800
C  48.48400 25.90700 32.87300
C  48.13300 24.38900 32.88100
C  48.18800 24.03000 31.38800
C  48.81300 23.36900 33.76400
C  47.35200 26.85900 33.35200
C  47.77600 27.91500 34.33300
H  46.97500 28.13900 35.59900
N  48.03500 23.07100 28.41300
C  47.73600 22.30300 29.49100
C  47.22300 21.06900 28.99400
C  46.96300 21.25400 27.60000
C  47.53700 22.56900 27.26400
C  46.94000 19.87900 29.85100
C  46.40900 20.25500 26.49400
O  46.38800 20.46400 25.30500
C  45.99800 18.93300 26.92500
N  48.92200 25.13700 26.34900
C  48.22700 24.27300 25.49500
C  48.23700 24.72000 24.10300
C  49.15300 26.01800 24.15300
C  49.48600 26.21100 25.60900
C  48.74300 23.70100 22.99700
C  48.47500 27.10700 23.35800
C  49.44400 27.95600 22.55600
N  49.76400 26.87600 28.52300
C  50.27200 27.67800 27.49200
C  50.77400 28.92200 28.03800
C  50.59600 28.81200 29.41400
C  49.88600 27.54800 29.59900
C  51.33500 30.11000 27.12800
C  50.79400 29.48200 30.63200
O  51.26700 30.54700 30.97200
C  50.09200 28.50000 31.68800
C  51.16600 28.13700 32.65800
O  52.06400 27.37700 32.40600
O  51.01200 28.83400 33.87300
C  51.95500 28.43800 34.94300
H  47.30000 22.16400 31.60000
H  47.06900 22.58700 25.19600
H  50.78200 27.84900 25.37500
H  49.34000 26.06000 33.53100
H  47.08500 24.35400 33.17900
H  49.00300 23.72900 34.77500
H  49.70700 22.99100 33.26800
H  48.12300 22.52700 33.72600
H  46.43400 26.36200 33.66400
H  47.06700 27.46600 32.49300
H  47.56700 28.89400 33.90200
H  48.83400 27.82900 34.58000
H  47.05000 20.07100 30.91900
H  47.69800 19.11700 29.67500
H  45.93100 19.56100 29.59000
H  45.78400 18.27900 26.07900
H  45.08300 19.01700 27.51000
H  46.80700 18.42700 27.45200
H  47.20100 24.99300 23.90300
H  50.06300 25.76800 23.60700
H  48.78200 22.73000 23.49100
H  49.66500 23.97800 22.48600
H  47.94300 23.64100 22.26000
H  48.02800 27.84700 24.02200
H  47.71900 26.72400 22.67200
H  50.47300 27.61400 22.66200
H  49.36200 28.97400 22.93700
H  49.29000 27.96900 21.47700
H  51.42000 31.02800 27.70900
H  50.72600 30.35900 26.26000
H  52.33900 29.94100 26.73700
H  49.38900 29.09800 32.26900
H  51.88200 29.29700 35.61000
H  52.94500 28.42500 34.48600
H  51.74500 27.47900 35.41800

