158

Mg -1.46000 18.13900 27.34900
C  -2.17800 15.86800 29.94600
C  -1.86300 20.68600 29.51400
C  -1.07200 20.12400 24.75700
C  -1.10700 15.31200 25.23400
N  -1.93100 18.20700 29.54400
C  -2.09500 17.21800 30.42100
C  -2.22800 17.80600 31.85800
C  -2.40800 19.32700 31.58500
C  -1.97100 19.41200 30.11800
C  -3.85000 19.72000 31.91100
C  -1.11500 17.38800 32.81800
C  -1.63600 16.87100 34.18900
H  -0.54800 16.53900 35.23200
N  -1.42800 20.10200 27.25000
C  -1.61800 20.98300 28.23500
C  -1.55600 22.36300 27.64500
C  -1.22400 22.19100 26.20500
C  -1.18600 20.72700 26.01200
C  -1.94900 23.57700 28.43200
C  -1.10900 23.32100 25.11700
O  -0.75200 23.10900 23.96700
C  -1.66500 24.67000 25.47800
N  -1.16700 17.75400 25.25900
C  -1.00100 18.77100 24.38200
C  -0.66500 18.22300 23.01100
C  -0.44600 16.70800 23.26200
C  -0.92400 16.57800 24.66400
C  -1.84000 18.49600 22.05800
C  1.03100 16.22600 23.10500
C  2.15400 16.83800 23.97600
N  -1.61000 16.06200 27.47900
C  -1.54800 15.04600 26.53600
C  -1.84100 13.73800 27.05000
C  -2.13800 14.04400 28.42500
C  -1.91900 15.46100 28.63500
C  -1.75800 12.45100 26.43700
C  -2.46400 13.42200 29.63300
O  -2.60000 12.22400 29.90700
C  -2.55900 14.57200 30.70400
C  -1.69400 14.10700 31.81900
O  -0.45000 14.15400 31.84900
O  -2.42600 13.55600 32.83700
C  -1.70500 12.90500 33.97900
H  -1.64300 21.53200 30.16800
H  -0.98100 20.79700 23.90200
H  -1.03600 14.47700 24.53400
H  -3.09300 17.37400 32.36000
H  -1.72200 19.89500 32.21300
H  -4.14700 20.60100 31.34100
H  -4.10800 20.06300 32.91300
H  -4.49800 18.92800 31.53400
H  -0.44700 18.21200 33.06700
H  -0.52300 16.60800 32.33800
H  -2.20500 15.96100 34.00100
H  -2.16800 17.69600 34.66400
H  -2.44600 23.28800 29.35800
H  -2.57000 24.25500 27.84600
H  -1.16800 24.16000 28.92100
H  -2.69000 24.42300 25.75700
H  -1.66000 25.45400 24.72100
H  -1.21900 25.06600 26.39000
H  0.26700 18.66700 22.66100
H  -1.13800 16.18900 22.59900
H  -1.58000 18.41000 21.00300
H  -2.23000 19.47400 22.33900
H  -2.56700 17.71400 22.27800
H  1.47900 16.49600 22.14900
H  1.00500 15.15600 23.31100
H  1.73600 17.51000 24.72600
H  2.69000 17.54300 23.34000
H  2.75800 16.01200 24.35200
H  -1.30100 11.75000 27.13700
H  -1.17800 12.52100 25.51700
H  -2.79600 12.20700 26.20900
H  -3.55300 14.74900 31.11400
H  -2.35200 13.09400 34.83600
H  -0.77100 13.40100 34.24100
H  -1.55100 11.83500 33.84100
Mg 47.46500 24.85300 27.74900
C  48.09300 27.26400 30.16300
C  46.65400 22.76900 30.36400
C  46.47400 22.59100 25.55600
C  48.67900 26.98100 25.24700
N  47.22300 25.07600 29.99800
C  47.51500 26.17500 30.74600
C  47.26500 25.96500 32.26700
C  47.05100 24.41500 32.32900
C  47.07900 24.04800 30.81700
C  48.07200 23.56400 33.19100
C  46.18100 26.91000 33.02300
C  45.48200 26.40000 34.31000
H  45.55400 27.37900 35.45300
N  46.81300 22.91600 27.95700
C  46.54100 22.14000 29.09400
C  46.10100 20.76800 28.80400
C  45.89900 20.84000 27.38000
C  46.44300 22.11400 26.90000
C  45.79000 19.67900 29.82600
C  45.24800 19.70100 26.49800
O  45.15700 19.82000 25.26200
C  44.60600 18.54000 27.16800
N  47.67900 24.73800 25.67900
C  47.02000 23.79500 24.99600
C  47.33700 24.02600 23.51800
C  47.83400 25.46800 23.46600
C  48.07700 25.76400 24.86400
C  48.19400 22.96900 22.74500
C  46.91900 26.50900 22.63500
C  47.64900 27.30500 21.58100
N  48.38000 26.64300 27.71300
C  48.81600 27.42500 26.59600
C  49.35900 28.70800 27.05900
C  49.04900 28.68600 28.48400
C  48.45800 27.44800 28.77400
C  50.23400 29.77400 26.24400
C  49.26200 29.43900 29.73000
O  49.90900 30.40200 29.98500
C  48.52900 28.53300 30.91300
C  49.51600 28.22500 32.01900
O  50.56100 27.67400 31.93000
O  49.07800 28.89600 33.08700
C  49.72600 28.60200 34.37000
H  46.49300 22.15500 31.25300
H  46.15800 21.99700 24.69600
H  48.99500 27.74200 24.53100
H  48.18200 26.16200 32.82300
H  46.05000 24.29900 32.74600
H  47.56700 22.96400 33.94900
H  48.82100 24.23400 33.61200
H  48.56200 22.88500 32.49300
H  45.39600 27.15000 32.30600
H  46.64600 27.85200 33.31300
H  46.00200 25.49300 34.61700
H  44.46500 26.13400 34.02000
H  46.35600 18.75300 29.72100
H  44.71100 19.52100 29.83800
H  45.86500 20.12500 30.81700
H  43.80400 18.84700 27.83900
H  45.40700 18.09400 27.75700
H  44.27500 17.83300 26.40700
H  46.29500 24.02000 23.19700
H  48.85000 25.48000 23.07000
H  48.70600 22.26500 23.40000
H  48.89500 23.43300 22.05100
H  47.63200 22.38200 22.01900
H  46.45500 27.28100 23.24900
H  46.12900 25.88100 22.22300
H  47.72900 26.80600 20.61500
H  48.66200 27.40400 21.96900
H  47.09800 28.24500 21.56100
H  49.83300 29.97200 25.25000
H  51.23100 29.35500 26.10500
H  50.24500 30.62600 26.92400
H  47.75100 29.21100 31.26400
H  49.37500 27.64100 34.74500
H  49.56200 29.42400 35.06700
H  50.79900 28.45100 34.25500

