158

Mg 53.79300 24.32000 44.44800
C  51.20500 26.78800 43.71000
C  51.60300 21.88900 43.37100
C  56.44200 22.44000 44.17400
C  55.85300 27.16400 45.33700
N  51.64500 24.36300 43.53400
C  50.79600 25.44800 43.44100
C  49.44300 24.92900 43.02300
C  49.51200 23.40700 43.41200
C  50.98300 23.14400 43.46800
C  48.79600 22.95800 44.74900
C  49.23400 25.17300 41.56400
C  47.81800 25.53300 41.27800
H  47.39800 25.36700 39.85300
N  53.99100 22.48900 43.93300
C  53.00200 21.60400 43.57400
C  53.59500 20.27600 43.38700
C  54.96300 20.42200 43.77400
C  55.18700 21.87200 43.94500
C  52.93700 19.09100 42.79600
C  55.91700 19.28300 43.85400
O  55.66500 18.11000 43.50800
C  57.23600 19.43700 44.52700
N  55.95600 24.82600 44.74700
C  56.82500 23.77000 44.60500
C  58.24000 24.25400 44.77400
C  58.05900 25.71200 45.38300
C  56.54700 25.94800 45.15000
C  58.99200 23.28000 45.70200
C  58.91500 26.82100 44.66900
C  59.40100 27.84900 45.73300
N  53.55900 26.44600 44.67500
C  54.47300 27.45700 45.06300
C  53.82700 28.74200 45.10300
C  52.57000 28.50900 44.53700
C  52.49000 27.11600 44.24400
C  54.35700 30.09500 45.52700
C  51.38800 29.14400 44.13000
O  51.02000 30.33000 44.24700
C  50.48600 28.11100 43.53400
C  50.26300 28.34200 42.04300
O  51.13600 28.41900 41.19900
O  48.95100 28.78800 41.87000
C  48.54600 28.99900 40.57800
H  50.89300 21.08500 43.16500
H  57.29000 21.75900 44.07700
H  56.43600 28.05900 45.56500
H  48.65800 25.30900 43.67600
H  49.12900 22.77100 42.61400
H  49.57600 22.81800 45.49800
H  48.30000 21.99300 44.64200
H  48.04300 23.68300 45.05800
H  49.43300 24.22700 41.06000
H  49.91200 25.89300 41.10500
H  47.69800 26.58300 41.54500
H  47.12200 25.00300 41.92800
H  53.31700 18.95100 41.78400
H  51.88500 19.35300 42.68400
H  53.10800 18.11700 43.25500
H  58.02300 19.85600 43.89900
H  57.49300 18.45400 44.92000
H  57.05400 20.09600 45.37600
H  58.87900 24.24200 43.89100
H  58.18700 25.58400 46.45800
H  59.60700 23.63100 46.53000
H  59.74700 22.79000 45.08700
H  58.28600 22.53000 46.05800
H  58.26100 27.32400 43.95700
H  59.70200 26.35800 44.07300
H  59.01400 28.81900 45.42200
H  60.48300 27.95500 45.81500
H  59.07000 27.62300 46.74700
H  53.56600 30.74600 45.89700
H  54.73600 30.63800 44.66100
H  55.16700 29.98000 46.24800
H  49.56500 28.11200 44.11600
H  49.19800 28.64600 39.77900
H  48.28200 30.04700 40.43000
H  47.62900 28.45000 40.36800
Mg 27.47000 51.23200 25.95900
C  25.31700 52.37200 28.66700
C  29.54600 50.11700 28.31500
C  29.44700 50.52400 23.46500
C  25.24800 52.86100 23.83100
N  27.42500 51.33500 28.23700
C  26.40400 51.62200 29.08600
C  26.83600 51.42600 30.53400
C  28.33500 51.05600 30.42600
C  28.49800 50.84100 28.89400
C  29.29600 52.08900 31.06800
C  25.92300 50.39200 31.19000
C  25.00300 50.90800 32.36000
H  25.22000 50.16800 33.60800
N  29.30500 50.52300 25.96400
C  29.97300 49.95900 26.98900
C  31.23100 49.33500 26.51400
C  31.12600 49.39900 25.09500
C  29.89900 50.21200 24.75900
C  32.25000 48.67600 27.33000
C  32.14100 48.79700 24.12900
O  32.06200 49.08500 22.92500
C  33.22000 47.86900 24.51100
N  27.20100 51.50300 23.96700
C  28.19000 51.14400 23.11800
C  27.93800 51.49400 21.66700
C  26.49300 52.07400 21.73600
C  26.27800 52.18500 23.25800
C  28.92300 52.53000 20.91700
C  25.38100 51.14200 21.19300
C  24.32600 51.87900 20.47600
N  25.66900 52.35100 26.14300
C  24.98900 53.01400 25.15900
C  23.71500 53.63500 25.65900
C  23.88600 53.52000 27.12000
C  25.03100 52.64900 27.28900
C  22.65000 54.37300 24.83300
C  23.29800 53.83000 28.44900
O  22.35000 54.49700 28.80400
C  24.17600 53.06800 29.52300
C  24.70100 54.04300 30.52500
O  25.68900 54.79500 30.36400
O  24.03900 53.95800 31.68100
C  24.59700 54.84000 32.78700
H  30.16500 49.66900 29.09500
H  30.10700 50.22200 22.64800
H  24.52200 53.21000 23.09400
H  26.75400 52.38800 31.04100
H  28.41300 50.08800 30.92200
H  28.83100 52.78300 31.76800
H  29.59300 52.83600 30.33200
H  30.17700 51.60600 31.49000
H  26.53700 49.54900 31.50800
H  25.27700 49.87900 30.47700
H  23.97500 50.85000 32.00400
H  25.30300 51.94200 32.53200
H  32.29700 47.58900 27.27800
H  32.10400 48.95400 28.37400
H  33.24400 49.10800 27.21500
H  34.04100 48.40600 24.98700
H  33.58600 47.54600 23.53600
H  32.88600 46.96500 25.02100
H  27.91300 50.56300 21.10100
H  26.46200 53.09000 21.34100
H  28.42700 53.41400 20.51600
H  29.43800 51.89000 20.20200
H  29.66000 53.00500 21.56500
H  24.81700 50.74600 22.03800
H  25.79700 50.33700 20.58700
H  24.57100 51.82100 19.41500
H  24.25700 52.90300 20.84300
H  23.40700 51.30100 20.58000
H  22.98800 55.23600 24.25900
H  21.79500 54.63900 25.45500
H  22.21000 53.59900 24.20500
H  23.60900 52.28200 30.02100
H  24.18700 54.34400 33.66600
H  24.24800 55.87100 32.73200
H  25.66700 55.04800 32.80400

