158

Mg 25.86300 0.67500 29.30200
C  27.91500 0.49900 32.26200
C  23.31500 1.53200 31.56700
C  23.71900 0.52800 26.75500
C  28.42900 -0.38300 27.27100
N  25.72500 1.17700 31.69200
C  26.70000 1.00100 32.65100
C  26.15500 1.33100 34.05300
C  24.62100 1.67300 33.76000
C  24.48200 1.36500 32.26800
C  23.52100 0.93000 34.59500
C  26.97300 2.51700 34.73400
C  27.57500 2.21600 36.11900
H  27.26900 3.25200 37.23900
N  23.80500 1.01700 29.19700
C  22.95100 1.38400 30.20900
C  21.59900 1.47700 29.65800
C  21.76200 1.33900 28.22200
C  23.13800 0.94500 27.99800
C  20.39100 1.74600 30.59400
C  20.64200 1.34500 27.17900
O  20.84000 1.24500 25.97700
C  19.16400 1.69500 27.59700
N  26.04500 0.40900 27.30700
C  25.03800 0.30700 26.41900
C  25.52900 -0.07200 24.98900
C  26.99800 -0.27600 25.17900
C  27.22600 -0.02600 26.65500
C  24.90700 -1.35300 24.38600
C  27.91100 0.58800 24.26100
C  28.13300 2.12600 24.65300
N  27.79300 0.19200 29.63600
C  28.74400 -0.27700 28.71700
C  29.97100 -0.53600 29.38500
C  29.62900 -0.31300 30.74500
C  28.32100 0.16000 30.90800
C  31.27600 -0.84300 28.86500
C  30.29400 -0.29600 32.06400
O  31.41600 -0.63400 32.39500
C  29.20300 0.31600 33.07700
C  29.15900 -0.57500 34.22700
O  28.53600 -1.65200 34.36500
O  29.73400 0.14900 35.21500
C  29.91400 -0.52400 36.51500
H  22.55600 1.88600 32.26700
H  23.09400 0.37800 25.87200
H  29.23100 -0.49600 26.53800
H  26.05900 0.48500 34.73400
H  24.43300 2.73300 33.93400
H  22.73200 1.54300 35.03000
H  23.92600 0.37400 35.44100
H  23.16500 0.08800 34.00200
H  26.25300 3.27600 35.04000
H  27.71200 2.89000 34.02500
H  28.64700 2.26200 35.93100
H  27.27100 1.22600 36.45700
H  20.67700 1.95800 31.62400
H  19.69800 0.90500 30.61300
H  19.80700 2.57900 30.20300
H  19.09000 2.73200 27.92500
H  18.94200 0.88500 28.29100
H  18.56300 1.45800 26.71900
H  25.36300 0.76300 24.30900
H  27.17000 -1.35100 25.12800
H  25.58500 -1.99400 23.82200
H  24.11200 -1.00200 23.72700
H  24.47600 -1.92400 25.20800
H  27.44700 0.49000 23.28000
H  28.88400 0.10200 24.18400
H  27.67400 2.32600 25.62100
H  27.65000 2.76200 23.91200
H  29.20700 2.30900 24.61300
H  32.04700 -0.82200 29.63600
H  31.59100 -0.15900 28.07700
H  31.36500 -1.82600 28.40400
H  29.58700 1.29100 33.37700
H  29.19700 -0.02300 37.16600
H  30.89800 -0.40100 36.96700
H  29.81300 -1.60800 36.56700
Mg 29.99000 56.98900 41.13500
C  27.33600 55.16700 39.56900
C  32.14200 54.84400 39.45100
C  32.25400 59.23700 41.58900
C  27.37100 59.40900 41.80000
N  29.72900 55.31400 39.60500
C  28.60400 54.74200 39.15000
C  28.76700 53.57500 38.19000
C  30.34600 53.40500 38.21700
C  30.79900 54.53800 39.16100
C  30.81900 51.95800 38.77800
C  28.24300 53.98100 36.81500
C  27.45900 52.89000 36.01800
H  26.54300 53.50400 34.94200
N  31.96400 56.93400 40.83300
C  32.68000 55.96500 40.15700
C  34.08800 56.37800 40.22600
C  34.15000 57.65000 40.85100
C  32.76200 58.01800 41.14300
C  35.16400 55.58000 39.51300
C  35.47200 58.37100 41.22300
O  36.54900 57.97400 40.75700
C  35.54500 59.56600 42.13500
N  29.80400 59.04200 41.50800
C  30.93000 59.74600 41.74800
C  30.60400 61.16400 42.13300
C  29.06300 61.26600 42.30200
C  28.70100 59.88600 41.81700
C  31.41600 61.70600 43.32900
C  28.40500 62.52300 41.60000
C  27.24500 63.11300 42.40600
N  27.75700 57.22800 40.96600
C  26.96100 58.15000 41.34300
C  25.58200 57.70700 41.18200
C  25.67700 56.52600 40.51000
C  27.00800 56.30500 40.31100
C  24.27000 58.39500 41.50600
C  24.88300 55.44400 39.94500
O  23.67300 55.32100 39.84100
C  25.96700 54.51600 39.39600
C  25.80000 53.31000 40.22300
O  26.35200 53.01000 41.23700
O  24.82400 52.53700 39.67300
C  24.46300 51.23800 40.27100
H  32.78700 54.19400 38.85600
H  33.08600 59.88200 41.87900
H  26.50400 60.02600 42.04700
H  28.22800 52.70100 38.55800
H  30.97800 53.58200 37.34700
H  30.01700 51.23200 38.91300
H  31.47200 52.07500 39.64200
H  31.53100 51.66700 38.00600
H  29.18100 54.11000 36.27500
H  27.73900 54.93700 36.67500
H  26.88400 52.35600 36.77500
H  28.19900 52.27400 35.50700
H  35.28800 54.74700 40.20500
H  36.06800 56.12900 39.24900
H  34.70800 55.21300 38.59400
H  35.42300 60.46100 41.52400
H  36.52400 59.58700 42.61300
H  34.81500 59.46300 42.93700
H  30.93900 61.80800 41.32000
H  28.80300 61.32900 43.35800
H  32.09800 60.93300 43.68300
H  30.72100 62.15200 44.04100
H  32.06500 62.50600 42.97200
H  28.04000 62.09400 40.66700
H  29.20200 63.23400 41.38200
H  26.31200 63.01800 41.85200
H  27.38700 64.17700 42.59800
H  27.17300 62.46600 43.28100
H  23.51200 58.03800 40.80900
H  24.39000 59.45400 41.27600
H  24.01700 58.15700 42.53900
H  25.59700 54.25400 38.40500
H  24.36900 51.27000 41.35600
H  25.20700 50.45900 40.10400
H  23.54000 50.93600 39.77700

