158

Mg 40.80700 9.54600 29.83100
C  42.37500 10.19100 32.95000
C  38.23800 7.81700 31.76100
C  39.38900 8.62800 27.06700
C  43.48200 10.92600 28.19200
N  40.37900 9.18800 32.09400
C  41.09500 9.69000 33.13300
C  40.35400 9.60700 34.46600
C  39.23700 8.55800 34.07300
C  39.25400 8.49700 32.49700
C  39.52300 7.17600 34.57000
C  39.80400 10.99000 34.89700
C  39.48700 11.00400 36.35300
H  40.43500 11.77800 37.26600
N  38.98200 8.47600 29.43900
C  38.09500 7.81200 30.30500
C  36.97400 7.35700 29.57100
C  37.15000 7.67300 28.17600
C  38.57000 8.27000 28.14600
C  35.79000 6.58000 30.16000
C  36.24200 7.43500 26.87500
O  36.64800 7.74000 25.76700
C  34.83000 6.85400 27.03700
N  41.31700 9.74300 27.99500
C  40.58900 9.27500 26.96300
C  41.30000 9.25400 25.60100
C  42.48900 10.21000 25.93200
C  42.46900 10.35200 27.48700
C  41.78900 7.85100 25.11500
C  42.37200 11.62600 25.26800
C  40.96800 12.30500 25.27700
N  42.69000 10.28700 30.42600
C  43.69000 10.79900 29.59600
C  44.73900 11.38700 30.41800
C  44.20000 11.20600 31.79500
C  42.94800 10.55500 31.72400
C  45.97300 12.18800 30.05000
C  44.46600 11.57800 33.14300
O  45.39700 12.22400 33.59400
C  43.35000 10.91200 33.99600
C  44.09800 9.91500 34.84500
O  44.39300 8.81500 34.54100
O  44.52100 10.50500 36.03200
C  45.10300 9.58400 37.02300
H  37.45200 7.31000 32.32500
H  38.95700 8.25800 26.13500
H  44.38000 11.32900 27.72000
H  41.06200 9.24500 35.21300
H  38.22800 8.86900 34.34400
H  40.26100 6.72400 33.90800
H  38.60400 6.58900 34.56600
H  39.89800 7.30100 35.58600
H  38.92000 11.22300 34.30300
H  40.58100 11.73700 34.73000
H  39.44200 9.99500 36.76300
H  38.48400 11.38000 36.55600
H  36.03800 5.55400 29.88800
H  34.83000 6.90100 29.75600
H  35.72800 6.70100 31.24100
H  34.21400 6.90100 26.13900
H  34.39800 7.46100 27.83300
H  35.02700 5.83200 27.36200
H  40.68300 9.72400 24.83600
H  43.39100 9.65900 25.66600
H  42.82300 7.61800 25.37100
H  41.59600 7.78400 24.04400
H  41.11100 7.10300 25.52500
H  42.78700 11.66400 24.26100
H  43.07100 12.27400 25.79500
H  40.54100 12.29000 24.27400
H  41.16400 13.34900 25.52200
H  40.23100 11.98600 26.01400
H  46.67700 11.57800 29.48400
H  46.36900 12.36000 31.05100
H  45.60600 13.03400 29.47000
H  42.88500 11.70300 34.58500
H  44.66100 8.58800 36.99000
H  44.94600 10.03700 38.00200
H  46.18000 9.43000 36.96300
Mg 43.86900 43.04600 26.81000
C  42.54600 44.88200 29.46500
C  45.37200 40.99000 28.87300
C  45.08100 41.43700 23.96500
C  42.42500 45.56400 24.61200
N  43.90500 43.00000 28.88300
C  43.25500 43.77700 29.84600
C  43.67900 43.20900 31.27300
C  44.76700 42.12800 31.02600
C  44.68900 42.08300 29.43300
C  46.17800 42.37400 31.63100
C  42.38100 42.65000 32.07000
C  42.31100 43.15200 33.48900
H  41.02400 42.84000 34.29200
N  45.12500 41.44400 26.52300
C  45.61600 40.66300 27.48700
C  46.32400 39.50300 26.96400
C  46.17600 39.63900 25.49900
C  45.49300 40.87000 25.25300
C  47.11500 38.60800 27.88700
C  46.48800 38.68900 24.45500
O  46.11900 38.81100 23.30500
C  47.20900 37.41700 24.85500
N  43.82500 43.45500 24.65600
C  44.31200 42.59200 23.72100
C  44.02100 43.07000 22.29500
C  42.88100 44.13300 22.50200
C  42.98400 44.45200 24.04800
C  45.16000 43.67800 21.50600
C  41.43200 43.68100 22.02100
C  40.82800 42.56600 22.84200
N  42.84100 44.92100 27.01000
C  42.26900 45.78100 26.02100
C  41.64600 46.89600 26.69500
C  41.64600 46.52900 28.02900
C  42.36100 45.32100 28.14500
C  40.97500 48.04500 25.97700
C  41.28600 46.97800 29.35200
O  40.66600 47.97200 29.68700
C  41.79500 45.93200 30.32400
C  42.61500 46.61300 31.37300
O  43.77500 46.84300 31.30700
O  41.82900 46.96100 32.44000
C  42.49700 47.59000 33.60000
H  45.71000 40.27900 29.63000
H  45.41000 41.01000 23.01500
H  41.92000 46.29100 23.97200
H  44.07600 44.07200 31.80900
H  44.42000 41.15700 31.38000
H  46.94000 42.40700 30.85100
H  46.27000 41.52700 32.31100
H  46.19200 43.28700 32.22600
H  42.30200 41.56300 32.07900
H  41.49200 43.08300 31.61100
H  42.45400 44.23200 33.43600
H  43.13400 42.58500 33.92400
H  46.47200 38.19900 28.66700
H  47.73600 39.36200 28.37000
H  47.67400 37.80000 27.41600
H  46.73800 36.80900 25.62700
H  48.15400 37.87500 25.14400
H  47.27700 36.72400 24.01700
H  43.47000 42.29200 21.76600
H  43.04200 45.00500 21.86800
H  46.07800 43.15900 21.78300
H  45.27700 44.76000 21.57200
H  44.97900 43.39900 20.46900
H  41.49500 43.33800 20.98800
H  40.84800 44.58700 22.17800
H  41.43200 42.24500 23.69100
H  40.66100 41.77700 22.10900
H  39.88800 42.81800 23.33400
H  40.74000 47.88400 24.92500
H  41.58600 48.93900 26.09900
H  40.01300 48.36600 26.37800
H  41.04800 45.39100 30.90500
H  42.22100 46.84200 34.34400
H  42.18600 48.61400 33.80800
H  43.57200 47.74700 33.51700

