158

Mg 49.32100 35.21000 26.20300
C  47.65500 34.13200 29.08900
C  49.91300 38.13800 27.62200
C  50.78200 36.05100 23.38300
C  48.31000 32.01800 24.63500
N  48.97200 35.98600 28.19900
C  48.22400 35.39800 29.20300
C  47.98800 36.41400 30.34300
C  48.54500 37.77600 29.74800
C  49.24200 37.24300 28.43700
C  47.46000 38.81600 29.47800
C  48.82200 36.03600 31.69200
C  48.03000 35.84800 33.01500
H  47.85700 36.96500 34.05300
N  50.22600 36.84900 25.54600
C  50.33900 38.00100 26.28100
C  51.21200 38.90800 25.52800
C  51.55800 38.35400 24.29000
C  50.88600 36.99800 24.36100
C  51.62500 40.32300 26.02200
C  52.32800 38.86700 23.11800
O  52.66300 38.20700 22.08200
C  52.92200 40.26000 23.16200
N  49.42800 34.17800 24.35300
C  50.13200 34.84200 23.33700
C  50.22200 33.89100 22.16600
C  49.60400 32.53800 22.54200
C  49.11800 32.93800 23.95900
C  49.61700 34.56100 20.82300
C  50.60200 31.32500 22.51000
C  50.20400 30.15700 21.56300
N  48.20500 33.46200 26.72200
C  47.93000 32.24900 25.98200
C  47.09800 31.40000 26.81000
C  46.98800 32.06900 28.05500
C  47.69600 33.29400 27.97400
C  46.53300 30.09000 26.42400
C  46.46600 31.97700 29.31100
O  45.86800 31.07500 29.78400
C  46.60900 33.38400 29.94600
C  46.99600 33.09500 31.34900
O  48.11400 32.83900 31.74300
O  45.86200 33.18400 32.09900
C  45.96900 32.83300 33.51200
H  50.11100 39.12900 28.03500
H  51.42500 36.15500 22.50600
H  48.12100 30.97900 24.36000
H  46.92200 36.52200 30.54500
H  49.20700 38.25500 30.46900
H  47.31300 38.94800 28.40700
H  47.69400 39.73000 30.02500
H  46.47700 38.59300 29.89100
H  49.41000 36.93000 31.90500
H  49.40300 35.13500 31.49900
H  48.45500 35.02000 33.58300
H  47.02300 35.64000 32.65200
H  51.06100 40.98300 25.36200
H  52.67200 40.60600 26.12900
H  51.27300 40.54400 27.02900
H  53.57200 40.42300 22.30200
H  53.43800 40.58200 24.06600
H  52.05700 40.88700 22.94400
H  51.30200 33.84500 22.03000
H  48.76600 32.32200 21.88000
H  48.71900 34.15300 20.36000
H  50.35200 34.54300 20.01800
H  49.53200 35.61600 21.08100
H  50.64800 30.83100 23.48100
H  51.57300 31.66500 22.15000
H  49.67300 30.66000 20.75500
H  49.63200 29.34100 22.00400
H  51.17800 29.83400 21.19600
H  45.92600 30.27600 25.53800
H  45.98900 29.64000 27.25400
H  47.32900 29.37200 26.22600
H  45.67300 33.94200 29.94900
H  46.75000 32.09300 33.68900
H  45.00900 32.45600 33.86500
H  46.15600 33.71000 34.13100
Mg 35.29900 48.32400 25.82200
C  35.83400 46.45600 28.70600
C  34.06900 50.81000 27.76000
C  34.67800 49.99300 23.00800
C  36.25100 45.39800 23.90800
N  34.87400 48.50900 27.99200
C  35.38000 47.74800 29.01200
C  35.15400 48.38800 30.42000
C  34.29900 49.59000 30.05800
C  34.45300 49.65100 28.48400
C  32.85800 49.54100 30.62200
C  36.47800 48.63100 31.10200
C  36.41100 48.46700 32.69400
H  35.06200 48.59100 33.37000
N  34.62100 50.24500 25.44500
C  34.15100 51.13000 26.32400
C  33.94700 52.37000 25.68900
C  34.07300 52.13900 24.28200
C  34.38100 50.70800 24.19400
C  33.72100 53.62200 26.45000
C  33.90200 53.14900 23.09400
O  33.97000 52.82700 21.90400
C  33.59600 54.57000 23.40400
N  35.39200 47.75100 23.85700
C  35.16400 48.68300 22.82700
C  35.16000 48.01500 21.44600
C  35.99200 46.71900 21.77600
C  35.81300 46.57000 23.26500
C  33.75800 47.70700 20.84500
C  37.52000 46.89300 21.42700
C  38.08700 45.72400 20.62400
N  35.88200 46.33000 26.20900
C  36.30300 45.30400 25.33300
C  36.79200 44.23400 26.13800
C  36.62300 44.56300 27.47200
C  36.02300 45.87600 27.47200
C  37.40300 42.93800 25.69700
C  36.84100 44.14000 28.83500
O  37.20100 43.05800 29.28800
C  36.28500 45.30300 29.72200
C  35.26600 44.75700 30.60000
O  34.06800 44.75300 30.31100
O  35.72200 44.57100 31.84400
C  34.80200 44.42500 32.95500
H  33.67700 51.62200 28.37700
H  34.35100 50.49400 22.09400
H  36.80000 44.60600 23.39500
H  34.59800 47.67800 31.03100
H  34.67500 50.53100 30.46000
H  32.04800 49.45600 29.89800
H  32.57500 50.43500 31.17800
H  32.74800 48.73300 31.34600
H  36.89200 49.53500 30.65400
H  37.13200 47.84600 30.72400
H  36.96400 49.29000 33.14700
H  36.84600 47.51400 32.99200
H  34.48600 54.31400 26.09800
H  33.81300 53.42700 27.51800
H  32.76200 54.05600 26.17000
H  33.62900 55.21400 22.52600
H  34.32500 54.88200 24.15200
H  32.57900 54.45000 23.78000
H  35.64400 48.68000 20.73000
H  35.53700 45.81800 21.36500
H  33.72000 46.61900 20.80500
H  33.53400 48.15600 19.87700
H  32.93600 48.02000 21.48800
H  38.09100 46.85900 22.35500
H  37.64600 47.90100 21.03200
H  37.59100 45.71800 19.65300
H  37.81800 44.75800 21.05000
H  39.14400 45.97400 20.52800
H  36.71100 42.09600 25.69300
H  38.30500 42.67600 26.25000
H  37.73800 43.03800 24.66500
H  37.13300 45.55000 30.36100
H  35.24800 45.08000 33.70400
H  34.91700 43.39000 33.27500
H  33.73800 44.63200 32.83900

