158

Mg 35.99600 48.81000 24.27200
C  36.34400 47.09500 27.30700
C  34.75100 51.53500 25.93900
C  35.69500 50.40000 21.26600
C  37.27900 45.95400 22.58200
N  35.43900 49.18200 26.33700
C  35.69300 48.37400 27.46400
C  35.48900 49.17300 28.79000
C  34.69800 50.48100 28.29000
C  34.98100 50.40500 26.77300
C  33.25100 50.64400 28.71400
C  36.77700 49.43700 29.59000
C  36.74800 49.09100 31.13500
H  35.38400 49.00100 31.91600
N  35.43200 50.74000 23.66500
C  34.93300 51.71000 24.50300
C  34.51900 52.81400 23.70800
C  34.89100 52.55100 22.37700
C  35.36800 51.18100 22.35700
C  33.87700 54.02600 24.31600
C  34.72600 53.48300 21.17300
O  35.20700 53.13900 20.09800
C  34.01400 54.82400 21.25600
N  36.15500 48.12100 22.13100
C  36.07300 49.04400 21.21800
C  36.25400 48.30400 19.85800
C  37.07200 47.02500 20.22000
C  36.80300 47.00100 21.69800
C  34.89400 48.03200 19.20200
C  38.50100 47.08000 19.67500
C  39.74100 47.24600 20.69500
N  36.54700 46.87200 24.80300
C  37.10700 45.85600 24.00200
C  37.70100 44.87100 24.85400
C  37.41700 45.33000 26.18300
C  36.60400 46.49300 26.06200
C  38.44600 43.69400 24.34500
C  37.53300 45.02600 27.63900
O  38.09300 44.09100 28.24800
C  36.87000 46.18100 28.37300
C  35.82900 45.72100 29.38000
O  34.67600 45.50600 29.13900
O  36.45200 45.55100 30.55700
C  35.59400 44.82100 31.57000
H  34.41000 52.40200 26.50900
H  35.51100 50.81100 20.27100
H  37.70800 45.07000 22.10600
H  34.81200 48.60700 29.43000
H  35.13100 51.38000 28.72900
H  32.92800 49.92600 29.46800
H  32.58800 50.51000 27.85900
H  33.03600 51.63600 29.11100
H  37.13400 50.45600 29.44000
H  37.55500 48.72800 29.30600
H  37.32100 49.88200 31.62000
H  37.31800 48.20100 31.40100
H  34.46800 54.91300 24.54100
H  33.49500 53.82300 25.31700
H  33.02900 54.29000 23.68500
H  32.93800 54.68300 21.35500
H  34.16900 55.35800 20.31900
H  34.34100 55.52200 22.02700
H  36.77600 48.99200 19.19300
H  36.52500 46.18100 19.80000
H  34.01800 48.19300 19.83000
H  34.73700 47.04800 18.76000
H  34.81400 48.68500 18.33300
H  38.67300 47.83200 18.90600
H  38.69300 46.16800 19.10900
H  40.36900 46.35600 20.72600
H  39.37000 47.61500 21.65200
H  40.25900 48.14700 20.36700
H  38.94600 43.93500 23.40600
H  37.97700 42.71100 24.29800
H  39.17800 43.43300 25.10800
H  37.70700 46.61300 28.92200
H  35.33000 43.79000 31.33500
H  34.67800 45.36000 31.81300
H  36.15700 44.81200 32.50400
Mg -5.77400 26.08100 25.62900
C  -4.31000 26.95200 28.65200
C  -7.70400 23.80900 27.30600
C  -6.90600 24.68600 22.58500
C  -3.30500 27.71600 23.87400
N  -6.07000 25.51200 27.66800
C  -5.36400 26.05800 28.79700
C  -5.85400 25.48900 30.14300
C  -6.81800 24.21700 29.63000
C  -6.87100 24.56100 28.12300
C  -6.30800 22.76600 30.07000
C  -6.58500 26.55100 31.06200
C  -6.14300 26.48300 32.49600
H  -5.58500 25.16700 33.01400
N  -7.11800 24.53000 25.02800
C  -7.88800 23.74700 25.92300
C  -8.85100 22.86100 25.17100
C  -8.70500 23.26700 23.79000
C  -7.51500 24.23100 23.73900
C  -9.77600 21.88700 25.87900
C  -9.38800 22.69100 22.55700
O  -9.19500 23.12300 21.44600
C  -10.34700 21.54800 22.79000
N  -5.21600 26.23400 23.59000
C  -5.78200 25.63100 22.52700
C  -5.11900 26.01200 21.15200
C  -4.08500 27.06300 21.65000
C  -4.19600 27.00900 23.12400
C  -4.51300 24.75500 20.42900
C  -4.33800 28.50800 21.16400
C  -4.59200 28.79600 19.64400
N  -4.27200 27.24300 26.13500
C  -3.36700 27.89900 25.27500
C  -2.52400 28.67900 26.19700
C  -2.79200 28.35700 27.48200
C  -3.90800 27.50500 27.43100
C  -1.48100 29.65000 25.76900
C  -2.33100 28.48300 28.91400
O  -1.40200 29.16100 29.41700
C  -3.40900 27.57800 29.76300
C  -2.61800 26.54200 30.56600
O  -2.27100 25.46400 30.07900
O  -2.34300 26.95700 31.81900
C  -1.44400 26.27000 32.72200
H  -8.38100 23.16300 27.86900
H  -7.13600 24.26000 21.60600
H  -2.42900 28.18900 23.42400
H  -4.90900 25.15100 30.56900
H  -7.83700 24.39200 29.97600
H  -7.00500 22.22500 30.71000
H  -5.40600 22.87600 30.67100
H  -5.85200 22.25800 29.22000
H  -7.66000 26.46100 30.90600
H  -6.43300 27.58300 30.74600
H  -6.92600 26.78600 33.19100
H  -5.34300 27.17900 32.75000
H  -9.62900 20.90200 25.43700
H  -10.82400 22.17200 25.79800
H  -9.43900 21.70500 26.89900
H  -11.20700 21.73600 23.43200
H  -9.88000 20.61300 23.09700
H  -10.70200 21.43400 21.76500
H  -5.94400 26.36600 20.53400
H  -3.11700 26.64100 21.38100
H  -4.92800 24.71800 19.42200
H  -4.76000 23.79000 20.87300
H  -3.44900 24.94500 20.28400
H  -3.43400 29.09100 21.33900
H  -5.05700 29.05900 21.77100
H  -5.58500 29.23900 19.56900
H  -4.50900 27.92300 18.99700
H  -3.87200 29.55200 19.33000
H  -1.75300 30.19700 24.86700
H  -0.51900 29.17100 25.58100
H  -1.26400 30.35900 26.56900
H  -4.03400 28.19700 30.40700
H  -1.38100 25.20000 32.52800
H  -1.92100 26.35500 33.69900
H  -0.42600 26.64900 32.63100

