158

Mg 26.23900 1.19300 29.71600
C  28.37600 0.72400 32.65400
C  23.59200 1.43000 31.78500
C  24.28400 1.07800 26.99900
C  29.02100 0.52200 27.67600
N  26.08900 1.08300 31.95700
C  27.05000 1.08900 32.98000
C  26.41600 1.10800 34.32000
C  24.85800 1.14400 34.01700
C  24.81900 1.27200 32.47500
C  24.00700 -0.03800 34.53300
C  27.00100 2.24000 35.19000
C  26.34900 2.60800 36.53200
H  26.94800 2.09700 37.87700
N  24.13400 1.27100 29.45800
C  23.18100 1.41900 30.39800
C  21.87300 1.63000 29.78300
C  22.12100 1.47400 28.36700
C  23.56300 1.25700 28.18700
C  20.72000 1.95300 30.69300
C  21.03400 1.40800 27.32700
O  21.27300 1.15600 26.11800
C  19.55000 1.46700 27.75900
N  26.58900 0.69900 27.66800
C  25.62500 0.95600 26.69000
C  26.20000 0.90300 25.24400
C  27.76600 0.80000 25.52500
C  27.84100 0.70100 27.05800
C  25.61900 -0.28600 24.40500
C  28.62200 2.07700 25.04600
C  27.90700 3.41700 25.24800
N  28.30400 0.74500 30.02800
C  29.25000 0.39700 29.07800
C  30.52900 0.08600 29.76500
C  30.24300 0.24200 31.16100
C  28.87000 0.59400 31.29300
C  31.93300 -0.19300 29.24900
C  30.74500 0.07600 32.50700
O  31.87400 -0.27600 32.80700
C  29.67700 0.50000 33.50800
C  29.51000 -0.61400 34.53600
O  28.75700 -1.56900 34.28400
O  30.31400 -0.52400 35.62900
C  30.04300 -1.54200 36.60500
H  22.75900 1.65000 32.45600
H  23.65400 1.09000 26.10700
H  29.89000 0.16800 27.11800
H  26.69300 0.17400 34.80800
H  24.43800 2.06700 34.41600
H  24.42100 -0.48800 35.43500
H  23.85000 -0.77900 33.74900
H  22.99800 0.23200 34.84500
H  27.15600 3.13300 34.58300
H  28.03100 1.92000 35.34800
H  25.30700 2.29000 36.56500
H  26.29700 3.69100 36.63900
H  20.44400 2.96600 30.39900
H  20.85600 2.01500 31.77300
H  19.86800 1.27600 30.63300
H  18.89700 1.27900 26.90700
H  19.40100 2.39700 28.30800
H  19.32100 0.67700 28.47400
H  25.94300 1.86900 24.80900
H  28.15700 -0.14100 25.13900
H  24.78500 0.12800 23.83800
H  25.21300 -1.03700 25.08300
H  26.44100 -0.57100 23.74800
H  28.80400 2.04400 23.97200
H  29.52600 2.16700 25.64800
H  28.55300 4.05900 25.84700
H  27.05500 3.34700 25.92400
H  27.45600 3.79500 24.33000
H  31.95100 -0.91000 28.42800
H  32.60400 -0.61300 30.00000
H  32.37000 0.72500 28.85700
H  30.09700 1.37600 34.00300
H  30.95000 -1.70300 37.18800
H  29.84100 -2.52600 36.18200
H  29.17700 -1.20200 37.17200
Mg 35.62100 2.84100 30.32100
C  33.10600 3.64500 32.60700
C  37.83200 2.78600 32.91700
C  38.03600 1.84100 28.13200
C  33.29100 2.88800 27.81500
N  35.48700 3.08800 32.46700
C  34.34000 3.30000 33.22600
C  34.57100 3.22600 34.67700
C  36.09000 2.96900 34.81000
C  36.52700 3.02300 33.28500
C  36.80400 4.02900 35.75500
C  33.69200 2.08800 35.32600
C  33.21000 2.46100 36.80100
H  33.91500 3.46100 37.73700
N  37.69900 2.45700 30.47400
C  38.36300 2.47500 31.64800
C  39.72900 2.01400 31.35600
C  39.79800 1.69400 29.95900
C  38.52200 2.01800 29.43200
C  40.78800 1.69600 32.46900
C  40.97200 1.04500 29.15400
O  40.86900 0.88100 27.92600
C  42.19500 0.47000 29.96200
N  35.74300 2.56900 28.30500
C  36.74000 2.08000 27.65400
C  36.46700 1.72700 26.17000
C  34.96000 1.98100 26.06900
C  34.60200 2.48400 27.49000
C  37.27000 2.55700 25.06800
C  34.04400 0.77700 25.61900
C  33.06400 1.10800 24.37200
N  33.68700 3.33300 30.13700
C  32.82100 3.36200 29.05700
C  31.52600 3.91300 29.49200
C  31.58400 4.10200 30.85000
C  32.91500 3.58100 31.18400
C  30.34400 4.17300 28.72200
C  30.92400 4.55200 32.08100
O  29.85700 5.08400 32.39600
C  31.86800 4.18700 33.29600
C  32.06900 5.37900 34.12900
O  32.52900 6.43700 33.70800
O  31.58600 5.14200 35.43200
C  31.78500 6.20100 36.38600
H  38.53000 2.91100 33.74800
H  38.66200 1.44000 27.33300
H  32.58600 2.86800 26.98100
H  34.35100 4.19100 35.13300
H  36.34100 1.96500 35.15000
H  37.44800 4.56100 35.05500
H  37.37900 3.61800 36.58500
H  36.13000 4.82900 36.06100
H  34.36000 1.22700 35.32600
H  32.88400 1.77300 34.66500
H  33.07400 1.54800 37.38100
H  32.19300 2.81500 36.63500
H  40.37800 2.15900 33.36700
H  41.78200 2.10800 32.29300
H  40.89800 0.63000 32.66800
H  41.88200 -0.13800 30.81100
H  42.77700 1.34400 30.25400
H  42.72100 -0.13500 29.22300
H  36.58700 0.65100 26.04300
H  34.67300 2.81400 25.42700
H  36.66300 3.20700 24.43800
H  37.74000 1.79500 24.44700
H  37.99400 3.11400 25.66300
H  33.50600 0.52800 26.53400
H  34.66800 -0.07600 25.35400
H  33.25500 0.31200 23.65200
H  33.25600 2.06300 23.88200
H  32.02800 1.16300 24.70700
H  30.48900 4.71200 27.78600
H  29.83700 4.76100 29.48700
H  29.78300 3.24800 28.59100
H  31.32900 3.39400 33.81300
H  31.06900 6.91600 35.98100
H  32.76500 6.56800 36.69000
H  31.37900 5.74400 37.28900

