158

Mg 1.74400 -1.30200 43.61500
C  5.36000 -0.91800 43.69500
C  1.51400 1.86700 42.36200
C  -1.45900 -1.96000 43.09200
C  2.36200 -4.48100 44.83100
N  3.28700 0.21800 42.99500
C  4.68700 0.16300 43.08100
C  5.32500 1.42700 42.40700
C  4.05600 2.35400 42.09500
C  2.83600 1.44400 42.56100
C  4.01500 3.68400 42.77300
C  6.25900 1.13300 41.26600
C  5.99200 -0.14600 40.42600
H  5.23500 0.10400 39.05100
N  0.23500 -0.23900 42.90600
C  0.34100 1.11600 42.56300
C  -0.98700 1.60700 42.29900
C  -1.93500 0.53000 42.40800
C  -1.08700 -0.61200 42.85000
C  -1.30300 3.08900 41.99000
C  -3.43800 0.57500 42.15000
O  -3.86600 1.63900 41.75700
C  -4.42400 -0.53300 42.47400
N  0.70100 -3.07900 43.57600
C  -0.61200 -3.05800 43.44000
C  -1.27300 -4.32600 43.85600
C  -0.13600 -4.92400 44.74000
C  1.10500 -4.16700 44.33700
C  -2.70200 -4.37200 44.37800
C  0.05400 -6.45900 44.55100
C  0.17300 -7.29800 45.80500
N  3.45900 -2.51800 44.19300
C  3.53300 -3.79400 44.69700
C  4.88200 -4.19100 45.01600
C  5.61700 -3.07100 44.62700
C  4.73300 -2.12200 44.13700
C  5.22600 -5.61400 45.50100
C  7.04000 -2.61300 44.47800
O  8.10900 -3.12700 44.80800
C  6.89000 -1.14200 43.87300
C  7.30600 -0.14200 44.92400
O  6.64400 0.14100 45.88000
O  8.49000 0.46400 44.44900
C  8.77600 1.80700 45.00500
H  1.36400 2.89100 42.01300
H  -2.46800 -2.30400 42.85400
H  2.39700 -5.39100 45.43400
H  5.92500 1.93900 43.16000
H  4.02800 2.51500 41.01800
H  3.50400 4.38100 42.10900
H  5.02700 4.00800 43.01200
H  3.45700 3.73900 43.70800
H  7.29200 1.12000 41.61300
H  6.11700 2.01400 40.64000
H  5.52800 -1.02000 40.88500
H  6.99100 -0.53300 40.22200
H  -1.35000 3.20800 40.90700
H  -0.49100 3.62300 42.48400
H  -2.21500 3.33700 42.53400
H  -4.53400 -1.31500 41.72300
H  -5.33500 -0.10100 42.88800
H  -3.92000 -0.96100 43.34100
H  -1.24000 -4.97800 42.98300
H  -0.34600 -4.57200 45.75100
H  -3.22300 -3.42000 44.27000
H  -2.80700 -4.89300 45.32900
H  -3.21300 -5.19100 43.87200
H  0.93000 -6.76300 43.97800
H  -0.78400 -6.92600 44.03500
H  0.29200 -8.36400 45.60900
H  -0.72600 -7.30000 46.42100
H  0.94500 -6.83000 46.41500
H  5.26500 -6.37800 44.72400
H  4.51100 -6.01500 46.21900
H  6.17100 -5.58300 46.04200
H  7.45200 -1.07700 42.94100
H  9.06000 2.46200 44.18200
H  9.70500 1.66700 45.55800
H  8.01300 2.35200 45.56100
Mg 43.41800 3.58500 47.54500
C  41.24700 6.35300 47.20500
C  40.81600 1.47900 47.22400
C  45.73200 1.09600 47.43400
C  46.07900 5.94400 47.21000
N  41.36600 3.89400 47.14800
C  40.68100 5.09100 47.06200
C  39.18000 4.84300 46.76000
C  39.10600 3.31300 46.94900
C  40.50300 2.83600 47.16700
C  38.09400 2.75900 48.01300
C  38.75100 5.42300 45.40200
C  37.69100 6.45300 45.38500
H  37.92300 7.59700 44.35100
N  43.28800 1.56400 47.42200
C  42.08900 0.85300 47.34700
C  42.42700 -0.55500 47.18700
C  43.84200 -0.67400 47.29700
C  44.37200 0.73400 47.42200
C  41.39500 -1.59900 46.89600
C  44.67300 -1.94900 47.12400
O  44.07000 -3.01300 46.93100
C  46.18500 -2.13600 47.22100
N  45.52700 3.54100 47.28600
C  46.31000 2.40300 47.29800
C  47.75700 2.67800 47.43300
C  47.86200 4.19800 47.06500
C  46.41700 4.59000 47.22700
C  48.32900 2.23500 48.83500
C  48.48600 4.39200 45.67600
C  49.35900 5.59200 45.67400
N  43.63700 5.70200 47.19300
C  44.77500 6.47800 47.21300
C  44.40600 7.81400 47.28600
C  43.02100 7.83900 47.27600
C  42.61800 6.52200 47.20700
C  45.30000 9.01100 47.31100
C  41.83300 8.71300 47.41600
O  41.71700 9.89500 47.60400
C  40.60700 7.72100 47.21800
C  39.63900 7.91800 48.28300
O  39.67500 7.31900 49.36600
O  38.82500 9.02300 47.95600
C  37.76100 9.36700 48.93200
H  39.95100 0.87400 46.94400
H  46.51900 0.34300 47.52000
H  46.81100 6.73000 47.01400
H  38.56800 5.12200 47.61700
H  38.71500 2.91300 46.01400
H  37.65200 3.57500 48.58600
H  38.61300 2.07100 48.67900
H  37.25400 2.20800 47.59000
H  38.41500 4.62300 44.74200
H  39.63800 5.71400 44.83800
H  37.61100 6.94900 46.35300
H  36.77900 5.88800 45.19400
H  41.70200 -2.55100 47.33100
H  41.19400 -1.82000 45.84800
H  40.47700 -1.20400 47.33100
H  46.78500 -1.48300 46.58700
H  46.20900 -3.13800 46.79200
H  46.37400 -1.98500 48.28400
H  48.26900 2.02400 46.72700
H  48.42500 4.72700 47.83400
H  47.69300 1.58200 49.43300
H  48.51700 3.09600 49.47600
H  49.23600 1.65900 48.65300
H  47.64400 4.39400 44.98400
H  49.15800 3.53600 45.61100
H  50.39300 5.27500 45.54200
H  49.18500 6.37400 46.41400
H  49.12700 6.22300 44.81700
H  45.09700 9.56300 48.22800
H  45.17100 9.69700 46.47400
H  46.37000 8.80900 47.36600
H  40.16600 7.75200 46.22100
H  38.13700 9.28200 49.95200
H  36.82100 8.82900 48.81100
H  37.52800 10.42000 48.77400

