158

Mg 46.51500 25.16300 28.70500
C  47.60000 27.50400 31.08200
C  45.67800 23.10900 31.25600
C  45.97500 22.75000 26.42400
C  47.97900 27.11800 26.18500
N  46.55700 25.37800 30.85700
C  46.87700 26.45000 31.67800
C  46.56700 26.22200 33.13100
C  46.01800 24.73600 33.17300
C  46.09600 24.36700 31.65200
C  46.67600 23.79500 34.16100
C  45.68500 27.40400 33.74200
C  46.16900 28.01500 35.05900
H  45.09500 28.27200 36.20400
N  45.83200 23.14500 28.81300
C  45.56100 22.53700 30.00800
C  45.06800 21.17800 29.60700
C  45.20300 21.00400 28.18300
C  45.71100 22.30600 27.72700
C  44.55000 20.14700 30.60400
C  44.88600 19.87100 27.33700
O  44.93100 19.89300 26.11300
C  44.56700 18.52400 27.97200
N  46.99200 24.94700 26.62600
C  46.47000 23.91000 25.89400
C  46.59200 24.22100 24.40500
C  47.01600 25.68800 24.38300
C  47.42000 25.93500 25.78500
C  47.50100 23.26100 23.60300
C  45.86600 26.68300 23.94000
C  46.26200 27.55900 22.74800
N  47.51500 26.95700 28.59700
C  48.03500 27.63000 27.48200
C  48.68000 28.85700 27.97900
C  48.51500 28.79700 29.37000
C  47.79500 27.71700 29.68300
C  49.47400 29.79500 27.17400
C  48.86300 29.42100 30.54500
O  49.64300 30.38200 30.71700
C  48.23600 28.73300 31.74100
C  49.33800 28.24200 32.63700
O  50.33000 27.60300 32.29200
O  49.12300 28.67500 33.88900
C  50.12300 28.43800 35.02400
H  45.30200 22.52000 32.09500
H  45.66400 22.04200 25.65300
H  48.27200 27.90600 25.48800
H  47.44400 26.24000 33.77800
H  44.96200 24.93100 33.35600
H  46.89200 24.48300 34.97800
H  47.59900 23.43300 33.70800
H  46.07400 22.94400 34.47800
H  44.68600 27.02700 33.95900
H  45.48000 28.09500 32.92400
H  46.38000 29.03100 34.72600
H  47.06500 27.56200 35.48300
H  43.52900 19.77100 30.55700
H  44.57400 20.42400 31.65800
H  45.16000 19.26900 30.39100
H  43.74400 18.67000 28.67100
H  45.43100 18.18300 28.54300
H  44.42600 17.68800 27.28600
H  45.61200 24.13900 23.93500
H  47.93900 25.91500 23.84900
H  46.95600 22.69000 22.85100
H  47.90600 22.55400 24.32800
H  48.22600 23.86000 23.05200
H  45.67500 27.32500 24.79900
H  44.90900 26.20300 23.73600
H  45.63600 27.32300 21.88800
H  47.31500 27.37600 22.53400
H  46.11700 28.58200 23.09600
H  49.12400 30.04600 26.17300
H  50.43300 29.31700 26.97100
H  49.54700 30.72300 27.74200
H  47.60200 29.44500 32.26800
H  49.75500 28.75900 35.99800
H  51.04500 28.98600 34.82900
H  50.33900 27.39600 35.26100
Mg 1.58900 43.14000 25.54100
C  3.24000 43.12700 28.62300
C  -1.21400 41.94200 27.24700
C  0.29900 42.54900 22.53100
C  4.58000 43.96700 24.01600
N  1.03100 42.77500 27.74800
C  1.83100 42.88500 28.84800
C  1.05600 42.55800 30.10200
C  -0.24800 41.95000 29.54900
C  -0.19100 42.27400 28.09900
C  -0.40900 40.40300 29.83200
C  1.00000 43.80800 30.96800
C  1.54300 43.69100 32.39800
H  0.58100 43.03800 33.42200
N  -0.20600 42.32600 24.93100
C  -1.26100 41.90100 25.80400
C  -2.43700 41.54800 24.93400
C  -2.02800 41.70800 23.54200
C  -0.59100 42.19700 23.61300
C  -3.66700 41.13400 25.60500
C  -2.82600 41.59200 22.20200
O  -2.42200 41.68000 21.05600
C  -4.29700 41.39700 22.28000
N  2.37300 43.17400 23.55300
C  1.60200 43.01700 22.49300
C  2.38100 43.32400 21.14100
C  3.64100 44.06500 21.70400
C  3.51600 43.74000 23.20900
C  2.57200 42.11700 20.15600
C  3.63700 45.62400 21.26400
C  4.67200 45.97900 20.22100
N  3.48300 43.55000 26.10000
C  4.63300 43.78200 25.38600
C  5.77600 43.98000 26.27900
C  5.24700 43.68100 27.52400
C  3.87000 43.43700 27.41300
C  7.23300 44.28300 25.88500
C  5.72300 43.35400 28.83700
O  6.88000 43.21200 29.30400
C  4.35800 43.16400 29.66800
C  4.50300 41.85600 30.46100
O  4.52100 40.70400 30.01700
O  4.69600 42.21500 31.83400
C  4.67300 41.23000 32.88100
H  -2.05300 41.56800 27.83700
H  -0.17200 42.54200 21.54600
H  5.41700 44.32200 23.41200
H  1.75100 41.88900 30.60800
H  -1.04900 42.52800 30.01000
H  0.48900 40.08900 30.36500
H  -0.41700 39.89000 28.87000
H  -1.29500 40.11200 30.39500
H  -0.04500 44.07300 31.13100
H  1.46500 44.66600 30.48300
H  1.78900 44.72700 32.63000
H  2.43900 43.08000 32.29200
H  -3.45700 40.79000 26.61800
H  -4.06200 40.25100 25.10200
H  -4.49100 41.82500 25.78600
H  -4.77700 41.58200 21.31900
H  -4.77500 42.11000 22.95100
H  -4.46600 40.42700 22.74600
H  1.75500 43.99100 20.54800
H  4.63900 43.70600 21.45500
H  3.60900 41.86500 20.37400
H  2.65100 42.48800 19.13400
H  1.86600 41.30300 20.32100
H  3.81400 46.15700 22.19800
H  2.68800 45.95700 20.84500
H  4.11400 46.29100 19.33800
H  5.34900 45.13900 20.06800
H  5.27000 46.82000 20.57100
H  7.44600 45.33600 25.70200
H  7.43900 43.78200 24.93900
H  7.87700 43.97400 26.70900
H  4.16400 44.00200 30.33700
H  5.13400 41.55900 33.81300
H  5.21600 40.36400 32.50300
H  3.67800 40.80900 33.02900

