158

Mg 30.69800 59.41800 39.11500
C  27.75100 57.78300 37.63400
C  32.45500 56.70500 37.85900
C  33.49400 61.29600 39.34400
C  28.71500 62.38300 39.25500
N  30.16900 57.51000 37.74800
C  28.89300 57.02600 37.43400
C  28.97400 55.61300 36.81700
C  30.46200 55.21900 37.10000
C  31.09600 56.56700 37.53500
C  30.67500 54.00100 38.09900
C  28.65500 55.61400 35.29500
C  27.66200 54.67300 34.75300
H  26.72200 55.26900 33.68100
N  32.74400 58.98400 38.80100
C  33.25600 57.76900 38.39600
C  34.71000 57.84800 38.53000
C  35.02500 59.16900 38.95300
C  33.72800 59.89600 39.08600
C  35.62500 56.72500 38.18000
C  36.44800 59.64500 39.15000
O  37.39800 58.92900 38.95300
C  36.71200 61.00500 39.69700
N  31.03500 61.52600 39.36000
C  32.33400 62.07000 39.53100
C  32.22900 63.61700 39.57200
C  30.66500 63.91700 39.65900
C  30.06600 62.54100 39.36600
C  33.07700 64.21600 40.73100
C  30.04200 65.01900 38.69300
C  29.12700 65.98200 39.38700
N  28.64100 59.99000 38.79500
C  28.00100 61.21100 38.97200
C  26.59400 61.05600 38.65800
C  26.48400 59.73400 38.13900
C  27.71700 59.09400 38.22600
C  25.53600 62.17800 38.61700
C  25.55900 58.80300 37.54700
O  24.34000 58.93200 37.28600
C  26.30200 57.51100 37.25600
C  25.71600 56.43900 38.12300
O  25.73200 56.33900 39.36600
O  25.16100 55.54100 37.29200
C  24.57500 54.41600 37.99700
H  32.91900 55.72200 37.75800
H  34.32100 62.00500 39.41100
H  28.17900 63.32700 39.37400
H  28.28100 55.00500 37.39800
H  31.01000 54.96300 36.19300
H  31.08200 54.32900 39.05500
H  31.35700 53.31800 37.59300
H  29.74900 53.44100 38.22800
H  29.58700 55.43100 34.76000
H  28.37200 56.63800 35.05500
H  27.03700 54.27900 35.55400
H  28.23200 53.86900 34.28800
H  36.40700 56.57000 38.92300
H  36.09600 57.10100 37.27200
H  35.11700 55.76600 38.08800
H  37.77000 61.12600 39.92600
H  36.07000 61.19700 40.55600
H  36.53100 61.75800 38.93000
H  32.64100 63.87000 38.59500
H  30.33300 64.04300 40.68900
H  32.65300 64.91200 41.45500
H  33.84000 64.81600 40.23700
H  33.58600 63.47200 41.34400
H  29.44500 64.45400 37.97700
H  30.80200 65.55300 38.12300
H  29.53200 66.99400 39.36800
H  28.96100 65.72600 40.43400
H  28.10600 65.95200 39.00900
H  24.95700 62.18600 37.69400
H  25.91600 63.16700 38.87300
H  24.87000 62.03600 39.46800
H  26.22400 57.31200 36.18800
H  25.26700 53.57400 38.01300
H  23.63600 54.21500 37.48100
H  24.35000 54.53200 39.05700
Mg -11.25800 18.45500 43.08500
C  -7.75600 18.69300 43.93700
C  -11.50800 21.81100 42.86700
C  -14.28000 18.02500 41.83000
C  -10.72100 14.91700 43.09200
N  -9.75600 19.95900 43.36600
C  -8.43700 19.87100 43.65600
C  -7.76300 21.21800 43.37000
C  -9.01800 22.22900 43.48900
C  -10.20000 21.32000 43.16100
C  -9.17900 23.08000 44.78700
C  -7.20600 21.14100 41.89600
C  -5.72100 21.32800 41.83600
H  -5.14600 21.99200 40.62900
N  -12.73600 19.74900 42.42100
C  -12.70100 21.11200 42.40500
C  -13.82000 21.68500 41.80100
C  -14.71500 20.54000 41.44800
C  -13.97600 19.38100 41.97500
C  -13.95600 23.14900 41.58600
C  -16.10700 20.70200 40.90300
O  -16.50700 21.78700 40.55200
C  -16.96500 19.55800 40.58900
N  -12.32300 16.75800 42.50200
C  -13.59600 16.83400 41.98300
C  -14.20400 15.47500 41.75300
C  -13.13700 14.43600 42.26800
C  -11.96800 15.38500 42.61000
C  -15.68000 15.32500 42.24400
C  -12.74700 13.32600 41.17400
C  -12.58000 11.84500 41.69900
N  -9.63800 16.95100 43.57700
C  -9.60500 15.61600 43.52300
C  -8.27000 15.14800 43.83700
C  -7.49400 16.27000 44.08600
C  -8.41100 17.38100 43.93800
C  -7.83200 13.69600 43.83200
C  -6.17900 16.83100 44.41400
O  -5.13500 16.26000 44.79000
C  -6.32800 18.35700 44.35500
C  -5.91400 18.87000 45.71900
O  -6.55700 18.76800 46.71500
O  -4.57200 19.27300 45.73000
C  -4.07600 20.03200 46.86100
H  -11.48200 22.90200 42.91100
H  -15.26300 17.74400 41.44600
H  -10.51000 13.87800 42.83000
H  -7.10700 21.36000 44.22900
H  -8.83100 22.94300 42.68700
H  -9.49400 24.06900 44.45300
H  -8.19800 23.15900 45.25700
H  -9.90400 22.62000 45.45800
H  -7.66100 21.85800 41.21200
H  -7.42900 20.19300 41.40700
H  -5.25400 20.37300 42.07700
H  -5.44700 21.91500 42.71300
H  -14.36900 23.40600 40.61000
H  -12.95400 23.56900 41.50100
H  -14.55600 23.59300 42.38000
H  -16.60000 18.96300 39.75100
H  -17.92600 19.89800 40.20300
H  -17.16900 18.91400 41.44400
H  -14.16600 15.36900 40.66900
H  -13.46600 13.92600 43.17400
H  -15.96100 16.16900 42.87400
H  -15.75800 14.36300 42.74900
H  -16.33400 15.23900 41.37700
H  -11.83200 13.66800 40.69000
H  -13.48900 13.33900 40.37500
H  -12.46700 11.09000 40.92100
H  -13.53900 11.48500 42.07200
H  -11.84900 11.87400 42.50600
H  -8.05600 13.27600 42.85100
H  -8.27600 13.12700 44.64900
H  -6.74600 13.61700 43.88600
H  -5.55000 18.56500 43.62000
H  -4.28700 21.09400 46.73200
H  -3.01000 20.06500 47.08800
H  -4.67300 19.79100 47.74000

