158

Mg 46.39900 34.53100 27.93300
C  44.26700 32.66600 30.19100
C  46.37500 36.98900 30.40600
C  47.91500 36.52500 25.75000
C  45.94600 32.09200 25.53100
N  45.59100 34.74600 30.07700
C  44.75600 33.82900 30.72300
C  44.63300 34.33600 32.17800
C  45.01600 35.85500 32.22700
C  45.72400 35.89700 30.84400
C  43.80800 36.77000 32.31200
C  45.42400 33.37200 33.12600
C  46.30100 33.87000 34.29200
H  45.70600 34.81300 35.36200
N  47.17400 36.47400 28.15300
C  47.11500 37.30400 29.21600
C  47.88100 38.49300 28.88200
C  48.32700 38.38900 27.50000
C  47.79200 37.08600 27.06600
C  47.85600 39.68600 29.81800
C  49.15500 39.30800 26.62800
O  49.50100 39.10700 25.43200
C  49.68300 40.65000 27.24200
N  46.62900 34.40400 25.88200
C  47.41500 35.37800 25.20100
C  47.74100 34.86000 23.78200
C  47.22500 33.37900 23.80500
C  46.48600 33.28700 25.06700
C  46.94600 35.69600 22.73700
C  48.41800 32.41900 23.75600
C  48.36900 31.24700 22.77100
N  45.33400 32.75700 27.89300
C  45.26300 31.88900 26.78600
C  44.56200 30.69400 27.27100
C  44.05500 31.03100 28.55500
C  44.52500 32.26900 28.89100
C  44.45000 29.31900 26.58200
C  43.25000 30.52200 29.59800
O  42.61600 29.45400 29.64900
C  43.17000 31.62500 30.67700
C  43.32100 31.11100 32.04500
O  44.11200 30.27600 32.45700
O  42.31700 31.67800 32.87000
C  42.17600 31.14500 34.23700
H  46.37100 37.85500 31.07100
H  48.50900 37.03600 24.98900
H  45.82700 31.25700 24.83700
H  43.59100 34.20200 32.46600
H  45.72300 36.16800 32.99600
H  43.84200 37.17300 33.32400
H  42.87500 36.22300 32.17400
H  43.78400 37.64200 31.65900
H  46.12200 32.80400 32.51100
H  44.67400 32.72300 33.57800
H  47.08400 34.43700 33.78900
H  46.77000 32.96000 34.66800
H  47.55200 40.62600 29.35900
H  48.85400 39.94900 30.16900
H  47.19900 39.68900 30.68700
H  50.38300 41.13000 26.55800
H  50.15900 40.35200 28.17600
H  48.87900 41.36100 27.43400
H  48.80500 35.02700 23.61600
H  46.53000 33.15600 22.99600
H  47.50000 36.62200 22.58100
H  46.06800 36.00900 23.30200
H  46.77600 35.06500 21.86500
H  48.49600 31.93300 24.72800
H  49.34900 32.98600 23.76900
H  47.47500 31.29300 22.14900
H  48.48200 30.26400 23.22900
H  49.24900 31.45000 22.16100
H  43.81300 28.60400 27.10300
H  45.40000 28.80900 26.41700
H  43.95000 29.49500 25.62900
H  42.17300 32.03300 30.51200
H  42.71800 30.21800 34.42000
H  41.19800 31.04800 34.70900
H  42.66100 31.94200 34.80000
Mg 30.13800 59.39800 40.45200
C  26.96000 58.15900 39.21100
C  31.62400 56.67500 38.90300
C  33.12200 61.02900 40.54100
C  28.47400 62.36800 41.13700
N  29.30500 57.65300 39.11200
C  28.00700 57.25100 38.91600
C  28.01600 55.94400 38.03300
C  29.42300 55.34100 38.37200
C  30.16200 56.63900 38.78700
C  29.41700 54.31000 39.54400
C  27.87100 56.28100 36.49000
C  26.71000 55.58100 35.69900
H  26.96800 54.83000 34.33500
N  32.05100 58.96400 39.93300
C  32.47200 57.70400 39.42000
C  33.99100 57.71900 39.27200
C  34.37400 58.91400 39.83700
C  33.19600 59.69600 40.18200
C  34.84400 56.58700 38.65000
C  35.81900 59.34000 39.91700
O  36.73800 58.60200 39.55100
C  36.25800 60.65800 40.56000
N  30.64600 61.43700 40.79400
C  31.96600 61.87700 40.69100
C  31.95700 63.44700 40.92200
C  30.52100 63.78900 41.49600
C  29.78300 62.51200 41.08500
C  33.06000 64.07000 41.67600
C  29.87600 65.10900 41.01900
C  29.58800 66.14700 42.09100
N  28.17200 60.12400 40.33100
C  27.65100 61.31600 40.64500
C  26.21600 61.29700 40.56600
C  25.86900 60.10900 39.94300
C  27.09900 59.39600 39.81000
C  25.41000 62.42200 41.03200
C  24.76000 59.33200 39.45900
O  23.54200 59.52800 39.60700
C  25.44200 57.98400 38.91900
C  24.83600 56.76400 39.59200
O  24.60900 56.61600 40.78800
O  24.66400 55.76000 38.62600
C  24.03000 54.50800 39.12600
H  32.24600 55.79600 38.72000
H  34.03200 61.63300 40.56800
H  27.81600 63.18900 41.43100
H  27.29400 55.16300 38.27300
H  30.00300 54.86500 37.58100
H  28.42600 54.30400 39.99700
H  30.09700 54.67500 40.31400
H  29.71000 53.32400 39.18400
H  28.81500 56.12600 35.96700
H  27.67100 57.35100 36.43900
H  25.92200 56.30500 35.48800
H  26.14200 54.85400 36.28000
H  35.42900 57.00600 37.83100
H  34.14500 55.82200 38.31200
H  35.46000 56.10400 39.40800
H  35.99400 61.54100 39.97800
H  37.33200 60.51300 40.67400
H  35.87600 60.75700 41.57600
H  32.00700 63.91200 39.93700
H  30.64500 63.85100 42.57700
H  32.72600 65.03300 42.06300
H  33.94500 64.06400 41.04000
H  33.32800 63.43300 42.51900
H  29.01600 64.91800 40.37700
H  30.69600 65.52200 40.43200
H  28.57200 66.54000 42.05500
H  30.12300 67.03500 41.75500
H  29.81100 65.89100 43.12700
H  25.58100 62.43100 42.10800
H  24.35200 62.20700 40.87800
H  25.74600 63.40800 40.70900
H  25.18500 57.89700 37.86300
H  23.00000 54.83900 39.25900
H  24.45000 54.13200 40.05900
H  23.94300 53.74300 38.35500

