158

Mg 35.96900 2.60400 30.20300
C  33.42900 3.62400 32.46900
C  37.94400 2.05100 32.92300
C  37.85100 1.01200 28.16200
C  33.45100 2.85600 27.59200
N  35.79300 2.91800 32.40000
C  34.65400 3.28100 33.08500
C  34.93500 3.29300 34.66200
C  36.46200 3.19900 34.70800
C  36.77700 2.75300 33.22400
C  37.24000 4.44200 35.24000
C  34.03800 2.22100 35.39500
C  33.70100 2.56500 36.86100
H  34.72400 3.47900 37.67300
N  37.73600 1.79200 30.50400
C  38.43100 1.62500 31.66100
C  39.58500 0.84100 31.36900
C  39.62700 0.61700 29.97700
C  38.38700 1.19600 29.48700
C  40.59100 0.28600 32.48000
C  40.62600 -0.18100 29.16700
O  40.63000 -0.33100 27.97800
C  41.70500 -0.81100 29.91000
N  35.73700 2.25000 28.09100
C  36.69300 1.37800 27.58600
C  36.35300 0.89300 26.16400
C  34.87600 1.37800 26.00800
C  34.64600 2.22700 27.28700
C  37.37800 1.45600 25.14800
C  33.94100 0.12600 25.78000
C  33.06200 0.08600 24.49800
N  33.88100 3.23900 29.94500
C  33.06000 3.26600 28.87400
C  31.70900 3.50200 29.31100
C  31.78200 3.70100 30.67000
C  33.18300 3.55800 31.02100
C  30.49500 3.48500 28.40900
C  31.05000 3.98400 31.88500
O  29.89200 4.29000 32.04100
C  32.06600 3.94400 33.06500
C  32.04800 5.23900 33.81400
O  32.06300 6.32000 33.32400
O  32.00400 4.99300 35.15000
C  31.69700 6.14200 36.00300
H  38.49800 1.89100 33.85100
H  38.55200 0.44200 27.54800
H  32.66700 2.78300 26.83500
H  34.68300 4.25600 35.10700
H  36.66800 2.31000 35.30500
H  36.54100 5.18600 35.62100
H  37.83900 4.81000 34.40700
H  37.83400 4.18900 36.11800
H  34.74000 1.38800 35.35700
H  33.15000 1.93800 34.83100
H  33.63300 1.59700 37.35600
H  32.69300 2.98100 36.86200
H  40.84100 -0.77000 32.38000
H  40.18500 0.50500 33.46800
H  41.50500 0.86000 32.32900
H  42.49900 -1.00200 29.18700
H  41.39200 -1.72800 30.40900
H  42.09900 -0.09600 30.63200
H  36.40200 -0.19200 26.07900
H  34.71300 1.97800 25.11300
H  37.84700 0.59400 24.67400
H  38.15900 1.95800 25.71800
H  36.76300 2.01900 24.44500
H  33.27400 0.13000 26.64200
H  34.40600 -0.85800 25.82400
H  33.22900 1.00000 23.92800
H  32.00200 0.08800 24.75200
H  33.28500 -0.80200 23.90700
H  30.53900 2.52200 27.90100
H  30.35400 4.32300 27.72600
H  29.58700 3.47300 29.01200
H  31.76900 3.18500 33.79000
H  31.69100 7.10500 35.49200
H  32.47700 6.19500 36.76200
H  30.77200 6.09200 36.57700
Mg 35.52300 48.65200 25.24900
C  35.74800 46.79800 28.26500
C  34.28300 51.39300 27.03300
C  34.81600 49.99500 22.34600
C  36.37700 45.58400 23.53100
N  34.92400 48.96500 27.33700
C  35.18500 48.10800 28.37600
C  35.16200 48.83100 29.66000
C  34.44100 50.15200 29.29400
C  34.54600 50.20000 27.83900
C  32.97300 50.46900 29.89100
C  36.54500 49.01400 30.36800
C  36.64000 48.61700 31.85500
H  35.44500 48.97300 32.76400
N  34.78300 50.50400 24.69000
C  34.38500 51.57400 25.59300
C  34.07700 52.73400 24.83000
C  34.20700 52.32700 23.46200
C  34.57700 50.85300 23.43800
C  33.70500 54.12000 25.49700
C  33.97000 53.12100 22.17700
O  34.18700 52.63200 21.07900
C  33.48800 54.52700 22.24500
N  35.47200 47.85200 23.20400
C  35.17400 48.62400 22.21400
C  35.39100 47.92000 20.80100
C  35.93900 46.55800 21.16700
C  35.99600 46.72100 22.71700
C  34.03400 47.86900 19.96800
C  37.23200 46.08100 20.47400
C  38.52500 46.82700 20.74500
N  36.02200 46.60800 25.74800
C  36.37000 45.56400 24.93800
C  36.75800 44.35300 25.78600
C  36.59700 44.80200 27.08300
C  36.09100 46.16600 26.99600
C  37.27900 43.00900 25.39100
C  36.70500 44.48400 28.48400
O  36.99700 43.43900 29.09900
C  36.24700 45.75900 29.30100
C  35.14800 45.40000 30.20000
O  33.97000 45.17300 29.92400
O  35.58800 45.23700 31.50900
C  34.65000 44.65000 32.46200
H  33.85900 52.29200 27.48600
H  34.76600 50.40200 21.33400
H  36.67600 44.73800 22.90800
H  34.49500 48.33500 30.36500
H  34.98100 51.04100 29.61900
H  32.21700 50.60100 29.11700
H  32.97300 51.30000 30.59700
H  32.78300 49.54400 30.43500
H  36.84400 50.06000 30.30000
H  37.37400 48.46300 29.92400
H  37.58900 48.86700 32.33000
H  36.60600 47.52800 31.89400
H  33.84000 55.03500 24.92000
H  34.28800 54.23800 26.41100
H  32.66000 54.16700 25.80300
H  32.65900 54.69800 22.93100
H  33.19700 54.88400 21.25700
H  34.32800 55.08800 22.65400
H  36.12400 48.51000 20.25100
H  35.26900 45.71500 20.99400
H  33.99000 46.94700 19.38800
H  33.92700 48.64300 19.20800
H  33.16700 47.94300 20.62500
H  37.03700 46.11100 19.40200
H  37.37700 45.04700 20.78400
H  39.32100 46.22500 21.18400
H  38.39500 47.65100 21.44700
H  39.06200 47.26800 19.90500
H  37.52400 42.92200 24.33200
H  36.51600 42.23500 25.47100
H  38.12300 42.78700 26.04300
H  37.06600 46.04100 29.96300
H  34.17200 43.78500 32.00200
H  33.75700 45.22400 32.71000
H  35.21800 44.46100 33.37300

