158

Mg 36.59400 49.25500 25.81600
C  36.50500 47.04500 28.66700
C  35.72900 51.83900 28.14800
C  36.18700 51.23100 23.26900
C  37.03400 46.38200 23.83800
N  36.08500 49.44500 28.13400
C  36.19000 48.41800 29.09500
C  35.98100 48.89100 30.52600
C  35.53500 50.41100 30.28300
C  35.83600 50.61700 28.78100
C  34.01300 50.72700 30.70700
C  37.22800 48.87700 31.46200
C  36.81300 48.58200 32.97600
H  35.35500 48.75300 33.59200
N  36.23200 51.31500 25.71700
C  35.84600 52.19200 26.73700
C  35.74000 53.49200 26.15300
C  36.03900 53.37000 24.73100
C  36.14200 51.95700 24.49600
C  35.48100 54.86600 26.98500
C  36.26900 54.46900 23.74300
O  36.41800 54.18500 22.55600
C  36.32200 55.98600 24.16700
N  36.52100 48.79100 23.85600
C  36.37300 49.84200 22.93700
C  36.66900 49.35000 21.47400
C  37.17700 47.82200 21.71400
C  36.86300 47.66600 23.20700
C  35.49400 49.54800 20.52300
C  38.63700 47.46100 21.40000
C  38.85900 46.05800 20.75800
N  36.68200 47.15600 26.13200
C  36.83500 46.11000 25.22800
C  37.08900 44.87300 25.91600
C  37.01700 45.23400 27.28700
C  36.70400 46.60600 27.34100
C  37.32900 43.56300 25.28900
C  36.96700 44.65300 28.62700
O  37.27400 43.58500 29.08200
C  36.52500 45.80500 29.58300
C  35.28200 45.48300 30.31100
O  34.18300 45.90000 30.03100
O  35.56500 44.83600 31.42800
C  34.42100 44.56700 32.35100
H  35.50900 52.66900 28.82200
H  36.27600 51.93500 22.43900
H  37.56900 45.53200 23.40900
H  35.26600 48.22100 31.00400
H  36.15600 51.11000 30.84100
H  34.01200 51.48700 31.48800
H  33.44800 49.87700 31.09000
H  33.45700 51.20500 29.90000
H  37.81000 49.79100 31.34000
H  37.73500 48.08800 30.90700
H  37.46900 49.19000 33.59900
H  37.00900 47.51400 33.07100
H  35.08600 54.62200 27.97100
H  34.83400 55.58700 26.48400
H  36.50500 55.22300 27.08900
H  36.96400 56.20200 25.02100
H  35.28000 56.26600 24.31600
H  36.73700 56.54200 23.32500
H  37.58800 49.82500 21.13000
H  36.46600 47.13900 21.24900
H  35.26500 48.57900 20.07900
H  35.74300 50.15300 19.65100
H  34.67200 49.77000 21.20300
H  39.26200 47.40000 22.29100
H  39.18100 48.07300 20.68100
H  39.44800 46.16400 19.84700
H  37.91700 45.61300 20.43900
H  39.29900 45.44100 21.54100
H  36.53900 43.35100 24.56900
H  37.21800 42.78000 26.04000
H  38.32100 43.47900 24.84400
H  37.31300 45.92300 30.32600
H  34.69900 44.58700 33.40500
H  34.11600 43.52500 32.25100
H  33.52300 45.16300 32.18900
Mg 17.10500 52.21900 26.55500
C  18.89400 50.86300 29.36000
C  14.60800 53.08500 28.81300
C  15.56700 53.34100 24.07500
C  19.64600 50.88300 24.51600
N  16.81800 52.12300 28.83900
C  17.64600 51.51900 29.72800
C  17.17900 51.79100 31.14300
C  15.69800 52.24400 30.95100
C  15.69700 52.51100 29.48500
C  14.53800 51.25600 31.31700
C  18.17400 52.88700 31.81700
C  18.22500 52.71100 33.38000
H  17.10900 51.99700 34.11900
N  15.34400 53.15100 26.44900
C  14.44000 53.40500 27.46700
C  13.25100 54.02900 26.87700
C  13.47400 54.15100 25.43800
C  14.83800 53.51400 25.23100
C  12.17900 54.59900 27.72400
C  12.60200 54.71400 24.31200
O  13.05700 54.78600 23.14800
C  11.24100 55.28700 24.59900
N  17.52800 51.99600 24.53600
C  16.74800 52.80400 23.72100
C  17.40000 53.00900 22.33900
C  18.79700 52.21300 22.50900
C  18.69600 51.67700 23.94900
C  16.51100 52.64700 21.09000
C  20.03700 53.02000 22.40800
C  21.29300 52.17800 21.92300
N  18.94100 51.00200 26.84200
C  19.81500 50.59500 25.90200
C  20.95200 49.95800 26.55000
C  20.60100 50.00300 27.94200
C  19.39200 50.68100 28.06200
C  22.16300 49.40600 25.78500
C  21.02700 49.63100 29.27500
O  22.08200 49.09600 29.72200
C  19.99300 50.29300 30.25200
C  19.45300 49.27600 31.16700
O  18.70800 48.36900 30.83400
O  19.90200 49.53400 32.44500
C  19.42700 48.63200 33.56600
H  13.70100 53.29600 29.38300
H  15.08500 53.84300 23.23300
H  20.53500 50.50600 24.00500
H  17.32800 50.84400 31.66200
H  15.55200 53.15400 31.53200
H  15.04200 50.38100 31.72900
H  14.05600 51.03200 30.36600
H  13.82400 51.65300 32.03900
H  17.64900 53.80700 31.56300
H  19.16900 52.84200 31.37300
H  18.31900 53.76300 33.65200
H  19.18700 52.23200 33.56300
H  11.41100 55.29500 27.38700
H  12.66500 55.02400 28.60200
H  11.68900 53.72500 28.15400
H  10.56700 54.53500 25.01000
H  10.82300 55.60200 23.64300
H  11.12000 56.14100 25.26600
H  17.53200 54.08700 22.25200
H  18.81800 51.32800 21.87400
H  16.91700 51.98400 20.32600
H  16.03600 53.53600 20.67500
H  15.65000 52.14600 21.53300
H  20.31100 53.33000 23.41700
H  19.97500 53.78600 21.63400
H  22.13900 52.45200 22.55200
H  21.35700 52.48400 20.87900
H  21.25300 51.09900 21.76800
H  22.29000 49.76000 24.76200
H  22.06700 48.32500 25.88800
H  23.05200 49.70700 26.33900
H  20.51600 51.02800 30.86500
H  20.13900 47.83500 33.78100
H  18.44500 48.21500 33.34200
H  19.24200 49.25000 34.44500

