158

Mg 8.48200 3.39500 27.78500
C  9.96200 1.95100 30.72200
C  6.48200 5.09800 30.17400
C  7.06200 4.68700 25.28600
C  10.40300 1.33900 25.84500
N  8.13200 3.30200 30.29300
C  8.92200 2.73300 31.22100
C  8.44800 3.02700 32.63100
C  7.34200 4.10800 32.34000
C  7.28300 4.11400 30.85600
C  5.86100 3.71300 32.94500
C  9.55800 3.39100 33.60800
C  9.26900 4.53400 34.60400
H  9.97000 4.29800 35.96100
N  6.94200 4.66600 27.70500
C  6.27300 5.27300 28.78500
C  5.31500 6.27000 28.19100
C  5.57500 6.27800 26.80100
C  6.55600 5.14100 26.58000
C  4.29400 7.12700 28.96700
C  5.04900 7.15100 25.72400
O  5.49700 7.18300 24.54300
C  3.88100 7.98600 26.01600
N  8.59500 2.95400 25.74900
C  7.93500 3.70000 24.88600
C  8.34800 3.36400 23.45900
C  9.58600 2.47000 23.70500
C  9.49300 2.17200 25.19500
C  7.20400 2.56500 22.66500
C  10.88700 3.14100 23.32600
C  11.72300 3.92100 24.32400
N  9.81700 1.90700 28.12600
C  10.49500 1.11400 27.21400
C  11.43000 0.26600 27.83600
C  11.28300 0.57500 29.21700
C  10.28900 1.58800 29.37500
C  12.30700 -0.83900 27.26100
C  11.77900 0.21000 30.52200
O  12.72700 -0.50900 30.77400
C  10.91300 1.10500 31.53600
C  10.09000 0.16700 32.30200
O  9.17800 -0.45800 31.89600
O  10.49900 0.18200 33.61000
C  9.82200 -0.67100 34.58100
H  5.87100 5.78500 30.76400
H  6.64800 5.12800 24.37800
H  11.16400 0.86200 25.22400
H  8.10200 2.02200 32.87300
H  7.58100 5.11600 32.67900
H  5.18500 3.21900 32.24700
H  5.44600 4.66100 33.28700
H  5.91800 3.09000 33.83700
H  10.42800 3.53900 32.96900
H  9.65300 2.53500 34.27700
H  8.18900 4.64700 34.70100
H  9.69000 5.47400 34.24700
H  3.33800 6.60800 28.90000
H  4.30700 8.15000 28.59300
H  4.52200 7.24700 30.02700
H  3.58800 8.40200 25.05200
H  4.27600 8.81400 26.60500
H  3.11400 7.44800 26.57400
H  8.54000 4.20600 22.79400
H  9.66300 1.52800 23.16200
H  6.40800 2.59000 23.40900
H  7.31800 1.51400 22.39900
H  6.86200 3.17900 21.83200
H  10.69800 3.85400 22.52400
H  11.53700 2.39600 22.86600
H  11.15500 4.35800 25.14400
H  12.30100 4.71000 23.84400
H  12.38100 3.09500 24.59500
H  12.20600 -1.64700 27.98600
H  13.35500 -0.57600 27.39900
H  12.06300 -1.18400 26.25600
H  11.58900 1.64300 32.20100
H  9.53900 -0.01900 35.40700
H  10.48200 -1.34900 35.12200
H  8.93500 -1.08400 34.09900
Mg 41.64800 40.51300 26.74800
C  41.04700 42.84300 29.15500
C  42.44700 38.21400 29.13100
C  42.25900 38.33800 24.19800
C  40.67400 42.85700 24.31200
N  41.97600 40.60600 28.90300
C  41.53100 41.63100 29.70900
C  41.51000 41.27100 31.20400
C  41.95300 39.72600 31.12700
C  42.15100 39.48900 29.62900
C  43.20800 39.40200 32.00500
C  40.14700 41.41900 31.89600
C  39.83200 40.66500 33.20600
H  39.28100 41.42800 34.43700
N  42.38200 38.61600 26.70200
C  42.68200 37.80900 27.78800
C  43.17800 36.49100 27.33000
C  43.12600 36.47200 25.90300
C  42.55700 37.87100 25.53100
C  43.55500 35.43500 28.29500
C  43.51800 35.29000 24.98300
O  43.20100 35.22300 23.79900
C  44.24500 34.15800 25.57900
N  41.65200 40.64000 24.53100
C  41.74900 39.57400 23.79400
C  41.58000 39.88600 22.28500
C  40.83000 41.27200 22.31800
C  41.09000 41.63500 23.81700
C  42.90900 39.83600 21.40800
C  39.43800 41.33800 21.83100
C  38.32300 40.71100 22.69600
N  41.04300 42.43300 26.65000
C  40.67700 43.31800 25.59400
C  40.36600 44.61800 26.15800
C  40.50300 44.45600 27.51600
C  40.87500 43.13100 27.79300
C  39.99700 45.88800 25.41000
C  40.39100 45.15600 28.76100
O  40.04600 46.30700 29.01800
C  40.59000 44.09100 29.89900
C  41.58100 44.52000 30.93600
O  42.76400 44.66200 30.64500
O  41.02500 44.72300 32.21500
C  42.00600 45.17400 33.30200
H  42.72400 37.47400 29.88500
H  42.41800 37.49600 23.52200
H  40.21600 43.52000 23.57500
H  42.14600 41.83800 31.88300
H  41.08800 39.12000 31.39300
H  42.89400 39.06500 32.99300
H  43.83900 40.28500 32.10300
H  43.83900 38.59900 31.62600
H  39.38700 41.35100 31.11800
H  40.22300 42.47300 32.16500
H  40.61000 39.96300 33.50900
H  39.08800 39.89100 33.01600
H  42.77800 34.67100 28.30500
H  43.58000 35.81300 29.31800
H  44.47200 34.93400 27.98500
H  43.74900 33.59500 26.37100
H  45.17500 34.52900 26.01000
H  44.51300 33.30000 24.96200
H  40.94900 39.11700 21.84000
H  41.38700 41.93600 21.65700
H  42.98000 38.92500 20.81500
H  43.81000 39.96900 22.00600
H  42.93700 40.68600 20.72500
H  39.40000 40.73700 20.92200
H  39.25500 42.40600 21.71300
H  38.61700 40.29100 23.65800
H  37.67800 40.08400 22.08100
H  37.61200 41.51200 22.89700
H  39.62900 45.68000 24.40500
H  40.85300 46.56200 25.39300
H  39.25800 46.44000 25.99000
H  39.64300 43.95900 30.42100
H  41.63600 46.01500 33.88900
H  42.99200 45.50500 32.97400
H  42.14500 44.36200 34.01500

