158

Mg -2.35500 17.26100 27.26300
C  -2.68900 14.98400 29.87600
C  -2.80500 19.79500 29.46000
C  -2.30700 19.37600 24.55000
C  -2.14700 14.53200 25.04300
N  -2.67100 17.32200 29.43800
C  -2.79900 16.30800 30.31200
C  -2.80200 16.82700 31.76200
C  -3.23800 18.30500 31.52500
C  -2.85600 18.49800 30.07400
C  -4.77900 18.54300 31.73000
C  -1.43500 16.69800 32.55000
C  -1.55400 16.03100 33.96400
H  -0.47400 16.09600 34.97300
N  -2.53000 19.31800 27.00300
C  -2.64600 20.20000 28.01500
C  -2.56800 21.52800 27.54200
C  -2.35300 21.42200 26.14000
C  -2.36200 19.98100 25.83800
C  -2.63000 22.78900 28.43800
C  -1.99600 22.50500 25.11200
O  -1.64200 22.33100 23.97500
C  -2.03300 23.91300 25.49900
N  -2.58000 17.01700 25.11400
C  -2.45700 18.05300 24.17400
C  -2.28700 17.47400 22.77600
C  -2.05700 15.92200 22.95400
C  -2.30600 15.82600 24.47700
C  -3.51900 17.73900 21.86600
C  -0.66600 15.44600 22.37500
C  0.64800 15.54700 23.26100
N  -2.36700 15.17300 27.33400
C  -2.11000 14.20700 26.38800
C  -2.17300 12.90200 26.98600
C  -2.33000 13.17900 28.37300
C  -2.47500 14.55400 28.52700
C  -2.18900 11.69400 26.21500
C  -2.58700 12.59400 29.65800
O  -2.66600 11.39500 29.95200
C  -2.85300 13.74300 30.65600
C  -1.78200 13.44900 31.73200
O  -0.55800 13.63600 31.64600
O  -2.33300 12.78100 32.79000
C  -1.36000 12.28200 33.77200
H  -2.95500 20.61100 30.17000
H  -2.08900 20.05400 23.72200
H  -2.06500 13.70800 24.33200
H  -3.62000 16.34300 32.29500
H  -2.80500 18.99900 32.24500
H  -5.42200 17.66400 31.68900
H  -5.23300 19.28100 31.06900
H  -4.93300 18.82800 32.77100
H  -0.98900 17.68800 32.65000
H  -0.86400 15.94600 32.00600
H  -1.98200 15.02900 33.94200
H  -2.35200 16.65300 34.36900
H  -3.06500 22.52700 29.40200
H  -3.18800 23.63400 28.03600
H  -1.58100 23.06200 28.55400
H  -1.20300 24.27700 26.10500
H  -2.99800 24.12000 25.96100
H  -2.13800 24.56100 24.62900
H  -1.35300 17.91400 22.42700
H  -2.80100 15.39900 22.35300
H  -4.36600 17.33100 22.41900
H  -3.44200 17.18300 20.93100
H  -3.59700 18.81700 21.72700
H  -0.36200 16.02600 21.50400
H  -0.77500 14.40000 22.09100
H  1.10400 14.56000 23.32800
H  0.43500 15.91700 24.26400
H  1.43900 16.13700 22.79800
H  -1.67500 11.72300 25.25400
H  -3.23100 11.43500 26.02300
H  -1.83100 10.89000 26.85800
H  -3.78800 13.59400 31.19600
H  -1.87400 11.83900 34.62500
H  -0.78200 13.09000 34.21900
H  -0.69700 11.52400 33.35300
Mg 48.82900 35.40000 28.40400
C  46.76100 33.71300 30.61000
C  49.18700 37.82600 30.77000
C  50.58400 37.09700 26.18100
C  47.91800 33.05300 25.95400
N  48.13700 35.60400 30.45300
C  47.33700 34.83000 31.20100
C  47.31500 35.24800 32.71900
C  47.70200 36.75500 32.52000
C  48.34900 36.81400 31.13400
C  46.45700 37.69200 32.55100
C  48.41500 34.38400 33.46400
C  48.33400 34.15800 34.96300
H  47.43500 35.10700 35.70700
N  49.90800 37.17500 28.52000
C  49.96300 38.03500 29.59800
C  50.73400 39.21800 29.26900
C  51.11600 39.03900 27.87100
C  50.53400 37.72400 27.46600
C  50.94400 40.34300 30.22200
C  51.93500 39.96700 26.96500
O  51.97100 39.86100 25.77600
C  52.76100 41.09700 27.63600
N  48.94000 35.29500 26.26800
C  49.80800 36.04400 25.63800
C  50.06500 35.57400 24.22200
C  49.25600 34.31800 24.18700
C  48.54600 34.22100 25.54100
C  49.36800 36.60600 23.15400
C  50.19200 33.04300 23.81100
C  49.62700 32.26200 22.59200
N  47.65400 33.67200 28.25200
C  47.53700 32.74300 27.23500
C  46.64000 31.68800 27.62400
C  46.14300 32.09200 28.88000
C  46.92300 33.22300 29.27700
C  46.18000 30.48100 26.75800
C  45.33700 31.75100 30.05000
O  44.69000 30.75600 30.20100
C  45.58200 32.88400 31.12900
C  45.82200 32.18700 32.37000
O  46.81700 31.44900 32.58000
O  44.94300 32.60000 33.34800
C  45.05400 31.86600 34.61600
H  49.02600 38.74800 31.33400
H  51.26800 37.60800 25.50000
H  47.64200 32.34500 25.17000
H  46.36100 35.06400 33.21100
H  48.38400 36.97300 33.34200
H  45.65300 37.22800 33.12200
H  46.11500 37.99900 31.56200
H  46.57400 38.56100 33.19900
H  49.40000 34.74200 33.16600
H  48.49900 33.47800 32.86400
H  49.32900 34.14600 35.40700
H  47.93900 33.14200 34.98200
H  50.45300 41.22100 29.80300
H  52.02800 40.40900 30.32100
H  50.57400 40.01200 31.19200
H  53.51000 41.32900 26.87800
H  53.05500 40.55800 28.53600
H  52.01900 41.86900 27.83900
H  51.12100 35.42900 23.99500
H  48.49500 34.29600 23.40700
H  50.18700 37.15200 22.68600
H  48.68800 37.25800 23.70300
H  48.79800 36.11100 22.36700
H  50.24200 32.44400 24.72000
H  51.25500 33.25000 23.68300
H  48.76100 32.74800 22.14200
H  49.25500 31.25200 22.76800
H  50.40100 32.28400 21.82500
H  47.08500 30.27700 26.18600
H  45.37600 30.78200 26.08500
H  45.97200 29.54300 27.27200
H  44.64000 33.42800 31.20800
H  44.21100 31.17700 34.66600
H  44.96400 32.60600 35.41100
H  45.96700 31.28400 34.74000

