158

Mg -2.50000 17.93600 26.78700
C  -2.64800 15.54000 29.52900
C  -2.52300 20.38900 29.13900
C  -2.56700 20.00000 24.27400
C  -2.90700 15.14600 24.59700
N  -2.45800 17.91300 29.13800
C  -2.49000 16.87500 30.00400
C  -2.36800 17.43100 31.45100
C  -2.28800 19.00000 31.18700
C  -2.51600 19.13700 29.73700
C  -3.32100 19.80800 32.12600
C  -1.15500 16.76100 32.24300
C  -0.17300 17.68400 33.02000
H  0.15400 17.13200 34.40200
N  -2.58600 19.93800 26.71300
C  -2.61700 20.80500 27.80700
C  -2.57900 22.16300 27.31000
C  -2.56700 22.08300 25.87600
C  -2.60900 20.63700 25.57300
C  -2.47200 23.36300 28.18000
C  -2.38600 23.16300 24.82100
O  -2.35200 22.91500 23.60400
C  -2.21900 24.54300 25.23900
N  -2.84900 17.60800 24.78700
C  -2.80300 18.65300 23.83600
C  -2.74700 18.11100 22.37400
C  -2.67000 16.54800 22.63500
C  -2.86000 16.42900 24.10000
C  -3.93600 18.48900 21.47500
C  -1.47200 15.86400 21.92300
C  -0.21300 15.67500 22.81000
N  -2.68800 15.84200 26.97000
C  -2.81400 14.89200 25.95300
C  -2.75900 13.62000 26.54400
C  -2.67300 13.76800 27.92300
C  -2.72000 15.19400 28.14000
C  -2.91400 12.28700 25.90100
C  -2.68900 13.04900 29.28400
O  -2.77600 11.86000 29.61400
C  -2.74200 14.20500 30.27400
C  -1.56000 13.81400 31.14200
O  -0.40800 13.74400 30.80500
O  -2.09000 13.35900 32.35200
C  -0.95500 12.96600 33.27700
H  -2.48800 21.21000 29.85800
H  -2.67200 20.73300 23.47200
H  -2.85200 14.24900 23.97700
H  -3.29600 17.02800 31.85600
H  -1.28900 19.41300 31.32400
H  -3.08200 19.49000 33.14000
H  -4.30900 19.56200 31.73600
H  -3.20700 20.88800 32.21900
H  -0.59900 16.39900 31.37800
H  -1.51000 15.95800 32.88900
H  -0.58900 18.68200 33.16000
H  0.78200 17.84600 32.52000
H  -1.70900 24.06000 27.83000
H  -2.40600 23.20600 29.25600
H  -3.43300 23.87300 28.10900
H  -3.12900 24.70900 25.81600
H  -2.09500 25.19400 24.37300
H  -1.26700 24.51100 25.77000
H  -1.89700 18.46800 21.79300
H  -3.60000 16.16200 22.21800
H  -4.74500 17.75900 21.50800
H  -3.59600 18.49400 20.44000
H  -4.25500 19.50800 21.69600
H  -1.04200 16.38400 21.06700
H  -1.72800 14.84200 21.64700
H  -0.32600 16.09700 23.80900
H  0.66000 16.12000 22.33300
H  0.19000 14.68200 23.00800
H  -2.51800 12.08600 24.90500
H  -3.96600 12.01000 25.82900
H  -2.39900 11.58900 26.56200
H  -3.60900 14.18300 30.93400
H  -1.35100 12.93500 34.29200
H  -0.10600 13.64700 33.22900
H  -0.65600 11.96700 32.96200
Mg 0.44000 7.93900 25.98400
C  1.41600 9.85000 28.80600
C  0.53200 5.12400 27.92000
C  -0.14100 6.19000 23.25900
C  0.47300 10.98700 24.06300
N  0.82600 7.56900 28.08100
C  1.19400 8.46800 29.01800
C  1.34000 7.80800 30.45100
C  1.48600 6.22600 29.98600
C  0.90200 6.31300 28.59700
C  2.83400 5.52000 30.25300
C  0.24800 8.15900 31.47300
C  0.45300 8.04200 33.02800
H  1.70700 7.32500 33.44500
N  0.32400 5.85100 25.59600
C  0.32800 4.89600 26.55500
C  0.18500 3.64600 25.87700
C  -0.08500 3.90000 24.42200
C  0.02900 5.33600 24.38100
C  0.17300 2.32500 26.58600
C  -0.44600 2.97900 23.28600
O  -0.74400 3.35000 22.13600
C  -0.48900 1.51600 23.49300
N  0.27300 8.60600 23.94000
C  -0.11300 7.62800 23.03500
C  -0.51500 8.29300 21.73700
C  -0.50200 9.80800 22.03200
C  0.01600 9.88000 23.49400
C  0.23300 7.74900 20.41800
C  -1.87300 10.66500 21.88100
C  -2.04100 11.79100 20.81700
N  0.98400 10.00500 26.24400
C  0.90500 11.05000 25.39800
C  1.29300 12.30800 26.09500
C  1.52000 11.82100 27.42400
C  1.26500 10.45100 27.47100
C  1.42200 13.72000 25.60700
C  1.86700 12.27000 28.72700
O  2.07200 13.40400 29.12800
C  1.59100 11.04500 29.71700
C  2.79600 10.88700 30.64600
O  3.90900 10.50800 30.30400
O  2.40900 11.23700 31.88800
C  3.26800 11.05200 33.03500
H  0.59000 4.16600 28.44300
H  -0.49400 5.60400 22.40800
H  0.45000 11.88700 23.44400
H  2.28900 8.16200 30.85200
H  0.91500 5.61000 30.68100
H  3.47500 6.26500 30.72400
H  3.21600 5.23700 29.27200
H  2.72600 4.66400 30.91900
H  -0.62300 7.52600 31.30200
H  -0.05300 9.20400 31.39500
H  -0.42500 7.48200 33.34900
H  0.37600 9.04600 33.44500
H  -0.22100 1.47200 26.03500
H  -0.44100 2.44400 27.47800
H  1.15000 2.17900 27.04800
H  -1.41900 1.28000 24.01000
H  0.27800 0.98000 24.05300
H  -0.51600 1.00500 22.53000
H  -1.54300 7.93200 21.75000
H  0.25200 10.11500 21.30700
H  0.55200 8.51200 19.70700
H  -0.50700 7.05800 20.01300
H  1.06000 7.10000 20.70300
H  -2.24500 11.06500 22.82400
H  -2.62100 9.95000 21.53700
H  -2.78100 11.57900 20.04600
H  -1.04400 11.98900 20.42400
H  -2.26300 12.66700 21.42800
H  2.32100 13.83100 25.00200
H  1.36500 14.43100 26.43200
H  0.58500 13.89800 24.93200
H  0.72900 11.35700 30.30600
H  2.64000 10.70500 33.85600
H  3.79500 11.93700 33.39200
H  3.95000 10.24500 32.76700

