158

Mg 55.10800 24.96600 45.07200
C  52.43900 27.13900 43.99300
C  53.40300 22.34400 43.85100
C  58.01900 23.32600 45.13700
C  56.66400 27.89000 46.44300
N  53.29100 24.84200 43.84800
C  52.37300 25.84300 43.51800
C  51.08600 25.29200 42.84600
C  51.33100 23.72200 43.26100
C  52.79100 23.62300 43.70200
C  50.31300 23.22300 44.30300
C  51.07300 25.57100 41.25200
C  49.73800 25.12200 40.64200
H  49.68400 24.23400 39.37300
N  55.64400 23.04000 44.59200
C  54.77800 22.10100 44.09900
C  55.54500 20.85600 43.92700
C  56.87600 21.14200 44.18300
C  56.92300 22.54200 44.61600
C  54.89700 19.58200 43.56300
C  58.04700 20.23700 44.14500
O  57.86700 19.07500 43.82100
C  59.45500 20.72800 44.42300
N  57.11000 25.59300 45.53500
C  58.06700 24.63900 45.66000
C  59.28600 25.25000 46.35600
C  58.83000 26.72000 46.81800
C  57.42000 26.70200 46.30300
C  60.03400 24.31100 47.38300
C  59.69000 27.91300 46.27000
C  61.14800 27.65900 45.93200
N  54.74800 27.12500 45.20900
C  55.39800 28.12100 45.87800
C  54.57900 29.30600 45.82600
C  53.42900 29.04600 45.06700
C  53.56400 27.69600 44.74600
C  54.96800 30.55300 46.51200
C  52.19200 29.51700 44.61200
O  51.78100 30.66900 44.73400
C  51.47000 28.32000 43.82200
C  51.34600 28.89500 42.43200
O  52.22700 29.44700 41.75000
O  50.08300 28.64400 41.93000
C  49.76000 29.05000 40.53600
H  52.81900 21.50400 43.46900
H  59.00100 22.86900 45.27500
H  57.28200 28.64300 46.93900
H  50.24800 25.71000 43.40400
H  51.19900 23.12000 42.36200
H  49.37900 23.78200 44.36800
H  50.85200 23.29700 45.24800
H  49.97300 22.19400 44.18400
H  51.81000 24.93100 40.76800
H  51.33200 26.59600 40.98500
H  49.24200 26.07200 40.44400
H  49.27500 24.59400 41.47600
H  55.19900 19.35500 42.54100
H  53.84800 19.74000 43.31100
H  55.09700 18.78500 44.28000
H  59.65900 21.63000 43.84600
H  60.12900 20.06700 43.87800
H  59.68600 20.80000 45.48500
H  59.92600 25.51300 45.51300
H  58.69000 26.68200 47.89800
H  59.58700 23.32200 47.48700
H  60.03600 24.74200 48.38400
H  61.07800 24.14500 47.11400
H  59.83400 28.67400 47.03700
H  59.18300 28.29600 45.38400
H  61.46800 26.65400 46.20900
H  61.79900 28.40900 46.37900
H  61.21200 27.80300 44.85400
H  55.38600 31.13300 45.68900
H  55.74000 30.50000 47.27900
H  54.14100 31.13300 46.92100
H  50.55100 28.15500 44.38300
H  49.03000 28.35400 40.12100
H  50.63200 28.95700 39.88900
H  49.41700 30.08300 40.47800
Mg -5.70900 25.13900 26.34500
C  -4.39300 26.63000 29.28300
C  -7.52600 22.99300 28.17400
C  -7.07400 23.90500 23.56500
C  -3.71000 27.32500 24.53200
N  -5.90800 24.93700 28.49400
C  -5.34200 25.61400 29.53000
C  -5.95100 25.10300 30.93300
C  -6.51800 23.73400 30.49700
C  -6.64900 23.86600 28.96100
C  -5.53100 22.59700 30.92000
C  -7.06200 26.04600 31.49300
C  -7.56000 25.78400 32.89800
H  -6.68200 24.81700 33.83000
N  -7.20400 23.69800 25.86600
C  -7.78900 22.87600 26.79700
C  -8.75500 22.00100 26.12300
C  -8.56500 22.21000 24.72400
C  -7.57300 23.28400 24.62400
C  -9.74800 21.10600 26.87000
C  -9.26800 21.50700 23.57500
O  -8.93000 21.73900 22.41000
C  -10.42600 20.45300 23.79300
N  -5.42300 25.56700 24.37500
C  -6.13500 24.91600 23.33900
C  -5.62400 25.44200 21.95900
C  -4.72200 26.64200 22.33500
C  -4.63800 26.53800 23.84500
C  -4.93900 24.28900 21.09400
C  -5.24500 27.91300 21.78100
C  -5.16000 28.13700 20.20700
N  -4.18200 26.63700 26.77800
C  -3.43300 27.40100 25.89900
C  -2.37500 28.13200 26.68200
C  -2.79000 27.88100 28.03300
C  -3.89400 26.98700 28.04700
C  -1.40400 29.17000 26.17700
C  -2.61700 28.30400 29.43600
O  -1.88900 29.15400 29.89800
C  -3.64300 27.47100 30.26900
C  -2.88300 26.68700 31.29300
O  -2.46600 25.54700 31.20500
O  -2.87100 27.42400 32.52600
C  -2.06200 26.80200 33.53200
H  -8.06400 22.41700 28.93000
H  -7.50800 23.57500 22.61900
H  -3.00500 27.84700 23.88000
H  -5.15900 24.92900 31.66100
H  -7.42700 23.58400 31.07900
H  -4.47100 22.85100 30.90400
H  -5.68600 21.77800 30.21800
H  -5.75500 22.40500 31.96900
H  -7.83800 26.04400 30.72800
H  -6.66700 27.05800 31.41000
H  -8.55700 25.34400 32.88800
H  -7.57800 26.71600 33.46200
H  -9.56800 20.03400 26.78700
H  -10.80000 21.11100 26.58200
H  -9.71100 21.50700 27.88200
H  -10.75600 19.94700 22.88600
H  -11.31000 20.96700 24.17000
H  -10.11900 19.69600 24.51500
H  -6.52500 25.80000 21.46100
H  -3.72000 26.44000 21.95400
H  -5.39600 24.13500 20.11700
H  -5.24100 23.36600 21.58800
H  -3.86300 24.34900 20.93100
H  -4.60600 28.73700 22.09800
H  -6.25800 28.12200 22.12400
H  -4.90600 27.20500 19.70200
H  -4.52300 28.99500 19.99400
H  -6.15600 28.47200 19.91500
H  -1.97700 29.95700 25.68900
H  -0.57400 28.80000 25.57500
H  -0.78700 29.67800 26.91800
H  -4.42200 28.05800 30.75700
H  -2.50300 25.84300 33.80500
H  -2.04900 27.47600 34.38900
H  -1.03400 26.69000 33.19000

