158

Mg 24.12900 -6.35100 46.16600
C  26.66300 -4.29900 44.51600
C  21.99200 -5.14800 43.85400
C  22.47300 -8.97700 46.59200
C  26.90200 -7.70300 48.01600
N  24.36900 -4.86900 44.33500
C  25.44600 -4.18300 43.90800
C  25.04200 -3.13000 42.96000
C  23.46900 -3.27600 42.79300
C  23.22400 -4.42600 43.79100
C  22.64400 -1.98100 43.12600
C  25.85100 -3.14600 41.58600
C  26.11600 -1.77500 41.00000
H  25.53700 -1.56300 39.68200
N  22.32100 -6.88800 45.47100
C  21.60100 -6.28200 44.53100
C  20.28700 -6.87500 44.37200
C  20.39800 -8.08300 45.24000
C  21.76500 -8.03600 45.81000
C  19.19400 -6.30500 43.45100
C  19.23500 -9.08800 45.37400
O  18.21300 -8.88500 44.76500
C  19.34900 -10.18600 46.41000
N  24.63700 -8.04900 47.20600
C  23.71700 -9.00500 47.20900
C  24.29000 -10.27400 48.06000
C  25.68500 -9.83600 48.60400
C  25.73300 -8.46400 47.98000
C  23.26600 -10.89900 49.13200
C  26.86200 -10.80600 48.22000
C  27.71700 -11.21900 49.39900
N  26.26500 -5.92500 46.44800
C  27.21600 -6.57300 47.25400
C  28.54500 -5.96400 47.15000
C  28.33900 -5.09800 46.07400
C  26.94800 -5.05900 45.70100
C  29.86100 -6.26300 47.95500
C  28.98600 -4.14600 45.25300
O  30.16800 -3.91800 45.21200
C  27.96600 -3.54600 44.29100
C  27.76100 -2.12100 44.57000
O  27.19400 -1.74400 45.55700
O  28.10300 -1.30900 43.53800
C  27.74800 0.06400 43.54500
H  21.28200 -4.72200 43.14300
H  21.98500 -9.95200 46.64500
H  27.71700 -8.20500 48.54200
H  25.30500 -2.19100 43.44600
H  23.25700 -3.78100 41.85000
H  22.40700 -1.47800 42.18800
H  23.21300 -1.32500 43.78600
H  21.74400 -2.39900 43.57600
H  25.37000 -3.78400 40.84500
H  26.84800 -3.58500 41.63800
H  27.19800 -1.65900 40.94300
H  25.68700 -0.93700 41.55000
H  18.43400 -7.05200 43.22500
H  19.71600 -6.09600 42.51700
H  18.70900 -5.39900 43.81400
H  18.38700 -10.45800 46.84600
H  19.93800 -9.78800 47.23700
H  19.87200 -10.98000 45.87800
H  24.53900 -10.91600 47.21600
H  25.65700 -9.77800 49.69200
H  23.32000 -11.98100 49.00800
H  22.29600 -10.40900 49.03700
H  23.65700 -10.70300 50.13000
H  27.60400 -10.30500 47.59800
H  26.38400 -11.70800 47.83600
H  28.75500 -11.06800 49.10200
H  27.56200 -12.25900 49.68500
H  27.45200 -10.63200 50.27700
H  30.35600 -7.21400 47.75500
H  29.56200 -6.32700 49.00100
H  30.37800 -5.30900 47.85400
H  28.36800 -3.56600 43.27800
H  27.24100 0.37600 44.45800
H  27.11500 0.19000 42.66600
H  28.64600 0.67600 43.45600
Mg 41.59000 8.93100 29.66000
C  43.49100 10.09800 32.18200
C  39.46200 7.30500 31.94800
C  39.85700 7.82900 27.04800
C  44.11600 10.15500 27.36000
N  41.38800 8.75300 31.73900
C  42.32200 9.33900 32.58800
C  41.95000 9.12900 34.07900
C  40.82400 8.05800 33.99800
C  40.50900 8.04300 32.48300
C  41.32100 6.64500 34.37700
C  41.45800 10.51800 34.62400
C  40.82400 10.52100 36.12600
H  41.56000 11.31000 37.22900
N  39.90300 7.80200 29.54600
C  39.21600 7.15100 30.57300
C  38.03600 6.44100 30.01000
C  38.01700 6.78300 28.59300
C  39.34100 7.44400 28.33000
C  36.99200 5.66900 30.80500
C  37.04200 6.48700 27.60900
O  37.23100 6.76200 26.41200
C  35.70300 5.90200 27.90900
N  42.13100 8.75100 27.54700
C  41.11000 8.43700 26.73100
C  41.42300 8.62400 25.18200
C  42.81400 9.28000 25.29800
C  43.08400 9.41700 26.85300
C  41.42900 7.33000 24.33000
C  43.12500 10.53900 24.45900
C  42.66200 11.91900 24.84100
N  43.42100 9.96500 29.70500
C  44.27500 10.47100 28.74200
C  45.32400 11.26200 29.35700
C  45.02200 11.22900 30.73700
C  43.95200 10.33500 30.86900
C  46.45400 11.96600 28.62700
C  45.40700 11.69300 32.04600
O  46.26000 12.53100 32.30700
C  44.48100 10.97000 33.04200
C  45.14100 10.10100 34.07600
O  45.88000 9.15200 33.83900
O  44.83300 10.48100 35.39800
C  45.23100 9.58100 36.50000
H  38.84200 6.71200 32.62300
H  39.30300 7.67200 26.12000
H  44.89700 10.53200 26.69700
H  42.82500 8.74400 34.60200
H  39.99400 8.25700 34.67600
H  41.00600 5.89000 33.65700
H  40.71400 6.41600 35.25200
H  42.40000 6.56700 34.50800
H  40.75100 11.01500 33.95900
H  42.34400 11.14000 34.74600
H  40.82300 9.50700 36.52600
H  39.78600 10.85100 36.09100
H  37.18000 5.57400 31.87400
H  36.82900 4.65900 30.42900
H  35.99800 6.11600 30.82300
H  35.11300 6.60300 28.50000
H  35.73900 4.99700 28.51400
H  35.34100 5.65500 26.91100
H  40.75900 9.33900 24.69700
H  43.57800 8.53300 25.08000
H  40.64400 7.31600 23.57400
H  41.14400 6.52600 25.00800
H  42.42800 7.14900 23.93300
H  42.63300 10.36100 23.50200
H  44.21200 10.45500 24.45800
H  43.54000 12.56600 24.83900
H  42.21100 11.91600 25.83300
H  42.00800 12.50000 24.19000
H  47.33300 11.40400 28.31100
H  46.83900 12.78700 29.23200
H  46.17100 12.36800 27.65400
H  43.94000 11.76500 33.55400
H  46.31900 9.64600 36.52100
H  44.96600 8.54800 36.27600
H  44.70600 9.83100 37.42200

