158

Mg 23.66000 -5.54300 47.26900
C  25.79800 -3.19700 45.69900
C  21.22600 -4.51600 45.09700
C  21.75200 -8.19700 48.46300
C  26.37500 -6.70300 49.00900
N  23.55500 -4.00200 45.53200
C  24.52800 -3.12600 45.13100
C  24.06500 -2.22700 43.95100
C  22.50600 -2.63500 43.94400
C  22.39700 -3.74400 44.91700
C  21.55000 -1.44100 44.28200
C  24.76600 -2.43200 42.51400
C  25.42500 -1.22200 41.73400
H  25.19500 -1.14100 40.19800
N  21.73000 -6.19400 46.90700
C  20.89300 -5.59100 45.98500
C  19.65900 -6.38200 45.82000
C  19.73500 -7.37200 46.87900
C  21.03300 -7.30100 47.50300
C  18.54300 -6.12100 44.78700
C  18.63700 -8.36100 47.12000
O  17.62100 -8.57300 46.39300
C  18.83300 -9.25400 48.26600
N  24.01300 -7.17300 48.54900
C  23.09900 -8.17500 48.89200
C  23.67700 -9.21400 49.92800
C  25.01500 -8.50200 50.31400
C  25.16500 -7.39400 49.21600
C  22.79500 -9.51700 51.14800
C  26.26100 -9.51300 50.34000
C  26.98600 -9.58500 51.62500
N  25.69000 -5.15600 47.26500
C  26.63800 -5.66100 48.05600
C  27.85400 -4.95800 47.87800
C  27.53600 -3.96500 46.92900
C  26.23400 -4.11400 46.61600
C  29.18200 -5.18900 48.46800
C  28.09600 -2.87900 46.17000
O  29.22600 -2.51200 46.14400
C  27.00100 -2.41400 45.26800
C  26.84300 -0.95800 45.31900
O  26.07600 -0.33200 46.04700
O  27.53200 -0.40900 44.25300
C  27.27500 0.98000 43.86500
H  20.49700 -4.17800 44.35700
H  21.20300 -9.03700 48.89500
H  27.14400 -7.02200 49.71600
H  24.18600 -1.17900 44.22700
H  22.20700 -2.97900 42.95400
H  22.04000 -0.65300 44.85300
H  20.68500 -1.75700 44.86400
H  21.10400 -1.00500 43.38800
H  23.95000 -2.89200 41.95700
H  25.55700 -3.16400 42.67400
H  26.49600 -1.14300 41.91800
H  25.00600 -0.33900 42.21800
H  18.53200 -6.95500 44.08500
H  18.54600 -5.09900 44.40600
H  17.65300 -6.23000 45.40600
H  17.86500 -9.73500 48.40900
H  19.08100 -8.69200 49.16600
H  19.57000 -9.95200 47.86900
H  23.85400 -10.15100 49.40100
H  24.85200 -7.97200 51.25200
H  22.10100 -8.69100 51.30500
H  23.41600 -9.90200 51.95600
H  22.14100 -10.32600 50.82000
H  27.00600 -9.10300 49.65800
H  26.03800 -10.55100 50.09100
H  27.72800 -8.78700 51.65400
H  27.56200 -10.51000 51.61400
H  26.25800 -9.62800 52.43600
H  29.67200 -5.80100 47.71100
H  29.04200 -5.79300 49.36500
H  29.79200 -4.29000 48.55000
H  27.40600 -2.62200 44.27800
H  27.96300 1.35800 43.10900
H  27.22200 1.70300 44.67900
H  26.26600 0.93200 43.45500
Mg 30.63900 57.59900 40.54900
C  27.61400 55.79600 39.53800
C  32.48400 54.96600 39.23400
C  33.29200 59.57700 40.53800
C  28.50100 60.40200 41.09300
N  30.12500 55.68600 39.56600
C  28.85400 55.13100 39.26700
C  28.96000 53.67100 38.83600
C  30.51900 53.36600 39.12600
C  31.09600 54.72900 39.39700
C  30.71000 52.42700 40.36300
C  28.58100 53.41000 37.31200
C  29.20600 54.33100 36.22500
H  28.60300 54.54100 34.73800
N  32.63000 57.37400 40.00300
C  33.15800 56.23000 39.50700
C  34.47300 56.39900 39.13500
C  34.81900 57.69700 39.58200
C  33.54600 58.27500 40.09600
C  35.34700 55.41700 38.41900
C  36.22100 58.22900 39.47000
O  37.09400 57.54100 38.92500
C  36.48500 59.63400 39.85300
N  30.83500 59.64900 40.83300
C  32.09300 60.22700 40.93100
C  32.00300 61.75600 41.06500
C  30.45800 61.95800 41.41800
C  29.83700 60.59700 41.05800
C  32.87000 62.45100 42.07900
C  29.93000 63.32400 40.75000
C  28.73800 64.06000 41.57700
N  28.53600 58.01500 40.45100
C  27.83500 59.16600 40.78400
C  26.45700 58.90900 40.67500
C  26.26100 57.56800 40.24500
C  27.58100 57.08700 40.07100
C  25.30000 59.85900 40.94300
C  25.28900 56.51300 39.70300
O  24.10400 56.53700 39.50600
C  26.20400 55.26700 39.23200
C  25.86300 54.14100 40.05700
O  26.45600 53.75800 41.08200
O  24.77300 53.57500 39.47400
C  24.36700 52.44300 40.18900
H  33.09600 54.12500 38.90300
H  34.05800 60.35200 40.46300
H  27.83500 61.25300 41.24900
H  28.30800 53.06800 39.46800
H  30.98600 52.88200 38.26700
H  31.09000 51.49000 39.95500
H  29.74900 52.32000 40.86500
H  31.48900 52.72600 41.06500
H  27.51600 53.18200 37.25700
H  29.10700 52.48500 37.07500
H  30.17700 53.87300 36.03500
H  29.46100 55.33000 36.58000
H  34.80600 54.61200 37.92100
H  35.99600 55.01500 39.19700
H  36.00800 55.89100 37.69300
H  37.51900 59.94200 39.70000
H  36.10000 59.88900 40.84000
H  36.02600 60.27400 39.09900
H  32.08000 62.08700 40.02900
H  30.29700 62.06600 42.49100
H  32.32800 62.95600 42.87800
H  33.46700 63.23700 41.61700
H  33.53300 61.71100 42.52800
H  29.61300 63.22100 39.71200
H  30.76200 64.02500 40.80600
H  28.53200 63.49100 42.48200
H  27.82700 64.00200 40.98200
H  28.97400 65.09800 41.81500
H  24.77700 59.72300 41.88900
H  24.59400 59.81200 40.11400
H  25.66100 60.88600 40.87700
H  26.17000 54.98600 38.18000
H  23.73600 51.79200 39.58300
H  23.76600 52.69500 41.06300
H  25.27100 51.89100 40.44700

