158

Mg 25.28400 -7.30200 49.25900
C  27.73600 -5.06800 47.82900
C  23.13800 -6.18500 46.90800
C  23.38900 -9.81500 50.10900
C  28.18000 -8.73400 50.94500
N  25.55100 -5.90600 47.47700
C  26.53100 -5.15800 47.08600
C  26.26400 -4.25100 45.87400
C  24.76300 -4.54900 45.68200
C  24.45600 -5.57400 46.75100
C  23.85800 -3.39200 45.39400
C  27.25300 -4.69900 44.72600
C  27.92400 -3.59900 43.81200
H  27.01300 -2.59000 43.10700
N  23.47200 -7.91100 48.65100
C  22.66000 -7.20500 47.75200
C  21.38800 -7.84000 47.60500
C  21.38000 -8.90800 48.61300
C  22.70400 -8.91500 49.26800
C  20.33900 -7.37100 46.67000
C  20.18900 -9.85400 48.94200
O  19.16100 -9.70700 48.32300
C  20.19100 -10.82800 50.01900
N  25.70200 -8.99300 50.22600
C  24.71300 -9.81400 50.66400
C  25.25400 -11.02500 51.41500
C  26.76800 -10.68100 51.58700
C  26.90600 -9.39500 50.86600
C  24.40100 -11.28800 52.75200
C  27.74200 -11.77500 51.01800
C  28.76100 -12.31300 52.01200
N  27.50700 -6.83500 49.63100
C  28.51600 -7.54700 50.31600
C  29.73600 -6.86400 50.23800
C  29.50200 -5.85100 49.28800
C  28.14800 -5.92900 48.90800
C  30.96600 -7.28200 50.91900
C  30.03200 -4.71900 48.58400
O  31.06000 -4.12000 48.70500
C  28.90700 -4.18400 47.61100
C  28.54600 -2.74800 47.95400
O  27.93900 -2.36300 48.93500
O  28.88300 -1.92500 46.92400
C  28.21100 -0.61600 46.80100
H  22.51600 -5.74200 46.12700
H  22.77100 -10.63900 50.47100
H  28.88500 -9.32400 51.53400
H  26.25600 -3.24400 46.29000
H  24.64000 -5.18600 44.80700
H  23.16500 -3.24700 46.22300
H  23.29400 -3.65300 44.49800
H  24.41800 -2.46600 45.26200
H  26.52400 -5.23700 44.12100
H  28.06300 -5.37900 44.98800
H  28.56800 -3.94800 43.00500
H  28.55600 -2.99000 44.45900
H  20.24700 -6.28500 46.65000
H  19.37200 -7.76700 46.98200
H  20.39600 -7.80500 45.67200
H  20.56500 -10.42300 50.95900
H  20.76800 -11.72300 49.78800
H  19.19200 -11.24700 50.13500
H  25.18300 -11.94400 50.83400
H  26.95200 -10.46800 52.64000
H  23.99500 -12.29900 52.77600
H  23.56700 -10.62500 52.97900
H  25.11000 -11.01000 53.53300
H  28.35500 -11.31000 50.24600
H  27.23600 -12.55100 50.44300
H  29.71300 -11.92400 51.65200
H  28.88100 -13.39500 52.07000
H  28.60800 -11.85500 52.98900
H  31.38400 -6.38400 51.37200
H  31.61200 -7.87600 50.27100
H  30.63900 -7.87000 51.77600
H  29.40200 -4.27400 46.64400
H  28.87700 0.21900 47.01600
H  27.25800 -0.68300 47.32500
H  28.00600 -0.59800 45.73000
Mg 25.72700 -0.76900 29.37800
C  27.44900 -0.97200 32.33700
C  22.78600 -0.52200 31.22900
C  23.92700 -0.76700 26.57500
C  28.63300 -1.36000 27.55300
N  25.21700 -1.02600 31.51500
C  26.05800 -0.93500 32.59300
C  25.34800 -0.53000 33.96600
C  23.91300 -0.86700 33.49400
C  23.96300 -0.85300 31.94600
C  23.30100 -2.22300 34.13600
C  25.72900 0.90200 34.40600
C  24.83200 1.63300 35.40800
H  25.59700 2.19100 36.68600
N  23.68500 -0.51400 28.95100
C  22.66900 -0.38600 29.82700
C  21.44600 -0.07300 29.14000
C  21.79400 -0.10100 27.78600
C  23.19200 -0.46000 27.71100
C  20.10000 0.07000 29.84400
C  20.97700 0.31400 26.56000
O  21.48900 0.34700 25.44800
C  19.53200 0.82400 26.67800
N  26.26100 -1.08500 27.39600
C  25.29900 -1.09200 26.36500
C  25.97300 -1.26800 25.03200
C  27.51300 -1.24400 25.34700
C  27.45000 -1.31000 26.82500
C  25.50600 -2.55900 24.21100
C  28.21800 0.10000 24.94100
C  29.29800 0.05900 23.81900
N  27.67400 -1.25600 29.80000
C  28.75000 -1.38900 28.95900
C  29.90000 -1.54700 29.80500
C  29.48300 -1.28000 31.10900
C  28.12900 -1.15400 31.06200
C  31.25000 -1.86100 29.29100
C  29.93300 -1.03000 32.46000
O  31.07500 -1.04900 32.89800
C  28.61400 -0.69600 33.31900
C  28.67000 -1.68600 34.39900
O  28.46400 -2.89300 34.23800
O  29.07400 -1.09000 35.63000
C  29.37400 -2.01200 36.74800
H  21.90700 -0.43500 31.87100
H  23.33900 -0.85400 25.65900
H  29.52000 -1.46700 26.92500
H  25.63100 -1.23200 34.75000
H  23.40900 0.04400 33.81800
H  23.96800 -2.67900 34.86800
H  23.06400 -2.94500 33.35600
H  22.31300 -1.95000 34.50600
H  25.80800 1.45400 33.47000
H  26.71400 0.89300 34.87300
H  23.98100 1.05100 35.76100
H  24.43700 2.56400 35.00100
H  19.50100 0.89300 29.45600
H  20.17000 0.12300 30.93100
H  19.44300 -0.78900 29.70700
H  19.19900 1.07700 25.67100
H  19.46600 1.64200 27.39500
H  18.81800 0.08800 27.04900
H  25.55900 -0.41900 24.48800
H  28.00200 -2.16900 25.04100
H  24.65900 -3.07400 24.66500
H  26.21500 -3.38300 24.12900
H  25.18800 -2.35500 23.18800
H  28.71300 0.64400 25.74600
H  27.48500 0.80000 24.53800
H  30.22300 0.39800 24.28600
H  28.97300 0.59400 22.92700
H  29.40400 -0.98000 23.50700
H  31.33500 -2.05600 28.22200
H  31.77800 -2.64900 29.82800
H  31.82900 -0.94100 29.37600
H  28.59700 0.28500 33.79500
H  29.35300 -3.05100 36.41700
H  28.55900 -1.90300 37.46300
H  30.30900 -1.81200 37.27200

