158

Mg 24.93000 1.75500 29.38100
C  26.97800 1.60500 32.21200
C  22.14200 2.09400 31.57500
C  22.97500 1.80800 26.65000
C  27.78700 1.16500 27.37600
N  24.59700 1.67900 31.64200
C  25.63000 1.81400 32.57000
C  25.04500 2.04300 33.98900
C  23.52700 2.25700 33.72200
C  23.37800 2.01200 32.21500
C  22.60600 1.35000 34.58700
C  25.77700 3.11200 34.89800
C  25.92300 2.71000 36.39700
H  25.82600 3.91100 37.40100
N  22.80500 1.72900 29.17000
C  21.86000 1.89100 30.15200
C  20.54600 1.81900 29.51700
C  20.82200 1.76200 28.07400
C  22.24800 1.71800 27.91100
C  19.27100 1.77600 30.30700
C  19.87500 1.60500 26.91200
O  20.15700 1.70800 25.70700
C  18.42900 1.34900 27.23700
N  25.24500 1.43300 27.35400
C  24.31100 1.79500 26.38000
C  24.96400 1.76700 24.93700
C  26.48900 1.66900 25.31200
C  26.52900 1.41400 26.76700
C  24.51800 0.60500 24.04700
C  27.33000 2.95500 24.82600
C  27.23600 4.19200 25.62500
N  26.95600 1.39000 29.67100
C  28.00500 1.12700 28.78300
C  29.17800 0.86700 29.54300
C  28.79700 1.01400 30.91400
C  27.46000 1.27900 30.92000
C  30.51300 0.62000 29.02600
C  29.39100 0.96400 32.23500
O  30.53300 0.81900 32.62000
C  28.20100 1.42900 33.12100
C  27.96700 0.41000 34.19600
O  27.12900 -0.48300 34.08400
O  28.72600 0.66500 35.30200
C  28.50400 -0.25900 36.42500
H  21.24600 2.15300 32.19700
H  22.43200 1.95900 25.71500
H  28.59200 0.94600 26.67200
H  25.16000 1.12100 34.55900
H  23.32400 3.29900 33.96800
H  22.17900 0.53400 34.00300
H  21.81900 1.93900 35.05800
H  23.21100 0.97000 35.41000
H  25.25000 4.06500 34.87000
H  26.72500 3.30200 34.39400
H  26.95900 2.45200 36.61900
H  25.16200 1.97000 36.64100
H  18.69700 2.67900 30.09600
H  19.26500 1.83200 31.39600
H  18.82900 0.83500 29.98000
H  18.34600 0.49100 27.90500
H  17.84500 1.02500 26.37600
H  17.91300 2.21900 27.64200
H  24.80100 2.76000 24.51700
H  26.92600 0.77700 24.86200
H  25.23300 -0.19500 23.85300
H  24.27600 1.03200 23.07400
H  23.55500 0.21300 24.37600
H  26.99500 3.12100 23.80200
H  28.38900 2.72800 24.70100
H  26.98000 4.01100 26.66900
H  26.49100 4.82700 25.14700
H  28.18800 4.71900 25.54900
H  30.89400 1.41300 28.38200
H  30.48400 -0.26000 28.38400
H  31.15700 0.53300 29.90100
H  28.42200 2.42000 33.51800
H  29.04800 -1.16800 36.17200
H  27.45300 -0.54500 36.46600
H  28.78600 0.19800 37.37400
Mg 40.98400 9.10600 29.43700
C  43.06500 10.08700 32.04800
C  38.71700 7.83600 31.69600
C  39.14000 7.92200 26.83400
C  43.63400 9.52400 27.26800
N  40.95300 8.77700 31.57800
C  41.84600 9.40300 32.49300
C  41.24000 9.33500 33.95600
C  39.97800 8.48700 33.78300
C  39.88100 8.34700 32.24600
C  39.85500 7.22100 34.64600
C  40.91000 10.79000 34.58700
C  40.21200 10.79600 35.98800
H  40.90400 11.56400 37.05200
N  39.07200 8.18200 29.38100
C  38.26200 7.74000 30.38900
C  37.08300 7.27100 29.86400
C  37.12100 7.44100 28.51000
C  38.55100 7.82700 28.15800
C  36.01100 6.77400 30.76900
C  36.08000 7.23400 27.42000
O  36.19500 7.22900 26.20800
C  34.62300 6.96000 27.94900
N  41.42200 8.60000 27.35800
C  40.44900 8.20500 26.44100
C  40.90200 8.36900 24.98600
C  42.34200 8.90000 25.16800
C  42.52900 9.06200 26.71700
C  40.82400 7.16600 23.99900
C  42.62900 10.17600 24.32500
C  42.03400 11.49800 24.92600
N  42.97200 9.71300 29.56500
C  43.94000 9.95000 28.61500
C  45.04800 10.64300 29.21700
C  44.71300 10.74200 30.54300
C  43.48200 10.05600 30.75000
C  46.19700 11.25900 28.50000
C  45.16800 11.27500 31.79600
O  46.17800 11.84900 32.07800
C  44.09400 10.83500 32.88500
C  44.65900 9.89300 33.85300
O  45.22500 8.84400 33.56500
O  44.59300 10.42400 35.09600
C  44.83700 9.50800 36.21800
H  38.06200 7.43000 32.47000
H  38.53900 7.48700 26.03300
H  44.32900 9.81000 26.47600
H  41.96700 8.90300 34.64400
H  39.10000 9.09700 33.99600
H  40.81900 6.97000 35.08900
H  39.63400 6.31600 34.07900
H  39.05600 7.38100 35.37000
H  40.23200 11.32900 33.92600
H  41.81300 11.40100 34.55700
H  40.12400 9.72800 36.18500
H  39.20200 11.16600 35.81000
H  36.25500 6.79900 31.83100
H  35.71100 5.74200 30.58500
H  35.07400 7.31300 30.62800
H  33.94200 7.07900 27.10700
H  34.34200 7.70000 28.69900
H  34.44700 5.95600 28.33700
H  40.36400 9.26100 24.66500
H  43.13100 8.22400 24.83700
H  41.76800 6.93000 23.50800
H  40.15800 7.40000 23.16800
H  40.48100 6.28100 24.53500
H  42.15000 10.05000 23.35400
H  43.68800 10.31300 24.10700
H  42.78300 12.08100 25.46100
H  41.30500 11.19400 25.67600
H  41.51800 11.94500 24.07600
H  46.56500 12.13000 29.04400
H  45.81400 11.48400 27.50500
H  47.08600 10.63200 28.42900
H  43.78900 11.75000 33.39300
H  45.20500 8.50800 35.99100
H  43.88600 9.40500 36.74100
H  45.53000 9.93500 36.94300

