158

Mg -0.31600 7.06900 26.20700
C  0.32100 9.14800 28.84800
C  0.10300 4.34200 28.31200
C  -0.36800 4.90500 23.50800
C  0.07800 9.77600 23.96800
N  0.08500 6.84000 28.30300
C  0.19100 7.82400 29.23100
C  0.29800 7.30700 30.68900
C  0.59800 5.78500 30.36300
C  0.22500 5.65100 28.90400
C  2.05200 5.26600 30.74600
C  -1.02600 7.75700 31.42900
C  -0.80900 8.18500 32.85700
H  0.39400 7.60500 33.59600
N  -0.45000 4.97200 25.96400
C  -0.24000 4.06200 26.98000
C  -0.34700 2.74200 26.37900
C  -0.65500 2.87200 25.02700
C  -0.44100 4.27900 24.77400
C  -0.37800 1.51900 27.24500
C  -1.08500 1.79800 24.01700
O  -1.42300 2.08000 22.88300
C  -1.23500 0.34900 24.48100
N  -0.17300 7.27800 24.09400
C  -0.28300 6.23000 23.17900
C  -0.37000 6.73200 21.73600
C  -0.25300 8.27300 21.93800
C  -0.06700 8.51600 23.41000
C  0.71500 6.15300 20.75700
C  -1.17500 9.13100 21.14600
C  -2.51900 9.49500 21.79900
N  0.21000 9.10300 26.34600
C  0.30300 10.03600 25.33600
C  0.46700 11.36700 25.99100
C  0.48800 11.08600 27.35700
C  0.39700 9.68400 27.51900
C  0.63000 12.73000 25.10500
C  0.65800 11.59500 28.67500
O  0.98800 12.71400 28.99300
C  0.48500 10.39900 29.66700
C  1.65100 10.35100 30.50200
O  2.77800 10.01400 30.18400
O  1.33100 10.85900 31.72100
C  2.52000 11.16400 32.54100
H  0.26300 3.51900 29.01100
H  -0.54700 4.29500 22.62000
H  -0.06500 10.59300 23.25700
H  1.14500 7.84900 31.10900
H  -0.15500 5.21500 30.90700
H  2.69000 5.11000 29.87600
H  2.04600 4.36100 31.35300
H  2.52600 6.03500 31.35600
H  -1.74800 6.94300 31.49900
H  -1.54000 8.52500 30.85100
H  -1.64000 7.97000 33.52800
H  -0.84300 9.26500 33.00200
H  -0.03200 1.64100 28.27200
H  0.25900 0.73700 26.83200
H  -1.42000 1.21500 27.34200
H  -0.29900 -0.14300 24.74600
H  -1.65200 -0.12700 23.59400
H  -1.76200 0.19100 25.42200
H  -1.39300 6.60500 21.38200
H  0.72000 8.51900 21.51400
H  1.25700 6.85300 20.12000
H  0.14600 5.62200 19.99400
H  1.33300 5.38400 21.22000
H  -1.40000 8.66500 20.18600
H  -0.77800 10.13200 20.97800
H  -3.33000 9.50600 21.07100
H  -2.48900 10.52600 22.15000
H  -2.80800 8.77300 22.56300
H  -0.33500 13.21200 24.94800
H  1.16900 12.42600 24.20800
H  1.28000 13.49000 25.53900
H  -0.37900 10.47900 30.32700
H  2.27800 10.76700 33.52700
H  2.77300 12.21700 32.66400
H  3.44600 10.61700 32.36300
Mg 43.00000 41.81700 26.51400
C  42.07300 44.21000 28.84200
C  44.16000 39.91800 28.95700
C  43.95700 39.66900 24.14300
C  42.95400 44.43700 24.13300
N  42.87100 41.99200 28.66300
C  42.46200 43.05800 29.43600
C  42.51500 42.67500 30.91600
C  43.47700 41.43900 30.85500
C  43.49700 41.10200 29.40500
C  44.91700 41.71300 31.47500
C  41.12000 42.35700 31.48300
C  40.59600 43.02200 32.76300
H  41.51400 43.03300 33.94500
N  43.85900 40.05100 26.56500
C  44.27800 39.38600 27.64800
C  44.66100 38.03000 27.36800
C  44.58400 37.93700 25.90300
C  44.07000 39.27200 25.47100
C  45.09700 36.94500 28.36200
C  44.80100 36.70500 24.96700
O  44.83700 36.68900 23.76300
C  44.88400 35.39100 25.61400
N  43.37900 42.02000 24.42700
C  43.80900 41.00700 23.68700
C  43.82700 41.40100 22.16700
C  43.35000 42.93200 22.21900
C  43.17800 43.16700 23.71200
C  45.22800 41.29500 21.52000
C  41.96100 43.21400 21.51500
C  40.67300 42.86700 22.32500
N  42.44100 43.90500 26.38600
C  42.49900 44.85300 25.40900
C  41.91200 46.11900 25.81200
C  41.69600 45.88300 27.19600
C  42.10300 44.55500 27.47200
C  41.66900 47.32000 25.02200
C  41.26200 46.50300 28.46100
O  40.93400 47.65800 28.63100
C  41.51600 45.37400 29.58800
C  42.29100 45.92500 30.68900
O  43.51700 46.08700 30.67100
O  41.50700 46.10300 31.77200
C  42.22900 46.39500 32.98400
H  44.60400 39.35500 29.78100
H  44.09800 38.96100 23.32400
H  42.90400 45.17400 23.32900
H  42.84100 43.41700 31.64400
H  43.14600 40.56600 31.41800
H  45.10700 40.92700 32.20600
H  44.92000 42.65500 32.02300
H  45.66300 41.58600 30.69000
H  41.06800 41.28700 31.68700
H  40.40700 42.54700 30.68100
H  39.65200 42.57000 33.06900
H  40.33400 44.05300 32.52500
H  46.17200 36.90000 28.18700
H  44.66600 35.95200 28.23300
H  44.87000 37.23200 29.38900
H  44.76800 34.66300 24.81100
H  43.97600 35.26400 26.20400
H  45.75500 35.37700 26.27000
H  43.12700 40.75100 21.64300
H  44.08500 43.60100 21.77000
H  46.03500 40.91100 22.14500
H  45.58700 42.25800 21.15800
H  45.17900 40.71100 20.60100
H  41.88700 42.57900 20.63200
H  41.98900 44.27100 21.25100
H  40.46100 41.80400 22.21200
H  39.90200 43.45700 21.82900
H  40.69700 42.97900 23.40900
H  42.02900 48.22800 25.50700
H  40.59500 47.35500 24.84000
H  42.15600 47.19500 24.05500
H  40.56400 45.06500 30.02100
H  42.92700 45.58300 33.18800
H  41.69000 46.40600 33.93100
H  42.65200 47.39900 32.96300

