158

Mg 55.32800 24.66000 45.66200
C  52.52300 26.31600 44.54700
C  53.93600 21.71400 44.78300
C  58.37700 23.23800 46.08600
C  56.63200 27.76800 46.59900
N  53.46600 24.12500 44.73400
C  52.54300 24.94500 44.26900
C  51.32200 24.20400 43.81800
C  51.64500 22.71200 44.30700
C  53.11000 22.79300 44.62500
C  50.70300 22.33900 45.58300
C  51.28500 24.23600 42.21900
C  49.84800 24.01900 41.63000
H  49.59700 22.91600 40.58900
N  56.00800 22.70700 45.62700
C  55.28500 21.64700 45.24500
C  56.11100 20.45800 45.22400
C  57.39900 20.89400 45.62500
C  57.34700 22.36700 45.87200
C  55.55200 19.05100 44.78400
C  58.55900 19.92900 45.89200
O  58.54800 18.73400 45.47400
C  59.89700 20.32200 46.46500
N  57.26300 25.44700 46.04200
C  58.35800 24.64200 46.35500
C  59.59900 25.48800 46.65400
C  58.94400 26.89100 46.97600
C  57.49300 26.72200 46.53800
C  60.61000 24.96500 47.82300
C  59.80200 28.10600 46.54500
C  59.56600 28.72800 45.22600
N  54.68500 26.70900 45.67300
C  55.27100 27.80800 46.17400
C  54.32700 28.93600 46.14600
C  53.19000 28.40900 45.47600
C  53.51000 27.12100 45.17200
C  54.49500 30.30000 46.71600
C  51.80500 28.63100 45.01600
O  51.04400 29.59800 45.04800
C  51.31600 27.31800 44.28700
C  50.99700 27.58400 42.83900
O  51.80500 27.85800 41.90800
O  49.72500 27.33300 42.63400
C  49.20100 27.55000 41.24900
H  53.43600 20.82800 44.38700
H  59.35000 22.74600 46.03000
H  57.12300 28.69600 46.89900
H  50.45600 24.64300 44.31300
H  51.51500 22.01000 43.48300
H  50.16700 21.44400 45.26500
H  50.09800 23.17600 45.93000
H  51.29400 22.11700 46.47100
H  51.81400 23.43200 41.70700
H  51.70000 25.16100 41.81900
H  49.41300 24.89600 41.15000
H  49.25300 23.73500 42.49800
H  56.16600 18.19800 45.07100
H  55.53200 18.98500 43.69600
H  54.54200 18.85900 45.14600
H  60.42400 20.90100 45.70700
H  60.48600 19.46200 46.78400
H  59.63500 20.93700 47.32600
H  60.14200 25.44000 45.71000
H  58.79500 26.92100 48.05500
H  60.46900 24.01400 48.33500
H  60.64300 25.72900 48.60000
H  61.62100 25.01600 47.41800
H  60.80200 27.67200 46.52900
H  59.65500 28.75200 47.41100
H  58.75800 28.38400 44.58000
H  60.46100 28.54700 44.63100
H  59.35500 29.79500 45.29700
H  54.21900 31.06200 45.98800
H  55.56300 30.45200 46.87600
H  54.01100 30.35800 47.69100
H  50.39600 27.02300 44.79100
H  49.25100 28.59300 40.93800
H  48.12500 27.38000 41.21100
H  49.68200 26.95000 40.47600
Mg 35.58100 48.01800 26.88400
C  36.12200 45.70200 29.61700
C  34.06200 50.12800 29.07400
C  34.75500 49.90600 24.26600
C  36.54900 45.40700 24.73500
N  34.97500 47.82200 29.11100
C  35.42600 46.89400 30.05600
C  35.33100 47.45800 31.49200
C  34.36200 48.72900 31.25300
C  34.41200 48.90100 29.69400
C  32.92700 48.65200 31.85200
C  36.69400 47.83500 32.18400
C  36.71300 47.47900 33.69000
H  36.38600 48.64900 34.64000
N  34.64400 49.83600 26.67700
C  34.13200 50.57500 27.68400
C  33.81300 51.89300 27.26200
C  33.86000 51.81000 25.81700
C  34.37000 50.46900 25.48100
C  33.35500 53.12700 28.09400
C  33.62300 52.93900 24.74100
O  33.64000 52.74700 23.51600
C  33.32400 54.28900 25.24100
N  35.66300 47.67800 24.86300
C  35.36400 48.65700 23.91100
C  35.53600 48.20300 22.45300
C  36.51300 47.02000 22.67600
C  36.15000 46.58600 24.14900
C  34.26600 47.85300 21.62200
C  38.02500 47.31600 22.51700
C  38.68400 46.51700 21.38600
N  36.22400 46.00600 27.07500
C  36.53600 45.10100 26.11900
C  36.91800 43.84600 26.72000
C  36.84800 44.07100 28.10200
C  36.37300 45.39700 28.27400
C  37.33700 42.57000 25.96000
C  37.03400 43.46300 29.41400
O  37.37200 42.34600 29.77200
C  36.68100 44.57200 30.45000
C  35.65400 44.02700 31.39600
O  34.49100 43.64000 31.12600
O  36.19300 44.03700 32.66200
C  35.27500 43.56200 33.70000
H  33.72600 50.90400 29.76500
H  34.70400 50.52900 23.37100
H  36.64100 44.58300 24.02500
H  34.91800 46.69900 32.15600
H  34.77100 49.63700 31.69700
H  32.72600 49.41400 32.60600
H  32.62600 47.66800 32.21200
H  32.23000 48.84800 31.03800
H  36.90600 48.90100 32.10000
H  37.50400 47.28300 31.70900
H  37.74700 47.24600 33.94400
H  36.20900 46.54000 33.92200
H  32.36900 53.31600 27.67100
H  34.01400 53.98900 27.98600
H  33.30300 52.85800 29.14900
H  33.06800 54.88000 24.36200
H  34.08400 54.72000 25.89400
H  32.36400 54.05000 25.69900
H  36.06300 48.94500 21.85300
H  36.29500 46.16700 22.03400
H  34.16100 46.81600 21.30200
H  34.18700 48.49900 20.74800
H  33.35900 48.08800 22.17700
H  38.68600 47.15600 23.36900
H  38.26200 48.37000 22.37700
H  38.75300 45.48900 21.74200
H  39.69500 46.91200 21.28500
H  38.10800 46.56900 20.46200
H  36.85200 42.41200 24.99600
H  37.09800 41.65000 26.49200
H  38.42600 42.53900 25.91500
H  37.54900 44.91600 31.01300
H  35.85500 43.42000 34.61200
H  34.95200 42.55700 33.42800
H  34.48400 44.28900 33.88400

