158

Mg 48.53100 35.33600 28.60400
C  46.55200 33.60500 30.80100
C  48.42100 37.94700 30.77400
C  49.57500 37.33100 26.00400
C  48.14400 32.76200 26.25800
N  47.87100 35.59400 30.64200
C  47.00200 34.79900 31.36500
C  46.90900 35.23500 32.85900
C  47.12200 36.77200 32.54500
C  47.88600 36.79700 31.27800
C  45.86500 37.78400 32.52500
C  48.14500 34.64900 33.60300
C  47.93800 34.39300 35.09100
H  47.00500 35.43700 35.72300
N  49.09900 37.43200 28.46600
C  49.00900 38.33300 29.50800
C  49.47200 39.58500 28.97500
C  49.89700 39.38200 27.60500
C  49.55600 37.97200 27.29000
C  49.58500 40.84200 29.90200
C  50.51000 40.36500 26.68900
O  50.75700 40.14700 25.50500
C  50.90400 41.77900 27.20200
N  48.77000 35.11500 26.38800
C  49.25600 36.06600 25.60700
C  49.21400 35.60900 24.06600
C  48.91800 34.02700 24.19900
C  48.74500 33.92000 25.73300
C  48.33700 36.28800 23.01100
C  49.99200 33.19500 23.49300
C  49.95500 33.28300 21.97400
N  47.81000 33.54700 28.58300
C  47.72000 32.57600 27.57600
C  46.87600 31.47200 28.03000
C  46.42300 31.83400 29.25800
C  46.99300 33.10900 29.55400
C  46.57400 30.22700 27.31100
C  45.55300 31.40100 30.33400
O  44.91300 30.38800 30.53500
C  45.43100 32.63500 31.30000
C  45.57600 32.21500 32.69600
O  46.59500 31.64900 33.04200
O  44.51300 32.63300 33.51200
C  44.62400 32.34500 34.99500
H  48.21400 38.78500 31.44300
H  50.01700 37.87500 25.16600
H  47.97300 31.89500 25.61700
H  45.95700 35.03400 33.35200
H  47.84400 37.09300 33.29500
H  44.98100 37.24800 32.87100
H  45.76000 38.11800 31.49300
H  46.20100 38.65200 33.09300
H  49.07200 35.21200 33.49100
H  48.24700 33.64500 33.19100
H  48.80700 34.46400 35.74500
H  47.56000 33.37900 35.21900
H  50.60400 41.22800 29.94400
H  49.38900 40.49900 30.91800
H  48.81200 41.57600 29.67300
H  50.01200 42.15300 27.70500
H  51.26200 42.39200 26.37400
H  51.73200 41.65400 27.89900
H  50.25700 35.76400 23.78800
H  47.97700 33.68200 23.77100
H  47.53700 35.58800 22.77100
H  48.90700 36.64200 22.15200
H  47.88000 37.17600 23.44800
H  49.73700 32.17900 23.79600
H  50.94900 33.48300 23.92700
H  48.98200 33.61700 21.61500
H  50.22100 32.33100 21.51400
H  50.66200 34.04700 21.65100
H  47.29500 29.98000 26.53100
H  45.69300 30.49800 26.72900
H  46.36000 29.38300 27.96600
H  44.54300 33.24200 31.12500
H  43.86300 31.59300 35.19900
H  44.43700 33.27800 35.52700
H  45.63400 31.98500 35.19100
Mg 10.23900 47.23400 26.30700
C  8.44300 47.36900 29.27900
C  12.92600 48.45200 27.96900
C  11.83900 47.02300 23.40100
C  7.14600 46.69100 24.59300
N  10.66400 47.81100 28.32500
C  9.82200 47.71200 29.43800
C  10.51900 48.21900 30.65500
C  11.74500 49.06300 30.07900
C  11.78200 48.45600 28.67100
C  11.62100 50.65800 30.08500
C  10.84300 47.12500 31.66400
C  10.19800 47.31700 33.07700
H  10.40900 46.17100 34.11400
N  12.17400 47.55500 25.82500
C  13.18000 47.99900 26.65600
C  14.48400 47.87500 25.99800
C  14.15700 47.36100 24.69100
C  12.67600 47.37900 24.51300
C  15.80000 47.99800 26.81300
C  15.17700 47.06500 23.56000
O  14.76700 46.84000 22.39800
C  16.61800 47.01800 23.85200
N  9.55700 46.93600 24.25300
C  10.45900 46.84800 23.24800
C  9.73100 46.38400 21.97000
C  8.31000 46.13600 22.52100
C  8.33500 46.69900 23.87400
C  9.95900 47.26200 20.69800
C  7.79100 44.73400 22.45100
C  8.62900 43.65600 23.10600
N  8.14900 47.10700 26.75500
C  7.07400 46.86200 25.98600
C  5.91300 46.72100 26.86000
C  6.35800 46.93900 28.16100
C  7.71300 47.14200 28.01500
C  4.51300 46.40000 26.47700
C  6.03100 46.99500 29.59700
O  4.98600 46.82800 30.18200
C  7.31400 47.35300 30.32400
C  7.57400 46.21900 31.37600
O  8.16800 45.17500 31.13700
O  6.94100 46.43300 32.55700
C  6.95900 45.36600 33.58500
H  13.79000 48.82800 28.52300
H  12.38100 46.91000 22.46000
H  6.11000 46.66300 24.24900
H  9.78100 48.89600 31.08700
H  12.67100 48.70000 30.52400
H  10.70400 50.83000 30.64900
H  11.55200 51.04900 29.07000
H  12.43500 51.14400 30.62200
H  11.90900 47.13200 31.89400
H  10.61600 46.12300 31.30200
H  9.16100 47.64100 32.98800
H  10.47800 48.19400 33.66000
H  15.50800 47.70000 27.82000
H  16.13900 49.02800 26.92300
H  16.56600 47.30700 26.46100
H  17.13900 46.71600 22.94400
H  16.73900 46.26400 24.63000
H  16.88100 47.99100 24.26700
H  10.16600 45.40500 21.77000
H  7.57700 46.75800 22.00600
H  10.68300 48.06400 20.84100
H  9.02600 47.78600 20.49300
H  10.22100 46.64800 19.83700
H  7.82100 44.56600 21.37500
H  6.78900 44.63000 22.86600
H  9.50500 44.21700 23.42900
H  9.00400 42.87100 22.45000
H  8.11300 43.18300 23.94200
H  4.59600 45.38600 26.08500
H  4.12700 46.95200 25.62000
H  3.92500 46.38200 27.39400
H  7.16800 48.22100 30.96700
H  7.96500 45.24500 33.98700
H  6.62000 44.38400 33.25300
H  6.35200 45.76500 34.39700

