158

Mg 7.09400 53.74100 41.29200
C  6.27400 50.31700 40.66900
C  10.24700 53.08500 39.82800
C  7.68600 57.12900 41.05000
C  3.74000 54.25300 41.87800
N  8.16300 51.87400 40.50900
C  7.61600 50.62500 40.27500
C  8.58300 49.78800 39.47400
C  9.95300 50.53400 39.71900
C  9.44100 51.93200 40.10100
C  10.96000 49.97700 40.74600
C  8.13900 49.63500 37.96500
C  8.36100 48.31200 37.31900
H  7.44400 47.95100 36.22900
N  8.68700 54.93000 40.59900
C  9.91000 54.43600 40.09400
C  10.82500 55.56200 40.04100
C  10.16400 56.74700 40.45800
C  8.79500 56.31900 40.78000
C  12.29700 55.39300 39.67800
C  10.84900 58.11200 40.68400
O  12.09400 58.09500 40.62200
C  10.16600 59.42900 41.04000
N  5.85400 55.35800 41.20700
C  6.34800 56.70800 41.15900
C  5.22000 57.75200 41.34900
C  4.03200 56.78500 41.75400
C  4.53300 55.35400 41.56900
C  5.41700 58.86600 42.37700
C  2.74400 57.10100 40.90400
C  2.81800 56.78400 39.38700
N  5.38100 52.48900 41.52500
C  4.11000 52.85700 41.74900
C  3.33000 51.75600 42.14100
C  4.11300 50.66500 41.72100
C  5.32600 51.23900 41.25300
C  1.86300 51.87600 42.54700
C  4.16800 49.26400 41.49800
O  3.44700 48.30100 41.74500
C  5.59400 48.98600 40.84700
C  5.28700 48.20000 39.61300
O  4.96700 48.73200 38.55000
O  5.33700 46.84200 39.74700
C  4.80400 45.95700 38.67600
H  11.26800 52.83800 39.52900
H  7.85100 58.20200 40.92900
H  2.72300 54.42400 42.23800
H  8.65200 48.80100 39.93200
H  10.44800 50.59000 38.74900
H  11.88700 49.99100 40.17300
H  10.67600 48.97800 41.07500
H  11.07300 50.72100 41.53400
H  8.76700 50.34800 37.43000
H  7.10900 49.97600 37.86400
H  8.30100 47.56800 38.11400
H  9.37700 48.38100 36.93000
H  12.52800 54.40000 39.29300
H  13.00500 55.45300 40.50500
H  12.54200 56.16400 38.94800
H  9.37300 59.28200 41.77300
H  9.67300 59.90400 40.19100
H  10.88000 60.11800 41.49200
H  5.02900 58.11800 40.34100
H  3.71400 56.83400 42.79500
H  6.03700 58.54400 43.21400
H  4.46000 59.32300 42.62800
H  6.14100 59.57600 41.97700
H  2.62700 58.18500 40.93200
H  1.82900 56.77800 41.40000
H  2.08300 56.03700 39.08800
H  3.79000 56.46000 39.01400
H  2.57200 57.71500 38.87500
H  1.43900 52.57300 41.82500
H  1.61300 52.25200 43.53900
H  1.40200 50.88900 42.57900
H  6.14300 48.34000 41.53200
H  4.06200 45.19300 38.90800
H  5.50200 45.34100 38.10900
H  4.29300 46.63500 37.99300
Mg -12.32800 15.53300 41.53600
C  -9.33200 13.71900 41.10200
C  -11.03400 18.00300 39.55000
C  -15.31900 17.08900 41.52300
C  -13.76900 12.72000 43.04200
N  -10.39900 15.72600 40.27900
C  -9.29000 14.98000 40.46700
C  -8.04500 15.62700 39.83100
C  -8.64900 17.02700 39.38800
C  -10.11100 16.90300 39.75400
C  -7.92100 18.25300 40.01000
C  -7.43100 14.93000 38.59200
C  -6.12400 15.48100 38.17000
H  -6.20200 16.50000 37.02500
N  -13.02100 17.39600 40.76900
C  -12.31300 18.29500 39.98400
C  -13.15300 19.42000 39.62400
C  -14.42200 19.22200 40.22600
C  -14.34000 17.79700 40.84000
C  -12.69200 20.55500 38.81400
C  -15.62300 20.20600 40.12300
O  -15.53400 21.31600 39.57700
C  -17.01500 19.95400 40.66600
N  -14.27600 14.85100 42.12000
C  -15.32100 15.82600 42.13200
C  -16.58600 15.19000 42.76100
C  -16.10300 13.78200 43.28800
C  -14.67500 13.73800 42.73800
C  -17.25000 16.09200 43.89100
C  -16.89300 12.51200 42.75200
C  -17.28300 11.46500 43.82500
N  -11.66800 13.62700 42.08000
C  -12.38400 12.56700 42.68000
C  -11.45300 11.57900 42.98000
C  -10.21800 11.93200 42.36600
C  -10.42700 13.21000 41.82900
C  -11.72000 10.35600 43.84400
C  -8.84000 11.49400 42.12500
O  -8.23500 10.41600 42.39400
C  -8.21900 12.68100 41.24800
C  -6.84700 13.11700 41.80200
O  -6.69800 13.55500 42.91000
O  -5.86900 13.07700 40.83600
C  -4.73400 13.99100 41.13700
H  -10.55000 18.77600 38.95000
H  -16.34500 17.45800 41.57400
H  -14.20100 12.00900 43.74900
H  -7.37300 15.88400 40.64900
H  -8.65100 17.11300 38.30100
H  -8.62400 18.77200 40.66200
H  -7.64200 18.89500 39.17500
H  -6.97200 18.12400 40.53200
H  -8.16800 15.05500 37.79900
H  -7.32200 13.84700 38.65100
H  -5.48300 14.63200 37.93100
H  -5.73200 16.05100 39.01300
H  -13.26400 20.54300 37.88600
H  -11.60600 20.55700 38.71500
H  -12.95700 21.43600 39.39800
H  -17.76800 20.59700 40.20900
H  -17.07400 20.05100 41.75000
H  -17.23400 18.95700 40.28700
H  -17.30200 15.07400 41.94800
H  -16.02500 13.71600 44.37300
H  -18.20200 16.59500 43.72600
H  -16.47400 16.82000 44.13100
H  -17.33500 15.37800 44.71000
H  -16.38700 12.05400 41.90100
H  -17.83600 12.84500 42.31800
H  -17.10700 10.47100 43.41500
H  -18.36400 11.59100 43.89000
H  -16.73100 11.66600 44.74400
H  -12.47400 10.58900 44.59500
H  -10.75500 10.20300 44.32600
H  -11.97200 9.47600 43.25100
H  -7.85800 12.17500 40.35200
H  -3.95600 13.73200 40.41800
H  -4.27900 13.79100 42.10800
H  -5.08600 15.00100 40.92800

