158

Mg 29.93500 58.90500 39.26900
C  27.23800 56.72500 38.40200
C  32.14200 56.39900 38.42300
C  32.38500 61.09000 39.61900
C  27.54500 61.50500 39.59600
N  29.70500 56.81000 38.50800
C  28.55000 56.22400 38.14400
C  28.92200 54.88700 37.33300
C  30.35000 54.55200 37.84400
C  30.80500 56.01800 38.27600
C  30.29200 53.60100 39.00000
C  28.74300 55.04000 35.77200
C  27.72500 54.14800 35.20700
H  26.49800 54.61000 34.37100
N  31.89000 58.74000 39.17400
C  32.67100 57.63600 38.90500
C  34.09100 57.91600 39.12700
C  34.26100 59.32800 39.46700
C  32.78400 59.82800 39.41500
C  35.15700 56.79900 39.01400
C  35.56400 60.02600 39.77100
O  36.64300 59.42200 39.84300
C  35.63000 61.49800 39.95800
N  29.92800 60.96400 39.44000
C  31.12000 61.61600 39.52200
C  30.89100 63.11300 39.70500
C  29.32900 63.27400 39.58500
C  28.92100 61.82200 39.52300
C  31.38100 63.72800 41.06400
C  28.91600 64.27200 38.45800
C  28.67900 65.72000 38.73700
N  27.86600 59.08000 39.26100
C  27.02100 60.23000 39.33400
C  25.68000 59.76700 39.11200
C  25.66500 58.41600 38.81900
C  27.07600 58.05100 38.85400
C  24.50000 60.63900 39.28300
C  24.81100 57.26900 38.40100
O  23.62200 57.13500 38.33800
C  25.80200 56.11600 38.09200
C  25.36800 54.99700 38.93300
O  25.65600 54.75200 40.11000
O  24.43700 54.28300 38.17700
C  23.83800 53.08500 38.80900
H  32.78900 55.55900 38.16500
H  33.23400 61.75400 39.79200
H  26.93200 62.40200 39.70800
H  28.21900 54.15400 37.72800
H  31.00300 54.19700 37.04600
H  29.29000 53.29100 39.29800
H  30.72400 54.08900 39.87400
H  30.98600 52.77200 38.86400
H  29.73400 55.02800 35.31800
H  28.33400 56.04500 35.66400
H  27.21000 53.66700 36.03900
H  28.27000 53.35800 34.69100
H  36.16000 57.22100 38.96500
H  35.04300 56.17200 38.13000
H  34.95100 56.15700 39.87100
H  36.66800 61.78500 40.12400
H  35.08300 61.72800 40.87300
H  35.28400 61.99700 39.05300
H  31.40800 63.64700 38.90800
H  28.92400 63.84200 40.42300
H  31.59500 64.76400 40.80200
H  32.37800 63.36500 41.31300
H  30.62100 63.57300 41.83000
H  28.04300 63.82800 37.98000
H  29.69200 64.19700 37.69600
H  27.60400 65.87900 38.82700
H  29.09500 66.24600 37.87800
H  29.29000 66.09800 39.55700
H  24.05900 60.77400 38.29500
H  24.91300 61.54000 39.73800
H  23.71300 60.16900 39.87300
H  25.71900 55.78300 37.05800
H  22.87100 52.87600 38.35200
H  23.65600 53.20900 39.87700
H  24.40200 52.17800 38.59100
Mg 6.87900 53.44300 40.82800
C  6.52200 50.04100 40.46700
C  10.36600 52.99100 40.50100
C  7.29300 56.77800 40.32600
C  3.41800 53.82700 40.84700
N  8.19300 51.75700 40.37500
C  7.83600 50.40200 40.37300
C  9.05200 49.49500 40.27600
C  10.26000 50.42600 40.51700
C  9.58400 51.83700 40.52100
C  11.10300 50.07400 41.83800
C  9.22600 48.70700 38.96200
C  9.10000 49.29300 37.56000
H  7.97900 48.81200 36.62600
N  8.56200 54.72500 40.59000
C  9.87300 54.31900 40.42400
C  10.71100 55.49400 40.21200
C  9.80100 56.59300 40.10600
C  8.48400 56.08300 40.33600
C  12.24400 55.52100 40.06400
C  10.18700 57.98800 39.65800
O  11.37800 58.17800 39.56400
C  9.20600 59.16100 39.42500
N  5.53700 55.04500 40.60600
C  5.99300 56.33200 40.54400
C  4.81000 57.33000 40.41500
C  3.57400 56.45200 40.98700
C  4.14000 55.03300 40.78000
C  4.90400 58.66000 41.20400
C  2.20600 56.77600 40.25200
C  0.89400 56.79200 41.06100
N  5.24500 52.18400 40.80700
C  3.94500 52.46600 40.89500
C  3.28000 51.22900 41.16800
C  4.22100 50.23100 41.04700
C  5.37800 50.89100 40.67300
C  1.72000 51.05400 41.36600
C  4.43200 48.82800 40.99800
O  3.67600 47.91100 41.19500
C  5.93600 48.66900 40.53200
C  5.80800 47.95900 39.18600
O  5.35400 48.44700 38.16500
O  6.08800 46.62400 39.29300
C  5.50200 45.84400 38.14400
H  11.44600 52.84100 40.56100
H  7.23400 57.84100 40.08200
H  2.35600 53.97400 41.05500
H  8.98100 48.74500 41.06400
H  11.09400 50.31900 39.82300
H  11.15100 50.97700 42.44500
H  12.15700 49.90600 41.61600
H  10.68700 49.34300 42.53200
H  8.39400 48.00900 39.04800
H  10.15700 48.16600 39.13200
H  9.99600 49.10100 36.96900
H  9.06700 50.37600 37.68400
H  12.59800 55.90700 39.10800
H  12.64000 54.51000 40.15800
H  12.72800 56.10600 40.84700
H  8.61200 58.94700 38.53700
H  9.70000 60.07700 39.09900
H  8.68600 59.20400 40.38100
H  4.72300 57.63500 39.37300
H  3.43700 56.71400 42.03700
H  5.78200 58.62800 41.84900
H  4.01500 58.86800 41.80000
H  5.01500 59.46900 40.48200
H  2.03800 56.09200 39.42000
H  2.25500 57.76700 39.80200
H  0.28900 57.65100 40.77100
H  1.09900 56.66800 42.12500
H  0.35000 55.89900 40.75300
H  1.18700 51.45200 40.50200
H  1.28500 51.57300 42.22000
H  1.49500 49.98900 41.41800
H  6.38700 48.08200 41.33200
H  5.98300 44.87200 38.02800
H  5.57800 46.25800 37.13900
H  4.44200 45.68700 38.34700

