158

Mg 0.97900 8.22200 24.80300
C  1.56600 9.96300 27.68200
C  1.63900 5.26700 26.56000
C  0.55900 6.47200 21.99300
C  1.18800 11.22700 23.00700
N  1.42600 7.69800 26.92900
C  1.48000 8.57300 27.94200
C  1.60300 7.81300 29.31800
C  1.92000 6.31000 28.85800
C  1.64800 6.41300 27.32600
C  3.41200 5.90300 29.11900
C  0.29500 7.98900 30.15000
C  0.56800 8.36600 31.60400
H  1.61100 7.56400 32.36000
N  0.93300 6.16100 24.33000
C  1.27100 5.12600 25.15600
C  1.02300 3.87600 24.45600
C  0.59500 4.19200 23.11800
C  0.64100 5.68100 23.08500
C  1.15100 2.51100 25.06300
C  0.21300 3.34500 21.83700
O  -0.07700 3.81500 20.73200
C  0.36500 1.83400 21.91800
N  0.86800 8.83700 22.80000
C  0.76100 7.87800 21.80400
C  0.77400 8.52800 20.39100
C  0.94400 10.07300 20.74900
C  0.90000 10.10200 22.29600
C  1.84800 8.07600 19.36700
C  -0.04700 11.11200 20.12300
C  0.37500 11.82900 18.82000
N  1.36000 10.23800 25.11700
C  1.39900 11.34100 24.37500
C  1.45400 12.54000 25.17000
C  1.60300 11.99200 26.48100
C  1.49200 10.60900 26.41300
C  1.44800 14.01300 24.72100
C  1.79900 12.34600 27.74500
O  2.07000 13.44200 28.23800
C  1.66900 11.13800 28.65100
C  2.91000 10.98800 29.46200
O  4.07300 10.87400 29.02900
O  2.49800 11.13100 30.72600
C  3.54100 11.38900 31.70700
H  1.98700 4.30300 26.93900
H  0.50900 6.02700 20.99700
H  1.25600 12.11400 22.37400
H  2.38600 8.32500 29.87700
H  1.16500 5.60500 29.20500
H  4.03200 6.55500 29.73400
H  3.86800 5.67400 28.15600
H  3.34700 4.87800 29.48600
H  -0.25200 7.04600 30.15500
H  -0.39700 8.74300 29.77400
H  -0.37000 8.04800 32.05800
H  0.83700 9.41300 31.74400
H  1.70700 2.66100 25.98900
H  1.77300 1.89400 24.41500
H  0.15700 2.07500 25.16000
H  -0.01400 1.22300 22.73700
H  1.43700 1.66100 21.81800
H  -0.01100 1.44700 20.97100
H  -0.24300 8.40100 20.02100
H  1.90800 10.34600 20.32100
H  2.37200 7.34700 19.98500
H  2.42800 8.92700 19.01000
H  1.45400 7.55800 18.49200
H  -0.47400 11.93300 20.69900
H  -0.96300 10.59200 19.84300
H  1.43400 11.74600 18.57700
H  0.47700 12.90300 18.97700
H  -0.17700 11.64100 17.89900
H  1.26300 14.62300 25.60500
H  0.64000 14.16100 24.00400
H  2.43600 14.29400 24.35500
H  0.74800 11.33500 29.20000
H  3.30500 12.26900 32.30500
H  4.51200 11.49400 31.22200
H  3.59900 10.50400 32.34100
Mg 36.68200 48.95100 24.63400
C  36.59400 47.43400 27.80300
C  36.08400 51.92800 26.22300
C  36.42200 50.23700 21.63300
C  37.07900 45.76000 23.26900
N  36.25100 49.54700 26.82900
C  36.36700 48.82800 27.92400
C  36.05200 49.62000 29.23700
C  35.81200 51.05300 28.69000
C  36.05500 50.85400 27.14900
C  34.46100 51.69400 29.07700
C  37.32800 49.52200 30.13000
C  37.03600 49.13700 31.61200
H  35.84500 49.77700 32.24800
N  36.24000 50.80300 23.96800
C  36.17500 51.92200 24.76000
C  36.10600 53.08100 23.92500
C  36.26000 52.66900 22.63400
C  36.26500 51.15400 22.67600
C  35.88100 54.47100 24.51800
C  36.28600 53.44700 21.38000
O  36.29000 52.88900 20.21300
C  36.33400 55.04600 21.30600
N  36.52900 48.08100 22.60800
C  36.55900 48.85700 21.60400
C  36.68100 48.02200 20.25000
C  37.05900 46.58500 20.79800
C  36.83200 46.77800 22.29000
C  35.40300 48.12000 19.34800
C  38.49600 46.18000 20.29800
C  39.64400 46.58400 21.25400
N  36.94500 47.07700 25.34000
C  37.10900 45.82100 24.70200
C  37.44600 44.76800 25.64400
C  37.12500 45.30100 26.86000
C  36.83700 46.69200 26.60800
C  37.82800 43.37600 25.27600
C  37.08400 44.97800 28.27400
O  37.29700 43.95200 28.90500
C  36.68200 46.42900 28.94700
C  35.42400 46.21900 29.72100
O  34.26400 46.29000 29.27500
O  35.71100 45.93500 31.05300
C  34.58700 45.81800 32.00000
H  35.99700 52.87000 26.76800
H  36.20400 50.53800 20.60700
H  37.24400 44.79500 22.78400
H  35.23600 49.10000 29.74000
H  36.54600 51.78900 29.01700
H  33.86400 51.95400 28.20300
H  34.57600 52.63700 29.61200
H  33.88200 51.14200 29.81800
H  37.80800 50.49600 30.22200
H  38.08900 48.84700 29.73700
H  37.89900 49.55900 32.12700
H  37.07900 48.04900 31.55900
H  36.89700 54.83400 24.66900
H  35.30700 54.46500 25.44500
H  35.44400 55.14500 23.78100
H  37.09400 55.50300 21.94000
H  35.33100 55.36100 21.59300
H  36.50600 55.23200 20.24600
H  37.57300 48.38800 19.74200
H  36.28100 45.84900 20.59400
H  34.58000 48.40600 20.00400
H  35.17200 47.12700 18.96300
H  35.41000 48.82300 18.51500
H  38.54400 46.52000 19.26400
H  38.50300 45.09400 20.20600
H  39.35000 47.16100 22.13100
H  40.35200 47.16800 20.66600
H  40.16400 45.66700 21.53100
H  38.40800 43.34400 24.35300
H  36.91900 42.78100 25.19500
H  38.52000 42.91600 25.98200
H  37.50300 46.66100 29.62500
H  34.74300 46.24200 32.99200
H  34.46300 44.81200 32.40100
H  33.61900 46.16800 31.64000

