158

Mg 57.20500 23.67100 45.30200
C  55.34600 26.23000 43.69300
C  54.82800 21.44600 43.78600
C  59.26600 21.14600 46.05100
C  59.70400 25.97000 45.86500
N  55.38300 23.82200 43.83900
C  54.80200 25.00500 43.36200
C  53.52100 24.76300 42.57700
C  53.24800 23.27600 43.00400
C  54.61200 22.80400 43.52900
C  52.25100 23.12200 44.20300
C  53.74000 24.81000 41.04700
C  52.64200 25.34800 40.07300
H  52.08800 24.32300 38.99700
N  57.00800 21.54300 45.06800
C  55.96700 20.88200 44.45100
C  56.22300 19.44600 44.61000
C  57.51000 19.27200 45.20700
C  58.01800 20.66000 45.48900
C  55.31400 18.42600 43.91500
C  58.18400 17.93600 45.42800
O  57.71500 16.86900 44.99900
C  59.51600 17.94200 46.08100
N  59.11300 23.59200 46.07200
C  59.80100 22.42000 46.28900
C  61.28600 22.67600 46.74200
C  61.35500 24.22000 46.57900
C  60.00400 24.62400 46.08700
C  61.57200 22.07800 48.17500
C  62.50700 24.65800 45.61100
C  63.41900 25.75700 46.08900
N  57.42000 25.69000 45.14000
C  58.50700 26.52800 45.40800
C  58.12600 27.89600 45.12800
C  56.82300 27.82100 44.64600
C  56.54600 26.47900 44.47200
C  59.07800 29.11100 45.48700
C  55.67900 28.55700 44.21400
O  55.46500 29.74000 44.33600
C  54.74800 27.54900 43.40300
C  54.76000 27.93400 42.02000
O  55.69200 27.82400 41.25900
O  53.57000 28.52900 41.71600
C  53.35100 29.08900 40.39000
H  54.05000 20.77600 43.41300
H  60.03700 20.44000 46.36600
H  60.53000 26.65100 46.07900
H  52.75900 25.43300 42.97600
H  53.01600 22.60400 42.17700
H  52.64400 22.55500 45.04700
H  51.35600 22.64400 43.80500
H  51.94200 24.10600 44.55300
H  54.02100 23.79100 40.78200
H  54.61500 25.39600 40.76500
H  53.03400 26.19100 39.50500
H  51.82100 25.69400 40.70100
H  55.45400 18.49800 42.83600
H  54.25700 18.59200 44.12200
H  55.57800 17.39900 44.16600
H  59.92800 16.94600 46.23900
H  59.38000 18.60100 46.93900
H  60.10600 18.53500 45.38300
H  61.86400 22.10300 46.01700
H  61.46700 24.73200 47.53500
H  62.42700 21.42700 47.99900
H  60.83100 21.39300 48.58800
H  61.80000 22.75500 48.99800
H  61.95500 24.95800 44.72100
H  63.17800 23.90900 45.19100
H  64.41700 25.39500 45.84400
H  63.44300 25.93200 47.16400
H  63.36200 26.72100 45.58300
H  60.02700 28.73200 45.86700
H  58.65300 29.80200 46.21500
H  59.23000 29.63400 44.54300
H  53.73200 27.49400 43.79500
H  53.29800 30.17500 40.46600
H  52.36700 28.79300 40.02600
H  54.06400 28.79800 39.61700
Mg 27.95200 56.41300 40.73300
C  25.35600 54.07100 39.90400
C  30.28700 54.30700 39.56800
C  29.91900 59.02300 40.52400
C  25.20900 58.67100 41.39300
N  27.78300 54.50400 39.73100
C  26.70400 53.67400 39.57700
C  27.10100 52.46300 38.70600
C  28.65000 52.41700 38.91300
C  28.93200 53.84200 39.39500
C  29.28800 51.34200 39.85100
C  26.59100 52.26600 37.24600
C  26.36700 53.64800 36.55400
H  26.65600 53.72100 35.03400
N  29.91400 56.59200 40.27400
C  30.82300 55.56300 39.98500
C  32.17800 56.14500 39.77000
C  32.02100 57.62500 39.88800
C  30.59300 57.81900 40.23300
C  33.28600 55.26400 39.21500
C  33.13100 58.60400 39.75800
O  34.30800 58.25200 39.52200
C  32.94300 60.11300 39.94900
N  27.61100 58.51000 40.97100
C  28.64700 59.37700 40.90400
C  28.19100 60.82500 41.02100
C  26.76300 60.67800 41.41900
C  26.48100 59.14000 41.22400
C  29.04900 61.61800 42.00300
C  25.75700 61.69100 40.78700
C  24.67500 62.39100 41.74400
N  25.70500 56.35900 40.84600
C  24.79400 57.29400 41.17000
C  23.51200 56.67200 41.27300
C  23.70500 55.39500 40.75300
C  25.02600 55.23200 40.51400
C  22.25900 57.29600 41.80700
C  23.00100 54.17600 40.49900
O  21.82700 53.81700 40.58800
C  24.01100 53.30300 39.71000
C  23.97800 51.95200 40.26900
O  23.44900 50.97400 39.74600
O  24.68600 51.99200 41.46200
C  25.03400 50.69000 42.01800
H  31.11600 53.61700 39.39500
H  30.56300 59.87800 40.30900
H  24.42000 59.38600 41.63400
H  26.64400 51.64300 39.26100
H  29.23300 52.41300 37.99200
H  28.49400 50.73300 40.28200
H  29.71900 51.79400 40.74400
H  30.02800 50.65700 39.43500
H  25.70800 51.62900 37.29900
H  27.33100 51.74700 36.63600
H  26.88700 54.46200 37.05900
H  25.28100 53.69200 36.64600
H  33.97600 55.87600 38.63400
H  33.01400 54.44400 38.55000
H  33.73600 54.72200 40.04600
H  32.45200 60.22700 40.91600
H  32.23500 60.49500 39.21300
H  33.87800 60.65400 39.80800
H  28.25800 61.25300 40.02100
H  26.68400 60.84900 42.49300
H  28.43600 62.12300 42.74900
H  29.49700 62.44700 41.45400
H  29.77000 60.99500 42.53200
H  25.34100 61.14600 39.94000
H  26.28000 62.54000 40.34600
H  24.73500 63.47400 41.63800
H  24.94200 62.05500 42.74600
H  23.67400 62.04900 41.48300
H  21.66700 57.65700 40.96600
H  22.63500 58.21800 42.25000
H  21.59900 56.79500 42.51500
H  23.74600 53.19200 38.65800
H  26.11200 50.65800 42.17400
H  24.76800 49.88100 41.33800
H  24.51900 50.58300 42.97300

