158

Mg 25.86700 0.98500 29.15900
C  27.88700 0.84800 32.11700
C  23.11200 1.41400 31.23900
C  24.07400 1.39900 26.40100
C  28.70500 0.17800 27.22200
N  25.54100 0.98100 31.38900
C  26.50000 1.05900 32.41400
C  25.91200 1.34500 33.84300
C  24.38800 1.37200 33.56500
C  24.32900 1.25200 31.94900
C  23.58100 0.25700 34.30900
C  26.42900 2.61400 34.58600
C  27.02000 2.41700 35.95900
H  26.78100 3.50500 37.07700
N  23.86500 1.35700 28.87300
C  22.85400 1.43600 29.80800
C  21.60000 1.65400 29.16500
C  21.82500 1.59300 27.72100
C  23.30300 1.46700 27.63800
C  20.27500 1.83200 29.89300
C  20.89900 1.65800 26.54500
O  21.25400 1.61900 25.39200
C  19.54200 2.08400 26.86900
N  26.31400 0.73900 27.12900
C  25.46800 1.03200 26.15700
C  26.04000 0.85800 24.74100
C  27.54700 0.51300 25.06500
C  27.54500 0.51100 26.53800
C  25.30100 -0.01000 23.84800
C  28.65500 1.41400 24.48300
C  29.76100 0.64400 23.79300
N  27.86900 0.55500 29.53600
C  28.87800 0.36700 28.64500
C  30.08100 0.10000 29.35400
C  29.73800 0.35200 30.71900
C  28.38600 0.66500 30.79400
C  31.38600 -0.24500 28.75900
C  30.28400 0.48100 32.09400
O  31.44700 0.30900 32.45300
C  29.05900 0.63500 33.08900
C  28.88800 -0.57300 33.94800
O  28.89400 -1.73000 33.53800
O  28.80000 -0.23400 35.28700
C  28.79100 -1.43100 36.21700
H  22.25700 1.57400 31.90000
H  23.59700 1.72600 25.47500
H  29.47200 -0.30300 26.61100
H  26.19000 0.46100 34.41800
H  23.87900 2.29600 33.84000
H  22.69800 0.82800 34.59600
H  24.14700 -0.12900 35.15700
H  23.27700 -0.59300 33.69800
H  25.73000 3.45100 34.61700
H  27.21400 3.02300 33.94900
H  28.10100 2.52700 35.87800
H  26.80500 1.40800 36.31200
H  20.44900 1.93700 30.96300
H  19.66700 0.94800 29.69900
H  19.58900 2.59600 29.52700
H  18.92300 1.71600 26.05100
H  19.68000 3.16500 26.91000
H  19.16300 1.72900 27.82800
H  26.13200 1.87100 24.34900
H  27.74700 -0.54500 24.89500
H  24.28300 -0.13200 24.21800
H  25.87700 -0.93400 23.80100
H  25.31600 0.49400 22.88200
H  29.01700 2.04600 25.29300
H  28.31900 2.09900 23.70500
H  30.49000 0.27800 24.51600
H  30.22300 1.27400 23.03300
H  29.40100 -0.23700 23.26100
H  32.18500 -0.30500 29.49800
H  31.59600 0.49500 27.98600
H  31.45100 -1.19000 28.21900
H  29.35800 1.54800 33.60500
H  28.68300 -2.40200 35.73400
H  28.03800 -1.17300 36.96200
H  29.66800 -1.34000 36.85800
Mg -9.90500 39.49000 39.63100
C  -8.78000 36.35000 38.80000
C  -6.82700 40.78300 38.76100
C  -11.30600 42.49700 39.61100
C  -13.12000 37.96900 40.24400
N  -8.02300 38.60000 39.01200
C  -7.75800 37.31700 38.71200
C  -6.20600 37.07200 38.47000
C  -5.59500 38.48700 38.86300
C  -6.88000 39.37000 38.82300
C  -4.77700 38.63400 40.12900
C  -5.94000 36.63300 36.97900
C  -6.72000 37.40800 35.95300
H  -7.60400 36.71900 34.86700
N  -9.15500 41.41600 39.23100
C  -7.87600 41.69100 38.85600
C  -7.74200 43.13800 38.79700
C  -9.02400 43.66200 39.14000
C  -9.90500 42.52000 39.36600
C  -6.39700 43.84300 38.60500
C  -9.43700 45.10600 39.21000
O  -8.60900 45.95200 38.85400
C  -10.78100 45.62300 39.62800
N  -11.94000 40.16800 39.74100
C  -12.23300 41.49500 39.86900
C  -13.72100 41.65200 40.18300
C  -14.26500 40.17200 40.34900
C  -13.02200 39.38300 40.12900
C  -14.11600 42.59700 41.36700
C  -15.41100 39.82000 39.40000
C  -16.65000 39.43100 40.09800
N  -10.78600 37.49200 39.67000
C  -12.06200 37.10100 39.95900
C  -12.13700 35.67500 39.84100
C  -10.87400 35.30200 39.30500
C  -10.08000 36.48900 39.19600
C  -13.35600 34.78000 40.06900
C  -10.04500 34.20900 38.96000
O  -10.35900 33.02000 39.02700
C  -8.67300 34.86200 38.52700
C  -7.57100 34.18700 39.25900
O  -7.41400 34.12000 40.44500
O  -6.68900 33.67700 38.36900
C  -5.42600 33.16600 38.95300
H  -5.89300 41.30800 38.55100
H  -11.72400 43.50000 39.72100
H  -14.09200 37.58100 40.55300
H  -5.87100 36.29200 39.15300
H  -4.98900 38.72900 37.99100
H  -4.12100 39.50100 40.04300
H  -4.26500 37.72600 40.44800
H  -5.35900 38.88700 41.01500
H  -6.26200 35.60700 36.80100
H  -4.87800 36.79200 36.79100
H  -6.07500 37.94700 35.25900
H  -7.33000 38.14100 36.48100
H  -6.48000 44.93000 38.64400
H  -5.92700 43.49200 37.68700
H  -5.89500 43.53400 39.52200
H  -11.10800 45.21000 40.58200
H  -11.62200 45.54400 38.93900
H  -10.73400 46.68900 39.85100
H  -14.00400 42.05500 39.21000
H  -14.40700 39.96800 41.41100
H  -14.92600 43.31500 41.23800
H  -13.22400 43.11600 41.71500
H  -14.50300 41.97400 42.17400
H  -15.08700 39.02800 38.72400
H  -15.62100 40.68300 38.76800
H  -16.62700 39.71300 41.15100
H  -16.86500 38.37100 39.96600
H  -17.41700 39.98100 39.55200
H  -14.07700 35.14900 40.79900
H  -12.96100 33.80400 40.35100
H  -13.95000 34.75100 39.15500
H  -8.57800 34.55300 37.48600
H  -5.63100 32.15600 39.30900
H  -4.95800 33.72900 39.76000
H  -4.69900 33.23900 38.14400

