158

Mg 40.75900 8.37200 28.96800
C  42.73700 9.42400 31.67900
C  38.51300 7.06600 31.16100
C  39.12900 7.26900 26.33200
C  43.37200 9.50300 26.83700
N  40.70100 8.24900 31.13200
C  41.54000 8.78800 32.05600
C  40.99500 8.56800 33.47900
C  39.75200 7.55800 33.25700
C  39.61700 7.65600 31.75700
C  40.06500 6.10200 33.70000
C  40.67500 9.88500 34.19900
C  40.04900 9.77700 35.51100
H  40.84600 10.01900 36.81800
N  39.02800 7.48400 28.78400
C  38.23000 6.97600 29.79500
C  37.06300 6.33900 29.18800
C  37.21200 6.34900 27.79500
C  38.52300 6.97200 27.58400
C  35.90700 5.75300 30.01800
C  36.37200 5.70300 26.76700
O  36.58100 5.76600 25.55900
C  35.07400 5.05600 27.23700
N  41.17900 8.45400 26.91200
C  40.36100 7.89700 26.02700
C  40.98900 7.84000 24.57100
C  42.17300 8.86400 24.74700
C  42.26400 8.96700 26.27500
C  41.42200 6.42500 24.12800
C  42.08200 10.23800 24.09300
C  40.95200 11.26200 24.51200
N  42.75500 9.11100 29.14800
C  43.63100 9.64900 28.18200
C  44.77700 10.18400 28.82800
C  44.46700 10.08100 30.19800
C  43.17100 9.54800 30.37300
C  45.85500 10.78900 28.18200
C  45.03200 10.39900 31.49300
O  46.08500 10.92700 31.77300
C  43.91700 9.99500 32.53900
C  44.54200 8.95900 33.37400
O  44.60300 7.77000 33.07300
O  44.97000 9.44600 34.56500
C  44.77200 8.47800 35.66600
H  37.76900 6.54000 31.76200
H  38.70200 6.70600 25.49900
H  43.99600 10.05900 26.13400
H  41.75200 7.99500 34.01400
H  38.80800 7.82800 33.72900
H  41.10800 6.06700 34.01600
H  39.97600 5.45900 32.82500
H  39.35300 5.74100 34.44200
H  40.25000 10.62300 33.51700
H  41.68900 10.25900 34.34200
H  39.57800 8.79400 35.49600
H  39.16000 10.40100 35.60400
H  34.95000 6.15500 29.68600
H  36.00500 5.78900 31.10200
H  35.84500 4.68100 29.82900
H  34.48800 4.85600 26.34000
H  34.60000 5.91900 27.70400
H  35.09200 4.17700 27.88300
H  40.29400 8.28200 23.85600
H  43.17100 8.50300 24.49600
H  40.66400 6.00900 23.46500
H  41.62700 5.81400 25.00700
H  42.35100 6.53000 23.56700
H  41.80800 9.97600 23.07100
H  43.03700 10.76400 24.09100
H  40.51200 11.71400 23.62300
H  41.41500 12.05800 25.09500
H  40.10500 10.72600 24.94200
H  45.51600 11.53200 27.46000
H  46.68900 10.15600 27.88000
H  46.21100 11.47100 28.95300
H  43.60700 10.85100 33.13900
H  43.70100 8.27400 35.63800
H  45.02000 8.80400 36.67600
H  45.25700 7.51200 35.52600
Mg -2.54600 34.56100 26.64500
C  -3.55200 32.36100 29.23100
C  -0.95000 36.51200 28.94400
C  -1.87600 36.77800 24.12300
C  -4.44300 32.68100 24.42000
N  -2.17400 34.25000 28.81400
C  -2.65600 33.31900 29.71900
C  -2.44500 33.77000 31.12800
C  -1.78500 35.18200 31.02200
C  -1.66200 35.34200 29.46900
C  -2.73200 36.38200 31.69700
C  -1.83600 32.78200 32.16600
C  -2.48800 32.86900 33.58000
H  -1.60300 32.52700 34.74500
N  -1.46000 36.30300 26.54500
C  -0.81800 36.91400 27.57600
C  -0.14300 38.09700 27.10700
C  -0.42200 38.17800 25.70900
C  -1.27300 37.04400 25.35600
C  0.81200 38.98500 27.89200
C  0.12100 39.21500 24.66200
O  -0.11500 39.13500 23.45600
C  0.90900 40.41200 25.09200
N  -3.24900 34.79000 24.51800
C  -2.61600 35.67700 23.73800
C  -3.04500 35.34600 22.30600
C  -3.72700 33.99800 22.32500
C  -3.90900 33.83900 23.80000
C  -4.07500 36.42200 21.82000
C  -2.97600 32.85400 21.51100
C  -1.80900 32.05200 22.16400
N  -3.77100 32.94700 26.76800
C  -4.43500 32.25400 25.80000
C  -5.19300 31.12100 26.38900
C  -4.84000 31.14600 27.69600
C  -3.95400 32.23400 27.91200
C  -5.98300 30.09300 25.70900
C  -4.97000 30.35700 28.90300
O  -5.54100 29.27200 29.07500
C  -4.41800 31.37300 30.04400
C  -5.54000 32.10400 30.73900
O  -6.12800 33.05400 30.23600
O  -5.81200 31.49900 31.93800
C  -6.63300 32.31900 32.91800
H  -0.41800 37.15200 29.65100
H  -1.66500 37.39000 23.24400
H  -5.03700 32.03100 23.77400
H  -3.45900 33.89000 31.51100
H  -0.80200 35.24900 31.48900
H  -3.71300 35.95600 31.90900
H  -2.75700 37.25900 31.05000
H  -2.22900 36.59900 32.63900
H  -0.76100 32.93700 32.25100
H  -1.89200 31.78800 31.72200
H  -3.07700 31.95200 33.56500
H  -3.13800 33.73300 33.71600
H  1.20000 38.44500 28.75600
H  0.28100 39.89300 28.18000
H  1.73200 39.16800 27.33700
H  1.18900 41.17000 24.36000
H  1.94800 40.10500 25.20400
H  0.33300 40.70200 25.97100
H  -2.15600 35.31600 21.67600
H  -4.79100 33.99600 22.08900
H  -4.34700 37.14100 22.59200
H  -5.04400 36.09700 21.43900
H  -3.67500 37.10000 21.06600
H  -2.62100 33.16000 20.52700
H  -3.67900 32.04000 21.33500
H  -0.99200 32.22400 21.46400
H  -1.90800 30.97900 22.33400
H  -1.56400 32.51500 23.12000
H  -5.80500 30.05700 24.63400
H  -6.98300 30.44500 25.96000
H  -5.85800 29.06400 26.04500
H  -3.84900 30.73300 30.71700
H  -5.97200 32.96900 33.49200
H  -7.05300 31.51100 33.51700
H  -7.41400 32.84700 32.37000

