158

Mg 54.64600 23.98900 44.95300
C  52.13600 26.14900 43.89600
C  52.71800 21.28200 43.93600
C  57.51200 22.01200 44.95700
C  56.72000 26.71600 45.61900
N  52.61500 23.79100 44.10900
C  51.81700 24.82300 43.67700
C  50.45100 24.27400 43.25200
C  50.53200 22.69800 43.63300
C  52.05500 22.50300 43.89400
C  49.62900 22.26500 44.88300
C  50.17700 24.46800 41.70300
C  48.73000 24.83800 41.41400
H  48.15800 24.61100 40.05800
N  55.00900 22.00800 44.56100
C  54.03300 21.00100 44.31400
C  54.58900 19.71000 44.33500
C  56.02400 19.92400 44.35100
C  56.26000 21.36300 44.58700
C  53.75300 18.50300 43.99500
C  57.05200 18.85600 44.14500
O  56.72200 17.66900 44.09700
C  58.43100 19.26300 43.84600
N  56.82300 24.39800 45.12400
C  57.75400 23.36600 45.23400
C  59.08200 23.82800 45.95300
C  58.84400 25.42100 46.03500
C  57.36400 25.50500 45.63200
C  59.18200 23.07500 47.39600
C  59.70800 26.23500 45.10900
C  61.25200 25.79900 44.87800
N  54.49700 26.05600 44.83900
C  55.42000 27.01500 45.23500
C  54.63200 28.29900 45.21300
C  53.35300 27.94400 44.68900
C  53.36900 26.62800 44.41700
C  55.15600 29.68300 45.65200
C  52.05600 28.50800 44.47900
O  51.55500 29.61000 44.70600
C  51.17300 27.37500 43.86400
C  50.84200 27.79100 42.52900
O  51.61600 27.89100 41.62400
O  49.57100 28.23200 42.62600
C  48.98400 28.92900 41.41200
H  52.07500 20.42100 43.74200
H  58.31000 21.27200 45.04600
H  57.30000 27.62000 45.81400
H  49.74500 24.85700 43.84300
H  50.20500 22.08500 42.79400
H  49.49500 21.18500 44.82400
H  48.60200 22.62600 44.83300
H  49.99000 22.49400 45.88600
H  50.31700 23.49500 41.23200
H  51.00400 25.12300 41.43000
H  48.67000 25.90300 41.64000
H  48.00300 24.38200 42.08500
H  53.38700 18.55400 42.97000
H  52.93600 18.69100 44.69300
H  54.19200 17.57800 44.36900
H  58.99200 18.52600 43.27200
H  58.98300 19.34800 44.78200
H  58.34100 20.16000 43.23300
H  60.01700 23.64100 45.42500
H  58.94100 25.74900 47.07000
H  59.29900 23.80300 48.19800
H  59.96600 22.32000 47.44900
H  58.22900 22.62000 47.66600
H  59.85000 27.24100 45.50100
H  59.13000 26.41300 44.20200
H  61.40600 24.94800 44.21400
H  61.78900 25.67200 45.81800
H  61.80200 26.53500 44.29100
H  56.23500 29.73100 45.50300
H  55.05500 29.87000 46.72100
H  54.64500 30.38000 44.98700
H  50.30300 27.07400 44.44800
H  49.69600 28.99500 40.59000
H  48.60400 29.94100 41.55300
H  48.12800 28.34000 41.08400
Mg 49.60800 46.08400 42.70400
C  46.76000 47.70900 41.65600
C  48.47600 43.21900 41.12200
C  52.87000 45.00700 42.50300
C  50.78900 49.24400 43.80600
N  47.83200 45.58700 41.58500
C  46.84700 46.41800 41.16500
C  45.74900 45.69600 40.33900
C  46.16600 44.27000 40.46300
C  47.60900 44.37700 41.06600
C  45.14800 43.36900 41.16300
C  45.61000 46.14600 38.78500
C  44.15500 46.40500 38.28800
H  43.78100 46.18200 36.80700
N  50.54600 44.29000 41.92500
C  49.87100 43.23500 41.40300
C  50.83900 42.13300 41.23300
C  52.07900 42.61000 41.68900
C  51.89100 44.02100 42.02500
C  50.31500 40.75400 40.73500
C  53.33700 41.74100 41.63200
O  53.29400 40.59800 41.17000
C  54.67600 42.43500 41.80500
N  51.57000 47.05000 42.88100
C  52.69300 46.30600 42.96400
C  53.84800 47.05100 43.67900
C  53.22900 48.43900 44.04400
C  51.78700 48.27800 43.54500
C  54.60000 46.32300 44.84600
C  53.93700 49.72300 43.40000
C  54.17400 50.83700 44.41500
N  48.96400 48.05200 42.88100
C  49.48500 49.20700 43.32100
C  48.51700 50.21200 43.40200
C  47.33500 49.66200 42.74500
C  47.72700 48.33700 42.45400
C  48.72700 51.55800 44.02100
C  46.05300 49.96800 42.20000
O  45.35300 50.99600 42.22100
C  45.60600 48.69300 41.46300
C  44.39600 48.26300 42.07500
O  44.29100 47.61100 43.10100
O  43.35500 48.60300 41.27600
C  42.04500 48.16400 41.58700
H  47.92700 42.41800 40.62300
H  53.81800 44.59300 42.85300
H  51.01600 50.17200 44.33300
H  44.82900 45.87400 40.89600
H  46.36700 43.81400 39.49400
H  45.33200 43.36800 42.23700
H  45.04800 42.37100 40.73500
H  44.16200 43.82200 41.06500
H  46.19200 45.62900 38.02200
H  46.05000 47.14100 38.72700
H  43.78400 47.35300 38.67700
H  43.42700 45.78300 38.81000
H  49.30800 40.77700 40.31900
H  50.47700 39.96900 41.47400
H  50.83400 40.60100 39.78800
H  54.79300 43.41000 41.33200
H  55.43200 41.83100 41.30400
H  54.92900 42.53600 42.86000
H  54.68800 47.17600 42.99500
H  53.28700 48.60000 45.12000
H  54.29100 45.34600 45.21900
H  54.75200 47.04100 45.65100
H  55.59000 46.08500 44.45700
H  53.37100 50.04100 42.52500
H  54.86700 49.44100 42.90700
H  55.17300 51.27300 44.39400
H  53.88800 50.59300 45.43800
H  53.49800 51.66600 44.20800
H  49.33800 52.20300 43.38900
H  49.27400 51.46400 44.95900
H  47.82300 52.12400 44.24500
H  45.43500 48.97600 40.42400
H  41.48100 48.28200 40.66200
H  41.58000 48.73600 42.39000
H  42.12300 47.09200 41.76800

