158

Mg 35.68900 49.05100 25.73000
C  35.68000 46.90800 28.61400
C  34.82400 51.61700 27.66800
C  35.86600 50.99100 22.87900
C  36.36800 46.27700 23.80800
N  35.25500 49.13300 27.91800
C  35.35700 48.25300 28.95100
C  35.15400 48.90900 30.36800
C  34.76500 50.39500 29.98500
C  34.97500 50.39700 28.38900
C  33.35700 50.82400 30.43400
C  36.52700 48.81800 31.18100
C  36.49800 48.05400 32.43400
H  35.25400 48.24300 33.41400
N  35.21600 50.99500 25.29900
C  34.91500 51.92900 26.26800
C  34.88900 53.20700 25.62700
C  35.20400 53.01700 24.28900
C  35.49300 51.58000 24.14400
C  34.47500 54.49800 26.37500
C  35.47700 54.06000 23.22300
O  35.98900 53.82700 22.13200
C  35.14700 55.50800 23.41000
N  35.79800 48.67100 23.53400
C  35.96200 49.61700 22.61100
C  36.20600 48.94100 21.20300
C  36.62800 47.53100 21.57600
C  36.23200 47.45300 23.04800
C  35.01900 48.97700 20.22600
C  38.15500 47.19200 21.33600
C  38.52900 45.80800 20.90800
N  35.95400 47.01300 26.04700
C  36.34100 46.05400 25.20800
C  36.59600 44.76600 25.84000
C  36.29900 45.03700 27.18900
C  35.87300 46.40100 27.30000
C  36.90400 43.47200 25.18400
C  36.16700 44.41900 28.49000
O  36.37000 43.31300 28.87500
C  35.75400 45.62800 29.45300
C  34.47400 45.29800 30.09400
O  33.37000 45.59400 29.65700
O  34.71500 44.59800 31.29300
C  33.49300 44.29900 32.12200
H  34.61100 52.47800 28.30600
H  36.04500 51.65600 22.03100
H  36.70800 45.39900 23.25600
H  34.36300 48.29500 30.79800
H  35.45700 51.18700 30.27000
H  33.65300 51.79500 30.83200
H  32.78400 50.29400 31.19400
H  32.64000 51.00400 29.63300
H  36.92800 49.83200 31.21400
H  37.32700 48.34800 30.60900
H  37.31700 48.37300 33.07900
H  36.61500 46.97900 32.30300
H  33.92300 55.20200 25.75300
H  35.41400 55.01300 26.57600
H  34.03600 54.39700 27.36800
H  35.77500 55.92500 24.19700
H  34.15200 55.77800 23.76500
H  35.18000 56.13500 22.51900
H  37.01000 49.52100 20.75000
H  35.99100 46.76300 21.13800
H  34.49900 49.93300 20.28100
H  34.40100 48.08400 20.32100
H  35.40000 48.80200 19.22000
H  38.59400 47.40200 22.31200
H  38.57400 47.94700 20.67100
H  38.55600 45.70800 19.82300
H  37.73600 45.11000 21.17800
H  39.43600 45.43600 21.38500
H  37.95500 43.36000 24.91400
H  36.31200 43.22500 24.30300
H  36.75900 42.73900 25.97700
H  36.53100 45.82600 30.19100
H  32.62500 44.89700 31.84600
H  33.55500 44.34400 33.21000
H  33.11000 43.29600 31.93700
Mg -10.47800 39.12300 40.71400
C  -9.58200 35.91500 39.60000
C  -7.52600 40.24900 39.49500
C  -11.70200 42.23100 41.14600
C  -13.84200 37.81400 40.93800
N  -8.85300 38.08700 39.68400
C  -8.57800 36.81500 39.43000
C  -7.11700 36.52500 38.88600
C  -6.48700 37.99000 39.05900
C  -7.70700 38.84500 39.43600
C  -5.38500 38.10900 40.24100
C  -6.95300 35.89700 37.50600
C  -6.41000 36.61800 36.22400
H  -6.24400 35.84000 34.91300
N  -9.67900 41.01700 40.33900
C  -8.41700 41.25300 39.81100
C  -8.29000 42.71200 39.59200
C  -9.52800 43.35800 40.09600
C  -10.38000 42.18100 40.59200
C  -7.13400 43.31200 38.90800
C  -9.83200 44.80800 40.10900
O  -9.04100 45.64600 39.69400
C  -11.11200 45.21500 40.68100
N  -12.59800 39.94400 40.86400
C  -12.65800 41.23400 41.31900
C  -14.16900 41.58900 41.66300
C  -14.87600 40.19200 41.63900
C  -13.69900 39.27400 41.10200
C  -14.30400 42.26700 43.06000
C  -16.28800 40.25000 40.89600
C  -17.50500 40.15400 41.78300
N  -11.54700 37.25000 40.47700
C  -12.86000 36.90800 40.55400
C  -13.04400 35.53800 40.22700
C  -11.77600 35.05400 39.96800
C  -10.89400 36.16300 40.01500
C  -14.32900 34.79800 40.20600
C  -11.01200 33.92600 39.60000
O  -11.33700 32.78100 39.38400
C  -9.53600 34.42600 39.34400
C  -8.56300 33.75600 40.11400
O  -8.54800 33.62300 41.35200
O  -7.60900 33.12400 39.29200
C  -6.38800 32.51200 39.87500
H  -6.57200 40.52500 39.04100
H  -12.04400 43.20800 41.49300
H  -14.83600 37.46800 41.22600
H  -6.64200 35.89400 39.63700
H  -6.02600 38.43500 38.17700
H  -5.56900 38.93000 40.93400
H  -4.39000 38.25000 39.81900
H  -5.28300 37.21200 40.85100
H  -7.92900 35.56500 37.15100
H  -6.26400 35.05600 37.57900
H  -5.40300 36.92100 36.50800
H  -7.03100 37.48900 36.01300
H  -7.43200 44.02000 38.13500
H  -6.54200 42.51000 38.46600
H  -6.50100 43.88700 39.58400
H  -11.95200 44.83400 40.10100
H  -11.18700 46.30100 40.73000
H  -10.98600 45.02100 41.74700
H  -14.54900 42.36100 40.99300
H  -15.09400 39.95000 42.67900
H  -15.07400 41.79600 43.67100
H  -14.51300 43.32600 42.91100
H  -13.29900 42.23700 43.48100
H  -16.22700 39.41100 40.20200
H  -16.46400 41.21100 40.41400
H  -18.21200 40.94900 41.54300
H  -17.25400 40.24900 42.84000
H  -18.01200 39.21300 41.57000
H  -14.15200 33.82800 39.74200
H  -14.96300 35.36200 39.52100
H  -14.67900 34.54300 41.20600
H  -9.40100 34.26500 38.27500
H  -5.76000 33.37600 40.09500
H  -5.89600 31.86500 39.14900
H  -6.59100 31.97400 40.80100

