158

Mg 16.98900 -1.01400 27.34200
C  16.25400 0.92400 30.09900
C  19.16600 -2.87600 29.32200
C  18.40200 -2.45500 24.54900
C  15.33000 1.19700 25.28700
N  17.72500 -0.81900 29.41000
C  17.14600 -0.05700 30.41900
C  17.65600 -0.43100 31.78900
C  18.76000 -1.54000 31.51700
C  18.56900 -1.75400 29.92300
C  20.26900 -1.26200 31.89300
C  16.48900 -0.89200 32.71300
C  16.32600 -0.23400 34.01400
H  17.56700 0.49200 34.66900
N  18.41500 -2.57900 26.98400
C  19.12500 -3.27700 27.97400
C  19.74700 -4.42200 27.38900
C  19.53000 -4.33600 25.93900
C  18.78700 -3.06200 25.75600
C  20.57100 -5.43900 28.20900
C  19.89400 -5.25400 24.82900
O  19.74900 -4.86800 23.65100
C  20.69200 -6.63800 25.07600
N  16.85800 -0.69600 25.24500
C  17.49600 -1.40700 24.28500
C  17.06000 -1.02500 22.84700
C  15.99600 0.05300 23.09000
C  16.09900 0.28200 24.65100
C  18.13600 -0.66000 21.81800
C  14.55400 -0.21300 22.51200
C  14.14400 0.77600 21.44500
N  15.81400 0.64300 27.59700
C  15.16500 1.42700 26.67300
C  14.46300 2.43700 27.38900
C  14.74000 2.25700 28.77800
C  15.61700 1.14400 28.84400
C  13.59000 3.49700 26.70200
C  14.60800 2.80900 30.14400
O  14.00700 3.81500 30.49900
C  15.52000 1.89100 31.05200
C  16.48700 2.76900 31.84700
O  17.53400 3.15400 31.48800
O  15.90600 3.11100 33.05700
C  16.44700 4.30700 33.69400
H  19.79000 -3.49500 29.97100
H  18.75500 -2.91200 23.62200
H  14.82600 1.82100 24.54600
H  18.06000 0.46600 32.25700
H  18.49100 -2.44800 32.05700
H  20.61200 -2.21800 32.28900
H  20.28500 -0.63100 32.78100
H  20.82800 -0.91300 31.02500
H  16.72600 -1.93700 32.90800
H  15.54500 -1.00700 32.18100
H  15.97800 -0.96800 34.74100
H  15.54400 0.51300 33.87600
H  20.32800 -6.50000 28.15200
H  20.57500 -5.21000 29.27400
H  21.62100 -5.26800 27.96900
H  21.58100 -6.53400 25.69800
H  21.04800 -7.15700 24.18600
H  19.95600 -7.32700 25.48900
H  16.46600 -1.86600 22.49100
H  16.40600 1.02200 22.80600
H  17.96700 0.33800 21.41500
H  18.23000 -1.52600 21.16200
H  19.07700 -0.55600 22.35700
H  13.80600 -0.01300 23.28000
H  14.36300 -1.23000 22.17200
H  14.88600 1.51700 21.14900
H  13.22900 1.26400 21.78200
H  13.79100 0.22000 20.57600
H  13.54600 3.41600 25.61600
H  13.95900 4.48800 26.96500
H  12.59700 3.34800 27.12700
H  14.91300 1.40900 31.81800
H  17.32000 4.02400 34.28100
H  15.80400 4.69200 34.48600
H  16.71000 5.06500 32.95600
Mg 4.79500 54.17800 42.16100
C  4.87600 50.66500 41.08800
C  7.93800 54.36300 40.75400
C  4.33000 57.44100 41.93400
C  1.78200 53.62200 43.46700
N  6.17100 52.60900 41.02300
C  5.92100 51.36400 40.59500
C  7.06800 50.88900 39.63500
C  8.17400 51.82800 40.12600
C  7.34700 53.07400 40.57500
C  9.27300 51.33300 41.15600
C  6.60500 51.13100 38.16600
C  7.26200 50.08700 37.22800
H  6.39200 49.51400 36.12100
N  5.95300 55.69900 41.43100
C  7.26100 55.58000 41.01100
C  7.81300 56.91300 40.69700
C  6.71900 57.83000 40.78300
C  5.55100 57.02500 41.39300
C  9.22000 57.15900 40.11900
C  6.71500 59.33900 40.46600
O  7.71200 59.95700 40.01300
C  5.53500 60.22000 40.80600
N  3.19600 55.40700 42.47300
C  3.28700 56.74100 42.58100
C  2.17700 57.33900 43.32500
C  1.28100 56.06300 43.58500
C  2.17900 54.91600 43.20400
C  2.63300 58.09600 44.66600
C  -0.14600 56.05600 42.79400
C  -0.93500 57.38100 42.57300
N  3.55200 52.47800 42.37800
C  2.31800 52.44900 43.03000
C  1.90900 51.06400 43.07500
C  2.89600 50.29500 42.30700
C  3.84800 51.22300 41.88100
C  0.68300 50.64500 43.79700
C  3.19300 48.96800 41.77400
O  2.68800 47.89500 41.80600
C  4.56000 49.16400 41.06000
C  4.74800 48.45700 39.76800
O  4.41300 48.87900 38.68800
O  5.31400 47.22400 40.00900
C  5.71900 46.53200 38.75100
H  8.95100 54.48600 40.36600
H  4.03200 58.48600 41.82400
H  0.94800 53.48700 44.15900
H  7.38000 49.87000 39.86500
H  8.75400 52.12300 39.25100
H  9.56200 51.96900 41.99300
H  10.12300 51.11300 40.50900
H  8.98500 50.39000 41.61900
H  6.87600 52.14800 37.88500
H  5.51600 51.09200 38.14200
H  7.73800 49.30100 37.81300
H  8.08600 50.62400 36.76000
H  9.54900 58.19900 40.11100
H  9.27800 56.61500 39.17700
H  9.86100 56.65500 40.84200
H  5.67600 61.28200 40.60300
H  5.46600 60.21900 41.89400
H  4.66900 59.89600 40.23000
H  1.62700 57.97800 42.63300
H  1.08400 55.80600 44.62500
H  1.81100 58.10900 45.38200
H  2.95000 59.07800 44.31500
H  3.41100 57.53000 45.17900
H  -0.83900 55.39200 43.31100
H  0.09000 55.68200 41.79800
H  -0.64100 57.54800 41.53700
H  -0.44200 58.22600 43.05300
H  -2.01600 57.35200 42.71100
H  0.31000 49.68000 43.45400
H  -0.11300 51.37300 43.63900
H  0.91300 50.57100 44.86000
H  5.23400 48.68000 41.76700
H  6.01000 45.51700 39.02200
H  6.58300 47.07900 38.37300
H  4.99400 46.45900 37.94100

