158

Mg 26.78800 50.26000 26.51700
C  24.65500 51.04700 29.24000
C  29.09500 49.37100 28.95500
C  28.77800 49.59200 24.13400
C  24.57600 51.85900 24.35900
N  26.72700 50.05000 28.88700
C  25.73100 50.42200 29.71300
C  26.19800 50.32500 31.14700
C  27.76700 50.05200 31.07600
C  27.93400 49.84600 29.54700
C  28.70900 51.06700 31.82600
C  25.36100 49.19800 31.82800
C  25.09500 49.34400 33.29400
H  25.97800 50.21800 34.21300
N  28.67400 49.41800 26.50400
C  29.43900 49.10700 27.59000
C  30.67200 48.57200 27.11900
C  30.64700 48.67500 25.70100
C  29.32100 49.18900 25.36000
C  31.79600 47.95700 28.07000
C  31.68300 48.31300 24.65700
O  31.50600 48.58200 23.51300
C  32.95700 47.60300 25.09900
N  26.75200 50.76200 24.55100
C  27.66900 50.31000 23.72900
C  27.29600 50.49900 22.30500
C  25.98500 51.30000 22.30600
C  25.76000 51.43400 23.82900
C  28.29300 51.25700 21.46200
C  24.84800 50.57200 21.56400
C  23.95500 51.57000 20.90000
N  24.98500 51.31400 26.66000
C  24.13100 51.84300 25.69500
C  22.96300 52.43600 26.31200
C  23.12100 52.12900 27.69800
C  24.36600 51.41200 27.85900
C  21.89800 53.20400 25.68500
C  22.54600 52.34300 29.02800
O  21.50500 52.83900 29.32500
C  23.43700 51.65300 30.09400
C  23.85300 52.77000 30.99900
O  24.75700 53.59300 30.83500
O  23.02300 52.68800 32.08200
C  23.21500 53.72900 33.13900
H  29.75400 49.09000 29.77900
H  29.40400 49.26900 23.30000
H  23.86700 52.31200 23.66300
H  26.08600 51.30100 31.62100
H  27.92300 49.06400 31.51000
H  29.09300 50.56500 32.71300
H  28.18800 51.97000 32.14400
H  29.52700 51.37000 31.17300
H  25.82600 48.22600 31.66500
H  24.34400 49.17100 31.43700
H  25.24400 48.34100 33.69200
H  24.05500 49.64900 33.41200
H  31.63100 46.88800 28.20600
H  31.67800 48.22700 29.12000
H  32.75000 48.28400 27.65800
H  33.71200 48.28100 25.49800
H  33.30000 47.25500 24.12500
H  32.79300 46.76000 25.77000
H  27.20700 49.50400 21.86800
H  26.14400 52.34300 22.03200
H  28.99700 51.63400 22.20300
H  27.91400 52.01200 20.77300
H  28.85700 50.55600 20.84600
H  24.28600 49.99000 22.29500
H  25.29000 49.92700 20.80500
H  22.98900 51.09000 20.74700
H  24.31500 51.82800 19.90400
H  23.77800 52.40300 21.58000
H  21.83600 54.20400 26.11300
H  20.92200 52.75800 25.87500
H  22.17700 53.22600 24.63100
H  22.85600 50.87700 30.59300
H  22.30400 53.65300 33.73300
H  23.38400 54.67900 32.63400
H  24.21300 53.63000 33.56400
Mg -11.03600 17.14000 42.07500
C  -7.58000 18.05000 41.99200
C  -11.87200 20.38100 41.89100
C  -14.24100 16.06400 42.04100
C  -9.97300 13.79100 42.04500
N  -9.80900 18.99200 41.82200
C  -8.46800 19.17600 41.88900
C  -8.06900 20.64400 41.98800
C  -9.42800 21.30000 42.30600
C  -10.42100 20.16600 42.06600
C  -9.53300 21.86700 43.80200
C  -7.37200 21.14300 40.70300
C  -5.83600 21.45400 40.82600
H  -4.98800 20.81200 39.72200
N  -12.82000 18.05500 41.80400
C  -12.99300 19.43000 41.74600
C  -14.39600 19.73000 41.47900
C  -15.15000 18.48500 41.52700
C  -14.09500 17.45900 41.85200
C  -14.94800 21.11500 41.35200
C  -16.62600 18.33000 41.27400
O  -17.39700 19.26600 40.91800
C  -17.22900 17.03600 41.22200
N  -11.98300 15.21100 42.07500
C  -13.29500 15.05700 42.25300
C  -13.72800 13.57800 42.40700
C  -12.28800 12.89200 42.41800
C  -11.36500 13.98900 42.06300
C  -14.68600 13.20900 43.59800
C  -12.16800 11.63700 41.56900
C  -12.13100 10.35000 42.29500
N  -9.19500 16.08600 42.02500
C  -8.94000 14.73900 41.98600
C  -7.51400 14.44000 42.08800
C  -6.99800 15.74400 42.03500
C  -8.01500 16.73700 41.99600
C  -6.67800 13.18300 42.02500
C  -5.76200 16.43600 42.06800
O  -4.65000 15.96000 42.07600
C  -6.09000 17.93000 42.13400
C  -5.57700 18.46400 43.40000
O  -5.95400 18.20200 44.50600
O  -4.36000 19.14400 43.12100
C  -3.45900 19.54300 44.25500
H  -12.10200 21.43600 42.04900
H  -15.30800 15.83100 42.06800
H  -9.62600 12.77400 42.23800
H  -7.33700 20.77000 42.78600
H  -9.74300 22.14100 41.68800
H  -10.27500 21.29400 44.35800
H  -9.80800 22.92000 43.75000
H  -8.55600 21.88000 44.28600
H  -7.94300 21.97200 40.28400
H  -7.45600 20.36600 39.94200
H  -5.46700 21.17800 41.81300
H  -5.64700 22.52800 40.81500
H  -15.28500 21.43000 40.36400
H  -14.28400 21.83800 41.82700
H  -15.90000 21.14500 41.88100
H  -18.21500 17.10600 40.76200
H  -17.35000 16.59800 42.21300
H  -16.68100 16.51600 40.43500
H  -14.29200 13.34700 41.50300
H  -11.95900 12.65300 43.43000
H  -15.66000 13.11100 43.12000
H  -14.69200 14.11500 44.20300
H  -14.39700 12.26200 44.05500
H  -11.38800 11.73700 40.81400
H  -13.06300 11.66800 40.94800
H  -11.48400 9.60600 41.83000
H  -13.10000 9.85900 42.19600
H  -11.79100 10.31800 43.33000
H  -6.15800 12.91700 42.94500
H  -5.98800 13.18600 41.18000
H  -7.33600 12.35900 41.74900
H  -5.63300 18.47000 41.30400
H  -3.01000 20.50700 44.01200
H  -2.57500 18.90600 44.26800
H  -3.93100 19.52600 45.23800

