158

Mg 17.50300 -2.40600 27.89000
C  16.33300 -0.31600 30.45900
C  19.38100 -4.17300 30.11200
C  18.95300 -3.97600 25.16900
C  16.12000 -0.15900 25.64900
N  17.80100 -2.26000 30.06200
C  17.15900 -1.36000 30.91100
C  17.56500 -1.67000 32.33300
C  18.61500 -2.83500 32.22100
C  18.60900 -3.14500 30.70700
C  19.99800 -2.38300 32.72500
C  16.27300 -2.05100 33.13100
C  16.09400 -1.35500 34.52300
H  17.31700 -0.91700 35.30800
N  18.80100 -3.98600 27.68700
C  19.52000 -4.56100 28.74400
C  20.42100 -5.53100 28.25400
C  20.26300 -5.53300 26.80000
C  19.30700 -4.45600 26.49100
C  21.42400 -6.29600 29.19700
C  20.86600 -6.42000 25.75100
O  20.56900 -6.31500 24.57200
C  21.99200 -7.44000 26.14100
N  17.53200 -2.17800 25.69800
C  18.15000 -2.92500 24.81500
C  17.99100 -2.45900 23.33100
C  17.06500 -1.33800 23.59100
C  16.83200 -1.22600 25.09100
C  19.37000 -2.04300 22.61300
C  15.81700 -1.25300 22.68900
C  14.49200 -1.91300 23.16400
N  16.40400 -0.64600 28.01000
C  15.82400 0.05700 27.00700
C  14.85900 0.95500 27.53300
C  15.11100 0.91500 28.92500
C  16.03900 -0.08200 29.11800
C  13.94200 1.88500 26.85400
C  14.79300 1.58300 30.25400
O  14.14900 2.64200 30.46400
C  15.50500 0.74600 31.26100
C  16.40800 1.67800 31.99900
O  17.53800 2.06400 31.60800
O  15.74500 2.13900 33.10200
C  16.56100 3.06400 33.86000
H  20.03800 -4.70000 30.80700
H  19.34800 -4.32400 24.21200
H  15.56400 0.53100 25.01100
H  17.99600 -0.70800 32.60900
H  18.26600 -3.62500 32.88600
H  20.55700 -2.01000 31.86700
H  20.47200 -3.24700 33.19100
H  19.79400 -1.55000 33.39700
H  16.11600 -3.12700 33.21100
H  15.40900 -1.75200 32.53800
H  15.50300 -1.99000 35.18200
H  15.40000 -0.52700 34.37600
H  22.27600 -6.79700 28.73600
H  20.81200 -6.95600 29.81100
H  21.78000 -5.39800 29.70200
H  22.84400 -6.95400 26.61500
H  22.17100 -8.04000 25.24800
H  21.48900 -7.91700 26.98200
H  17.52100 -3.23800 22.73000
H  17.64600 -0.44500 23.35700
H  20.26900 -2.28100 23.18300
H  19.45700 -0.97800 22.39700
H  19.56600 -2.61500 21.70600
H  16.17100 -1.75100 21.78700
H  15.50200 -0.29000 22.28700
H  13.61200 -1.27100 23.19400
H  14.54000 -2.50000 24.08200
H  14.10200 -2.56500 22.38300
H  13.36200 2.17200 27.73100
H  13.29300 1.28200 26.21900
H  14.48500 2.75000 26.47500
H  14.75900 0.36900 31.96000
H  16.16800 3.35200 34.83500
H  16.61100 3.99200 33.29100
H  17.64300 2.92700 33.88300
Mg -2.24000 34.58700 26.49700
C  -3.92700 32.65500 29.02000
C  -1.25100 36.72300 28.96700
C  -1.03400 36.63300 24.05400
C  -4.05800 32.84100 24.12500
N  -2.49200 34.57100 28.77800
C  -3.18300 33.67700 29.56400
C  -2.91700 33.99900 31.06300
C  -2.28400 35.47000 30.97500
C  -1.94300 35.62300 29.51400
C  -2.86700 36.73000 31.64000
C  -2.14900 32.88100 31.72600
C  -2.78100 32.19900 32.94300
H  -2.05500 32.11000 34.24500
N  -1.16100 36.37900 26.51500
C  -0.81600 37.05800 27.64000
C  0.06200 38.16400 27.24100
C  0.15900 38.07700 25.80900
C  -0.77000 37.04400 25.39100
C  0.88100 38.99100 28.23900
C  1.05600 38.80500 24.84300
O  0.99400 38.65200 23.60700
C  2.17500 39.58300 25.46100
N  -2.54400 34.72400 24.48300
C  -1.90400 35.60300 23.71800
C  -2.36800 35.50300 22.29000
C  -2.91100 34.06200 22.21800
C  -3.20200 33.82500 23.70700
C  -3.50700 36.50400 21.81800
C  -1.89000 33.08300 21.50500
C  -0.55900 32.61900 22.14600
N  -3.64300 33.11600 26.49700
C  -4.25500 32.44500 25.44600
C  -5.07800 31.31300 25.89300
C  -4.93200 31.40300 27.31400
C  -4.04200 32.45200 27.59100
C  -5.83400 30.39400 25.10800
C  -5.36300 30.76800 28.59300
O  -6.12600 29.79600 28.77600
C  -4.71400 31.54000 29.66700
C  -5.82000 32.14500 30.42700
O  -6.37800 33.19200 30.13800
O  -6.04100 31.49700 31.64400
C  -6.94300 32.17800 32.57600
H  -0.99400 37.36700 29.81200
H  -0.63900 37.17200 23.19100
H  -4.66200 32.40800 23.32500
H  -3.90100 34.11800 31.51800
H  -1.36000 35.38200 31.54600
H  -3.88300 36.47800 31.94400
H  -3.11200 37.50800 30.91600
H  -2.21300 37.17300 32.39100
H  -1.18200 33.31000 31.98900
H  -1.98600 32.18500 30.90300
H  -3.07400 31.19200 32.64400
H  -3.80000 32.55500 33.10000
H  0.53100 39.03500 29.27100
H  0.84000 40.01000 27.85400
H  1.93200 38.70500 28.20600
H  2.86400 39.60700 24.61700
H  2.71900 38.97500 26.18400
H  1.92100 40.60600 25.73700
H  -1.62800 35.72800 21.52100
H  -3.86700 33.92100 21.71400
H  -3.30400 36.89400 20.82000
H  -3.57500 37.38600 22.45400
H  -4.42600 35.91600 21.83500
H  -1.64200 33.47800 20.52000
H  -2.49600 32.18200 21.41200
H  0.20800 32.48200 21.38300
H  -0.55400 31.62000 22.58300
H  -0.10500 33.26900 22.89400
H  -5.74100 30.61000 24.04400
H  -6.88300 30.53600 25.37100
H  -5.61400 29.33300 25.23100
H  -4.19000 30.97700 30.44000
H  -7.76400 31.53700 32.89700
H  -7.43000 33.03800 32.11600
H  -6.44400 32.49400 33.49300

