158

Mg 47.47000 25.13100 28.60300
C  47.96400 27.41500 31.22200
C  46.22600 22.88000 30.87900
C  47.32200 22.95500 26.13200
C  48.76200 27.50200 26.45900
N  47.13300 25.16300 30.76800
C  47.37000 26.24100 31.60100
C  46.83600 25.98100 33.08400
C  46.71900 24.38100 33.01600
C  46.72000 24.06700 31.47700
C  47.60500 23.41200 33.82200
C  45.57200 26.81400 33.42900
C  44.90300 26.40000 34.70100
H  45.12600 27.16400 36.02300
N  46.95000 23.20000 28.58800
C  46.31700 22.46600 29.58300
C  46.02200 21.13300 29.06400
C  46.37000 21.10800 27.66500
C  46.91400 22.44100 27.38800
C  45.33700 20.08100 29.94600
C  46.31100 19.87200 26.69800
O  46.81100 19.90100 25.56500
C  45.60800 18.65400 27.12400
N  48.02800 25.17000 26.57000
C  47.82700 24.17500 25.72500
C  48.01700 24.57000 24.22300
C  48.32800 26.04300 24.33600
C  48.40800 26.23900 25.86600
C  49.09600 23.65100 23.54800
C  47.30900 27.00900 23.73400
C  45.78100 27.04900 24.07700
N  48.17600 27.06100 28.76600
C  48.70500 27.87200 27.78200
C  49.13500 29.18600 28.31800
C  48.81100 29.00600 29.71300
C  48.29000 27.70700 29.88500
C  49.77900 30.34100 27.73800
C  48.75300 29.72700 30.96700
O  49.16000 30.86000 31.25000
C  48.19700 28.72900 31.95400
C  49.03800 28.63700 33.12500
O  50.02200 27.94300 33.33900
O  48.49400 29.49100 34.09800
C  49.15400 29.53800 35.42100
H  45.86800 22.14400 31.60200
H  47.13700 22.27000 25.30200
H  49.10000 28.32200 25.82200
H  47.62600 26.31000 33.75900
H  45.74700 24.08000 33.40700
H  46.84500 22.88400 34.39700
H  48.36700 23.94700 34.38900
H  47.95500 22.68500 33.08900
H  44.85800 26.81000 32.60500
H  45.84600 27.82600 33.72700
H  45.08600 25.35200 34.93500
H  43.83600 26.51400 34.51300
H  44.44800 19.69600 29.44500
H  45.05700 20.37900 30.95600
H  45.94500 19.25300 30.31100
H  46.18900 18.11200 27.87000
H  45.64300 18.01600 26.24100
H  44.55800 18.84300 27.34400
H  47.12900 24.42600 23.60700
H  49.31300 26.32700 23.96600
H  50.08500 24.11000 23.52200
H  48.94300 23.56600 22.47200
H  49.03800 22.71000 24.09500
H  47.39500 26.72600 22.68500
H  47.79800 27.98100 23.68800
H  45.53400 26.40800 24.92300
H  45.12400 26.74100 23.26300
H  45.50900 28.05100 24.41100
H  49.40800 30.56400 26.73800
H  50.86300 30.37400 27.84600
H  49.41300 31.15000 28.37000
H  47.23800 29.20500 32.16000
H  50.22200 29.35400 35.29900
H  48.70200 28.80600 36.09000
H  48.98800 30.53500 35.82900
Mg -9.43500 39.65000 41.64400
C  -8.35400 36.24700 41.32100
C  -6.28200 40.57000 40.39400
C  -10.74300 42.60700 40.88600
C  -12.76300 38.34200 42.15700
N  -7.53300 38.54200 40.98400
C  -7.35300 37.17300 40.92300
C  -5.98500 36.87700 40.39700
C  -5.24700 38.30800 40.44700
C  -6.43200 39.21700 40.63100
C  -4.07800 38.52300 41.48000
C  -6.15100 36.26700 38.96800
C  -5.71500 34.77300 38.85800
H  -4.98600 34.35600 37.56300
N  -8.57900 41.36900 40.80700
C  -7.32500 41.54400 40.40600
C  -7.25400 42.92200 39.82500
C  -8.47900 43.57900 40.13500
C  -9.29900 42.50500 40.64000
C  -6.10000 43.55000 39.18800
C  -8.86100 45.07500 39.86400
O  -8.12100 45.81300 39.16000
C  -10.15600 45.69200 40.22500
N  -11.45400 40.37000 41.47800
C  -11.69600 41.65000 41.31900
C  -13.21300 42.07800 41.73800
C  -13.77000 40.63200 42.01900
C  -12.60800 39.71400 41.89300
C  -13.27400 43.07600 42.93800
C  -15.05900 40.21300 41.18800
C  -16.35500 40.00900 42.00300
N  -10.44400 37.70900 41.79100
C  -11.76200 37.34600 42.00500
C  -11.84800 35.98500 42.04200
C  -10.56300 35.48000 41.85400
C  -9.68100 36.56700 41.63600
C  -13.15200 35.29100 42.21900
C  -9.74200 34.28900 41.76300
O  -10.06900 33.14100 41.88400
C  -8.29200 34.72400 41.38000
C  -7.30000 34.26800 42.45200
O  -6.94300 34.81800 43.46100
O  -6.75600 33.15500 41.91600
C  -5.54000 32.63400 42.65500
H  -5.23900 40.81700 40.18100
H  -11.10300 43.63600 40.81700
H  -13.77300 38.13200 42.51400
H  -5.51600 36.10800 41.01000
H  -4.89500 38.53700 39.44100
H  -4.17000 39.25800 42.28000
H  -3.39500 39.04500 40.81000
H  -3.71800 37.57300 41.87500
H  -5.42000 36.74200 38.31400
H  -7.17300 36.48600 38.65900
H  -6.65500 34.24500 38.70100
H  -5.26900 34.43100 39.79200
H  -6.27700 43.91300 38.17500
H  -5.33100 42.77900 39.14000
H  -5.63800 44.31700 39.81000
H  -10.44700 45.43700 41.24400
H  -10.87200 45.31400 39.49600
H  -10.09100 46.78000 40.23100
H  -13.57300 42.50800 40.80400
H  -13.97000 40.61500 43.09100
H  -12.24700 43.33100 43.19800
H  -13.73700 42.70500 43.85200
H  -13.88400 43.92700 42.63300
H  -14.84000 39.30100 40.63300
H  -15.32100 41.07000 40.56900
H  -16.25900 40.12900 43.08200
H  -16.66800 38.96900 41.91000
H  -17.03100 40.73700 41.55500
H  -13.40800 34.98600 41.20400
H  -14.00700 35.82900 42.62800
H  -13.14600 34.45200 42.91500
H  -8.02500 34.19400 40.46600
H  -4.84500 32.14700 41.97100
H  -5.86800 31.92700 43.41700
H  -5.05800 33.44700 43.19800

