158

Mg 1.77900 -0.98300 44.87800
C  5.09300 -0.17100 44.22500
C  0.83800 1.85400 43.27400
C  -1.42900 -2.23100 44.67600
C  2.90600 -4.13700 45.88400
N  2.89200 0.57800 43.66300
C  4.21400 0.75700 43.73000
C  4.56600 2.10500 43.13500
C  3.20900 2.90100 43.10600
C  2.24100 1.74600 43.43200
C  3.16500 4.07800 44.14100
C  5.35200 2.04200 41.79100
C  4.99100 0.81300 40.84600
H  4.77000 1.17000 39.39200
N  -0.09400 -0.22500 44.23800
C  -0.24100 0.95500 43.57100
C  -1.61700 1.15500 43.19000
C  -2.27900 -0.00800 43.58800
C  -1.24700 -0.93000 44.15000
C  -2.05200 2.39400 42.39400
C  -3.78900 -0.36500 43.40400
O  -4.61200 0.55200 43.11300
C  -4.42800 -1.72300 43.56500
N  0.82100 -2.91400 45.10900
C  -0.51200 -3.16100 45.06900
C  -0.81700 -4.57800 45.55000
C  0.57100 -5.02600 46.10200
C  1.51600 -3.97000 45.67400
C  -2.06600 -4.76300 46.44900
C  0.92700 -6.44500 45.56000
C  1.91400 -7.35000 46.30200
N  3.62500 -1.92700 45.29000
C  3.92800 -3.21900 45.63400
C  5.35300 -3.41900 45.75400
C  5.89000 -2.21500 45.30700
C  4.78100 -1.36400 44.91000
C  6.07300 -4.57600 46.25000
C  7.12500 -1.55800 44.99300
O  8.26800 -1.86500 45.18300
C  6.65300 -0.18000 44.29800
C  7.11900 0.94000 45.14300
O  6.91400 1.16700 46.32100
O  7.80900 1.77500 44.21600
C  8.09800 3.12000 44.64300
H  0.57800 2.79400 42.78400
H  -2.44300 -2.61600 44.80200
H  3.34600 -5.08500 46.20000
H  5.21700 2.58500 43.86600
H  3.01900 3.27000 42.09800
H  3.43500 4.98200 43.59500
H  3.80400 3.81100 44.98200
H  2.11600 4.13900 44.43100
H  6.42600 2.09500 41.96900
H  5.05900 2.96000 41.28000
H  4.16100 0.21600 41.22300
H  5.80600 0.09100 40.90300
H  -3.07400 2.23400 42.05100
H  -1.48800 2.58700 41.48100
H  -2.02400 3.29000 43.01400
H  -5.45600 -1.71800 43.20300
H  -4.43600 -1.84500 44.64800
H  -3.83000 -2.54000 43.16100
H  -0.97300 -5.14400 44.63200
H  0.43500 -4.99300 47.18300
H  -2.83500 -5.24700 45.84700
H  -2.48200 -3.82400 46.81200
H  -1.89100 -5.29200 47.38600
H  1.40200 -6.19700 44.61100
H  0.02400 -6.93400 45.19700
H  1.34600 -8.27000 46.44500
H  2.28000 -6.86000 47.20400
H  2.71100 -7.53700 45.58200
H  5.79400 -5.03300 47.19900
H  7.15000 -4.42700 46.31800
H  5.86100 -5.43100 45.60900
H  7.00400 -0.04100 43.27600
H  7.15500 3.51500 45.02100
H  8.59100 3.69800 43.86100
H  8.77800 3.09500 45.49400
Mg 17.12200 -1.54900 28.04800
C  16.15500 0.48800 30.81500
C  19.31200 -3.19400 30.25000
C  18.61400 -3.01900 25.37200
C  15.45800 0.53300 25.89900
N  17.87300 -1.28200 30.27800
C  17.09400 -0.54000 31.22200
C  17.43600 -0.99000 32.65400
C  18.50100 -2.09000 32.43400
C  18.56200 -2.24200 30.90900
C  19.97600 -1.72000 32.89200
C  16.23100 -1.60400 33.42100
C  16.01300 -1.25000 34.92200
H  17.15300 -0.71500 35.76700
N  18.69900 -2.90000 27.86500
C  19.44100 -3.48200 28.89000
C  20.23000 -4.54300 28.35100
C  19.93900 -4.60100 26.94500
C  19.05700 -3.48300 26.66500
C  21.23800 -5.44700 29.13900
C  20.52700 -5.60500 25.87500
O  20.21500 -5.45600 24.67400
C  21.39900 -6.77500 26.19000
N  17.10000 -1.33100 25.85500
C  17.82900 -1.92700 25.01100
C  17.56100 -1.53100 23.50400
C  16.32800 -0.63100 23.75800
C  16.30300 -0.37700 25.26600
C  18.79500 -0.79600 22.81400
C  14.94800 -1.27100 23.28400
C  13.91700 -0.27100 22.93700
N  15.88700 0.02600 28.31000
C  15.31600 0.79800 27.26900
C  14.49900 1.81000 27.93100
C  14.77000 1.73100 29.26300
C  15.64000 0.66300 29.48800
C  13.66400 2.72700 27.17500
C  14.57500 2.32800 30.61000
O  13.87900 3.21200 30.97200
C  15.28300 1.43000 31.61800
C  16.00600 2.24500 32.55600
O  17.18300 2.63800 32.48300
O  15.17800 2.48000 33.68200
C  15.72400 3.31500 34.77400
H  19.78000 -3.85900 30.97900
H  19.10900 -3.27500 24.43300
H  14.77700 1.16400 25.32500
H  17.77000 -0.13600 33.24300
H  18.16700 -2.99000 32.95000
H  20.72600 -1.70000 32.10200
H  20.29300 -2.52400 33.55600
H  20.00100 -0.73000 33.34700
H  16.31000 -2.69100 33.41100
H  15.35800 -1.34200 32.82300
H  15.63500 -2.16900 35.37100
H  15.11700 -0.64600 35.06700
H  20.84900 -6.45600 29.27800
H  21.18700 -5.08400 30.16500
H  22.28200 -5.44300 28.82500
H  21.62000 -7.34800 25.29000
H  21.04300 -7.39900 27.00900
H  22.30800 -6.25800 26.49700
H  17.30700 -2.49100 23.05600
H  16.43500 0.37100 23.34200
H  19.42300 -1.39800 22.15800
H  19.45700 -0.57200 23.65000
H  18.40400 0.11400 22.35800
H  14.64300 -1.96600 24.06600
H  15.20600 -1.84800 22.39500
H  13.06000 -0.35700 23.60500
H  13.63500 -0.36900 21.88900
H  14.42200 0.69500 22.94300
H  13.29500 3.50800 27.83900
H  12.82600 2.28700 26.63400
H  14.28500 3.02600 26.33100
H  14.59800 0.79700 32.18200
H  14.93600 3.95800 35.16500
H  16.44100 4.04800 34.40300
H  16.31000 2.88100 35.58500

