158

Mg 1.48500 -1.84400 43.42800
C  4.82400 -0.79700 43.18800
C  0.66700 0.83000 41.50200
C  -1.62500 -3.04600 43.24100
C  2.57500 -4.80800 44.93800
N  2.65800 -0.10100 42.59400
C  3.98500 0.14100 42.59100
C  4.29000 1.37500 41.67000
C  2.87200 2.05300 41.59200
C  1.99400 0.80900 41.92000
C  2.63100 3.15600 42.65600
C  5.03300 1.13800 40.33900
C  6.18500 2.11600 40.15700
H  6.19000 2.86400 38.87300
N  -0.27400 -1.09900 42.48900
C  -0.43100 0.01800 41.73200
C  -1.84400 0.29000 41.45100
C  -2.51800 -0.88300 42.00100
C  -1.49400 -1.74600 42.64300
C  -2.41800 1.49100 40.74200
C  -3.92400 -1.02200 41.93900
O  -4.70900 -0.19200 41.48400
C  -4.58200 -2.16000 42.48900
N  0.60600 -3.67400 43.96500
C  -0.72100 -3.90300 43.88600
C  -1.14100 -5.27900 44.54200
C  0.14300 -5.80000 45.14400
C  1.18900 -4.70400 44.68700
C  -2.28400 -5.01400 45.56600
C  0.65300 -7.26500 44.70300
C  0.49100 -8.41300 45.79300
N  3.28100 -2.72900 43.84800
C  3.60600 -3.92500 44.48000
C  5.06400 -4.01700 44.76000
C  5.57400 -2.86500 44.13900
C  4.42600 -2.08700 43.76800
C  5.85900 -5.17500 45.35000
C  6.78200 -2.20900 43.81600
O  7.96500 -2.56200 43.94500
C  6.35800 -0.80400 43.16600
C  7.02700 0.35700 43.83700
O  6.99200 0.50700 45.04300
O  7.79400 1.05900 42.92600
C  8.55300 2.17200 43.54400
H  0.28900 1.67100 40.91600
H  -2.64200 -3.44600 43.23100
H  2.85000 -5.65400 45.57200
H  4.87700 2.06200 42.28000
H  2.70900 2.46600 40.59700
H  3.55200 3.58800 43.04600
H  2.15900 2.80700 43.57500
H  2.01200 3.86900 42.11100
H  4.36600 1.23600 39.48300
H  5.38900 0.11100 40.41700
H  7.17700 1.66300 40.15800
H  6.28200 2.83900 40.96600
H  -2.80700 2.16700 41.50300
H  -3.28300 1.20800 40.14100
H  -1.68900 2.04000 40.14700
H  -5.63800 -2.05200 42.24400
H  -4.38500 -2.25500 43.55700
H  -4.25100 -3.01000 41.89000
H  -1.46900 -5.94900 43.74800
H  0.16700 -5.74300 46.23200
H  -2.19400 -3.98600 45.91800
H  -2.09000 -5.70100 46.38900
H  -3.24800 -5.27200 45.12700
H  1.71400 -7.23800 44.45600
H  0.19700 -7.61200 43.77600
H  -0.35700 -8.97200 45.39700
H  0.16100 -7.97800 46.73700
H  1.40600 -8.99800 45.87700
H  6.78300 -5.38700 44.81400
H  5.26400 -6.08000 45.23000
H  6.06100 -5.06800 46.41600
H  6.68200 -0.82100 42.12500
H  7.95900 3.08500 43.51300
H  9.37100 2.23300 42.82600
H  8.95400 2.13100 44.55700
Mg 25.73700 1.69900 29.67300
C  27.87900 1.38600 32.28500
C  23.19400 2.20200 31.66400
C  23.86800 1.81100 26.88800
C  28.60400 0.89100 27.49600
N  25.62200 1.84300 31.75500
C  26.66200 1.81300 32.66500
C  26.13800 2.06000 34.09100
C  24.53600 2.03000 33.87300
C  24.40500 2.06400 32.34300
C  23.84800 0.84900 34.51800
C  26.64300 3.43100 34.77500
C  27.49000 3.29900 36.07200
H  27.35300 4.20300 37.34400
N  23.78900 2.03900 29.31700
C  22.84000 2.17400 30.31600
C  21.54300 2.20300 29.64000
C  21.73300 2.12300 28.25900
C  23.18300 2.01000 28.11000
C  20.21000 2.19300 30.34100
C  20.69100 1.88800 27.18600
O  21.00300 1.58300 26.02100
C  19.21400 2.16000 27.40700
N  26.21300 1.27400 27.39100
C  25.19500 1.46100 26.57200
C  25.77000 1.47800 25.18000
C  27.30300 1.17600 25.31400
C  27.40400 1.16300 26.84700
C  25.03800 0.53300 24.18400
C  28.33700 2.12500 24.61700
C  29.54700 1.45300 23.90000
N  27.69200 1.07600 29.75400
C  28.74200 0.85300 28.86800
C  29.95900 0.50000 29.59400
C  29.65600 0.72300 30.91200
C  28.27700 1.08800 30.97500
C  31.22000 -0.04400 29.02300
C  30.17400 0.57300 32.21200
O  31.24700 0.09300 32.54600
C  29.00700 1.06100 33.24400
C  28.62400 -0.01400 34.22700
O  28.07600 -1.05400 33.97300
O  29.13900 0.33700 35.42700
C  28.73000 -0.59200 36.48200
H  22.42800 2.61800 32.32200
H  23.27300 1.88100 25.97500
H  29.40700 0.76000 26.76900
H  26.35400 1.25700 34.79600
H  24.13600 2.90600 34.38400
H  23.19300 1.39600 35.19600
H  24.49200 0.04100 34.86600
H  23.13600 0.39300 33.82900
H  25.79000 4.05200 35.04900
H  27.28100 4.08000 34.17500
H  28.46300 3.39800 35.59200
H  27.49700 2.24800 36.36200
H  19.64700 3.09600 30.10200
H  20.32100 2.01500 31.41000
H  19.75100 1.30100 29.91500
H  19.06100 3.05800 28.00600
H  18.78400 1.30400 27.92800
H  18.70600 2.16500 26.44300
H  25.74600 2.52900 24.89400
H  27.49700 0.21300 24.84100
H  24.00900 0.89300 24.15400
H  25.03700 -0.50300 24.52100
H  25.37500 0.58100 23.14800
H  28.63400 2.83400 25.39000
H  27.81900 2.75200 23.89100
H  30.27900 1.34600 24.70100
H  30.00700 2.06400 23.12400
H  29.26500 0.49700 23.46000
H  31.54800 -0.71200 29.81900
H  31.93200 0.74500 28.77900
H  31.17100 -0.64900 28.11800
H  29.26500 1.95500 33.81000
H  27.98200 -0.03200 37.04400
H  29.59200 -0.70300 37.13900
H  28.30000 -1.53500 36.14500

