158

Mg 45.24000 5.37700 48.21100
C  42.83500 7.90900 47.64900
C  42.60900 3.10000 48.12200
C  47.54100 2.90400 48.29000
C  47.74500 7.75400 48.02300
N  43.04900 5.44500 47.85200
C  42.35300 6.59900 47.57500
C  40.89500 6.27800 47.22500
C  40.73100 4.81100 47.60200
C  42.18600 4.39300 47.95200
C  39.76600 4.64600 48.83300
C  40.59200 6.68200 45.75700
C  39.19200 7.37100 45.68500
H  38.50500 6.91300 44.46900
N  45.07200 3.28400 48.19600
C  43.92000 2.51400 48.19000
C  44.31900 1.14100 48.16100
C  45.77800 1.08000 48.16500
C  46.21900 2.45600 48.22500
C  43.32000 -0.00800 48.22000
C  46.57300 -0.30100 48.10100
O  45.91900 -1.36100 47.98200
C  48.06400 -0.43800 48.26200
N  47.32300 5.35000 48.04400
C  48.01900 4.21400 48.19700
C  49.53600 4.47700 48.32500
C  49.64500 6.00000 48.27900
C  48.16600 6.43500 48.10100
C  50.41000 3.82500 49.49800
C  50.64100 6.50900 47.13400
C  52.11900 6.61700 47.55400
N  45.34000 7.43200 47.92800
C  46.42800 8.26600 47.89800
C  45.97200 9.68500 47.85700
C  44.60600 9.56600 47.80100
C  44.26400 8.19500 47.79700
C  46.70800 10.96600 47.87100
C  43.38500 10.24700 47.64000
O  43.12600 11.42800 47.50700
C  42.20500 9.19600 47.43300
C  41.30300 9.57000 48.58200
O  41.25100 9.03400 49.68900
O  40.31800 10.45700 48.02000
C  39.15200 10.69200 48.83500
H  41.87900 2.30100 47.97500
H  48.25700 2.08100 48.34400
H  48.47900 8.56100 48.08000
H  40.39300 7.05400 47.80400
H  40.34500 4.27900 46.73300
H  39.16500 5.54600 48.95700
H  40.43800 4.57300 49.68800
H  39.14400 3.76900 48.65000
H  40.74200 5.84000 45.08100
H  41.38400 7.31300 45.35400
H  39.27200 8.45200 45.57300
H  38.56600 7.10300 46.53600
H  43.71700 -0.80800 48.84400
H  43.39000 -0.48400 47.24200
H  42.29900 0.32700 48.40400
H  48.54000 0.31300 47.63100
H  48.25500 -1.48800 48.03900
H  48.38800 -0.23300 49.28300
H  49.92300 4.08800 47.38300
H  49.91000 6.36900 49.27000
H  49.77400 3.21100 50.13600
H  50.80700 4.58700 50.16900
H  51.21200 3.28700 48.99100
H  50.35800 7.54500 46.94500
H  50.54900 5.81900 46.29500
H  52.79300 6.39700 46.72700
H  52.26900 6.02600 48.45800
H  52.35000 7.64300 47.84200
H  46.94100 11.06200 48.93100
H  46.17600 11.83400 47.48000
H  47.61800 10.83300 47.28500
H  41.61000 9.27200 46.52300
H  39.15900 10.09900 49.75000
H  38.27200 10.44600 48.23900
H  39.10900 11.74400 49.11700
Mg 55.84300 24.69900 44.64200
C  52.93300 26.44600 43.48400
C  54.41800 21.92100 43.30700
C  58.94300 23.28100 44.78700
C  57.09600 27.68500 45.68600
N  54.03400 24.32700 43.28800
C  53.01600 25.17100 42.96200
C  51.99800 24.49700 42.04400
C  52.23000 23.05600 42.57100
C  53.67600 23.05500 43.07400
C  51.15700 22.48900 43.52000
C  52.43000 24.67500 40.48400
C  51.37600 25.21200 39.44500
H  51.12600 24.33600 38.25100
N  56.53300 22.86400 44.25700
C  55.80900 21.81500 43.84800
C  56.59100 20.62500 43.81900
C  57.93100 20.94300 44.33900
C  57.84100 22.41500 44.40800
C  56.03800 19.30100 43.44400
C  59.11400 19.96500 44.67200
O  58.89700 18.80600 44.42200
C  60.47600 20.33400 45.09200
N  57.76600 25.39100 45.10700
C  58.95000 24.65100 45.01700
C  60.19200 25.55700 45.21200
C  59.53200 26.91500 45.68700
C  58.05700 26.69900 45.49900
C  61.32400 24.97300 46.15200
C  60.04100 28.16500 44.96300
C  60.28600 29.44800 45.81700
N  55.19900 26.60300 44.71100
C  55.75000 27.68100 45.38300
C  54.81900 28.78000 45.42600
C  53.71600 28.37600 44.68400
C  54.00600 27.03100 44.28000
C  55.07600 30.09900 46.13500
C  52.36900 28.66200 44.22500
O  51.67800 29.62400 44.48400
C  51.85700 27.42100 43.42800
C  51.62000 27.86000 42.04700
O  52.51500 28.21500 41.24700
O  50.30900 27.70400 41.81400
C  49.87600 28.25500 40.59000
H  53.90900 20.96700 43.15700
H  59.93200 22.82400 44.70600
H  57.45900 28.64600 46.05700
H  50.97500 24.81400 42.24700
H  52.30100 22.42200 41.68800
H  51.67200 22.42400 44.47900
H  50.88200 21.49200 43.17500
H  50.25900 23.10700 43.51900
H  52.97600 23.80100 40.12900
H  53.21500 25.43200 40.47000
H  51.73500 26.21100 39.19500
H  50.44200 25.16400 40.00400
H  56.04300 19.16000 42.36300
H  55.00500 19.40000 43.77600
H  56.54900 18.51900 44.00600
H  61.07700 19.46700 45.36600
H  60.42800 21.04500 45.91700
H  61.00900 20.88200 44.31500
H  60.57100 25.66200 44.19600
H  59.64800 26.98700 46.76800
H  61.68500 25.69500 46.88400
H  62.13200 24.57600 45.53700
H  60.83300 24.18500 46.72200
H  59.35100 28.47700 44.17900
H  60.98400 27.80100 44.55600
H  59.58000 29.65800 46.61900
H  60.39400 30.38800 45.27500
H  61.20600 29.22100 46.35600
H  55.32000 30.80000 45.33600
H  55.93700 29.97700 46.79200
H  54.20600 30.35500 46.74000
H  50.88200 27.18500 43.85400
H  48.84200 27.92800 40.48900
H  50.38500 27.96000 39.67200
H  49.75100 29.33000 40.71800

