158

Mg 47.74200 16.68800 28.52200
C  45.93000 16.93500 31.50000
C  50.26800 18.46000 30.07700
C  49.29400 16.96900 25.49400
C  44.84700 15.78800 26.76800
N  47.92600 17.68600 30.60200
C  47.20000 17.50100 31.71800
C  47.83500 18.07200 32.94900
C  49.20300 18.54200 32.38700
C  49.09400 18.33700 30.92800
C  49.69700 19.99200 32.68200
C  47.98600 16.99900 34.03000
C  48.71300 17.62600 35.23400
H  48.12900 18.97400 35.90700
N  49.59100 17.49300 27.90200
C  50.45900 18.27300 28.69700
C  51.59700 18.60000 27.82900
C  51.34500 18.03300 26.52800
C  50.00800 17.44000 26.57600
C  52.78100 19.36400 28.29200
C  52.27900 17.89500 25.33000
O  51.93400 17.44600 24.25600
C  53.72700 18.40700 25.40800
N  47.21800 16.26300 26.46700
C  48.01200 16.37500 25.43800
C  47.32900 15.97900 24.09400
C  45.91300 15.61500 24.49400
C  46.04200 15.79500 25.99200
C  47.33000 17.09700 23.05000
C  45.24200 14.28000 24.06900
C  45.69400 13.53600 22.81300
N  45.84200 16.40500 28.95900
C  44.76600 15.95700 28.18900
C  43.58400 15.78100 28.97000
C  43.99600 16.10500 30.30000
C  45.39400 16.49400 30.21300
C  42.19900 15.24400 28.56900
C  43.63600 16.14300 31.68600
O  42.55700 15.90800 32.17300
C  44.87700 16.65300 32.52300
C  44.50700 17.84400 33.36200
O  44.70600 19.00600 33.07000
O  43.80100 17.41900 34.46500
C  43.26600 18.39000 35.33400
H  51.10400 19.02400 30.49500
H  49.73200 17.00600 24.49400
H  43.95800 15.61300 26.15700
H  47.28600 18.94600 33.30000
H  49.99700 17.86600 32.70600
H  48.88500 20.58500 33.10300
H  50.16000 20.49900 31.83500
H  50.45500 19.88400 33.45800
H  48.62600 16.17300 33.72200
H  47.00200 16.75200 34.43000
H  49.76600 17.86300 35.08500
H  48.56800 16.95900 36.08300
H  53.73200 18.83200 28.33400
H  52.58900 19.86900 29.23900
H  52.87600 20.22100 27.62400
H  53.75300 19.47400 25.63000
H  54.11800 18.14100 24.42600
H  54.25700 17.75500 26.10200
H  47.87200 15.18800 23.57700
H  45.25200 16.42700 24.19100
H  48.38900 17.18900 22.80800
H  46.93500 18.05700 23.38300
H  46.85200 16.67000 22.16800
H  44.15900 14.24200 23.95100
H  45.51800 13.64400 24.91000
H  46.25900 14.22700 22.18900
H  44.88100 13.36700 22.10700
H  46.14700 12.59200 23.11400
H  41.80900 15.81500 27.72500
H  41.45500 15.33700 29.35900
H  42.37900 14.18000 28.41800
H  45.09500 15.82800 33.20200
H  43.10500 19.41500 34.99900
H  43.79300 18.30300 36.28400
H  42.29400 17.94600 35.55200
Mg -1.80900 33.17700 27.45600
C  -3.45300 31.49900 29.92900
C  -0.38600 35.07100 29.87700
C  -0.30700 34.78900 25.08900
C  -3.77500 31.60200 25.03300
N  -1.84500 33.11600 29.70700
C  -2.64000 32.44900 30.51600
C  -2.46000 32.80000 32.00900
C  -1.58100 34.04100 31.89200
C  -1.29200 34.14700 30.38600
C  -2.13900 35.36600 32.48100
C  -1.81400 31.56400 32.68600
C  -1.14000 31.68600 34.05600
H  -1.55500 30.72600 35.14200
N  -0.46000 34.73500 27.52200
C  0.03700 35.33800 28.58400
C  1.08200 36.24700 28.13300
C  1.18000 36.19700 26.67600
C  0.13900 35.20900 26.39100
C  1.75000 37.16600 29.08000
C  2.02600 37.10000 25.73900
O  2.04000 36.97100 24.49600
C  2.93200 38.12400 26.34300
N  -2.01800 33.20800 25.34300
C  -1.25600 33.97000 24.53200
C  -1.53500 33.83600 23.03200
C  -2.68600 32.81200 23.03700
C  -2.82700 32.51800 24.53100
C  -1.65600 35.09500 22.11100
C  -2.53500 31.51600 22.09700
C  -1.79600 30.38900 22.62400
N  -3.26300 31.77100 27.45000
C  -4.01700 31.27900 26.39700
C  -4.89500 30.19900 26.93000
C  -4.70800 30.27500 28.31100
C  -3.71300 31.25100 28.53400
C  -5.81500 29.37100 26.16600
C  -5.14500 29.81900 29.54400
O  -5.93900 28.93300 29.79900
C  -4.43600 30.58000 30.63000
C  -5.45900 31.36200 31.41600
O  -6.15900 32.20500 30.95200
O  -5.48800 31.01400 32.73800
C  -6.39800 31.60000 33.69400
H  -0.09400 35.77300 30.66100
H  0.27300 35.24900 24.28500
H  -4.46700 31.09300 24.35900
H  -3.41400 33.01500 32.49100
H  -0.64100 33.75400 32.36300
H  -2.91300 35.08000 33.19300
H  -2.50300 36.03700 31.70300
H  -1.37400 35.84200 33.09500
H  -1.17100 30.88500 32.12600
H  -2.67200 30.95700 32.97400
H  -1.25600 32.69200 34.46000
H  -0.05200 31.66400 34.00300
H  2.81300 37.30600 28.88300
H  1.79100 36.81700 30.11200
H  1.29500 38.15400 29.01700
H  3.64200 37.61600 26.99500
H  2.35600 38.82700 26.94400
H  3.56700 38.63700 25.62000
H  -0.62800 33.31700 22.72300
H  -3.58800 33.34000 22.72700
H  -2.41700 35.04500 21.33300
H  -0.72600 34.99300 21.55100
H  -1.83300 36.07800 22.54800
H  -2.06300 31.87800 21.18400
H  -3.48300 31.14500 21.70600
H  -1.05400 30.14900 21.86300
H  -2.48400 29.54500 22.67300
H  -1.29300 30.60400 23.56600
H  -5.54800 28.35800 26.46600
H  -5.66300 29.51100 25.09600
H  -6.81200 29.70600 26.45300
H  -3.91400 29.93300 31.33600
H  -7.01800 32.41600 33.32200
H  -5.88500 31.87100 34.61600
H  -7.11200 30.84100 34.01600

