158

Mg 9.44300 3.86600 28.15700
C  10.64100 2.44000 31.14500
C  7.85100 6.22800 30.04200
C  7.88800 4.74600 25.39100
C  10.66600 1.01700 26.46600
N  8.97600 4.08600 30.49700
C  9.82000 3.61700 31.44900
C  9.64800 4.41100 32.76700
C  8.62000 5.55100 32.35200
C  8.50500 5.29600 30.83300
C  7.26900 5.47400 33.09500
C  10.99000 4.82500 33.43500
C  10.83000 5.73400 34.63900
H  11.31400 5.07800 35.96400
N  8.07900 5.37400 27.76100
C  7.56000 6.26500 28.62600
C  6.80900 7.28000 27.86100
C  6.77600 6.86800 26.47900
C  7.59500 5.57500 26.53300
C  6.10300 8.42000 28.67300
C  6.13600 7.52700 25.24200
O  6.14900 7.07700 24.09900
C  5.51000 8.90300 25.36700
N  9.42700 3.05700 26.21400
C  8.74800 3.65500 25.30000
C  8.60400 2.74900 24.08400
C  9.72100 1.73300 24.28800
C  9.97400 1.93000 25.70900
C  7.18200 2.05600 23.91900
C  11.07100 1.85600 23.52800
C  11.42000 0.67700 22.65400
N  10.37500 2.16100 28.65200
C  10.93800 1.21700 27.86200
C  11.69900 0.31100 28.62500
C  11.68800 0.84000 29.90500
C  10.79600 1.91600 29.86800
C  12.37400 -0.87200 28.08100
C  12.14900 0.61000 31.18600
O  12.97100 -0.17800 31.60200
C  11.57200 1.74900 32.07800
C  10.91500 1.07600 33.28000
O  9.89100 0.41100 33.27200
O  11.67400 1.18300 34.41000
C  11.03300 0.63000 35.60200
H  7.39900 7.03000 30.62900
H  7.37800 5.03400 24.46800
H  10.99500 0.19200 25.83000
H  9.11200 3.71500 33.41200
H  9.11100 6.52300 32.39500
H  7.60400 5.83500 34.06700
H  6.88100 4.45500 33.09000
H  6.54400 6.16600 32.66500
H  11.60000 5.32500 32.68300
H  11.55700 3.92500 33.67200
H  9.75100 5.85700 34.73600
H  11.31300 6.67300 34.36700
H  5.82300 8.27800 29.71700
H  5.06900 8.52500 28.34500
H  6.68900 9.33900 28.66300
H  5.03500 9.36500 24.50200
H  6.20800 9.60600 25.82200
H  4.65100 8.86900 26.03700
H  8.76200 3.38700 23.21400
H  9.35300 0.72000 24.12600
H  7.35200 0.99400 23.73700
H  6.57600 2.52100 23.14200
H  6.63700 2.08400 24.86200
H  11.87700 2.02100 24.24300
H  11.16900 2.72300 22.87400
H  11.59800 1.06900 21.65300
H  10.63500 -0.07700 22.70200
H  12.30700 0.19800 23.07100
H  12.58800 -0.80700 27.01400
H  11.73300 -1.71500 28.33800
H  13.35900 -1.06500 28.50500
H  12.36200 2.43700 32.37800
H  11.57000 0.99000 36.47900
H  11.06900 -0.45600 35.52200
H  10.00300 0.96600 35.72300
Mg 25.37200 -5.76900 46.48700
C  27.13200 -2.88800 45.59500
C  22.79200 -4.84600 44.47200
C  23.98300 -8.82900 46.76600
C  28.23500 -6.84200 48.04000
N  24.97600 -4.04200 45.27600
C  25.93100 -3.04200 44.96600
C  25.44400 -2.12000 43.80200
C  23.87100 -2.57700 43.68800
C  23.82300 -3.88100 44.53600
C  22.98000 -1.51000 44.31600
C  26.22700 -2.19700 42.43500
C  26.40700 -1.01000 41.52200
H  25.55200 -1.04000 40.22600
N  23.57400 -6.69100 45.79800
C  22.57200 -6.10600 45.04800
C  21.50300 -7.03100 44.87400
C  21.79800 -8.18300 45.63800
C  23.12300 -7.89300 46.18300
C  20.21400 -6.79000 43.99300
C  20.90500 -9.31600 45.76400
O  19.87800 -9.35000 45.14400
C  21.27800 -10.46200 46.66800
N  26.06400 -7.60800 47.17100
C  25.26500 -8.74700 47.23400
C  25.90000 -9.87400 48.02900
C  27.34300 -9.23800 48.36500
C  27.24300 -7.83900 47.85300
C  25.09300 -10.50400 49.28200
C  28.53600 -10.05200 47.80500
C  29.52500 -10.77400 48.71600
N  27.25700 -5.02400 46.88500
C  28.33900 -5.55100 47.52700
C  29.47000 -4.67400 47.54900
C  28.98500 -3.60300 46.76800
C  27.61700 -3.84000 46.45300
C  30.82900 -4.87100 48.17100
C  29.41500 -2.28700 46.20500
O  30.39900 -1.63700 46.34200
C  28.24000 -1.88000 45.28900
C  27.86000 -0.53500 45.63800
O  28.23400 0.43000 45.00900
O  27.11400 -0.58300 46.80200
C  26.55100 0.65500 47.26800
H  21.91400 -4.64000 43.85600
H  23.69200 -9.88000 46.82400
H  29.13600 -7.12300 48.59000
H  25.56100 -1.09500 44.15300
H  23.48800 -2.70800 42.67600
H  23.46900 -0.54000 44.22200
H  22.81500 -1.60700 45.38900
H  22.09200 -1.40500 43.69400
H  25.77500 -3.03700 41.90700
H  27.19200 -2.62400 42.70800
H  27.45400 -1.02200 41.22000
H  26.22300 -0.14600 42.16000
H  19.99800 -7.53000 43.22200
H  20.35500 -5.89600 43.38600
H  19.40200 -6.66200 44.71000
H  21.49700 -10.04200 47.65000
H  22.03600 -11.15900 46.31000
H  20.46800 -11.16500 46.86000
H  25.92100 -10.66800 47.28300
H  27.53200 -9.22900 49.43900
H  25.43100 -9.98500 50.17900
H  25.31200 -11.57200 49.31700
H  24.05200 -10.20300 49.16500
H  29.26100 -9.43100 47.27900
H  28.16200 -10.79400 47.10000
H  29.08200 -10.94300 49.69800
H  30.30700 -10.05000 48.94000
H  29.93200 -11.64100 48.19500
H  31.42700 -3.96300 48.10300
H  31.32300 -5.74500 47.74800
H  30.77700 -5.13800 49.22700
H  28.50300 -1.85400 44.23200
H  25.48800 0.48000 47.43700
H  26.58400 1.43300 46.50400
H  27.06100 1.04700 48.14800

