158

Mg 17.59300 0.02300 27.31100
C  16.06400 1.92800 29.80600
C  19.06900 -1.90500 29.68700
C  19.15000 -1.72900 24.79600
C  16.00800 1.97700 25.02600
N  17.67300 0.18500 29.48200
C  16.94600 0.99200 30.33200
C  17.19400 0.54800 31.80900
C  18.31600 -0.52400 31.71700
C  18.37400 -0.80700 30.16600
C  19.62100 -0.03900 32.33900
C  15.86400 0.07100 32.56800
C  15.56700 0.70500 33.96900
H  16.65500 1.21000 34.87400
N  18.83800 -1.67200 27.30200
C  19.35000 -2.31000 28.35400
C  20.20500 -3.40600 27.96600
C  20.20900 -3.41000 26.54100
C  19.34200 -2.24100 26.12900
C  20.83100 -4.34600 28.87100
C  20.82400 -4.39600 25.60300
O  20.89800 -4.22700 24.36700
C  21.52600 -5.69100 26.13500
N  17.62900 0.15800 25.29600
C  18.38100 -0.61700 24.46500
C  18.35400 -0.19700 22.97900
C  17.35800 0.98600 23.00900
C  16.94200 1.00000 24.51500
C  19.74200 0.22400 22.43200
C  16.09100 0.74500 22.06500
C  15.65000 1.81900 21.09900
N  16.31600 1.70900 27.32500
C  15.70400 2.36500 26.33800
C  14.69800 3.37700 26.82100
C  14.85500 3.22700 28.22800
C  15.79500 2.18800 28.48000
C  13.85300 4.27000 26.08900
C  14.43800 3.70500 29.53200
O  13.72700 4.65700 29.75900
C  15.30000 2.94900 30.62700
C  16.04000 3.89400 31.40500
O  17.23200 4.17100 31.35000
O  15.28600 4.14200 32.58800
C  15.99900 5.04700 33.49700
H  19.54800 -2.41800 30.52400
H  19.64900 -2.17900 23.93500
H  15.38900 2.57500 24.35400
H  17.48700 1.38700 32.44100
H  17.99300 -1.44800 32.19700
H  20.41000 0.08500 31.59700
H  19.98600 -0.74400 33.08500
H  19.53300 0.94800 32.79500
H  15.71600 -0.99200 32.75400
H  15.06000 0.33200 31.88000
H  15.06100 -0.05500 34.56400
H  14.75800 1.41300 33.79000
H  20.22100 -5.24600 28.79500
H  20.88900 -3.95300 29.88600
H  21.89200 -4.47100 28.65000
H  22.45400 -5.45000 26.65400
H  21.64800 -6.36900 25.29100
H  20.82600 -6.29700 26.71000
H  18.00000 -1.06000 22.41400
H  17.82900 1.95900 22.87100
H  20.46500 0.09000 23.23700
H  19.78600 1.19800 21.94400
H  20.04200 -0.51300 21.68600
H  15.30800 0.37300 22.72600
H  16.36000 -0.11000 21.44400
H  15.91300 1.63400 20.05700
H  16.17500 2.73300 21.37500
H  14.56800 1.88000 21.21800
H  13.50700 3.93700 25.11000
H  14.42300 5.18400 25.92000
H  12.93200 4.56000 26.59500
H  14.60500 2.44200 31.29600
H  15.27400 5.30100 34.27000
H  16.34700 5.88200 32.88900
H  16.81200 4.42000 33.86500
Mg 55.81600 24.94900 44.52600
C  53.25200 26.83800 43.09200
C  54.67900 22.08800 42.88000
C  58.72900 23.45000 45.24200
C  57.16600 27.90900 45.82000
N  54.20400 24.50500 43.06800
C  53.24300 25.45100 42.61400
C  52.30100 24.75500 41.60700
C  52.61900 23.24200 41.90000
C  53.89800 23.24100 42.62600
C  51.52600 22.50900 42.82900
C  52.60100 25.20500 40.12500
C  51.52900 24.84300 39.11200
H  51.94300 24.02900 37.85700
N  56.54300 23.01400 44.25700
C  55.84100 21.94400 43.67000
C  56.69000 20.76600 43.85200
C  57.81200 21.19900 44.57700
C  57.77800 22.63100 44.67600
C  56.24600 19.32800 43.45300
C  58.92300 20.31600 45.18900
O  58.88700 19.09400 45.02300
C  60.03500 20.80500 45.93300
N  57.76100 25.62500 45.30500
C  58.77500 24.74600 45.53400
C  59.91600 25.39000 46.32500
C  59.45100 26.88900 46.32100
C  58.02800 26.82800 45.79500
C  60.24800 24.73200 47.61600
C  60.36200 27.87000 45.44100
C  60.60000 29.19200 46.11000
N  55.37700 27.04000 44.53000
C  55.88400 28.06700 45.23400
C  55.00700 29.19400 45.11500
C  53.99200 28.81900 44.25200
C  54.28100 27.50000 43.88100
C  55.23700 30.45900 45.88600
C  52.76700 29.24200 43.68500
O  52.20300 30.31900 43.89700
C  52.15300 27.96500 42.94100
C  51.96800 28.34000 41.56200
O  52.73200 29.04600 40.94900
O  50.80300 27.79200 40.98300
C  50.34900 28.27600 39.68700
H  54.23100 21.21300 42.40500
H  59.74800 23.08100 45.37900
H  57.61000 28.75200 46.35300
H  51.26100 24.92000 41.88900
H  52.69800 22.60700 41.01700
H  50.64400 23.14500 42.76200
H  51.81200 22.49700 43.88100
H  51.41100 21.45500 42.57600
H  53.54200 24.74600 39.82500
H  52.69800 26.27000 39.91600
H  51.15300 25.79800 38.74600
H  50.66400 24.33800 39.54100
H  57.09300 18.77700 43.04400
H  55.57600 19.51600 42.61400
H  55.93200 18.73300 44.31000
H  60.32100 20.06900 46.68400
H  59.76100 21.63300 46.58600
H  60.83800 21.13600 45.27400
H  60.85000 25.37300 45.76400
H  59.38800 27.28600 47.33400
H  60.67200 25.48500 48.28100
H  61.07000 24.04600 47.41500
H  59.33000 24.31500 48.02900
H  59.74600 28.18500 44.59900
H  61.24700 27.37700 45.03800
H  61.67700 29.30800 46.22500
H  60.08600 29.31000 47.06400
H  60.13400 29.96700 45.50100
H  55.86100 30.18800 46.73700
H  54.29500 30.95000 46.13000
H  55.77000 31.07900 45.16500
H  51.13400 27.75900 43.26800
H  51.12800 28.52000 38.96500
H  49.64400 29.06600 39.94500
H  49.78300 27.45900 39.24000

