158

Mg 24.46000 -7.98100 47.81000
C  26.84200 -5.42500 46.80200
C  22.28900 -6.62700 45.55600
C  22.54100 -10.50200 48.52000
C  26.96100 -9.34400 49.93500
N  24.58800 -6.32400 46.28800
C  25.64000 -5.39500 46.08000
C  25.22200 -4.34300 45.03400
C  23.66100 -4.55500 44.88900
C  23.52300 -5.92500 45.64700
C  22.66100 -3.51800 45.50600
C  26.03200 -4.55500 43.65400
C  26.80300 -3.39000 43.07900
H  26.09100 -2.69900 41.95000
N  22.66800 -8.55400 47.11300
C  21.85000 -7.82000 46.21800
C  20.66600 -8.57400 46.01900
C  20.71700 -9.69500 46.82800
C  21.98700 -9.64800 47.57900
C  19.51800 -8.08200 45.24200
C  19.65000 -10.77100 46.93100
O  18.57000 -10.65200 46.36000
C  19.83400 -11.91800 47.76300
N  24.69200 -9.64200 49.08500
C  23.71300 -10.47500 49.25800
C  24.13300 -11.66800 50.16100
C  25.42300 -11.18200 50.70300
C  25.78400 -10.03900 49.80200
C  22.97200 -12.09600 51.12000
C  26.50700 -12.29700 50.95500
C  27.21300 -12.36900 52.32700
N  26.51000 -7.52400 48.28700
C  27.37900 -8.23800 49.14800
C  28.65300 -7.45900 49.13700
C  28.48400 -6.35900 48.24400
C  27.17200 -6.45800 47.76600
C  29.86300 -7.78800 49.91500
C  29.11900 -5.21400 47.63600
O  30.22100 -4.70900 47.79600
C  28.09500 -4.60800 46.61300
C  27.94200 -3.17400 46.89100
O  27.52300 -2.58000 47.91500
O  28.45600 -2.41400 45.90200
C  28.45500 -0.97300 45.96700
H  21.56100 -6.14700 44.89900
H  21.97900 -11.41500 48.72500
H  27.69500 -9.73500 50.64200
H  25.52400 -3.42700 45.54100
H  23.45500 -4.65900 43.82400
H  23.01900 -2.49900 45.64700
H  22.15300 -3.83800 46.41600
H  21.91900 -3.29100 44.74000
H  25.34200 -4.81100 42.85000
H  26.75400 -5.37200 43.67700
H  27.78100 -3.72800 42.73600
H  27.01900 -2.68500 43.88200
H  18.80500 -8.04400 46.06600
H  19.26200 -8.84500 44.50700
H  19.59000 -7.14500 44.68900
H  19.90100 -11.70900 48.83100
H  20.61700 -12.51800 47.30100
H  18.93600 -12.53100 47.68700
H  24.37700 -12.48700 49.48300
H  25.27600 -10.62600 51.62800
H  21.97700 -11.68200 50.95500
H  23.19800 -11.65000 52.08900
H  22.85700 -13.17100 51.25600
H  27.18200 -12.31500 50.10000
H  25.98400 -13.24800 50.84900
H  26.88900 -11.50600 52.90900
H  28.29700 -12.41100 52.22300
H  26.94500 -13.26100 52.89200
H  29.65300 -7.92000 50.97700
H  30.51600 -6.91600 49.91700
H  30.43600 -8.65200 49.58000
H  28.42500 -4.69100 45.57700
H  29.00400 -0.41500 45.20800
H  28.86600 -0.56200 46.88900
H  27.40100 -0.69400 45.96100
Mg 47.52100 45.09800 42.40000
C  44.17400 44.33300 42.63600
C  48.13800 41.68600 41.76100
C  50.75800 45.84500 41.83000
C  46.69100 48.45500 42.29800
N  46.26100 43.29200 41.99900
C  44.97400 43.18900 42.29000
C  44.45900 41.78400 42.31000
C  45.74900 40.92000 42.16100
C  46.77300 42.00700 41.98100
C  46.01900 39.89600 43.25500
C  43.32000 41.49100 41.32500
C  43.17100 42.14200 39.98700
H  43.74100 41.56400 38.66800
N  49.26900 43.94000 42.00000
C  49.27800 42.57500 41.77600
C  50.67800 42.19500 41.53000
C  51.48800 43.36000 41.59100
C  50.50800 44.49200 41.77300
C  51.03700 40.77200 41.33400
C  52.96500 43.37900 41.47900
O  53.53400 42.36500 41.07900
C  53.79000 44.57300 41.93900
N  48.53700 46.87800 41.89100
C  49.91600 46.93200 41.91800
C  50.54800 48.38000 41.84200
C  49.14800 49.23300 41.89600
C  48.06400 48.12000 42.02400
C  51.56100 48.71900 42.86500
C  49.03900 50.13700 40.64100
C  48.31900 51.47800 40.77800
N  45.81600 46.22200 42.46500
C  45.60800 47.59100 42.45000
C  44.17800 47.85500 42.55400
C  43.58400 46.61900 42.78100
C  44.58300 45.63300 42.60500
C  43.61300 49.18300 42.52300
C  42.32000 45.91400 42.90200
O  41.14500 46.40700 42.89700
C  42.67700 44.41900 42.94600
C  42.26400 43.75800 44.19500
O  41.61700 42.72400 44.20800
O  42.66100 44.46900 45.30100
C  42.16600 43.93300 46.56500
H  48.32300 40.61200 41.83400
H  51.82500 46.07300 41.78400
H  46.54500 49.53400 42.37000
H  43.98200 41.69500 43.28600
H  45.77800 40.38500 41.21200
H  45.99700 38.92000 42.77100
H  45.35100 39.88400 44.11700
H  47.01800 39.94100 43.68700
H  42.34100 41.62000 41.78700
H  43.41300 40.42300 41.12800
H  43.83300 43.00000 40.09800
H  42.18900 42.59000 39.83300
H  51.84300 40.63800 40.61100
H  50.17000 40.29700 40.87500
H  51.30300 40.20400 42.22500
H  53.57700 45.38800 41.24700
H  54.82900 44.24600 41.90100
H  53.36900 44.92400 42.88100
H  51.00600 48.39500 40.85200
H  49.10000 49.76400 42.84600
H  52.35800 49.20600 42.30100
H  52.06500 47.86400 43.31500
H  51.15600 49.37800 43.63300
H  48.47100 49.59100 39.88700
H  50.05800 50.31000 40.29700
H  47.39700 51.37200 40.20600
H  48.86400 52.35900 40.43900
H  47.94000 51.70300 41.77500
H  44.04100 49.76400 41.70600
H  43.88100 49.81600 43.37000
H  42.53200 49.15900 42.38300
H  42.11600 44.03400 42.09400
H  43.01100 43.95000 47.25400
H  41.79100 42.92000 46.41400
H  41.45000 44.59400 47.05200

