158

Mg 16.39300 -1.68200 28.10600
C  15.61400 0.61000 30.80600
C  18.21700 -3.55300 30.17700
C  17.45900 -3.29300 25.39600
C  14.66200 0.65000 26.05100
N  17.03200 -1.38100 30.19000
C  16.40000 -0.57300 31.17800
C  16.86200 -0.99300 32.48100
C  17.75100 -2.24300 32.34100
C  17.64200 -2.43900 30.78900
C  19.26600 -2.07100 32.75900
C  15.73500 -1.16700 33.48300
C  15.87300 -0.52700 34.85400
H  17.18400 0.06200 35.26900
N  17.53000 -3.26000 27.86300
C  18.16400 -3.96800 28.82600
C  18.85100 -5.10900 28.26500
C  18.63300 -5.11500 26.81300
C  17.80200 -3.86500 26.64200
C  19.61000 -6.05500 29.10200
C  18.98100 -6.06500 25.64400
O  18.47100 -5.89200 24.54700
C  19.96300 -7.14800 25.86600
N  15.85100 -1.54400 25.94600
C  16.61900 -2.23600 25.02400
C  16.35100 -1.69200 23.62300
C  15.28200 -0.57600 23.87400
C  15.21200 -0.47500 25.35700
C  17.47400 -1.22600 22.68300
C  13.85800 -0.91400 23.33300
C  13.31400 -0.03500 22.14000
N  15.27000 0.18800 28.30900
C  14.61700 0.91300 27.42700
C  13.95300 2.04400 28.06300
C  14.31100 1.88800 29.42600
C  15.13500 0.77500 29.49300
C  13.26600 3.13600 27.45100
C  14.09900 2.53500 30.69600
O  13.51900 3.54100 31.03500
C  14.86400 1.57800 31.72400
C  15.75700 2.53900 32.55800
O  16.81500 3.02600 32.14900
O  15.07700 2.84300 33.64400
C  15.58500 4.00500 34.34300
H  18.53100 -4.31200 30.89700
H  17.91200 -3.77100 24.52500
H  14.11500 1.35100 25.41600
H  17.47100 -0.17900 32.87400
H  17.34500 -3.10500 32.87100
H  19.84000 -2.25500 31.85100
H  19.50100 -2.78300 33.55000
H  19.56300 -1.10600 33.16900
H  15.55400 -2.24000 33.55400
H  14.85100 -0.78800 32.96900
H  15.61000 -1.37300 35.48900
H  15.21700 0.34300 34.86300
H  19.83200 -6.98200 28.57400
H  19.02800 -6.28300 29.99500
H  20.52500 -5.59000 29.46800
H  20.88200 -6.75100 26.29600
H  19.99000 -7.62700 24.88700
H  19.34200 -7.77500 26.50700
H  15.97000 -2.59000 23.13600
H  15.69800 0.39100 23.59300
H  18.33500 -0.74200 23.14300
H  17.20900 -0.50100 21.91300
H  17.75900 -2.14900 22.17800
H  13.08000 -0.97100 24.09500
H  13.91200 -1.91900 22.91300
H  12.25400 0.15200 22.31300
H  13.42800 -0.56200 21.19300
H  13.82000 0.92600 22.04300
H  13.84000 3.52500 26.61000
H  13.18400 3.90300 28.22100
H  12.30100 2.74400 27.12900
H  14.09000 1.13600 32.35300
H  14.90300 4.83200 34.14700
H  16.51500 4.50800 34.07800
H  15.58200 3.87300 35.42500
Mg 48.71400 35.49100 26.66400
C  46.95200 33.89400 29.18600
C  49.07700 38.22400 28.65200
C  49.94700 37.18500 23.97900
C  47.94400 32.80700 24.63400
N  48.01400 35.93100 28.72900
C  47.51300 35.10000 29.62500
C  47.57900 35.65600 31.04600
C  47.96600 37.11600 30.73300
C  48.43200 37.12700 29.25200
C  46.77800 38.10500 31.12800
C  48.71900 34.88000 31.82800
C  48.77400 34.92100 33.31700
H  47.65700 35.78600 34.01900
N  49.36500 37.42900 26.36100
C  49.54600 38.41600 27.33400
C  50.19300 39.61700 26.78000
C  50.35300 39.41600 25.41400
C  49.81100 37.98700 25.14400
C  50.46900 40.81500 27.67000
C  50.91700 40.30800 24.36600
O  50.95000 39.95500 23.19700
C  51.26300 41.65800 24.69100
N  49.08700 34.99400 24.67500
C  49.64300 35.86300 23.75200
C  49.93900 35.10100 22.47400
C  49.12000 33.75600 22.66200
C  48.74000 33.78900 24.09200
C  49.43500 35.82800 21.09500
C  49.88000 32.39400 22.23100
C  49.52900 31.71200 20.92300
N  47.78300 33.61200 26.85100
C  47.47300 32.66300 25.94000
C  46.69000 31.59000 26.49000
C  46.47000 32.02300 27.87000
C  47.11400 33.31100 27.94500
C  46.03400 30.40400 25.85700
C  45.76600 31.75800 29.08000
O  45.13100 30.77300 29.39700
C  46.01800 32.95200 30.01500
C  46.41700 32.39300 31.33600
O  47.30400 31.59200 31.50100
O  45.55000 32.75500 32.32900
C  45.73500 31.95100 33.52900
H  49.42800 38.93000 29.40800
H  50.31500 37.64000 23.05700
H  47.67600 32.03900 23.90500
H  46.59600 35.62100 31.51600
H  48.90900 37.43800 31.17500
H  45.98400 37.57900 31.65700
H  46.43700 38.61400 30.22600
H  47.34200 38.70000 31.84600
H  49.69400 35.26700 31.53200
H  48.60000 33.84400 31.51000
H  49.79000 35.09000 33.67500
H  48.60400 33.86800 33.54300
H  50.61900 40.52300 28.70900
H  49.61000 41.48500 27.69800
H  51.37800 41.38900 27.48700
H  51.49400 42.14400 23.74300
H  52.06100 41.48900 25.41500
H  50.33700 42.03300 25.12700
H  51.02300 34.98900 22.45900
H  48.14900 33.93200 22.20000
H  48.86800 35.12600 20.48500
H  50.40300 35.96800 20.61300
H  48.88800 36.76200 21.23100
H  49.79400 31.59500 22.96700
H  50.93700 32.64700 22.31000
H  50.27300 32.06900 20.21200
H  48.61800 32.14300 20.50700
H  49.22100 30.66800 20.97300
H  45.21200 30.73800 25.22300
H  45.72200 29.72300 26.64900
H  46.64300 29.84600 25.14600
H  45.08000 33.48100 30.18500
H  46.78500 31.91600 33.81800
H  45.33800 30.95600 33.32800
H  45.12100 32.29000 34.36400

