158

Mg 16.77000 -1.35600 27.55200
C  15.60700 0.78200 29.96600
C  18.47500 -3.04300 29.76500
C  18.15200 -3.22900 24.95100
C  14.80500 0.39500 25.12200
N  17.08600 -1.06000 29.60700
C  16.51200 -0.17000 30.47200
C  16.99000 -0.38900 31.88500
C  18.02900 -1.54800 31.74400
C  17.83700 -1.93900 30.26600
C  19.41200 -1.22800 32.15800
C  15.88900 -0.67000 32.89300
C  15.88400 0.10000 34.22900
H  17.23200 0.81700 34.72100
N  18.12700 -2.88600 27.39900
C  18.70900 -3.52400 28.47400
C  19.52300 -4.60100 28.02900
C  19.45200 -4.65000 26.60400
C  18.55600 -3.54500 26.23900
C  20.23200 -5.49600 29.03600
C  19.97900 -5.70600 25.62600
O  19.77500 -5.62200 24.43500
C  20.67300 -6.95400 26.15500
N  16.55100 -1.40900 25.33600
C  17.21400 -2.18500 24.46100
C  16.76200 -1.96700 23.00200
C  15.65600 -0.86300 23.10800
C  15.60000 -0.58700 24.61600
C  17.81100 -1.67300 21.82200
C  14.25700 -1.29400 22.60400
C  13.45600 -2.36600 23.53500
N  15.41100 0.27300 27.50700
C  14.71200 0.83000 26.46500
C  13.92400 1.95900 27.06900
C  14.24000 1.95400 28.46100
C  15.13000 0.90200 28.64700
C  12.96800 3.01300 26.30900
C  13.91100 2.63500 29.65000
O  13.27400 3.64900 29.93300
C  14.74600 1.79900 30.79400
C  15.54700 2.83800 31.46400
O  16.61600 3.27300 31.09300
O  14.94400 3.25800 32.58700
C  15.57900 4.36100 33.34200
H  19.11900 -3.53200 30.49900
H  18.49600 -3.74000 24.04900
H  14.26700 0.93800 24.34200
H  17.60300 0.46800 32.16300
H  17.71800 -2.30600 32.46300
H  19.98000 -1.12100 31.23300
H  19.93700 -2.03800 32.66500
H  19.52400 -0.28100 32.68700
H  16.07600 -1.69600 33.21300
H  14.87000 -0.54900 32.52600
H  15.65800 -0.63400 35.00200
H  15.07800 0.82200 34.10000
H  20.68600 -4.82600 29.76600
H  21.00000 -6.12100 28.58000
H  19.46700 -6.19500 29.37500
H  21.62400 -6.54100 26.49300
H  20.85800 -7.58800 25.28900
H  20.13800 -7.49600 26.93500
H  16.29100 -2.90100 22.69600
H  15.93500 0.00500 22.51100
H  18.78400 -1.57500 22.30500
H  17.52400 -0.78200 21.26300
H  17.79700 -2.50300 21.11600
H  14.22400 -1.77900 21.62900
H  13.69400 -0.37800 22.42700
H  12.71000 -1.92000 24.19300
H  14.17500 -2.99300 24.06300
H  12.89200 -2.94000 22.79900
H  12.63600 3.59000 27.17200
H  12.16000 2.42000 25.88000
H  13.44500 3.57500 25.50600
H  14.09900 1.40800 31.57900
H  15.69000 5.22000 32.68000
H  16.54000 4.13800 33.80500
H  14.86700 4.61400 34.12700
Mg 43.10400 42.14200 26.97900
C  41.77900 44.37500 29.26100
C  44.41200 40.25900 29.39200
C  44.16100 40.03900 24.50000
C  42.11900 44.42300 24.32900
N  43.15300 42.36900 29.07900
C  42.34700 43.22500 29.82500
C  42.46800 42.90300 31.31800
C  43.59200 41.82700 31.33500
C  43.72000 41.39600 29.83500
C  44.89000 42.30000 32.01500
C  41.10500 42.47400 31.91400
C  40.70000 42.84500 33.37600
H  41.74000 43.33000 34.32900
N  44.11400 40.39100 26.95700
C  44.61700 39.74600 28.08000
C  45.22400 38.53900 27.65500
C  44.92500 38.33300 26.30100
C  44.45400 39.63600 25.82800
C  45.83400 37.56800 28.61800
C  45.17400 37.11800 25.37700
O  44.99400 37.15900 24.14300
C  45.57400 35.86900 26.00400
N  43.18000 42.24500 24.70400
C  43.59200 41.20000 24.00300
C  43.47600 41.38300 22.48400
C  42.80500 42.83000 22.42900
C  42.68600 43.20800 23.91600
C  44.78900 41.26300 21.66400
C  41.38400 42.74000 21.72400
C  40.33500 41.77100 22.21800
N  42.16400 43.94500 26.77000
C  41.89800 44.84500 25.69600
C  41.24600 46.05600 26.16300
C  41.19100 45.84500 27.56600
C  41.74400 44.57200 27.86500
C  40.75800 47.20600 25.30400
C  40.75600 46.49800 28.78900
O  40.27500 47.59600 28.91100
C  41.03100 45.54900 29.90200
C  41.80500 46.24000 30.92900
O  42.92700 46.71000 30.80300
O  40.95500 46.45200 31.93800
C  41.44800 47.24600 33.03800
H  44.80800 39.68300 30.23100
H  44.32400 39.32700 23.68900
H  41.78900 45.05400 23.50100
H  42.78100 43.78600 31.87500
H  43.27700 40.94200 31.88700
H  45.09000 41.72300 32.91900
H  44.81900 43.36700 32.22500
H  45.67400 42.13500 31.27700
H  41.01400 41.38900 31.87500
H  40.37300 42.80000 31.17500
H  40.31900 41.92900 33.82700
H  39.96300 43.64300 33.28800
H  45.73200 37.92000 29.64400
H  46.88300 37.44000 28.34800
H  45.36700 36.58700 28.53100
H  45.64900 35.04100 25.29900
H  44.82000 35.60200 26.74400
H  46.60600 35.87300 26.35600
H  42.77300 40.70800 21.99400
H  43.49400 43.49600 21.91000
H  44.82000 41.97900 20.84300
H  44.87900 40.23300 21.31600
H  45.73600 41.39000 22.18800
H  41.64200 42.56900 20.67900
H  40.89200 43.71000 21.65200
H  40.80500 41.28800 23.07500
H  40.10000 41.11300 21.38200
H  39.44800 42.32500 22.52500
H  40.22200 46.97400 24.38300
H  41.61700 47.84500 25.10100
H  40.12900 47.75200 26.00800
H  40.09600 45.11900 30.26100
H  41.94300 46.67000 33.81900
H  40.63900 47.85500 33.44200
H  42.12100 48.04700 32.73000

