158

Mg 49.45800 46.00400 42.34900
C  46.02300 46.54000 41.49800
C  49.13400 42.91100 41.01400
C  52.60300 45.74600 42.69700
C  49.63200 49.43900 43.20700
N  47.83100 44.89100 41.22400
C  46.48000 45.28000 41.03400
C  45.66800 44.12900 40.45100
C  46.71800 42.94400 40.40800
C  47.96700 43.58000 40.97800
C  46.31700 41.73400 41.21400
C  45.13100 44.55600 39.05600
C  43.60700 44.26900 38.68600
H  43.47800 43.36000 37.41900
N  50.74600 44.43500 42.02500
C  50.40700 43.24100 41.42800
C  51.65900 42.37200 41.48100
C  52.70100 43.15700 42.05400
C  52.03600 44.50000 42.28400
C  51.65900 40.91700 41.12500
C  54.12300 42.82900 42.09900
O  54.52600 41.79200 41.60100
C  55.19500 43.77100 42.66300
N  50.91700 47.52500 42.77900
C  52.18600 47.05500 42.87400
C  53.16100 48.24800 43.19200
C  52.14300 49.42400 43.61500
C  50.85200 48.80800 43.11600
C  54.09400 47.86100 44.39300
C  52.41200 50.85800 42.97500
C  52.57800 51.99800 44.06100
N  48.12000 47.75900 42.32000
C  48.33300 49.04000 42.72000
C  47.05100 49.76100 42.70300
C  46.10500 48.84000 42.25200
C  46.78200 47.59600 42.03500
C  47.02000 51.22700 43.27700
C  44.66500 48.61700 41.94500
O  43.66500 49.34100 42.04300
C  44.60600 47.19700 41.23300
C  43.43600 46.48000 41.82000
O  42.39900 46.27700 41.25000
O  43.75000 45.99400 43.04700
C  42.59400 45.43800 43.74600
H  49.11300 41.86600 40.69900
H  53.64000 45.54300 42.97300
H  49.66500 50.49400 43.48500
H  44.82800 43.75300 41.03600
H  46.91400 42.56400 39.40600
H  45.29400 41.71600 41.58800
H  47.02600 41.67500 42.04000
H  46.36400 40.88900 40.52700
H  45.58200 43.97600 38.25000
H  45.47400 45.56100 38.80800
H  43.04000 45.18100 38.50100
H  43.23300 43.72900 39.55600
H  52.31600 40.80200 40.26300
H  50.65000 40.57700 40.89000
H  52.07500 40.29100 41.91500
H  54.88200 44.23600 43.59800
H  55.62200 44.35900 41.85100
H  56.11500 43.20700 42.81200
H  53.80100 48.40800 42.32400
H  52.12200 49.51100 44.70100
H  53.80600 46.89900 44.81500
H  54.09900 48.63300 45.16300
H  55.08500 47.95100 43.94900
H  51.51200 51.11300 42.41500
H  53.23800 50.76100 42.27100
H  53.56700 52.43100 43.91200
H  52.48100 51.65300 45.09000
H  51.77100 52.72800 43.99200
H  47.72500 51.77800 42.65500
H  47.34400 51.24900 44.31800
H  46.03000 51.67300 43.17700
H  44.46000 47.38600 40.17000
H  42.87400 45.47100 44.79900
H  42.50100 44.41100 43.39200
H  41.70000 46.04200 43.59100
Mg 16.68300 52.40200 26.54800
C  18.84200 51.29000 29.05200
C  14.53400 53.21700 29.02900
C  14.84400 53.82900 24.29900
C  19.09700 51.64600 24.19600
N  16.62700 52.11900 28.78800
C  17.63700 51.70300 29.55900
C  17.26200 51.99600 31.02600
C  15.72900 52.16000 30.97700
C  15.57300 52.47500 29.47800
C  15.02200 50.85400 31.37700
C  17.98700 53.25500 31.54600
C  18.24100 53.25000 33.06600
H  17.23700 52.53500 33.98300
N  14.95800 53.54400 26.63500
C  14.25200 53.78000 27.77000
C  13.21000 54.77200 27.41300
C  13.20500 54.92500 26.00900
C  14.35200 54.14100 25.55100
C  12.34200 55.51000 28.48200
C  12.32400 55.79200 25.06600
O  12.63600 55.82300 23.86900
C  11.12800 56.65300 25.67700
N  16.93900 52.60500 24.55600
C  15.99600 53.21000 23.85700
C  16.39500 53.24900 22.35900
C  17.76100 52.53000 22.31200
C  17.94200 52.28100 23.80100
C  15.33300 52.78000 21.24300
C  18.84400 53.19700 21.42600
C  19.80500 54.18900 22.01600
N  18.49500 51.48100 26.50100
C  19.37900 51.24600 25.50000
C  20.58600 50.54200 25.93800
C  20.43400 50.56200 27.41500
C  19.14300 51.15200 27.68700
C  21.69800 49.91500 25.20000
C  21.06200 50.27600 28.63700
O  22.16800 49.67900 28.73500
C  20.09300 50.79800 29.84200
C  19.86200 49.61000 30.78500
O  19.46600 48.52700 30.52700
O  20.23500 50.01200 32.09000
C  20.12800 49.06700 33.23400
H  13.78300 53.45600 29.78600
H  14.47300 54.34200 23.41000
H  19.95400 51.33800 23.59300
H  17.61100 51.10400 31.54700
H  15.41600 52.90600 31.70800
H  14.47000 51.11600 32.28000
H  15.74700 50.09500 31.67100
H  14.39400 50.36700 30.63100
H  17.35000 54.09200 31.26400
H  18.99400 53.34500 31.13900
H  18.19300 54.30600 33.33400
H  19.25800 52.91400 33.26900
H  12.78800 55.40100 29.47100
H  11.35500 55.05000 28.51300
H  12.17700 56.57900 28.34400
H  10.53400 56.02300 26.33900
H  10.51900 56.99800 24.84200
H  11.56700 57.53500 26.14300
H  16.67300 54.30300 22.31900
H  17.61700 51.58800 21.78300
H  14.84400 51.90100 21.66300
H  15.92500 52.61700 20.34200
H  14.63100 53.59500 21.06900
H  18.35000 53.85000 20.70700
H  19.43700 52.42500 20.93500
H  20.76300 53.72300 21.78800
H  19.68000 54.27600 23.09600
H  19.85400 55.24500 21.75200
H  21.82000 50.27400 24.17800
H  21.78700 48.83200 25.29000
H  22.52000 50.40400 25.72300
H  20.57300 51.60100 30.40100
H  21.17800 48.93900 33.50000
H  19.68400 48.08500 33.07200
H  19.54100 49.42600 34.07900

