158

Mg 26.88300 49.71800 26.10200
C  24.68700 50.88900 28.83000
C  28.91800 48.61600 28.49900
C  28.84200 49.11400 23.63100
C  24.66700 51.52900 23.98600
N  26.84800 49.92500 28.33200
C  25.84500 50.28300 29.22500
C  26.14600 49.81700 30.65600
C  27.65300 49.47700 30.58100
C  27.85700 49.29100 29.04400
C  28.65700 50.53200 31.18800
C  25.15100 48.70600 31.11600
C  24.22200 49.17400 32.20300
H  24.16800 48.41300 33.54100
N  28.67100 48.91800 26.07600
C  29.29700 48.41700 27.16500
C  30.46700 47.77100 26.67200
C  30.50100 47.94000 25.29000
C  29.30800 48.68800 24.92200
C  31.40200 47.05900 27.55800
C  31.47100 47.41300 24.23600
O  31.34200 47.61400 23.01400
C  32.65300 46.53700 24.57900
N  26.84000 50.36300 24.19300
C  27.75800 49.91100 23.27800
C  27.40000 50.18900 21.81600
C  25.99400 50.69100 21.91500
C  25.77300 50.90900 23.46600
C  28.43700 51.15200 21.18600
C  24.92600 49.71300 21.36700
C  23.95400 50.36300 20.50200
N  25.17400 51.14900 26.29700
C  24.41200 51.72900 25.33400
C  23.30500 52.30100 25.92300
C  23.40500 52.09300 27.28000
C  24.55700 51.31300 27.45900
C  22.20800 53.05800 25.30400
C  22.63100 52.29400 28.56000
O  21.63700 52.94200 28.76600
C  23.46700 51.49300 29.53800
C  23.86100 52.41100 30.67300
O  24.95000 52.94700 30.81300
O  22.80400 52.37300 31.56800
C  22.99000 53.01700 32.87000
H  29.46700 48.07500 29.27200
H  29.53500 48.86800 22.82300
H  23.96300 51.98100 23.28500
H  26.05600 50.69700 31.29300
H  27.85800 48.50000 31.02100
H  29.41200 50.00000 31.76800
H  28.08800 51.25500 31.77200
H  29.12000 51.11400 30.39200
H  25.70000 47.81800 31.42800
H  24.60900 48.39300 30.22300
H  23.23700 49.02400 31.76200
H  24.28200 50.22200 32.49700
H  32.37400 47.51500 27.36600
H  31.40200 46.01000 27.26400
H  31.21000 47.17100 28.62500
H  33.13000 46.11800 23.69300
H  32.26800 45.72500 25.19600
H  33.38900 47.09300 25.16000
H  27.51700 49.27700 21.23000
H  25.86600 51.71400 21.56100
H  29.31400 51.16500 21.83300
H  27.98500 52.11700 20.95800
H  28.85600 50.68600 20.29400
H  24.37600 49.17800 22.14000
H  25.24900 48.81900 20.83300
H  24.07400 50.02500 19.47300
H  23.95600 51.43400 20.30100
H  22.94500 50.12200 20.83500
H  22.67500 53.95500 24.89800
H  21.48700 53.37800 26.05600
H  21.67300 52.43400 24.58900
H  22.89800 50.63100 29.88600
H  22.04600 52.82600 33.37900
H  23.03000 54.10600 32.90300
H  23.78200 52.53200 33.44100
Mg -1.79000 33.43000 26.93100
C  -3.58700 31.71200 29.34500
C  -0.55900 35.48700 29.32800
C  -0.54000 35.32000 24.48500
C  -3.45100 31.49600 24.38100
N  -2.10000 33.67300 28.99800
C  -2.82500 32.74800 29.87800
C  -2.59100 33.10700 31.36100
C  -1.70100 34.35600 31.29100
C  -1.46300 34.54600 29.74000
C  -2.28300 35.55400 32.08700
C  -2.04000 31.90300 32.25100
C  -2.94700 31.57400 33.49100
H  -2.16900 31.44800 34.80500
N  -0.56600 35.18700 26.92700
C  -0.10600 35.79400 27.99900
C  0.87000 36.82200 27.49400
C  0.77400 36.87000 26.05000
C  -0.16700 35.80700 25.75600
C  1.73900 37.57200 28.43500
C  1.52400 37.74400 25.10100
O  1.45400 37.66000 23.88000
C  2.29300 38.80700 25.61200
N  -2.01600 33.45800 24.68400
C  -1.33000 34.33600 23.96900
C  -1.54600 34.14800 22.47300
C  -2.39700 32.84700 22.41500
C  -2.60600 32.50600 23.92900
C  -2.02500 35.42600 21.66000
C  -1.78600 31.64000 21.69100
C  -0.85800 30.71800 22.48400
N  -3.17700 31.94800 26.77400
C  -3.80200 31.22400 25.70500
C  -4.77800 30.32400 26.22400
C  -4.73100 30.45500 27.63300
C  -3.73200 31.48000 27.90700
C  -5.54600 29.28400 25.37400
C  -5.26200 29.93900 28.92900
O  -6.01200 28.94200 29.12100
C  -4.53500 30.77500 29.98800
C  -5.44300 31.47900 30.92600
O  -5.83600 32.62900 30.92700
O  -5.86100 30.53200 31.86300
C  -6.68000 31.15300 32.90300
H  -0.03400 36.12600 30.04000
H  0.01900 35.82900 23.69800
H  -4.07700 30.94200 23.67900
H  -3.61700 33.21900 31.71100
H  -0.80400 34.14000 31.87200
H  -2.51700 36.39200 31.43100
H  -1.61900 35.94200 32.86000
H  -3.26600 35.32500 32.50000
H  -1.05700 32.08600 32.68500
H  -1.93100 30.99600 31.65600
H  -3.53300 30.67300 33.30600
H  -3.55900 32.43200 33.76700
H  1.34000 38.58400 28.49700
H  2.78900 37.40900 28.19000
H  1.62300 37.19400 29.45100
H  2.77700 39.37200 24.81500
H  3.09800 38.38000 26.20900
H  1.67900 39.49100 26.19700
H  -0.58200 33.91100 22.02400
H  -3.40000 33.09400 22.06700
H  -2.10000 36.23600 22.38500
H  -2.96400 35.31000 21.11800
H  -1.17900 35.75300 21.05500
H  -1.11600 31.98600 20.90400
H  -2.49500 31.05600 21.10300
H  -0.64400 31.09600 23.48400
H  0.03300 30.60400 21.86500
H  -1.32800 29.74300 22.61200
H  -4.84600 28.98700 24.59300
H  -6.50000 29.62100 24.96800
H  -5.77200 28.35100 25.88900
H  -4.00100 30.04900 30.60100
H  -6.22900 32.04500 33.33700
H  -6.89400 30.42600 33.68700
H  -7.63300 31.40100 32.43500

