158

Mg 47.04100 44.78500 43.31700
C  43.60800 44.03700 42.98700
C  47.82200 41.51700 42.54600
C  50.32200 45.61600 43.22800
C  46.26800 48.15700 43.62700
N  45.73000 43.01900 42.49600
C  44.37500 42.85000 42.70500
C  43.87700 41.40700 42.68500
C  45.25400 40.61700 42.46600
C  46.41500 41.78000 42.53000
C  45.57100 39.58000 43.58000
C  42.92700 41.29100 41.43900
C  43.26900 41.93100 40.03100
H  43.15500 41.22200 38.70200
N  48.82900 43.73900 43.00700
C  48.91400 42.38200 42.73400
C  50.29300 41.97800 42.61400
C  51.09400 43.16500 42.78900
C  50.09900 44.25200 43.02500
C  50.82300 40.56000 42.35000
C  52.60700 43.18000 42.87100
O  53.28900 42.18900 42.73200
C  53.32800 44.44100 43.10400
N  48.15300 46.67100 43.27800
C  49.45100 46.70300 43.30100
C  49.94400 48.20000 43.46900
C  48.62900 49.05700 43.49400
C  47.58100 47.91800 43.41800
C  50.79900 48.42900 44.76300
C  48.44800 50.14800 42.39200
C  47.60800 51.28300 42.79800
N  45.33300 45.91300 43.31500
C  45.16900 47.28700 43.47400
C  43.79000 47.62900 43.52700
C  43.18900 46.34200 43.40600
C  44.12300 45.35200 43.19300
C  43.12200 48.99900 43.78800
C  41.92500 45.69400 43.37600
O  40.82800 46.12100 43.73700
C  42.19800 44.22300 43.11700
C  41.50400 43.41600 44.19500
O  40.53000 42.69200 44.07000
O  42.19200 43.51500 45.36400
C  41.89500 42.68400 46.52700
H  47.96600 40.45300 42.34800
H  51.33800 45.95300 43.44600
H  46.00600 49.19900 43.82100
H  43.38700 41.13000 43.61900
H  45.34100 40.21800 41.45500
H  46.35000 39.83200 44.29900
H  45.83200 38.62300 43.12700
H  44.75200 39.27900 44.23400
H  41.89400 41.44100 41.75300
H  42.96000 40.22400 41.21600
H  44.30600 42.25200 39.93000
H  42.66200 42.83300 39.94800
H  50.83800 40.42200 41.26900
H  49.94500 39.97900 42.63000
H  51.75500 40.13300 42.72100
H  53.02600 45.17400 42.35600
H  54.35500 44.33300 42.75500
H  53.30900 44.70500 44.16200
H  50.60400 48.44900 42.63800
H  48.59400 49.65700 44.40300
H  51.07900 49.47900 44.68200
H  51.68300 47.80100 44.65500
H  50.24200 48.17700 45.66500
H  47.96900 49.68700 41.52800
H  49.38800 50.49400 41.96200
H  48.11500 52.17900 42.44100
H  47.56000 51.51400 43.86200
H  46.61800 51.27600 42.34100
H  42.25600 48.89400 44.44100
H  42.88300 49.55100 42.87900
H  43.83100 49.60500 44.35200
H  41.78500 43.94400 42.14700
H  40.88500 42.29100 46.41100
H  42.01600 43.23000 47.46300
H  42.66900 41.91600 46.51800
Mg 25.97800 52.55200 26.21500
C  23.92000 53.19900 29.00200
C  28.52900 51.91200 28.26200
C  27.92500 52.33500 23.57800
C  23.41400 53.84800 24.23600
N  26.18200 52.58200 28.40700
C  25.17000 52.71300 29.41600
C  25.81500 52.38600 30.83100
C  27.29400 51.99500 30.43900
C  27.31900 52.11200 28.92300
C  28.27900 52.81200 31.19700
C  25.18400 51.25200 31.63300
C  24.47000 51.59400 32.93200
H  25.21400 52.12600 34.14200
N  27.92200 52.06700 25.96000
C  28.83100 51.83300 26.91600
C  30.14100 51.55500 26.34600
C  30.03600 51.75100 24.97100
C  28.56500 52.06900 24.78600
C  31.36000 51.11000 27.11900
C  31.11900 51.61800 23.88400
O  30.85900 51.95500 22.73500
C  32.53100 51.26600 24.33100
N  25.66200 52.89100 24.10700
C  26.61100 52.68400 23.22400
C  26.20400 53.14700 21.71800
C  24.68900 53.47700 21.95900
C  24.51000 53.41300 23.54700
C  27.12000 54.21700 21.05300
C  23.62700 52.59600 21.29300
C  23.65700 52.72000 19.70300
N  23.97000 53.28800 26.51300
C  23.10600 53.79300 25.59700
C  21.87300 54.13100 26.27200
C  22.12800 53.93500 27.60500
C  23.41900 53.43400 27.70600
C  20.54300 54.55400 25.57500
C  21.54200 54.02900 28.98500
O  20.36800 54.31600 29.35700
C  22.72700 53.57200 29.88500
C  23.09900 54.78900 30.78400
O  23.85100 55.66900 30.42700
O  22.44100 54.66800 31.94600
C  22.30000 55.98300 32.58300
H  29.28900 51.61900 28.98900
H  28.59400 52.37000 22.71600
H  22.65900 54.26800 23.56800
H  25.83200 53.28500 31.44700
H  27.40400 50.92700 30.62400
H  27.83900 53.22600 32.10500
H  28.54000 53.67200 30.57900
H  29.05500 52.10400 31.48900
H  25.95500 50.56000 31.97200
H  24.44500 50.73500 31.02000
H  23.82000 50.76000 33.19800
H  23.77200 52.38200 32.64900
H  31.27400 51.05300 28.20400
H  32.12000 51.88400 27.01600
H  31.81400 50.14800 26.88100
H  32.92700 52.18100 24.77100
H  33.04400 51.12400 23.38000
H  32.66000 50.39300 24.97100
H  26.27700 52.26400 21.08200
H  24.49500 54.46300 21.53600
H  27.75500 54.72300 21.78000
H  26.42900 54.99100 20.71600
H  27.68000 53.80200 20.21500
H  22.64100 52.84200 21.68500
H  23.91100 51.61800 21.68200
H  24.50100 53.37800 19.49500
H  22.75700 53.24900 19.38800
H  23.84300 51.76600 19.20900
H  19.89000 53.74200 25.25600
H  20.77200 55.14700 24.69000
H  20.03200 55.16100 26.32300
H  22.60100 52.71700 30.54900
H  22.29800 56.77600 31.83500
H  23.12400 56.20800 33.26100
H  21.34200 55.90800 33.09600

