158

Mg 2.24500 -2.15400 45.38000
C  5.76300 -1.62800 44.87300
C  1.52400 0.32600 43.31600
C  -1.04600 -3.25600 45.25300
C  3.01500 -4.86900 47.31000
N  3.59500 -0.83200 44.18000
C  4.99500 -0.74800 44.12000
C  5.42900 0.34200 43.07200
C  4.07400 1.12200 42.89300
C  2.91200 0.21300 43.57200
C  4.04600 2.58000 43.37000
C  5.93000 -0.32100 41.78700
C  7.36600 -0.01000 41.34600
H  7.80800 0.33600 39.94100
N  0.43600 -1.52700 44.38400
C  0.38900 -0.45200 43.61000
C  -0.99600 -0.15100 43.31300
C  -1.81300 -1.11400 43.94300
C  -0.81900 -2.07700 44.56800
C  -1.45400 0.96100 42.41700
C  -3.27500 -0.95800 44.12600
O  -3.88000 -0.00100 43.64800
C  -4.01300 -2.03500 44.90800
N  1.07600 -3.87400 46.18900
C  -0.26000 -3.99400 46.10500
C  -0.76500 -5.25500 46.88900
C  0.57600 -5.62800 47.65300
C  1.64000 -4.82800 46.95000
C  -2.08000 -5.01800 47.76400
C  0.90400 -7.22400 47.73900
C  1.64100 -7.61200 48.97100
N  3.97600 -3.00100 46.03000
C  4.12700 -4.15700 46.80100
C  5.57500 -4.36700 47.04700
C  6.23800 -3.37900 46.35600
C  5.24200 -2.59400 45.76100
C  6.16300 -5.46800 47.90100
C  7.51300 -2.81900 46.13800
O  8.63800 -3.26400 46.45000
C  7.23000 -1.64300 45.13200
C  7.75100 -0.35200 45.68100
O  7.43800 0.12000 46.77300
O  8.44300 0.21600 44.66700
C  8.79700 1.63100 44.92600
H  1.43700 1.26900 42.77200
H  -2.07500 -3.62200 45.22900
H  3.26100 -5.59200 48.09000
H  6.21400 0.86500 43.61800
H  3.74900 1.10600 41.85200
H  4.99000 2.89600 43.81500
H  3.28500 2.78300 44.12300
H  3.87300 3.06600 42.40900
H  5.31500 -0.04900 40.93000
H  5.81600 -1.40000 41.88300
H  7.95500 -0.86800 41.67300
H  7.63900 0.91900 41.84600
H  -2.21100 0.65800 41.69500
H  -0.62100 1.20900 41.75900
H  -1.84300 1.83100 42.94600
H  -3.34100 -2.27900 45.73100
H  -4.15100 -2.85700 44.20600
H  -4.91000 -1.47600 45.17500
H  -1.10100 -6.09600 46.28200
H  0.58400 -5.13300 48.62400
H  -2.91400 -5.58800 47.35500
H  -2.09100 -3.92900 47.71000
H  -2.01800 -5.29700 48.81600
H  1.42900 -7.58600 46.85500
H  0.07000 -7.92100 47.65500
H  1.03700 -8.36000 49.48400
H  1.70600 -6.73500 49.61400
H  2.60700 -8.06900 48.75200
H  6.25300 -6.42200 47.38300
H  5.58900 -5.58600 48.82000
H  7.22100 -5.24900 48.04200
H  7.84000 -1.86100 44.25500
H  9.64700 1.63500 45.60900
H  7.90700 2.11700 45.32400
H  9.02800 2.09200 43.96500
Mg 16.96500 -1.68200 28.12200
C  15.96700 0.79500 30.36500
C  18.89200 -3.11800 30.52000
C  18.49600 -3.47200 25.66000
C  15.44500 0.28800 25.46700
N  17.22400 -1.26000 30.24700
C  16.62500 -0.25800 30.95000
C  16.91500 -0.42800 32.48800
C  18.15000 -1.43500 32.41500
C  18.06500 -2.01000 30.97600
C  19.57400 -0.78900 32.67000
C  15.72500 -1.00000 33.32400
C  15.78100 -0.56400 34.83500
H  17.09000 -0.10900 35.50200
N  18.31100 -3.23200 28.11100
C  18.99700 -3.65500 29.21600
C  19.87400 -4.67600 28.75500
C  19.71600 -4.87600 27.35400
C  18.84900 -3.80000 26.97100
C  20.83200 -5.42600 29.67400
C  20.37100 -5.89000 26.36900
O  20.27900 -5.88500 25.16700
C  21.14700 -7.02900 26.95300
N  16.95500 -1.57800 25.92900
C  17.66700 -2.45100 25.17700
C  17.44200 -2.20700 23.68600
C  16.31400 -1.12700 23.70000
C  16.22700 -0.79000 25.17800
C  18.74500 -1.74400 22.95900
C  14.99400 -1.60500 23.04500
C  14.02200 -2.28400 23.99300
N  15.84900 0.15500 27.87300
C  15.23800 0.77200 26.78800
C  14.48200 1.95000 27.25600
C  14.82800 2.01200 28.65900
C  15.61100 0.91400 28.98600
C  13.76300 2.80200 26.29200
C  14.64400 2.74800 29.83400
O  14.09800 3.86400 29.99600
C  15.15900 1.85900 31.06000
C  15.96400 2.82800 31.79200
O  16.86300 3.43900 31.28800
O  15.39200 3.04700 33.09000
C  16.12400 3.92700 33.95400
H  19.46100 -3.57200 31.33500
H  19.04600 -3.95700 24.85100
H  15.04700 0.90300 24.65700
H  17.25600 0.47700 32.99100
H  18.05800 -2.20000 33.18600
H  20.09900 -1.56200 33.23100
H  19.53700 0.16700 33.19200
H  20.10700 -0.69000 31.72500
H  15.71800 -2.08300 33.19900
H  14.82000 -0.56600 32.89700
H  15.43800 -1.46100 35.34900
H  15.05900 0.23200 35.01800
H  21.86300 -5.33800 29.33000
H  20.62600 -6.47900 29.86600
H  20.79100 -4.93100 30.64400
H  20.48700 -7.56400 27.63600
H  22.02000 -6.62700 27.46800
H  21.40500 -7.73700 26.16500
H  17.04500 -3.15100 23.31300
H  16.63500 -0.22600 23.17700
H  18.56500 -1.28300 21.98800
H  19.41400 -2.59100 22.81000
H  19.21900 -0.87200 23.41100
H  15.31300 -2.27700 22.24900
H  14.48800 -0.73200 22.63200
H  13.24300 -1.58200 24.29100
H  14.52600 -2.66000 24.88300
H  13.61700 -3.14600 23.46300
H  13.72900 2.47300 25.25400
H  14.45100 3.64600 26.25600
H  12.81300 3.13900 26.70800
H  14.36300 1.53000 31.72800
H  16.18800 3.49000 34.95000
H  15.59100 4.87700 34.00600
H  17.13200 4.12500 33.59000

