158

Mg 50.54500 44.94200 42.59700
C  47.43300 46.44600 41.79300
C  49.54500 41.99400 41.04900
C  53.66900 43.89800 42.89900
C  51.58100 48.21900 43.78600
N  48.73400 44.35500 41.56400
C  47.54300 45.07400 41.36400
C  46.50700 44.17500 40.76000
C  47.19000 42.76600 40.80000
C  48.62300 43.05900 41.07100
C  46.52400 41.87400 41.96400
C  46.14200 44.66300 39.30900
C  44.57100 44.59000 39.01300
H  44.03000 43.53100 37.99800
N  51.47800 43.13600 42.12800
C  50.88100 42.01800 41.55600
C  51.87800 41.00900 41.53100
C  53.05000 41.52500 42.15000
C  52.80500 42.91800 42.40000
C  51.62400 39.61200 40.85300
C  54.32600 40.72300 42.50200
O  54.27300 39.53900 42.22000
C  55.65600 41.27200 42.89200
N  52.36500 45.97000 43.23300
C  53.53200 45.23100 43.30000
C  54.65600 46.18100 43.76700
C  53.96300 47.55200 44.02700
C  52.56000 47.24000 43.71800
C  55.54400 45.59200 44.91900
C  54.53100 48.71800 43.12500
C  56.01600 49.09700 43.33300
N  49.66400 46.90500 42.93500
C  50.24200 48.06400 43.35500
C  49.19700 49.06900 43.31000
C  48.11600 48.47700 42.71500
C  48.43500 47.15300 42.43500
C  49.28400 50.46900 43.77600
C  46.82500 48.73300 42.10600
O  46.15500 49.73900 42.19200
C  46.33900 47.39700 41.48200
C  45.08700 47.01300 42.14100
O  45.03400 46.70100 43.32500
O  44.03500 47.17100 41.25000
C  42.66800 47.14300 41.86300
H  49.13900 41.07000 40.63400
H  54.66800 43.56800 43.19200
H  51.86700 49.23800 44.05300
H  45.61500 44.14700 41.38700
H  47.14500 42.21100 39.86300
H  45.47300 41.79800 41.68400
H  46.67800 42.36800 42.92300
H  47.03400 40.91100 41.96800
H  46.67600 44.06500 38.57100
H  46.51000 45.68900 39.29000
H  44.30000 45.53600 38.54400
H  43.97900 44.68300 39.92400
H  52.48100 38.99800 40.57700
H  51.15300 39.71200 39.87600
H  51.05000 38.92600 41.47600
H  55.68900 41.73100 43.88000
H  55.86600 42.03300 42.14000
H  56.27600 40.39000 42.73200
H  55.22400 46.33300 42.84900
H  54.11600 47.69900 45.09600
H  55.86300 46.30600 45.67700
H  56.49400 45.31900 44.46100
H  55.22600 44.69200 45.44500
H  54.06100 49.67000 43.36900
H  54.39300 48.48000 42.07000
H  56.36600 49.73200 42.52000
H  56.67900 48.26000 43.55000
H  56.00100 49.70400 44.23900
H  50.27500 50.72200 44.15300
H  48.42200 50.62500 44.42500
H  49.11800 51.01800 42.84900
H  46.17600 47.50000 40.41000
H  42.38400 46.12900 42.14400
H  41.94900 47.52100 41.13600
H  42.51300 47.82400 42.70100
Mg 41.41800 40.63300 27.58400
C  40.64200 43.08700 29.91800
C  42.62900 38.70700 30.16300
C  42.64500 38.65000 25.35000
C  40.81200 42.97800 25.09700
N  41.47100 40.77300 29.74700
C  41.00600 41.86900 30.49600
C  40.89800 41.47500 32.03000
C  41.82200 40.15600 32.09200
C  42.12100 39.85200 30.57800
C  43.23100 40.35300 32.85400
C  39.42600 41.23400 32.45300
C  38.79800 41.92000 33.76000
H  38.54200 41.00800 35.04000
N  42.43700 38.90100 27.75200
C  42.86500 38.17300 28.88200
C  43.27600 36.84900 28.53900
C  43.40300 36.89200 27.17000
C  42.89600 38.20500 26.70300
C  43.78300 35.80900 29.53000
C  44.03800 35.82600 26.19700
O  43.99100 35.95600 24.98600
C  44.64400 34.58500 26.67400
N  41.59300 40.81200 25.51600
C  42.07700 39.82800 24.76200
C  42.07600 40.08000 23.27500
C  41.74100 41.62000 23.26300
C  41.26300 41.78100 24.68400
C  43.30900 39.78200 22.35500
C  40.70800 41.95500 22.19900
C  39.25200 41.65900 22.50500
N  40.75300 42.64900 27.49700
C  40.59000 43.45700 26.41200
C  40.11100 44.79800 26.90600
C  40.01100 44.68000 28.25700
C  40.52000 43.36700 28.56800
C  39.92200 46.03900 25.92700
C  39.55800 45.29800 29.46300
O  38.86600 46.30700 29.63500
C  39.97300 44.30100 30.60800
C  40.84900 44.97300 31.59500
O  42.06300 45.19700 31.42700
O  40.25600 45.19700 32.80000
C  41.07900 46.02300 33.68200
H  43.01800 38.01500 30.91300
H  43.05600 37.99500 24.57900
H  40.78800 43.75900 24.33400
H  41.34200 42.22600 32.68300
H  41.30100 39.22500 32.31400
H  43.92000 40.53200 32.02800
H  43.24400 39.42600 33.42700
H  43.20000 41.26900 33.44400
H  39.33900 40.17300 32.68300
H  38.84300 41.39300 31.54600
H  37.91800 42.44500 33.38800
H  39.50500 42.66900 34.11700
H  43.26300 34.86200 29.67700
H  43.67300 36.16100 30.55500
H  44.79200 35.46600 29.30000
H  45.45400 34.91200 27.32500
H  45.01600 33.98300 25.84600
H  43.88600 34.14600 27.32300
H  41.21700 39.56300 22.84900
H  42.67600 42.17300 23.17400
H  43.10200 38.81500 21.89600
H  44.15900 39.73600 23.03500
H  43.53500 40.62000 21.69600
H  41.07800 41.28600 21.42200
H  40.96700 42.95200 21.84400
H  38.97100 41.30300 23.49600
H  38.90100 40.88200 21.82500
H  38.63600 42.53000 22.28300
H  38.99400 46.50900 26.25200
H  39.78700 45.68200 24.90600
H  40.71800 46.76700 26.08300
H  39.07600 44.02600 31.16400
H  41.69100 46.74800 33.14600
H  41.74600 45.38700 34.26500
H  40.40100 46.52200 34.37500

