158

Mg 35.64900 48.82800 26.21800
C  35.85600 46.78300 28.89000
C  34.14300 51.18900 28.20800
C  35.31500 50.76800 23.42800
C  37.06200 46.35800 24.11900
N  35.20000 49.06100 28.32700
C  35.39500 48.07100 29.24400
C  35.24900 48.59800 30.70800
C  34.31100 49.75900 30.46300
C  34.53700 50.09500 28.94600
C  32.84000 49.60900 30.88100
C  36.61700 48.87200 31.47500
C  36.49700 48.79900 33.03300
H  35.10900 48.96200 33.67000
N  34.86400 50.72400 25.85200
C  34.36900 51.53700 26.86200
C  34.00200 52.81800 26.21400
C  34.28900 52.66000 24.78400
C  34.84200 51.34600 24.63000
C  33.44900 54.03000 26.95700
C  34.17600 53.70900 23.71400
O  34.51600 53.51000 22.59100
C  33.72000 55.09600 23.99400
N  36.08000 48.56400 24.10400
C  35.79900 49.51100 23.18600
C  35.99100 48.98600 21.77000
C  36.72000 47.60200 21.97900
C  36.60700 47.47500 23.48200
C  34.65300 48.94600 20.88400
C  38.19800 47.51100 21.55400
C  39.24800 48.48000 22.13300
N  36.35400 46.96900 26.45700
C  36.84400 46.02300 25.46600
C  37.21200 44.85200 26.20000
C  36.84400 45.10100 27.53000
C  36.27700 46.35000 27.59600
C  37.77700 43.60200 25.69100
C  36.92300 44.51000 28.83900
O  37.28000 43.39900 29.20300
C  36.26500 45.58200 29.77000
C  35.17600 44.99800 30.56300
O  34.33500 44.19700 30.13900
O  35.33000 45.38100 31.91600
C  34.29000 44.76900 32.72500
H  33.62700 51.89700 28.86100
H  35.32500 51.40700 22.54200
H  37.46900 45.52700 23.53800
H  34.74400 47.78900 31.23500
H  34.77100 50.59200 30.99300
H  32.22700 49.55600 29.98100
H  32.48600 50.42500 31.51100
H  32.78700 48.68200 31.45300
H  37.02200 49.86400 31.27700
H  37.41900 48.22400 31.12000
H  37.12600 49.60200 33.41600
H  36.94200 47.86200 33.36900
H  32.81300 54.61300 26.29100
H  34.19300 54.58100 27.53200
H  32.74400 53.67300 27.70800
H  32.68800 55.21000 24.32500
H  33.73700 55.56000 23.00800
H  34.48100 55.54000 24.63600
H  36.75200 49.60500 21.29500
H  36.19000 46.71800 21.62500
H  33.78100 49.20100 21.48600
H  34.49200 48.06000 20.26800
H  34.68300 49.81900 20.23200
H  38.15500 47.47100 20.46600
H  38.54700 46.49300 21.73200
H  39.49700 49.19700 21.35100
H  40.09000 47.86500 22.45200
H  38.84000 48.88300 23.06000
H  38.21700 43.67000 24.69600
H  37.10800 42.74100 25.67700
H  38.60700 43.46600 26.38500
H  36.97900 45.96900 30.49800
H  34.51600 43.72400 32.93700
H  33.30500 44.78400 32.25900
H  34.14900 45.28100 33.67700
Mg -0.30000 42.89000 26.54800
C  1.92600 43.12600 29.26100
C  -2.80900 42.66600 28.76200
C  -2.28500 42.19900 23.95100
C  2.47600 43.19300 24.30200
N  -0.40800 42.62900 28.81100
C  0.61700 42.90900 29.65200
C  0.04900 42.87500 31.12900
C  -1.48100 42.47900 30.90700
C  -1.59600 42.56900 29.41100
C  -1.86700 41.02700 31.47800
C  0.36000 44.23100 31.90100
C  1.00700 44.39700 33.33400
H  0.71400 43.24300 34.36200
N  -2.30500 42.59200 26.33700
C  -3.12700 42.61800 27.36700
C  -4.47800 42.51400 26.85400
C  -4.39500 42.16500 25.46000
C  -2.94000 42.33900 25.15100
C  -5.77100 42.83800 27.72900
C  -5.46800 41.73700 24.40700
O  -5.15600 41.46100 23.25200
C  -6.86700 41.73000 24.86800
N  0.06800 42.78900 24.35300
C  -0.93700 42.38900 23.56200
C  -0.37700 42.42400 22.06800
C  1.10400 42.88000 22.16600
C  1.22300 42.98000 23.68600
C  -0.49100 40.94600 21.58200
C  1.28900 44.19700 21.41500
C  1.97000 44.12900 20.00100
N  1.74100 43.04300 26.67500
C  2.75400 43.21200 25.74200
C  4.01500 43.41200 26.46000
C  3.73100 43.26700 27.81500
C  2.37400 43.12700 27.90500
C  5.26400 43.83700 25.72900
C  4.26800 43.43400 29.13300
O  5.44200 43.61100 29.45600
C  3.10000 43.36200 30.15300
C  3.44200 42.17900 30.97000
O  3.68600 41.02400 30.54100
O  3.71200 42.62700 32.25000
C  4.28500 41.50300 33.11100
H  -3.69500 42.57700 29.39400
H  -2.88900 42.04400 23.05400
H  3.29900 43.41100 23.61700
H  0.58900 42.04700 31.58800
H  -2.16500 43.27600 31.19700
H  -0.94900 40.53000 31.79100
H  -2.38900 40.41800 30.73900
H  -2.54300 41.05000 32.33300
H  -0.56600 44.80600 31.91500
H  1.04400 44.84900 31.32000
H  0.60300 45.31100 33.77000
H  2.08100 44.56600 33.25600
H  -6.40800 43.46900 27.10900
H  -5.68500 43.43600 28.63600
H  -6.30500 41.92400 27.98700
H  -6.85500 41.55800 25.94400
H  -7.52900 41.03800 24.34700
H  -7.36600 42.68800 24.73000
H  -1.04900 42.99900 21.43100
H  1.83200 42.12300 21.87300
H  0.23200 40.44100 22.22300
H  -0.23300 40.74100 20.54300
H  -1.41700 40.38900 21.72000
H  1.96200 44.82800 21.99500
H  0.36900 44.75300 21.23600
H  1.16900 44.39000 19.31000
H  2.35100 43.14000 19.74700
H  2.75800 44.86600 19.84500
H  5.63000 42.96200 25.19200
H  6.02300 44.27300 26.37900
H  4.84000 44.55400 25.02500
H  2.96700 44.36700 30.55300
H  4.58400 40.55100 32.67200
H  3.50200 41.23800 33.82100
H  5.08600 41.96300 33.69000

