158

Mg 8.52100 2.41100 27.95000
C  10.10100 1.18900 30.85200
C  6.42100 4.28500 29.87300
C  7.19300 3.70600 25.15800
C  10.61700 0.29100 26.05700
N  8.38700 2.66800 30.13800
C  9.08800 2.10500 31.11800
C  8.69100 2.61300 32.49300
C  7.44600 3.49600 32.07900
C  7.35300 3.51400 30.63300
C  6.12900 3.22400 32.89100
C  9.76800 3.44800 33.23400
C  9.30900 4.13300 34.60300
H  10.04300 3.64600 35.92200
N  6.96100 3.80900 27.58200
C  6.27100 4.49600 28.49300
C  5.26400 5.25500 27.84200
C  5.46300 5.08300 26.45300
C  6.67700 4.24400 26.33800
C  4.13500 5.96100 28.54300
C  4.71800 5.68300 25.29300
O  5.01200 5.49500 24.12800
C  3.61500 6.62800 25.57600
N  8.83100 2.00700 25.96400
C  8.21500 2.79900 25.01900
C  8.66500 2.34500 23.58200
C  9.83700 1.43000 23.91200
C  9.67200 1.13100 25.38200
C  7.50200 1.63300 22.76400
C  11.21200 2.06100 23.53700
C  11.67600 3.20600 24.44000
N  10.00300 0.89200 28.37500
C  10.73900 0.13900 27.47400
C  11.62000 -0.66700 28.23400
C  11.44100 -0.31900 29.57200
C  10.44600 0.68600 29.60600
C  12.56700 -1.62100 27.63600
C  11.82100 -0.56000 30.94600
O  12.52900 -1.43300 31.38300
C  10.95900 0.49600 31.84200
C  10.21700 -0.27600 32.91000
O  9.40400 -1.15400 32.77400
O  10.78400 0.03300 34.09400
C  10.22400 -0.74200 35.24600
H  5.79000 4.99400 30.41100
H  6.99500 4.10200 24.16000
H  11.35800 -0.29000 25.50400
H  8.46900 1.72200 33.08100
H  7.61200 4.53700 32.35800
H  5.74200 4.11900 33.37800
H  6.44600 2.54800 33.68500
H  5.30400 2.78900 32.32700
H  10.10800 4.11200 32.43900
H  10.65100 2.85000 33.45900
H  8.22400 4.05100 34.67300
H  9.43500 5.20600 34.45600
H  4.36900 7.02400 28.50100
H  3.99000 5.61400 29.56600
H  3.19200 5.83400 28.01100
H  4.04900 7.33800 26.28000
H  2.64400 6.28300 25.92900
H  3.54700 7.14600 24.62000
H  9.00100 3.25200 23.08000
H  9.64600 0.48700 23.40000
H  7.34000 2.14800 21.81600
H  6.54900 1.80200 23.26600
H  7.51100 0.55500 22.60700
H  11.15100 2.57500 22.57800
H  11.98000 1.29400 23.43900
H  11.45600 4.18700 24.02000
H  12.73200 3.10700 24.69100
H  11.24300 3.17000 25.44000
H  12.97500 -1.35100 26.66200
H  12.08200 -2.59300 27.55300
H  13.36300 -1.57000 28.37900
H  11.61100 1.23600 32.30400
H  9.36600 -1.34300 34.94500
H  9.93200 0.02100 35.96800
H  11.02900 -1.36500 35.63700
Mg 44.60400 3.76700 46.62200
C  42.37200 6.45100 46.19300
C  41.82000 1.60000 46.44200
C  46.80800 1.25700 46.27800
C  47.21900 6.12300 46.15700
N  42.29100 3.95800 46.29300
C  41.68800 5.22000 46.14500
C  40.15100 4.95800 45.94200
C  39.96500 3.43900 46.29800
C  41.39200 2.95100 46.40200
C  39.20500 3.13800 47.64400
C  39.44600 5.24300 44.51100
C  38.57700 6.55300 44.45900
H  38.87200 7.55800 43.32800
N  44.33600 1.65300 46.42100
C  43.09900 0.99000 46.35200
C  43.38300 -0.41500 46.18500
C  44.83200 -0.55500 46.07000
C  45.42800 0.80200 46.24200
C  42.36400 -1.53100 46.09600
C  45.55400 -1.90200 45.90600
O  44.99000 -2.99200 45.83400
C  47.06200 -1.96300 45.75000
N  46.72400 3.74600 46.22100
C  47.34800 2.53600 46.34900
C  48.87700 2.70900 46.30400
C  49.00200 4.27000 46.34800
C  47.53600 4.73300 46.24900
C  49.45900 1.87100 47.50100
C  49.81300 4.80800 45.05200
C  51.07500 5.59200 45.46100
N  44.83100 5.87300 46.40200
C  45.91900 6.69100 46.27500
C  45.53000 8.11500 46.20100
C  44.16300 8.05100 46.25900
C  43.77600 6.65400 46.34800
C  46.40400 9.34400 45.85800
C  42.95300 8.82000 46.20000
O  42.86300 10.05800 46.29600
C  41.77400 7.84500 46.22000
C  40.79500 8.17300 47.21800
O  40.61900 7.55900 48.22900
O  40.04900 9.22900 46.83300
C  38.87100 9.62400 47.54400
H  41.01100 0.87100 46.36500
H  47.62300 0.56200 46.06200
H  48.09900 6.76900 46.12700
H  39.79400 5.59200 46.75300
H  39.42400 2.91500 45.51100
H  39.00300 4.06300 48.18400
H  39.68700 2.43400 48.32300
H  38.24600 2.66300 47.43900
H  38.78100 4.42100 44.24800
H  40.15100 5.15100 43.68400
H  38.67100 7.01300 45.44300
H  37.54300 6.26000 44.27600
H  42.37500 -1.75900 45.03000
H  41.40400 -1.24400 46.52500
H  42.60300 -2.45100 46.63000
H  47.29100 -1.62600 44.73900
H  47.43800 -2.98500 45.78900
H  47.47600 -1.37700 46.57000
H  49.33300 2.28600 45.40900
H  49.50600 4.58000 47.26400
H  48.90000 0.96600 47.73700
H  49.45700 2.58600 48.32400
H  50.49400 1.61800 47.27300
H  49.04300 5.46600 44.64800
H  50.11400 3.98400 44.40500
H  51.07000 6.30300 44.63500
H  52.00400 5.02400 45.43700
H  51.03200 6.14600 46.39900
H  45.78700 10.23300 45.98400
H  46.77700 9.31500 44.83400
H  47.17300 9.50300 46.61300
H  41.20500 8.06400 45.31700
H  38.69700 9.11200 48.49000
H  38.03500 9.40400 46.88000
H  38.85800 10.68800 47.77800

