158

Mg 17.06600 52.99600 25.59500
C  18.56700 51.20400 28.33500
C  14.37700 53.40800 27.74700
C  15.25200 54.40000 23.08300
C  19.37900 51.63200 23.57700
N  16.67100 52.55700 27.84000
C  17.41800 51.94800 28.70400
C  16.85500 52.05300 30.07600
C  15.38800 52.39800 29.82500
C  15.44900 52.87500 28.37800
C  14.39500 51.28800 30.00900
C  17.60600 53.09900 30.93500
C  17.98800 52.64400 32.37000
H  17.14400 53.26700 33.50100
N  15.11000 53.86200 25.46700
C  14.14900 53.92000 26.44600
C  12.96600 54.57800 25.94100
C  13.26400 54.96800 24.60400
C  14.61400 54.42500 24.31200
C  11.76400 54.88100 26.80900
C  12.49100 55.89800 23.63800
O  13.01800 56.35800 22.66800
C  11.18700 56.38900 24.04100
N  17.19600 52.99500 23.65700
C  16.40200 53.66900 22.74000
C  17.03000 53.75800 21.29900
C  18.36400 52.87300 21.54100
C  18.40500 52.49500 23.05800
C  16.12000 53.15600 20.25500
C  19.56900 53.68500 20.98500
C  20.33000 54.57600 21.93700
N  18.83600 51.74300 25.89000
C  19.57600 51.20000 24.93200
C  20.57400 50.31000 25.55300
C  20.37000 50.44900 26.93000
C  19.17700 51.16000 27.06100
C  21.77300 49.65500 24.81000
C  20.71000 50.12600 28.27200
O  21.68300 49.58500 28.65200
C  19.49500 50.53800 29.18600
C  18.97700 49.28700 29.92600
O  18.19700 48.44400 29.48800
O  19.56100 49.18600 31.18200
C  19.11500 48.11000 32.04300
H  13.55400 53.52700 28.45500
H  14.84800 55.00000 22.26600
H  20.08900 51.30800 22.81300
H  16.92400 51.09400 30.58900
H  15.04600 53.31900 30.29900
H  14.56700 50.79700 30.96700
H  14.51700 50.62100 29.15500
H  13.41200 51.75000 29.91700
H  16.99500 54.00100 30.94200
H  18.52200 53.39700 30.42500
H  19.05100 52.77200 32.57600
H  17.78100 51.57600 32.44600
H  11.81000 54.41900 27.79500
H  10.86800 54.63200 26.24000
H  11.76300 55.95000 27.01800
H  10.79500 57.04500 23.26400
H  11.30500 57.06400 24.88900
H  10.44400 55.59600 24.12200
H  17.20200 54.78400 20.97400
H  18.34400 51.93100 20.99200
H  16.08700 53.81500 19.38700
H  15.09200 52.97600 20.56900
H  16.52400 52.21600 19.87800
H  19.17200 54.29500 20.17300
H  20.29600 52.99600 20.55700
H  20.03000 54.33900 22.95700
H  20.10600 55.59900 21.63500
H  21.40000 54.37400 21.87700
H  21.82100 48.57400 24.94500
H  22.69900 50.10800 25.16300
H  21.66500 49.76400 23.73100
H  19.93800 51.19700 29.93200
H  19.28300 48.28500 33.10600
H  19.52300 47.12600 31.80900
H  18.04100 47.96800 31.92700
Mg 8.60200 48.62600 25.21200
C  6.79800 48.75000 28.15900
C  11.36800 50.07000 26.94400
C  10.45400 48.23500 22.54000
C  5.73000 47.67700 23.52300
N  8.96100 49.52600 27.26200
C  8.05200 49.36700 28.29400
C  8.65400 50.01100 29.55600
C  9.91700 50.66700 28.98800
C  10.14200 50.07900 27.66000
C  9.79800 52.23400 28.99600
C  8.96200 48.86700 30.62100
C  10.08000 49.07300 31.63700
H  9.87800 48.52200 33.07700
N  10.61200 49.09200 24.80900
C  11.52300 49.70700 25.55300
C  12.81000 49.77900 24.85400
C  12.66300 49.11800 23.61800
C  11.20200 48.73500 23.65800
C  13.98700 50.44500 25.46600
C  13.65300 48.78900 22.56600
O  13.38500 48.16100 21.55600
C  15.09900 49.15900 22.70500
N  8.13600 48.05900 23.36700
C  9.10000 47.86000 22.38400
C  8.53800 47.30300 21.13400
C  7.08500 46.98200 21.49500
C  6.97200 47.60900 22.84900
C  8.84000 48.15900 19.92100
C  6.80800 45.43100 21.60800
C  7.94200 44.54100 22.15400
N  6.66400 48.20700 25.64800
C  5.61300 47.89000 24.88000
C  4.43000 47.76300 25.67600
C  4.87900 47.94800 26.97700
C  6.23200 48.32600 26.90400
C  3.10800 47.24600 25.21200
C  4.39000 47.96400 28.38500
O  3.33000 47.62200 28.89000
C  5.72300 48.38200 29.16200
C  6.16200 47.14800 29.93200
O  6.75900 46.22600 29.43900
O  5.92800 47.25400 31.26100
C  6.44100 46.18100 32.08800
H  12.25800 50.42300 27.46900
H  11.03100 47.97400 21.65000
H  4.85000 47.36700 22.95600
H  8.00700 50.75400 30.02300
H  10.87900 50.64400 29.49900
H  9.85800 52.54200 27.95200
H  10.59300 52.72700 29.55500
H  8.84300 52.65200 29.31500
H  8.91200 47.89700 30.12600
H  8.07300 48.86500 31.25200
H  10.63700 50.01000 31.65500
H  10.83200 48.35700 31.30500
H  14.57400 50.92900 24.68600
H  14.74000 49.78100 25.89100
H  13.80400 51.21900 26.21200
H  15.08600 50.22600 22.48000
H  15.66100 48.63000 21.93500
H  15.59200 48.94000 23.65200
H  9.15800 46.40900 21.06500
H  6.49100 47.58300 20.80700
H  7.83800 48.41600 19.57800
H  9.39800 47.48200 19.27500
H  9.38500 49.08300 20.11600
H  6.56500 45.16800 20.57900
H  5.91900 45.23800 22.20800
H  8.52200 45.07200 22.91000
H  8.47800 44.06200 21.33500
H  7.45800 43.72400 22.69000
H  2.98300 47.51200 24.16200
H  2.42100 47.71000 25.91900
H  3.05200 46.15800 25.23100
H  5.58700 49.25100 29.80600
H  5.96100 46.49800 33.01400
H  7.52500 46.10500 32.17300
H  6.04500 45.20000 31.82600

