158

Mg 6.39500 54.40100 40.54500
C  5.92200 50.93300 40.26500
C  9.66500 53.98000 39.63300
C  6.66100 57.79200 40.19900
C  2.90200 54.77200 40.79100
N  7.61300 52.57800 39.96600
C  7.23500 51.28200 39.89300
C  8.41100 50.43100 39.48700
C  9.64200 51.39700 39.46800
C  8.95800 52.73600 39.75500
C  10.85100 51.05100 40.44600
C  8.34500 49.82900 38.03800
C  7.95100 50.81500 36.86000
H  6.71700 50.32600 36.00800
N  7.92400 55.71300 39.99700
C  9.18200 55.31000 39.72600
C  10.04400 56.48300 39.59400
C  9.20700 57.60400 39.70400
C  7.83400 57.06800 39.97500
C  11.53300 56.42000 39.44100
C  9.71500 59.00700 39.55700
O  10.79400 59.13300 39.08400
C  8.84600 60.24100 39.64100
N  4.93800 56.09600 40.48100
C  5.27700 57.41300 40.38400
C  4.13400 58.29800 40.72300
C  2.89400 57.37100 40.54800
C  3.59600 56.00000 40.69400
C  4.27600 59.02000 42.12500
C  2.13800 57.59300 39.24800
C  1.34100 58.89700 39.22000
N  4.72400 53.16000 40.59000
C  3.38300 53.44100 40.72600
C  2.62500 52.24100 40.81800
C  3.63700 51.20700 40.75900
C  4.87800 51.85200 40.49200
C  1.09000 52.10300 41.02400
C  3.84700 49.81700 40.90500
O  3.09600 48.88100 41.16000
C  5.27300 49.58200 40.41000
C  5.29600 48.68000 39.24900
O  5.01500 48.95700 38.10600
O  5.76700 47.45200 39.66600
C  5.53800 46.28400 38.80300
H  10.71400 53.76200 39.41900
H  6.76600 58.87800 40.22500
H  1.84000 54.87900 41.02500
H  8.43100 49.75900 40.34500
H  10.12200 51.36900 38.49000
H  11.78900 50.92900 39.90400
H  10.71800 50.15000 41.04600
H  10.93100 51.82700 41.20800
H  7.64100 48.99700 38.03000
H  9.35000 49.43800 37.88100
H  8.81600 50.79600 36.19700
H  7.63800 51.78000 37.25900
H  12.03100 57.28300 39.88200
H  11.62700 56.34700 38.35700
H  11.86900 55.54800 40.00200
H  8.14400 60.12400 38.81500
H  9.48300 61.11700 39.51900
H  8.34500 60.41000 40.59400
H  4.07400 59.10000 39.98800
H  2.15800 57.33000 41.35100
H  3.35700 58.74000 42.64000
H  4.44100 60.08000 41.93100
H  5.16500 58.54600 42.54000
H  1.43300 56.77400 39.10600
H  2.91500 57.49200 38.49000
H  0.27900 58.74000 39.03300
H  1.76200 59.41100 38.35600
H  1.47200 59.48000 40.13200
H  0.56200 51.97700 40.07800
H  0.68100 52.93700 41.59400
H  0.90400 51.22800 41.64600
H  5.82300 49.05900 41.19300
H  6.53400 45.86500 38.66000
H  5.10400 46.45800 37.81900
H  4.95400 45.47300 39.23800
Mg -2.36000 35.31700 26.19600
C  -4.08900 33.72700 28.83000
C  -1.12200 37.48400 28.43000
C  -0.95200 36.78300 23.66800
C  -4.06400 33.05200 24.03000
N  -2.69900 35.67200 28.38700
C  -3.29500 34.84100 29.24700
C  -2.99900 35.24400 30.67500
C  -2.15400 36.58100 30.51100
C  -1.97000 36.62600 29.03700
C  -2.63200 37.90700 31.12400
C  -2.39700 34.16900 31.61500
C  -2.10300 34.61200 33.03900
H  -2.52100 33.87700 34.30100
N  -1.11700 36.93800 26.03000
C  -0.63000 37.67300 27.09500
C  0.24900 38.80400 26.52100
C  0.24100 38.57700 25.09500
C  -0.65100 37.37600 24.83000
C  0.90300 39.83000 27.37500
C  1.03700 39.37700 23.95100
O  1.07800 38.98000 22.77800
C  2.02900 40.31700 24.41000
N  -2.50900 34.96400 24.13800
C  -1.70700 35.67800 23.27000
C  -1.87700 35.27500 21.76000
C  -2.78500 34.04000 21.97300
C  -3.24200 34.03400 23.43100
C  -2.42500 36.27700 20.73000
C  -1.94600 32.75400 21.60100
C  -1.08200 32.14200 22.72600
N  -3.79600 33.73100 26.35200
C  -4.31100 32.87500 25.35900
C  -5.19800 31.92600 25.99600
C  -5.07500 32.18800 27.38600
C  -4.27000 33.27900 27.52200
C  -5.97400 30.83400 25.31000
C  -5.58300 31.78500 28.67800
O  -6.33000 30.86400 29.00500
C  -4.91700 32.78700 29.64800
C  -6.02200 33.40400 30.45000
O  -6.96900 33.93200 30.00600
O  -5.86100 33.07400 31.76300
C  -7.00200 33.27300 32.65600
H  -0.57700 38.05900 29.18100
H  -0.45600 37.15200 22.76800
H  -4.50400 32.26900 23.41000
H  -3.96600 35.56100 31.06400
H  -1.14500 36.46800 30.90800
H  -1.81200 38.27500 31.74100
H  -3.54300 37.66300 31.67100
H  -2.70700 38.61900 30.30300
H  -1.47800 33.78000 31.17700
H  -3.11600 33.35200 31.66900
H  -2.29900 35.68200 33.09300
H  -1.02700 34.49200 33.16500
H  0.47500 40.82300 27.23900
H  1.96000 39.92200 27.12400
H  0.78900 39.58100 28.43000
H  2.62100 40.84800 23.66500
H  2.74400 39.70000 24.95400
H  1.62500 41.01800 25.14000
H  -0.90000 34.99900 21.36300
H  -3.61500 33.94500 21.27400
H  -3.07300 36.93800 21.30600
H  -2.86700 35.66100 19.94700
H  -1.57000 36.80800 20.31200
H  -1.16800 33.00200 20.87900
H  -2.58800 31.93900 21.26600
H  -1.51900 31.21300 23.09400
H  -1.05200 32.75400 23.62700
H  -0.09700 31.94000 22.30500
H  -5.64300 30.72000 24.27800
H  -7.04300 31.04000 25.35900
H  -5.80100 29.93700 25.90600
H  -4.41100 32.21300 30.42500
H  -6.51200 33.91800 33.38500
H  -7.38700 32.35000 33.09000
H  -7.78500 33.92400 32.26800

