158

Mg 40.90900 8.94400 29.52200
C  42.47700 9.74100 32.45900
C  38.66700 7.21600 31.06100
C  39.61100 8.12700 26.47800
C  43.64400 10.49100 27.75900
N  40.77400 8.40900 31.46600
C  41.40800 8.88400 32.60500
C  40.80000 8.39200 33.88300
C  39.86900 7.26200 33.29200
C  39.72500 7.65500 31.82300
C  40.55500 5.80600 33.34200
C  40.03500 9.55800 34.64600
C  40.12400 9.38500 36.19000
H  39.92000 10.67500 37.05500
N  39.20400 8.02900 28.83400
C  38.37600 7.39400 29.64600
C  37.27800 6.92400 28.89500
C  37.50400 7.15100 27.53300
C  38.88700 7.77400 27.55400
C  36.11500 6.12500 29.57100
C  36.65900 6.78900 26.35700
O  37.10900 6.99200 25.22300
C  35.24400 6.31800 26.56400
N  41.54100 9.22600 27.39400
C  40.86800 8.67200 26.36700
C  41.66400 8.83200 24.97900
C  42.91500 9.74000 25.44900
C  42.67600 9.86900 26.94600
C  42.06900 7.46200 24.24900
C  42.86300 11.14400 24.74900
C  41.58400 12.00400 24.93100
N  42.68800 9.92600 30.00100
C  43.71800 10.47300 29.19800
C  44.60900 11.17800 30.14300
C  44.16900 10.89400 31.43700
C  43.06600 10.12200 31.26100
C  45.78300 11.90300 29.71800
C  44.46200 11.17800 32.84000
O  45.32400 11.85000 33.48600
C  43.32200 10.37000 33.53700
C  43.83700 9.46900 34.59700
O  44.54300 8.52300 34.41200
O  43.44600 9.94600 35.88100
C  44.00600 9.13800 37.05400
H  37.94000 6.71400 31.70200
H  39.20500 7.81800 25.51300
H  44.56600 10.82100 27.27500
H  41.47600 7.91300 34.59000
H  38.89400 7.31100 33.77800
H  39.92100 5.05100 33.80900
H  41.40200 5.88800 34.02300
H  40.95800 5.59500 32.35200
H  38.97900 9.37800 34.44400
H  40.38600 10.51000 34.24800
H  41.07300 8.91100 36.44200
H  39.34000 8.73300 36.57400
H  36.31900 6.15500 30.64200
H  36.18900 5.08600 29.25100
H  35.20600 6.67900 29.33500
H  35.28500 5.40900 27.16300
H  34.87700 6.05600 25.57100
H  34.71600 7.17900 26.97400
H  41.01100 9.33900 24.26900
H  43.91800 9.32400 25.35900
H  41.52700 7.31900 23.31400
H  41.82200 6.71900 25.00700
H  43.12500 7.33000 24.01500
H  43.01900 11.00600 23.67900
H  43.74200 11.72100 25.03800
H  41.32100 12.20000 23.89100
H  41.94400 12.94000 25.35800
H  40.72800 11.70900 25.53800
H  46.55000 11.15900 29.50300
H  46.21500 12.52700 30.50000
H  45.59200 12.37900 28.75600
H  42.94400 11.20900 34.12200
H  44.27100 8.14800 36.68300
H  43.36900 9.20100 37.93600
H  44.96100 9.57700 37.34200
Mg 6.22800 53.85600 39.74800
C  5.84400 50.38500 39.55300
C  9.43000 53.52800 38.48300
C  6.27500 57.09300 39.17500
C  2.78100 54.05700 40.60300
N  7.48200 52.18000 39.07800
C  7.12500 50.83100 39.16000
C  8.30500 49.97900 38.53200
C  9.52100 51.00700 38.66300
C  8.77400 52.29700 38.79100
C  10.40400 50.74400 39.95500
C  8.31300 49.49600 37.05000
C  7.30900 50.24700 36.12500
H  7.87000 51.32300 35.25400
N  7.70600 55.19100 39.02400
C  8.94600 54.84500 38.54400
C  9.59000 56.02700 38.02100
C  8.69700 57.11400 38.33900
C  7.54100 56.49500 38.89500
C  10.86800 56.08500 37.27400
C  9.02700 58.54300 38.15500
O  10.14400 58.85700 37.70900
C  8.13100 59.70200 38.51600
N  4.60600 55.42900 39.72700
C  4.98400 56.68800 39.67800
C  3.78300 57.59000 40.15800
C  2.70700 56.62100 40.69600
C  3.42700 55.27200 40.36300
C  4.19900 58.75600 41.21700
C  1.24800 56.76500 40.21100
C  0.19100 56.61300 41.34200
N  4.63900 52.54500 40.15100
C  3.26100 52.74700 40.51200
C  2.68800 51.44800 40.84300
C  3.53600 50.52600 40.39000
C  4.76400 51.22500 40.03500
C  1.39800 51.14400 41.46900
C  3.78300 49.14500 40.26700
O  3.15000 48.17000 40.48900
C  5.26500 49.04700 39.72500
C  5.34100 48.27300 38.42700
O  4.77100 48.60200 37.40200
O  6.24900 47.24500 38.57100
C  6.31300 46.40900 37.34100
H  10.43600 53.39600 38.07900
H  6.19200 58.16900 39.00900
H  1.76600 54.14500 40.99500
H  8.41800 49.08200 39.14100
H  10.28000 50.98300 37.88100
H  11.40400 50.41300 39.67300
H  9.82500 50.12300 40.63800
H  10.61600 51.68800 40.45800
H  8.11600 48.42400 37.00800
H  9.24200 49.44800 36.48100
H  6.50100 50.68000 36.71500
H  6.94700 49.48900 35.43100
H  10.65600 56.57100 36.32100
H  11.29000 55.11200 37.02500
H  11.68300 56.60800 37.77400
H  8.76000 60.57000 38.31900
H  7.89900 59.61900 39.57800
H  7.22800 59.73500 37.90700
H  3.33100 58.04700 39.27700
H  2.69700 56.71400 41.78200
H  5.26300 58.93800 41.07100
H  4.14000 58.36300 42.23200
H  3.62400 59.67500 41.10800
H  0.98800 56.00100 39.47900
H  1.15600 57.64900 39.58100
H  0.65300 56.43300 42.31200
H  -0.45400 55.74400 41.21400
H  -0.44800 57.49300 41.42000
H  0.98800 50.14000 41.36100
H  0.63200 51.85200 41.15300
H  1.58200 51.30600 42.53100
H  5.80800 48.59200 40.55400
H  6.89200 45.50500 37.52800
H  6.71200 46.96500 36.49200
H  5.34900 45.98400 37.06200

