158

Mg 35.67900 0.76900 29.98600
C  33.34600 1.85200 32.48100
C  37.98800 0.41100 32.74500
C  37.97800 0.16100 27.80800
C  33.38700 1.52400 27.63800
N  35.62200 1.10700 32.29700
C  34.61000 1.60300 33.02400
C  34.98200 1.61800 34.49200
C  36.58000 1.53900 34.46200
C  36.74000 1.00700 33.05900
C  37.26900 2.91700 34.51400
C  34.38000 0.41600 35.23100
C  34.44700 0.42200 36.81000
H  35.27700 1.50000 37.49300
N  37.68500 0.29600 30.23800
C  38.45600 0.13200 31.39600
C  39.79800 -0.27700 31.03800
C  39.76500 -0.56800 29.63500
C  38.45400 -0.00600 29.15800
C  40.99900 -0.45100 32.02200
C  40.78800 -1.15300 28.71400
O  40.60400 -1.16600 27.46700
C  42.04200 -1.59900 29.27500
N  35.73900 0.91700 27.99100
C  36.77300 0.55100 27.25500
C  36.46500 0.66600 25.72500
C  34.92800 0.95100 25.67500
C  34.61200 1.13800 27.15300
C  37.37500 1.66600 24.87300
C  33.98100 -0.10900 25.07700
C  33.42600 -1.27300 25.93900
N  33.73900 1.49600 29.94300
C  32.85200 1.65400 28.91100
C  31.57100 2.07200 29.41800
C  31.69700 2.13800 30.82400
C  33.02200 1.76400 31.09500
C  30.31400 2.24100 28.55200
C  31.06100 2.43700 32.09600
O  29.86400 2.68900 32.33600
C  32.11000 2.31800 33.21800
C  32.26400 3.73600 33.70800
O  32.57100 4.74700 32.99200
O  31.98700 3.73700 35.05500
C  31.46400 4.97100 35.58700
H  38.78400 0.30900 33.48500
H  38.68700 -0.06600 27.00900
H  32.77100 1.93100 26.83300
H  34.56600 2.48400 35.00700
H  36.95700 0.86500 35.23200
H  36.57700 3.73200 34.72800
H  37.73700 3.07300 33.54200
H  38.05500 2.86500 35.26800
H  34.94300 -0.50400 35.07100
H  33.34400 0.24900 34.93500
H  34.84200 -0.54800 37.11100
H  33.40400 0.55700 37.09800
H  41.83600 0.07500 31.56200
H  41.10400 -1.52400 32.18600
H  40.92400 0.04500 32.98900
H  42.04700 -2.05300 30.26600
H  42.69800 -0.73100 29.33200
H  42.46300 -2.32300 28.57700
H  36.66500 -0.33500 25.34400
H  34.68300 1.85900 25.12300
H  38.19800 1.93600 25.53400
H  36.79800 2.56200 24.64100
H  37.59700 1.11700 23.95800
H  34.62100 -0.60500 24.34800
H  33.13900 0.45300 24.67000
H  33.83200 -2.22200 25.59000
H  32.33700 -1.22100 25.96700
H  33.80400 -1.28000 26.96100
H  30.62300 2.67600 27.60200
H  29.62000 2.93800 29.02200
H  29.98900 1.21200 28.39800
H  31.74400 1.71400 34.04800
H  30.59500 4.80600 36.22300
H  31.14200 5.68300 34.82700
H  32.22300 5.50500 36.15900
Mg 48.08500 34.56200 27.13700
C  46.24900 33.00100 29.77300
C  48.57400 37.16900 29.31900
C  49.42900 36.29200 24.61400
C  47.14500 31.90000 25.17500
N  47.65600 34.85000 29.30500
C  46.92400 34.12900 30.19200
C  46.87400 34.74000 31.60500
C  47.31500 36.21900 31.24000
C  47.92800 36.08900 29.89200
C  46.15300 37.26200 31.40600
C  47.86000 34.04300 32.65200
C  47.31300 33.69200 34.01000
H  46.04800 34.41000 34.43900
N  49.06300 36.43700 27.03400
C  49.09700 37.36700 28.02500
C  49.65500 38.60700 27.52100
C  49.84900 38.39500 26.13600
C  49.48700 37.00900 25.83900
C  49.84200 39.83400 28.33400
C  50.28400 39.35000 25.08300
O  50.35400 39.09600 23.89300
C  50.71800 40.74300 25.55200
N  48.46100 34.17100 25.23400
C  48.91100 34.99700 24.30400
C  48.90300 34.42700 22.85700
C  48.45200 32.94800 23.14300
C  47.95100 32.96300 24.64000
C  47.88000 35.23300 21.90600
C  49.49800 31.81100 23.10000
C  48.98600 30.50700 22.56000
N  46.97600 32.71500 27.38200
C  46.64900 31.77400 26.44600
C  45.88700 30.71500 27.09100
C  45.71700 31.23100 28.32900
C  46.35300 32.44500 28.46900
C  45.36700 29.40400 26.58000
C  45.09900 30.85400 29.55400
O  44.62300 29.82200 29.94100
C  45.28200 32.10100 30.52800
C  45.72200 31.46700 31.85500
O  46.79500 30.96600 32.03200
O  44.63100 31.36700 32.69400
C  44.84600 30.61600 33.97200
H  48.66400 37.93800 30.09000
H  49.72100 36.86900 23.73400
H  46.94000 31.19600 24.36500
H  45.81900 34.71100 31.87900
H  48.08700 36.56300 31.92900
H  45.16500 36.82300 31.54900
H  46.10200 37.95400 30.56500
H  46.45700 37.79000 32.30900
H  48.81500 34.54900 32.78800
H  48.06900 33.08200 32.18100
H  48.09400 33.91900 34.73500
H  47.18800 32.63400 34.24100
H  50.80200 40.29300 28.09500
H  49.58600 39.61400 29.37000
H  49.16900 40.58600 27.92300
H  49.88800 41.23000 26.06400
H  50.83200 41.32800 24.63900
H  51.61900 40.58000 26.14400
H  49.89500 34.50900 22.41200
H  47.65500 32.70700 22.44000
H  47.59000 36.12100 22.46800
H  46.94000 34.74700 21.64700
H  48.39200 35.44400 20.96700
H  50.04200 31.68900 24.03700
H  50.28000 32.26800 22.49300
H  49.68400 30.15600 21.80000
H  47.98500 30.54600 22.12800
H  48.91300 29.75100 23.34100
H  45.08800 29.30600 25.53100
H  44.42100 29.16300 27.06400
H  46.17700 28.74600 26.89200
H  44.38100 32.68600 30.70900
H  44.67400 29.56900 33.72100
H  44.10200 30.95600 34.69300
H  45.84900 30.80600 34.35400

