158

Mg 35.64300 2.92000 29.78100
C  33.33600 3.74600 32.23400
C  38.03200 2.63600 32.38700
C  37.80500 2.00400 27.50900
C  33.02400 2.85700 27.39000
N  35.67700 3.07100 32.03600
C  34.57700 3.42200 32.77100
C  34.95700 3.51600 34.27700
C  36.50200 3.36300 34.30800
C  36.74400 2.86300 32.88900
C  37.35000 4.64400 34.61200
C  34.28800 2.38100 35.13100
C  33.51000 2.72600 36.48100
H  34.13600 3.81000 37.46000
N  37.62900 2.54900 29.91100
C  38.42700 2.41400 31.02400
C  39.80800 2.12500 30.59300
C  39.81200 2.04100 29.12400
C  38.41100 2.22900 28.78500
C  40.90200 1.93300 31.52600
C  40.96300 1.74500 28.14100
O  40.77800 1.94500 26.98300
C  42.27700 1.19200 28.68800
N  35.41100 2.32300 27.76500
C  36.46100 2.00700 27.07400
C  36.14000 1.59300 25.59800
C  34.53900 1.69700 25.64100
C  34.26500 2.33800 26.99000
C  36.91600 2.27400 24.44400
C  33.64300 0.34300 25.47000
C  32.38500 0.36900 24.66800
N  33.67200 3.41000 29.71200
C  32.68400 3.35700 28.66700
C  31.36500 3.70900 29.20800
C  31.54800 3.96200 30.55800
C  32.97300 3.62200 30.84700
C  30.10100 3.77600 28.45300
C  31.02600 4.39800 31.78300
O  29.90200 4.76900 32.04100
C  32.06300 4.22600 32.91800
C  32.07500 5.43500 33.80700
O  32.66900 6.51700 33.58200
O  31.29800 5.19700 34.95000
C  31.38000 6.28200 35.98200
H  38.83000 2.52300 33.12400
H  38.44500 1.63700 26.70500
H  32.25700 2.70300 26.62800
H  34.57200 4.48200 34.60400
H  36.94700 2.64100 34.99400
H  38.07800 4.89400 33.84100
H  37.75800 4.64900 35.62300
H  36.69400 5.50600 34.49700
H  34.99500 1.59100 35.38300
H  33.63400 1.86400 34.42900
H  33.15000 1.83200 36.99200
H  32.61900 3.18300 36.05100
H  40.66300 1.05500 32.12700
H  40.91100 2.67500 32.32400
H  41.88700 1.88600 31.06100
H  42.85700 1.99600 29.14200
H  42.95800 0.67700 28.01100
H  41.94100 0.37500 29.32700
H  36.29800 0.52300 25.46200
H  34.16400 2.47900 24.98100
H  37.46500 3.05600 24.96800
H  36.20200 2.75900 23.77800
H  37.57200 1.54300 23.97200
H  33.34300 -0.02600 26.45000
H  34.33000 -0.31500 24.93700
H  32.53800 -0.20500 23.75500
H  32.10600 1.35700 24.30100
H  31.54800 0.04100 25.28600
H  29.31100 3.14400 28.85700
H  30.28800 3.55700 27.40200
H  29.66400 4.76900 28.34700
H  31.64600 3.50600 33.62200
H  30.73400 7.05300 35.56300
H  32.42400 6.53400 36.16600
H  30.94600 5.93500 36.92000
Mg 47.98800 15.99600 28.78600
C  46.00700 15.05500 31.65800
C  49.95700 17.84800 30.87200
C  49.77600 16.97700 26.09400
C  45.55300 14.71400 26.72800
N  47.78300 16.56800 31.00900
C  46.99500 15.94300 32.01200
C  47.52500 16.30100 33.42200
C  48.61100 17.37900 33.09100
C  48.80100 17.38600 31.53700
C  48.34300 18.75400 33.80200
C  48.08400 15.10500 34.11900
C  48.10700 15.14300 35.60100
H  47.83400 16.49800 36.29100
N  49.76100 17.07000 28.57400
C  50.47200 17.71500 29.53500
C  51.76300 18.14500 29.01300
C  51.70400 17.89900 27.59800
C  50.35900 17.35200 27.37200
C  52.74100 18.92700 29.88600
C  52.67300 18.21300 26.60500
O  52.43400 17.90400 25.43500
C  53.96500 18.89200 27.02900
N  47.68400 15.98000 26.65600
C  48.57100 16.43100 25.76500
C  47.98000 16.37300 24.30100
C  46.62700 15.59700 24.50900
C  46.62000 15.39000 26.04900
C  47.95300 17.76800 23.59600
C  46.45700 14.25400 23.70300
C  47.11800 13.08900 24.43900
N  46.06200 15.10300 29.04000
C  45.29500 14.53800 28.12300
C  44.21200 13.82300 28.80400
C  44.46300 13.98900 30.17200
C  45.62600 14.79100 30.32300
C  43.07400 13.13500 28.15200
C  43.95500 13.64000 31.52300
O  42.97400 12.99200 31.78700
C  44.93200 14.39700 32.57000
C  44.14400 15.34500 33.32600
O  43.45900 16.22600 32.81100
O  44.25200 15.16700 34.68600
C  43.41000 16.02500 35.54900
H  50.65300 18.28000 31.59400
H  50.41300 17.03400 25.20900
H  45.00600 14.06300 26.04300
H  46.63600 16.69500 33.91400
H  49.58900 17.11400 33.49200
H  47.69100 18.53100 34.64700
H  47.74100 19.45000 33.21700
H  49.27300 19.19900 34.15600
H  49.11700 14.99800 33.78700
H  47.63000 14.22500 33.66400
H  48.99900 14.66900 36.01100
H  47.28000 14.46400 35.80600
H  53.13900 19.71100 29.24200
H  53.53000 18.27700 30.26500
H  52.19500 19.34500 30.73200
H  54.36700 18.60200 28.00000
H  53.61300 19.92100 27.09100
H  54.65000 18.77400 26.18900
H  48.58900 15.75900 23.63600
H  45.79100 16.25400 24.26900
H  48.44100 18.51400 24.22300
H  46.92200 18.08000 23.42800
H  48.37800 17.57000 22.61200
H  46.90800 14.27300 22.71100
H  45.37900 14.09300 23.70200
H  47.49400 12.38400 23.69900
H  46.39100 12.70000 25.15200
H  47.95100 13.51500 25.00000
H  42.16300 13.56400 28.57100
H  43.09600 12.06500 28.36000
H  43.02300 13.26500 27.07100
H  45.32300 13.61200 33.21700
H  43.16000 16.95600 35.04200
H  44.01600 16.33500 36.40100
H  42.53600 15.49800 35.93300

