158

Mg 47.30900 24.41400 28.25700
C  48.02500 26.85200 30.77000
C  46.17900 22.35400 30.78700
C  46.78400 22.09300 25.97000
C  48.72600 26.47700 25.86700
N  47.30200 24.61800 30.45100
C  47.45100 25.68500 31.24400
C  47.06200 25.41300 32.70500
C  46.60400 23.85900 32.70500
C  46.68500 23.59600 31.17700
C  47.33800 22.94300 33.72100
C  45.91800 26.40200 33.15000
C  45.14900 26.09000 34.39900
H  45.36200 27.04200 35.65400
N  46.62900 22.47200 28.34900
C  46.16700 21.79100 29.47000
C  45.80300 20.43900 29.03800
C  46.07400 20.31000 27.67000
C  46.48600 21.66400 27.26400
C  45.36500 19.43100 30.07500
C  45.88100 19.03900 26.77400
O  46.43600 18.86300 25.67700
C  45.22900 17.85700 27.40000
N  47.65300 24.33700 26.19200
C  47.31800 23.32700 25.44600
C  47.65700 23.51500 23.96500
C  48.06200 25.00600 23.91300
C  48.24900 25.27200 25.43000
C  48.67800 22.58900 23.32900
C  47.04200 25.94600 23.21900
C  47.11000 25.97000 21.66600
N  48.27900 26.30600 28.22900
C  48.78200 26.98400 27.17800
C  49.35100 28.18500 27.56000
C  49.02200 28.22000 28.94100
C  48.43200 27.00800 29.33400
C  50.26000 29.05000 26.74700
C  49.02100 29.04000 30.16600
O  49.44600 30.22600 30.24700
C  48.47600 28.13500 31.33800
C  49.54000 28.04000 32.33600
O  50.61900 27.48800 32.22300
O  49.10300 28.71800 33.45600
C  49.79200 28.35500 34.75100
H  45.48600 21.80500 31.42700
H  46.67600 21.41200 25.12300
H  49.09200 27.16600 25.10300
H  47.86000 25.60000 33.42500
H  45.53700 23.70700 32.86700
H  48.18700 22.69900 33.08200
H  46.77300 22.02900 33.90100
H  47.74100 23.37900 34.63500
H  45.33400 26.65000 32.26300
H  46.44000 27.34800 33.29400
H  45.55900 25.15600 34.78200
H  44.08900 25.94200 34.19300
H  44.57800 18.79800 29.66300
H  45.03800 19.80000 31.04700
H  46.28800 18.86500 30.19800
H  44.19100 18.14000 27.57200
H  45.70800 17.37600 28.25400
H  45.23000 16.96500 26.77300
H  46.67700 23.35100 23.51900
H  48.98200 25.07300 23.33300
H  48.69500 22.68200 22.24300
H  48.36700 21.56000 23.51100
H  49.66200 22.70700 23.78300
H  47.17700 26.94400 23.63800
H  46.01700 25.76700 23.54500
H  47.84600 25.20800 21.41000
H  47.60900 26.87300 21.31500
H  46.23300 25.74300 21.05900
H  51.10200 29.44300 27.31700
H  49.57600 29.80900 26.36800
H  50.83500 28.56400 25.95900
H  47.70300 28.75000 31.79900
H  49.81900 27.27600 34.90200
H  49.09200 28.65700 35.53000
H  50.79600 28.77300 34.82700
Mg 9.17200 49.36600 24.79500
C  7.16100 49.51200 27.54100
C  12.02200 50.07300 26.73200
C  11.25600 48.87200 22.07400
C  6.45500 48.82600 22.70500
N  9.49500 49.94200 26.84700
C  8.54000 49.75700 27.86700
C  9.19500 49.94500 29.18300
C  10.52800 50.57900 28.79100
C  10.74200 50.12900 27.30700
C  10.68600 52.10600 29.10700
C  9.32600 48.68800 30.08700
C  8.74100 48.97200 31.47200
H  8.60300 47.78300 32.44800
N  11.31900 49.51400 24.43300
C  12.32100 49.67100 25.40300
C  13.65800 49.71000 24.68900
C  13.41600 49.47900 23.34000
C  11.94500 49.32800 23.23100
C  14.96600 49.92400 25.43200
C  14.35800 49.41300 22.26300
O  14.01700 49.35900 21.12600
C  15.80700 49.52900 22.47100
N  8.94900 49.20000 22.59900
C  9.92300 48.84000 21.74000
C  9.41000 48.35300 20.40900
C  7.83400 48.27100 20.63700
C  7.72600 48.73400 22.13100
C  9.82300 49.21100 19.19300
C  7.21800 46.95200 20.29200
C  7.53100 45.71700 21.09600
N  7.19400 49.19300 25.01500
C  6.20200 48.98900 24.11300
C  4.87000 48.80300 24.82400
C  5.18600 49.12900 26.19300
C  6.61000 49.29600 26.24200
C  3.60200 48.42000 24.17300
C  4.61600 49.30200 27.54100
O  3.46300 49.20900 27.98400
C  5.88100 49.43300 28.43100
C  5.82900 48.27400 29.42300
O  6.13500 47.10600 29.16500
O  5.06600 48.68500 30.53900
C  4.67300 47.61300 31.44700
H  12.89800 50.28500 27.35000
H  11.83900 48.52000 21.22000
H  5.62100 48.52900 22.06600
H  8.71600 50.72200 29.77800
H  11.37100 50.03900 29.22300
H  11.52000 52.25000 29.79300
H  9.75600 52.45500 29.55800
H  10.95900 52.51800 28.13600
H  10.37700 48.55400 30.34600
H  8.98000 47.75800 29.63600
H  7.73500 49.38100 31.37600
H  9.31800 49.72800 32.00400
H  15.59600 49.03900 25.35600
H  14.79000 49.98800 26.50500
H  15.55200 50.77900 25.09200
H  16.05200 50.46400 22.97400
H  16.25000 49.71200 21.49200
H  16.16100 48.69700 23.07900
H  9.77300 47.35700 20.15500
H  7.37400 49.07500 20.06100
H  10.55300 49.83400 19.71000
H  9.04100 49.64700 18.57100
H  10.40500 48.64000 18.47000
H  7.59000 46.72000 19.29400
H  6.13600 46.99100 20.16700
H  6.64300 45.08500 21.10200
H  8.04900 45.99100 22.01600
H  8.26700 45.13900 20.53700
H  3.66400 47.37200 23.88300
H  3.55400 49.03600 23.27400
H  2.79000 48.64700 24.86500
H  5.79100 50.34300 29.02300
H  4.98700 46.57000 31.40800
H  3.59100 47.54600 31.33300
H  4.90400 47.98000 32.44700

