158

Mg 9.98700 47.19400 27.21500
C  7.61400 47.38100 29.93700
C  12.38900 48.10100 29.35500
C  11.90700 47.40400 24.63500
C  7.12900 46.53200 25.17800
N  9.92300 47.70900 29.40900
C  8.90000 47.78500 30.36400
C  9.46500 48.09100 31.71400
C  10.87300 48.72300 31.27000
C  11.14200 48.01700 30.01300
C  11.00600 50.18600 31.19400
C  9.52400 46.90300 32.74000
C  9.12100 47.23000 34.17900
H  9.33300 46.23100 35.25600
N  11.92300 47.61800 27.06800
C  12.75800 47.88900 28.04700
C  14.08100 47.98900 27.46200
C  13.94100 47.77000 26.03700
C  12.51500 47.60400 25.84100
C  15.20100 48.27700 28.41700
C  15.01000 47.74000 24.96300
O  14.74700 47.65800 23.75800
C  16.49800 47.74100 25.37500
N  9.50800 47.37000 25.12700
C  10.55600 47.27700 24.25200
C  10.10100 46.85300 22.86400
C  8.62400 46.45900 23.07600
C  8.38200 46.86600 24.53600
C  10.17700 47.97000 21.78200
C  8.39800 44.94100 22.76500
C  9.13200 43.91000 23.66300
N  7.78400 47.01000 27.39500
C  6.82900 46.64300 26.51400
C  5.57700 46.50300 27.13500
C  5.84100 46.78800 28.48600
C  7.15800 47.20000 28.58700
C  4.22400 46.19800 26.47700
C  5.18700 46.96700 29.75000
O  4.02100 46.81800 30.06500
C  6.36700 47.19900 30.79300
C  6.53800 45.94600 31.52000
O  7.02000 44.95400 31.06800
O  6.01100 46.07800 32.77000
C  6.04900 44.81900 33.56200
H  13.16600 48.46800 30.02800
H  12.51500 47.08800 23.78600
H  6.32200 46.19000 24.52700
H  9.00500 48.90800 32.27000
H  11.69700 48.40600 31.90900
H  10.10100 50.70000 31.51800
H  11.12000 50.38300 30.12800
H  11.89100 50.54700 31.71800
H  10.58700 46.67900 32.81900
H  9.05100 46.01600 32.31800
H  8.04100 47.37300 34.13900
H  9.52200 48.21900 34.39900
H  14.98400 49.19500 28.96400
H  16.12700 48.41300 27.85800
H  15.30300 47.48700 29.16000
H  16.57600 46.87400 26.03100
H  16.81500 48.69500 25.79600
H  17.14600 47.60700 24.50900
H  10.66000 45.93600 22.67600
H  7.91300 47.11700 22.57700
H  10.76200 47.80100 20.87700
H  10.60200 48.87300 22.22000
H  9.16700 48.27100 21.50400
H  8.73800 44.71700 21.75400
H  7.34300 44.69200 22.88300
H  8.62100 42.96500 23.84500
H  9.12100 44.41900 24.62700
H  10.11600 43.72500 23.23100
H  4.08600 46.38400 25.41200
H  3.53100 46.86200 26.99400
H  3.87200 45.16600 26.47000
H  6.19000 48.06600 31.42900
H  5.83000 45.01600 34.61200
H  7.05700 44.40700 33.53200
H  5.18600 44.17800 33.37900
Mg 0.86000 41.66300 26.65100
C  3.09800 42.27100 29.33500
C  -1.21500 40.27400 28.98100
C  -1.06500 40.75600 24.09700
C  3.52000 42.38100 24.44900
N  0.83100 41.51900 28.91500
C  1.80700 41.88300 29.76400
C  1.27000 41.89200 31.16500
C  0.03200 40.96600 31.06500
C  -0.18300 40.96900 29.58700
C  0.34000 39.59200 31.67300
C  1.10900 43.39500 31.60500
C  1.48500 43.71500 33.07700
H  1.36000 42.61300 34.15700
N  -0.93700 40.66600 26.51300
C  -1.56300 40.05000 27.59500
C  -2.73100 39.30700 27.07700
C  -2.74600 39.49600 25.69000
C  -1.56400 40.30800 25.35200
C  -3.58500 38.52600 28.03300
C  -3.65400 38.87100 24.62600
O  -3.46300 38.88500 23.41000
C  -4.74800 37.98900 25.07100
N  1.09300 41.82100 24.62300
C  0.13200 41.48200 23.72500
C  0.56900 41.72000 22.22600
C  1.95900 42.26600 22.41000
C  2.20000 42.26600 23.90000
C  0.26700 40.50700 21.34300
C  2.14800 43.59300 21.70000
C  1.78300 44.99800 22.38300
N  2.87400 42.29400 26.77800
C  3.79700 42.48200 25.82800
C  5.08300 42.71500 26.42600
C  4.82700 42.63500 27.82400
C  3.47400 42.40500 27.98500
C  6.43900 42.87900 25.77600
C  5.50100 42.64600 29.10600
O  6.66100 42.69900 29.49000
C  4.32800 42.56300 30.11000
C  4.60000 41.44400 31.04300
O  4.72200 40.25000 30.77800
O  4.87600 41.89900 32.26200
C  5.29400 40.92800 33.26300
H  -1.76900 39.77300 29.77700
H  -1.74400 40.72800 23.24200
H  4.41500 42.48000 23.83200
H  2.07200 41.41600 31.72700
H  -0.78200 41.48900 31.56700
H  0.96000 39.72400 32.56000
H  0.96200 39.17400 30.88200
H  -0.60000 39.05900 31.81600
H  0.08500 43.64600 31.33000
H  1.59300 44.06600 30.89500
H  0.85600 44.53400 33.42800
H  2.54200 43.94100 33.21400
H  -3.39000 37.46600 27.86900
H  -4.63600 38.74300 27.84100
H  -3.44600 38.80400 29.07800
H  -5.60700 38.56700 25.41200
H  -4.39900 37.23200 25.77400
H  -5.12200 37.41000 24.22600
H  -0.02700 42.51500 21.77800
H  2.64000 41.59200 21.89000
H  -0.28300 40.87800 20.47800
H  -0.40100 39.78800 21.81800
H  1.11200 40.02900 20.84700
H  1.48200 43.55600 20.83800
H  3.07000 43.66200 21.12200
H  1.50300 45.67000 21.57200
H  2.58900 45.48500 22.93100
H  0.86100 44.69300 22.87800
H  6.85900 41.99200 25.30100
H  7.25800 43.38800 26.28300
H  6.24200 43.60900 24.99000
H  4.15200 43.53300 30.57700
H  4.53100 40.15900 33.38300
H  5.51300 41.37400 34.23300
H  6.26800 40.49100 33.04200

