158

Mg 30.07700 60.27400 40.37400
C  26.90200 59.13800 39.46500
C  31.36800 57.29000 39.05900
C  33.03300 61.69300 40.50600
C  28.54600 63.59600 40.91700
N  29.16200 58.43300 39.23600
C  27.87600 58.16900 39.11700
C  27.71500 56.88800 38.32700
C  29.00600 56.16100 38.58100
C  29.96700 57.37200 38.92300
C  29.09600 54.95600 39.53100
C  27.20400 57.24800 36.81500
C  25.90400 56.56000 36.36700
H  26.09100 55.58200 35.18800
N  32.01700 59.48600 39.97100
C  32.33400 58.25500 39.48500
C  33.73000 58.19800 39.48300
C  34.27300 59.47400 39.84400
C  33.05000 60.31300 40.17400
C  34.57600 57.00900 39.05700
C  35.74500 59.75300 39.90000
O  36.61500 58.90400 39.57600
C  36.30900 61.01800 40.37400
N  30.71400 62.46700 40.64200
C  32.01300 62.65900 40.74200
C  32.28800 64.18600 41.00400
C  30.86700 64.80700 41.21100
C  29.98400 63.58400 40.95900
C  33.26500 64.46400 42.18000
C  30.47200 65.96400 40.23700
C  30.04900 67.30300 40.96400
N  28.22800 61.19100 40.33500
C  27.76000 62.47000 40.64000
C  26.27300 62.38000 40.70500
C  25.93100 61.11500 40.17200
C  27.11100 60.42700 40.07300
C  25.40000 63.54900 41.15800
C  24.81000 60.32200 39.76500
O  23.62700 60.51800 39.83500
C  25.45500 58.96300 39.26100
C  24.81300 57.76600 39.84600
O  24.97500 57.44200 41.01100
O  23.92500 57.20000 39.00500
C  23.43300 55.85700 39.40800
H  31.92300 56.36700 38.88200
H  34.01200 62.16900 40.59100
H  28.14900 64.59800 41.09400
H  26.95500 56.24000 38.76500
H  29.45300 55.82000 37.64700
H  28.27300 54.24600 39.60700
H  29.20900 55.35900 40.53700
H  30.00300 54.42100 39.25000
H  28.02700 56.90400 36.18800
H  27.06400 58.32900 36.83200
H  25.19400 57.32400 36.05100
H  25.50100 55.95200 37.17600
H  35.07800 57.17400 38.10300
H  33.89500 56.17500 38.89200
H  35.27900 56.64000 39.80400
H  37.38600 60.97800 40.53500
H  35.89400 61.13200 41.37500
H  36.10400 61.84300 39.69300
H  32.66400 64.61500 40.07600
H  30.71900 65.03000 42.26800
H  33.51900 63.51700 42.65600
H  32.72800 65.00200 42.96100
H  34.14500 65.03000 41.87700
H  29.68100 65.59900 39.58100
H  31.25700 66.26600 39.54500
H  30.52900 67.33200 41.94200
H  28.96600 67.19100 41.02300
H  30.36800 68.23200 40.49100
H  24.78300 63.98600 40.37300
H  26.07600 64.30800 41.55100
H  24.64500 63.24300 41.88200
H  25.27200 59.02400 38.18800
H  22.40600 55.86100 39.77400
H  24.11400 55.36000 40.09900
H  23.38600 55.30300 38.47000
Mg 35.91000 49.92600 25.30500
C  35.54600 48.10100 28.28900
C  34.41800 52.62300 26.81600
C  35.82700 51.39800 22.23000
C  37.12600 46.92400 23.72200
N  35.03000 50.28800 27.30500
C  35.05000 49.43700 28.39600
C  34.76200 50.15100 29.72400
C  34.13000 51.52100 29.18700
C  34.47300 51.49200 27.64600
C  32.65400 51.94800 29.58500
C  35.99400 50.35700 30.62800
C  35.68100 50.60200 32.11500
H  34.24600 50.87100 32.60600
N  35.24100 51.81000 24.57900
C  34.72500 52.76200 25.42700
C  34.54300 54.01500 24.60200
C  34.89100 53.62200 23.26400
C  35.37200 52.19100 23.30100
C  34.02700 55.32300 25.18300
C  34.81800 54.43500 21.97200
O  35.17300 53.99000 20.89000
C  34.35800 55.81400 22.13500
N  36.24500 49.22800 23.23900
C  36.20000 50.03800 22.18000
C  36.75500 49.39100 20.86300
C  37.15000 47.91600 21.42400
C  36.86000 48.00700 22.87800
C  35.72200 49.23700 19.69700
C  38.70600 47.52300 21.09100
C  38.90300 46.10000 20.53400
N  36.34200 47.92300 25.82900
C  36.93700 46.88100 25.09800
C  37.01500 45.75700 26.02300
C  36.51100 46.18900 27.32700
C  36.08000 47.51300 27.15400
C  37.67800 44.44400 25.59000
C  36.29800 45.72500 28.72200
O  36.51800 44.63200 29.29400
C  35.78900 47.03200 29.43600
C  34.55500 46.73500 30.16100
O  33.41800 46.77600 29.64700
O  34.70600 46.46400 31.45500
C  33.53600 46.16400 32.28800
H  34.14400 53.54000 27.34300
H  36.02900 51.90400 21.28400
H  37.55600 46.07700 23.18300
H  34.01300 49.62200 30.31400
H  34.76000 52.34100 29.53200
H  32.06400 52.23100 28.71300
H  32.73000 52.80500 30.25400
H  32.21700 51.07000 30.06000
H  36.50300 51.23000 30.22000
H  36.61100 49.46600 30.51400
H  36.26800 51.41700 32.53900
H  36.05400 49.76500 32.70500
H  34.67600 56.13100 24.84800
H  33.88300 55.40500 26.26100
H  33.02600 55.53700 24.80900
H  33.44000 55.78400 22.72200
H  34.21200 56.31400 21.17700
H  35.03800 56.49100 22.65300
H  37.59000 49.97900 20.48400
H  36.45700 47.18500 21.00700
H  34.71100 49.22700 20.10400
H  35.98900 48.36800 19.09600
H  35.84800 50.12100 19.07100
H  39.32000 47.57200 21.99100
H  39.03000 48.13000 20.24600
H  39.63900 45.66700 21.21200
H  39.29500 46.10100 19.51700
H  37.96400 45.54800 20.49300
H  38.25900 44.63500 24.68800
H  36.82200 43.78200 25.45300
H  38.35700 44.07000 26.35600
H  36.57300 47.27800 30.15200
H  33.67900 45.20700 32.78800
H  32.61900 46.09000 31.70400
H  33.30500 47.02900 32.90900

