158

Mg 8.87500 4.33000 27.20000
C  10.01100 2.47600 29.91700
C  6.81200 6.11000 29.54700
C  7.79200 6.06100 24.68500
C  10.51900 2.15900 24.98700
N  8.52800 4.28300 29.47800
C  9.20900 3.52900 30.33600
C  8.89800 3.92500 31.73900
C  7.80800 4.99400 31.61500
C  7.69500 5.14800 30.14100
C  6.45700 4.60800 32.31600
C  10.24700 4.50000 32.40400
C  10.83000 3.82200 33.64600
H  11.28800 4.53100 34.95900
N  7.50400 5.80500 27.11300
C  6.76500 6.41100 28.14700
C  6.02200 7.45900 27.55100
C  6.36100 7.58800 26.16600
C  7.25900 6.50600 25.96500
C  5.09100 8.39400 28.33100
C  5.93100 8.53600 25.09900
O  6.42700 8.65100 24.00000
C  4.93400 9.60400 25.40900
N  9.08200 4.03900 25.10900
C  8.55500 5.02100 24.28600
C  8.68700 4.62000 22.85500
C  9.74900 3.44400 22.95100
C  9.85200 3.23000 24.42900
C  7.45900 4.35900 21.91000
C  11.12900 3.77100 22.30700
C  11.97200 4.75300 23.13200
N  10.09900 2.64400 27.36800
C  10.71300 1.87900 26.37400
C  11.48500 0.87800 27.06100
C  11.27700 1.05800 28.45400
C  10.38100 2.12700 28.60700
C  12.13800 -0.33300 26.55500
C  11.68300 0.52800 29.77400
O  12.49200 -0.30700 30.14700
C  10.85900 1.48800 30.77400
C  10.12800 0.74400 31.78300
O  9.01000 0.35900 31.59100
O  10.78300 0.52000 32.94100
C  10.00600 -0.00500 34.08600
H  6.22600 6.70100 30.25300
H  7.45100 6.59900 23.79900
H  11.04500 1.55300 24.24600
H  8.49500 3.08900 32.31000
H  8.03900 5.95100 32.08300
H  6.09600 5.53000 32.77300
H  6.52200 3.87800 33.12200
H  5.70200 4.16700 31.66500
H  10.14300 5.50900 32.80400
H  10.99700 4.52200 31.61300
H  11.73900 3.37800 33.24100
H  10.14200 3.02700 33.93500
H  5.12400 8.22600 29.40800
H  4.05200 8.39700 28.00000
H  5.31900 9.45700 28.25100
H  4.01100 9.09600 25.69000
H  4.59600 10.12800 24.51500
H  5.23300 10.32600 26.16800
H  9.21700 5.39000 22.29500
H  9.29500 2.52800 22.57500
H  6.50400 4.53800 22.40400
H  7.52100 3.32800 21.56300
H  7.43200 5.06200 21.07700
H  10.91300 4.04500 21.27400
H  11.67800 2.83600 22.19600
H  12.43300 5.43700 22.42000
H  12.82300 4.25200 23.59400
H  11.46000 5.44500 23.80000
H  13.20800 -0.41400 26.74600
H  11.98600 -0.48100 25.48600
H  11.63000 -1.14400 27.07600
H  11.63300 1.91100 31.41500
H  9.72500 -1.04800 33.93800
H  9.18700 0.71000 34.17000
H  10.67800 0.03900 34.94300
Mg 16.68700 52.45400 26.39700
C  18.41300 50.90200 29.12400
C  14.11700 53.19400 28.63300
C  14.84600 53.52600 23.75900
C  18.79200 50.69000 24.17300
N  16.28700 51.95700 28.60500
C  17.19100 51.49900 29.53500
C  16.75900 51.74800 30.92800
C  15.23700 52.13800 30.71600
C  15.18900 52.51200 29.19300
C  14.17700 51.10500 31.29000
C  17.65700 52.83300 31.58300
C  18.01300 52.59400 33.10900
H  17.05500 51.68600 33.91000
N  14.77000 53.47600 26.27700
C  13.91800 53.61900 27.27300
C  12.74700 54.41200 26.75200
C  12.96700 54.57400 25.31100
C  14.19300 53.81100 25.07200
C  11.65300 54.87800 27.62100
C  12.09400 55.25000 24.25600
O  12.52000 55.31800 23.08700
C  10.84400 55.91900 24.69600
N  16.81200 52.17700 24.29600
C  16.04100 52.86000 23.40300
C  16.51800 52.63600 21.93700
C  17.91800 52.03200 22.15200
C  17.78000 51.45100 23.61100
C  15.60200 51.76300 21.11300
C  19.15900 52.95600 21.93400
C  20.15900 52.55600 20.80600
N  18.34500 51.13300 26.54000
C  19.10000 50.54100 25.54600
C  20.19300 49.79000 26.20000
C  19.96900 49.89400 27.54800
C  18.80100 50.68400 27.71800
C  21.31600 49.02500 25.53500
C  20.46400 49.58100 28.83400
O  21.41400 48.96000 29.25200
C  19.48900 50.21600 29.91700
C  18.92300 49.03500 30.66700
O  18.26700 48.18500 30.10000
O  19.10500 49.17400 31.99100
C  18.80000 48.04900 32.89400
H  13.33100 53.36000 29.37200
H  14.41900 54.00100 22.87300
H  19.48800 50.29300 23.43100
H  16.81200 50.76300 31.39100
H  15.05200 53.09800 31.19800
H  14.58000 50.18100 31.70400
H  13.56100 50.81100 30.43900
H  13.74600 51.64300 32.13400
H  17.12700 53.78000 31.48700
H  18.60100 52.85900 31.03900
H  17.94000 53.63400 33.42600
H  19.02900 52.22500 33.24400
H  10.65400 54.58200 27.30100
H  11.73200 55.96400 27.67700
H  11.69300 54.52000 28.65000
H  11.04700 56.62700 25.49900
H  10.09400 55.18400 24.98900
H  10.38600 56.43900 23.85400
H  16.59600 53.66900 21.59800
H  18.00500 51.15500 21.51100
H  16.16000 51.26000 20.32300
H  14.83600 52.39100 20.65700
H  14.97000 51.02200 21.60100
H  19.85000 52.80600 22.76300
H  18.97600 54.02700 21.85600
H  20.16700 53.38000 20.09200
H  19.74200 51.67700 20.31500
H  21.15700 52.46900 21.23500
H  21.89100 48.38100 26.20000
H  22.03800 49.75500 25.16800
H  20.95500 48.29300 24.81400
H  20.08400 50.86700 30.55800
H  19.60000 47.95500 33.63000
H  18.89800 47.06900 32.42700
H  17.80700 48.08600 33.34300

