158

Mg 44.21900 2.93600 46.56700
C  43.36900 6.32300 45.74600
C  40.90300 2.13800 45.62900
C  45.00700 -0.25400 46.82700
C  47.45900 3.96900 46.96800
N  42.29100 4.09200 45.86700
C  42.23800 5.49600 45.58900
C  40.89900 5.87200 45.15400
C  40.01900 4.58400 45.37800
C  41.10700 3.51900 45.62100
C  38.90900 4.69900 46.40500
C  40.76500 6.49600 43.76200
C  40.10500 7.86600 43.55500
H  39.19500 7.84700 42.38800
N  43.13300 1.09100 46.16400
C  41.78800 0.99700 45.85000
C  41.42600 -0.41200 45.79500
C  42.63700 -1.12300 46.20800
C  43.67000 -0.10200 46.47000
C  40.05700 -0.90500 45.34500
C  42.76200 -2.62700 46.17600
O  41.85800 -3.30900 45.76100
C  44.05700 -3.36700 46.60000
N  45.97600 1.96300 46.72000
C  46.05600 0.65600 47.07100
C  47.42500 0.22700 47.55700
C  48.15500 1.61600 47.68300
C  47.15700 2.57900 47.04800
C  47.35500 -0.65800 48.82200
C  49.46000 1.68500 46.92700
C  50.56100 2.43600 47.58300
N  45.26500 4.80000 46.50300
C  46.64700 5.05600 46.60700
C  46.88400 6.46600 46.47500
C  45.62000 7.04400 46.14100
C  44.67600 5.97300 46.09000
C  48.23300 7.15500 46.83900
C  44.95900 8.24000 45.83700
O  45.34500 9.40100 45.83600
C  43.43100 7.87500 45.64000
C  42.67500 8.48900 46.70300
O  42.87800 8.36800 47.88100
O  41.64100 9.16800 46.19400
C  40.57700 9.51500 47.11700
H  39.89000 1.86000 45.33000
H  45.33100 -1.29200 46.93400
H  48.51000 4.24300 47.08100
H  40.51000 6.59300 45.87400
H  39.49300 4.32300 44.45900
H  38.94400 5.63300 46.96500
H  38.96000 3.90700 47.15100
H  37.94800 4.61800 45.89600
H  40.53200 5.68400 43.07500
H  41.81200 6.65400 43.50500
H  40.92200 8.55000 43.32700
H  39.49200 8.15400 44.40900
H  39.85900 -1.74400 46.01200
H  40.10300 -1.17700 44.29000
H  39.18300 -0.26100 45.44300
H  44.38400 -3.02100 47.58000
H  44.77100 -3.10700 45.81900
H  44.05700 -4.45100 46.48200
H  47.79200 -0.28900 46.67100
H  48.27800 1.83000 48.74500
H  47.33600 -1.65900 48.39000
H  46.39000 -0.53400 49.31200
H  48.19100 -0.35600 49.45400
H  49.22800 2.19200 45.99000
H  49.86500 0.69200 46.73200
H  51.44500 1.80200 47.64400
H  50.28800 2.84100 48.55700
H  50.90700 3.25100 46.94700
H  48.94500 6.51600 47.36000
H  48.04300 8.05500 47.42400
H  48.57000 7.54500 45.87800
H  43.01400 8.18000 44.68000
H  40.84900 10.39200 47.70600
H  40.24200 8.71600 47.77900
H  39.67100 9.72600 46.54900
Mg 35.19000 2.13100 28.86100
C  33.08500 3.19300 31.52500
C  37.80500 2.15600 31.23900
C  37.24200 1.49100 26.54200
C  32.53800 2.52300 26.67800
N  35.39800 2.63100 31.07300
C  34.39600 2.92500 31.92300
C  34.93900 3.00700 33.39700
C  36.45200 2.96500 33.26700
C  36.60900 2.65300 31.73500
C  37.13100 4.31100 33.65800
C  34.30000 1.82300 34.22700
C  34.09700 1.97500 35.75000
H  34.80100 3.04600 36.55500
N  37.20700 1.86400 28.85900
C  38.14900 1.84000 29.88300
C  39.42400 1.39600 29.42900
C  39.29600 1.30300 27.99900
C  37.85600 1.53500 27.75700
C  40.65500 1.04800 30.31200
C  40.38000 1.13000 26.98500
O  40.09400 1.19400 25.80200
C  41.82500 1.18700 27.48400
N  34.92000 2.07800 26.86900
C  35.93600 1.72300 26.12700
C  35.51100 1.44200 24.58700
C  33.94400 1.64500 24.67400
C  33.78900 2.14900 26.13500
C  36.22300 2.28200 23.54300
C  33.04200 0.41400 24.36000
C  32.91300 -0.81500 25.34200
N  33.18000 2.58600 29.00100
C  32.18400 2.72900 28.01200
C  30.94200 3.07400 28.59200
C  31.22700 3.28200 29.92700
C  32.61300 3.00500 30.15500
C  29.63800 3.22300 27.74500
C  30.68300 3.69900 31.25200
O  29.59600 4.04900 31.64900
C  31.82100 3.44900 32.31600
C  31.78500 4.57600 33.18400
O  32.36400 5.63800 32.95200
O  31.14000 4.18000 34.38900
C  31.29800 5.25100 35.35500
H  38.60400 2.15400 31.98400
H  37.72200 1.15300 25.62200
H  31.77900 2.60600 25.89700
H  34.47500 3.90800 33.79900
H  36.90200 2.24900 33.95400
H  38.00500 4.50600 33.03700
H  37.43100 4.29300 34.70500
H  36.28300 4.99500 33.61900
H  34.82900 0.87100 34.18600
H  33.27300 1.62400 33.92100
H  34.09500 0.96300 36.15500
H  33.07700 2.35700 35.76500
H  40.86700 0.00100 30.09600
H  40.49400 1.06700 31.39000
H  41.51600 1.68200 30.09600
H  42.50200 1.40900 26.66000
H  42.13000 0.33100 28.08700
H  41.82100 2.09900 28.08100
H  35.65900 0.38700 24.35800
H  33.58500 2.38600 23.95900
H  36.58100 1.62000 22.75500
H  37.07700 2.86500 23.88700
H  35.57700 3.02100 23.06800
H  33.45900 -0.01300 23.44800
H  32.07100 0.86800 24.16000
H  33.50000 -0.61200 26.23800
H  33.37300 -1.60400 24.74700
H  31.86500 -1.04700 25.52800
H  28.93500 2.45300 28.06400
H  29.88200 3.00900 26.70400
H  29.38200 4.25500 27.98400
H  31.39000 2.66800 32.94300
H  31.06600 6.26000 35.01300
H  32.30400 5.19900 35.77000
H  30.61900 5.14300 36.20100

