158

Mg 16.31100 52.47600 24.52700
C  17.83900 51.62200 27.53800
C  13.46700 53.41700 26.47000
C  14.63000 53.23300 21.70400
C  18.85300 50.95300 22.71300
N  15.75500 52.46600 26.79100
C  16.63500 52.23100 27.76500
C  15.98300 52.50400 29.20700
C  14.57300 52.97900 28.80900
C  14.49300 52.95000 27.24600
C  13.36100 52.17400 29.45600
C  16.80200 53.48700 30.06600
C  17.20000 52.99700 31.54400
H  16.35100 51.95600 32.23700
N  14.39300 53.23500 24.15900
C  13.34000 53.51600 25.06000
C  12.23200 54.10800 24.42000
C  12.52100 54.21100 22.98800
C  13.91700 53.50100 22.90200
C  11.06100 54.57700 25.24500
C  11.69400 54.75700 21.82900
O  12.10700 54.88000 20.68900
C  10.27600 55.28400 22.01700
N  16.63100 52.16100 22.49700
C  15.77800 52.54600 21.53300
C  16.32700 52.17800 20.19900
C  17.87100 51.69600 20.47300
C  17.80500 51.57600 21.96100
C  15.47900 50.99100 19.67100
C  19.03100 52.59900 20.00700
C  19.17700 52.99200 18.53000
N  18.00500 51.50400 24.95900
C  18.93900 50.91400 24.11500
C  20.04100 50.52600 24.89500
C  19.62600 50.70700 26.24400
C  18.40500 51.28400 26.24700
C  21.21300 49.92400 24.44100
C  20.02500 50.53400 27.61600
O  21.15600 50.20100 28.05500
C  18.89500 51.10000 28.48100
C  18.38800 50.01600 29.28900
O  17.64800 49.06800 29.04200
O  19.09700 50.01200 30.48600
C  18.95600 48.87300 31.38300
H  12.67500 53.82400 27.10300
H  14.02800 53.52100 20.84000
H  19.68700 50.54900 22.13500
H  15.95900 51.51200 29.65700
H  14.39100 54.01000 29.11500
H  12.56000 52.06300 28.72500
H  12.81900 52.74000 30.21400
H  13.78900 51.31800 29.97700
H  16.16500 54.36900 30.13600
H  17.72000 53.72300 29.52900
H  17.12500 53.86200 32.20400
H  18.20700 52.58100 31.53300
H  10.15000 54.55100 24.64700
H  11.19900 55.60300 25.58600
H  10.81200 53.98200 26.12400
H  10.29700 56.12900 22.70600
H  9.60200 54.45800 22.24600
H  9.93800 55.69000 21.06300
H  16.30300 53.03000 19.52000
H  17.98000 50.66400 20.14000
H  16.01800 50.04700 19.59000
H  15.23400 51.32700 18.66400
H  14.66200 50.67500 20.32000
H  19.82600 51.87900 20.20200
H  19.24900 53.39100 20.72300
H  19.44200 54.04700 18.47200
H  18.22100 52.82200 18.03600
H  19.93700 52.33900 18.10000
H  21.08200 49.54900 23.42600
H  21.36200 49.13400 25.17800
H  21.95800 50.71500 24.52000
H  19.21200 52.01600 28.97900
H  18.88800 47.92100 30.85500
H  18.13300 48.94900 32.09400
H  19.90600 48.80300 31.91200
Mg -10.28100 40.15200 41.91700
C  -9.21100 37.09900 40.63600
C  -7.35400 41.62000 40.54800
C  -11.63200 43.24200 42.29200
C  -13.30900 38.73200 42.82100
N  -8.49100 39.40000 40.69400
C  -8.31500 38.13200 40.34100
C  -7.05700 37.98100 39.47600
C  -6.37400 39.37000 39.64300
C  -7.44800 40.21300 40.39000
C  -4.94000 39.36700 40.03600
C  -7.45300 37.55400 38.01400
C  -6.75900 36.28900 37.46400
H  -5.46400 36.76500 36.66800
N  -9.57800 42.18500 41.47000
C  -8.32900 42.55100 41.03300
C  -8.21500 44.04800 41.18200
C  -9.38100 44.48800 41.73800
C  -10.34300 43.29400 41.75000
C  -7.01800 44.73300 40.70800
C  -9.71000 45.92700 42.09700
O  -8.88000 46.77200 41.76200
C  -11.04300 46.43600 42.72300
N  -12.27000 40.87100 42.25100
C  -12.55800 42.20000 42.53100
C  -14.01800 42.34200 42.93000
C  -14.39700 40.93800 43.50100
C  -13.28600 40.09900 42.80300
C  -14.31200 43.37500 43.97100
C  -15.88700 40.57800 43.10900
C  -16.72300 39.84300 44.25400
N  -11.03300 38.23500 41.98900
C  -12.27200 37.78600 42.30500
C  -12.45100 36.36100 42.05800
C  -11.25600 36.05100 41.35500
C  -10.47300 37.24100 41.35000
C  -13.66000 35.60200 42.22000
C  -10.48100 35.02000 40.65900
O  -10.70900 33.80200 40.57000
C  -9.12200 35.69800 40.21900
C  -8.01800 34.89600 40.91000
O  -7.47800 35.15000 41.99800
O  -7.69000 33.81200 40.14900
C  -7.03500 32.78600 40.88500
H  -6.39100 42.01500 40.21800
H  -12.13500 44.18900 42.49800
H  -14.24300 38.32900 43.21900
H  -6.23000 37.37000 39.83800
H  -6.31800 39.93600 38.71300
H  -4.63700 40.24000 40.61400
H  -4.28200 39.22300 39.17900
H  -4.86300 38.47200 40.65300
H  -7.12800 38.41800 37.43500
H  -8.52600 37.50200 37.82600
H  -7.37900 35.77700 36.72800
H  -6.51600 35.59900 38.27200
H  -6.69000 45.47100 41.44000
H  -7.42500 45.10400 39.76800
H  -6.21900 44.05100 40.41600
H  -11.80000 46.25900 41.95900
H  -10.96500 47.49700 42.96100
H  -11.24900 45.92500 43.66400
H  -14.59000 42.47600 42.01200
H  -14.19100 40.94000 44.57100
H  -14.51900 44.31100 43.45200
H  -13.41200 43.63000 44.53000
H  -15.21700 43.10300 44.51500
H  -15.94600 39.83500 42.31300
H  -16.45500 41.44300 42.76500
H  -16.77200 38.77300 44.05700
H  -17.72600 40.26500 44.31900
H  -16.25600 40.01100 45.22500
H  -14.49800 36.15300 41.79400
H  -13.69100 35.34700 43.27900
H  -13.63100 34.65200 41.68500
H  -9.11100 35.51600 39.14400
H  -7.20900 31.88700 40.29300
H  -7.41900 32.57000 41.88200
H  -5.98100 32.99100 41.07400

