158

Mg 45.10100 4.58200 45.34900
C  43.10800 7.39100 45.84700
C  42.43900 2.62700 45.11500
C  47.29400 2.14300 44.58500
C  47.77500 6.88300 45.06600
N  42.94100 4.98700 45.40100
C  42.33400 6.15000 45.69700
C  40.77000 5.95700 45.87600
C  40.65000 4.33300 45.78900
C  42.11200 3.94400 45.44300
C  40.08100 3.64000 47.06900
C  39.91700 6.67400 44.75300
C  40.64100 7.13200 43.50000
H  40.09800 6.79200 42.08900
N  44.86900 2.63900 44.79100
C  43.67900 2.03400 44.82400
C  43.87700 0.61700 44.36900
C  45.31700 0.46600 44.23700
C  45.90000 1.78600 44.53100
C  42.77000 -0.38400 44.28500
C  46.05300 -0.81100 43.87600
O  45.46900 -1.87800 44.00300
C  47.51000 -0.90000 43.63800
N  47.26300 4.56200 44.80100
C  47.92900 3.33200 44.75700
C  49.43100 3.52300 44.66400
C  49.61300 5.11000 44.57300
C  48.14700 5.55300 44.82700
C  50.24700 2.88000 45.75700
C  50.08500 5.58900 43.13900
C  49.20300 5.19800 41.91700
N  45.45100 6.68800 45.46000
C  46.55700 7.40100 45.32400
C  46.28700 8.81000 45.48000
C  44.92300 8.82200 45.85500
C  44.44900 7.55200 45.68600
C  47.25200 9.87400 45.47000
C  43.79500 9.67100 46.16000
O  43.71500 10.91200 46.28600
C  42.57000 8.69900 46.29600
C  42.00400 8.70600 47.67800
O  42.45800 8.10900 48.61100
O  40.77300 9.35800 47.67900
C  39.92400 9.26900 48.91600
H  41.61600 1.92000 45.23300
H  48.05900 1.36600 44.52300
H  48.66300 7.51600 45.11900
H  40.50100 6.37400 46.84600
H  40.02900 4.08600 44.92700
H  39.95700 4.30800 47.92200
H  40.82400 2.87600 47.30000
H  39.09500 3.21100 46.89100
H  39.57800 7.59400 45.22900
H  39.02000 6.13300 44.45400
H  41.60500 6.63500 43.38900
H  40.80800 8.20900 43.48500
H  42.91300 -0.97100 43.37800
H  41.84600 0.19400 44.24600
H  42.68000 -0.98000 45.19300
H  47.81700 -1.84100 43.18200
H  48.06900 -0.91300 44.57400
H  47.78700 -0.05000 43.01500
H  49.59500 3.06400 43.68900
H  50.31800 5.47800 45.31800
H  49.50900 2.58900 46.50400
H  51.04400 3.50100 46.16600
H  50.64800 1.98600 45.28000
H  51.02300 5.12900 42.82700
H  50.28800 6.65800 43.21000
H  49.28600 5.90100 41.08800
H  48.12500 5.13000 42.05900
H  49.51400 4.24200 41.49600
H  47.59000 10.05600 44.45000
H  48.11000 9.61200 46.08800
H  46.82900 10.79600 45.86800
H  41.75900 8.89600 45.59500
H  39.40900 8.31000 48.97200
H  39.14400 10.00100 48.70600
H  40.47600 9.56700 49.80800
Mg 5.76800 53.07300 41.35200
C  4.67200 49.82400 41.01900
C  8.65500 52.17700 39.45500
C  6.65200 56.30700 41.36200
C  2.70500 53.92400 42.76900
N  6.42100 51.25000 40.19400
C  5.83200 50.01600 40.30800
C  6.62200 48.94300 39.52100
C  8.05100 49.65600 39.42600
C  7.70800 51.14100 39.68600
C  9.14700 49.18700 40.47700
C  5.94300 48.55300 38.09700
C  5.54600 49.70000 37.17400
H  5.62300 49.44700 35.66300
N  7.50300 54.09000 40.66300
C  8.58800 53.54600 39.88100
C  9.46600 54.63500 39.65800
C  8.94100 55.78700 40.21500
C  7.66200 55.44200 40.81600
C  10.80300 54.41500 38.82100
C  9.64700 57.04600 40.13700
O  10.84800 57.14100 39.71200
C  9.10300 58.34100 40.69600
N  4.82300 54.91100 41.80800
C  5.40600 56.14100 41.89200
C  4.55500 57.25500 42.54800
C  3.23600 56.37500 42.81700
C  3.59500 54.97900 42.40000
C  5.18900 57.78900 43.81900
C  1.97500 56.91100 42.11200
C  1.24300 58.01900 42.80000
N  4.01600 52.12000 41.85700
C  2.92000 52.49600 42.58500
C  2.16300 51.32500 42.95200
C  2.86600 50.29500 42.45500
C  3.88000 50.82500 41.67300
C  0.87600 51.31600 43.73300
C  2.88900 48.88000 42.28300
O  2.04000 48.07100 42.63000
C  4.02600 48.52300 41.34600
C  3.47400 47.73600 40.26100
O  2.48900 48.07200 39.63000
O  4.09100 46.55100 40.14000
C  3.75600 45.63900 39.07100
H  9.61000 51.82300 39.06100
H  6.96400 57.34900 41.45300
H  1.82700 54.16700 43.37200
H  6.61200 48.06400 40.16600
H  8.53800 49.55200 38.45600
H  8.81500 48.55100 41.29700
H  9.46000 50.05900 41.05000
H  9.96900 48.77400 39.89200
H  5.07400 47.93000 38.30800
H  6.60700 47.81900 37.64000
H  5.98100 50.63800 37.52000
H  4.48400 49.89700 37.31500
H  10.61700 54.66600 37.77700
H  11.07400 53.37400 38.99700
H  11.61400 55.01700 39.23000
H  9.90800 59.07100 40.62000
H  8.86400 58.27300 41.75700
H  8.24100 58.61800 40.08900
H  4.26300 57.98600 41.79400
H  2.97400 56.44000 43.87300
H  4.54100 57.47200 44.63600
H  5.30100 58.87100 43.89500
H  6.19300 57.39400 43.97500
H  1.19100 56.18000 41.91400
H  2.36200 57.20700 41.13700
H  1.78800 58.39600 43.66500
H  0.25700 57.64300 43.07400
H  1.17600 58.82600 42.07100
H  0.17500 51.90400 43.14000
H  1.02300 51.78200 44.70700
H  0.52800 50.28600 43.80900
H  4.52500 47.85100 42.04400
H  4.54100 44.88400 39.03600
H  3.71000 46.08400 38.07700
H  2.91300 45.01600 39.37000

