158

Mg 47.75300 15.79400 28.68300
C  45.60900 15.44200 31.53100
C  49.79000 17.47700 30.58400
C  49.63100 16.18300 25.98700
C  45.23100 14.41000 26.81100
N  47.61600 16.42900 30.81300
C  46.81200 16.08600 31.80200
C  47.28900 16.69800 33.11100
C  48.60400 17.41400 32.69800
C  48.64000 17.07000 31.27700
C  48.73500 18.82400 33.06800
C  47.42500 15.60000 34.27400
C  47.10500 16.09200 35.63300
H  46.82000 17.62800 35.87000
N  49.48400 16.64300 28.34300
C  50.21000 17.33400 29.25600
C  51.47700 17.81500 28.63400
C  51.45700 17.41400 27.24400
C  50.13500 16.74400 27.14000
C  52.44500 18.70900 29.42100
C  52.54800 17.53000 26.12600
O  52.44700 17.00700 25.03400
C  53.88100 18.23600 26.50800
N  47.36800 15.48300 26.60500
C  48.35200 15.60000 25.69200
C  47.96800 14.96700 24.29300
C  46.54100 14.39300 24.61100
C  46.31500 14.80200 26.06900
C  47.96100 16.05200 23.11800
C  46.13400 12.93200 24.21400
C  46.42500 11.87700 25.34800
N  45.73800 15.05700 29.05300
C  44.85900 14.46500 28.16100
C  43.70100 13.97300 28.80700
C  43.94900 14.39300 30.17600
C  45.22500 14.99900 30.22400
C  42.46400 13.23600 28.26200
C  43.41800 14.38400 31.65300
O  42.39400 13.95400 32.10800
C  44.52400 15.05100 32.52200
C  43.91400 16.17300 33.24100
O  44.06200 17.35600 32.97400
O  43.30200 15.65200 34.40100
C  42.74300 16.64800 35.30200
H  50.61300 17.83800 31.20500
H  50.23900 16.29400 25.08700
H  44.47900 13.83300 26.26700
H  46.48500 17.38700 33.37000
H  49.50600 16.91700 33.05300
H  48.94500 19.48300 32.22600
H  49.49300 18.79900 33.85200
H  47.81300 19.17700 33.53000
H  48.46200 15.27200 34.20900
H  46.69900 14.83500 34.00000
H  47.81500 15.83500 36.41900
H  46.18300 15.65000 36.01200
H  53.08200 19.33600 28.79800
H  53.15600 18.03300 29.89700
H  51.92500 19.33000 30.15100
H  54.51200 18.06400 25.63600
H  54.36500 17.76400 27.36200
H  53.77900 19.30200 26.71000
H  48.67600 14.17800 24.03600
H  45.81000 15.00700 24.08500
H  47.06100 15.86200 22.53200
H  48.75500 15.94700 22.37900
H  47.86000 17.05700 23.52800
H  46.69900 12.65700 23.32300
H  45.07000 12.95300 23.97800
H  47.01000 12.26600 26.18200
H  47.06200 11.13700 24.86400
H  45.49300 11.44900 25.71600
H  42.75700 12.69900 27.35900
H  41.64300 13.91100 28.02100
H  42.10800 12.50700 28.98900
H  44.76000 14.32100 33.29700
H  41.67600 16.73500 35.09600
H  43.34700 17.55100 35.20900
H  42.83400 16.37600 36.35300
Mg 36.38900 48.76000 25.03100
C  35.81100 46.90400 28.08700
C  35.33000 51.60000 26.72900
C  36.05900 50.17300 22.13500
C  36.81900 45.58900 23.44800
N  35.61200 49.16700 27.17400
C  35.55300 48.28700 28.24900
C  35.42300 49.10100 29.58100
C  34.98100 50.52600 29.01600
C  35.38100 50.42500 27.54500
C  33.45200 50.73100 29.22300
C  36.67600 49.11500 30.44300
C  36.33600 48.93400 31.93800
H  34.97400 49.14000 32.56700
N  35.89900 50.73900 24.51400
C  35.51200 51.76700 25.32100
C  35.33700 52.98500 24.55300
C  35.60900 52.60200 23.20900
C  35.88200 51.13300 23.22200
C  34.92900 54.34700 25.09400
C  35.50200 53.50600 21.90200
O  35.86100 53.06400 20.80600
C  35.08700 54.92000 21.90800
N  36.31300 47.97300 23.08600
C  36.31700 48.81800 22.05100
C  36.53400 48.08500 20.72900
C  37.13600 46.69200 21.27600
C  36.72300 46.73800 22.71300
C  35.34400 48.01300 19.80300
C  38.64300 46.39300 21.12400
C  39.17200 46.38900 19.69700
N  36.25400 46.56800 25.58500
C  36.59200 45.46400 24.83300
C  36.78600 44.31700 25.70700
C  36.44200 44.84000 26.96400
C  36.09000 46.21800 26.82200
C  37.39900 43.03500 25.26700
C  36.23600 44.44300 28.41200
O  36.31600 43.34500 28.92700
C  35.95300 45.82600 29.18200
C  34.70100 45.70000 30.00000
O  33.64100 46.25300 29.80600
O  35.03900 44.99300 31.12400
C  33.95800 44.99300 32.07500
H  35.08100 52.50800 27.28100
H  35.97600 50.69600 21.18000
H  37.01200 44.64000 22.94300
H  34.67800 48.44900 30.03700
H  35.43500 51.35800 29.55400
H  33.07300 50.98900 28.23400
H  33.28000 51.61500 29.83700
H  32.88900 49.90200 29.65400
H  37.28200 50.01800 30.36400
H  37.39600 48.36900 30.10600
H  37.12300 49.47100 32.46700
H  36.55000 47.86700 32.00600
H  35.35400 54.51600 26.08300
H  33.84700 54.46400 25.02600
H  35.37900 55.05700 24.40100
H  34.08900 54.99900 22.33800
H  34.87900 55.21000 20.87800
H  35.72500 55.56800 22.51000
H  37.34600 48.60400 20.22100
H  36.47000 45.95700 20.82500
H  35.53600 48.62900 18.92400
H  34.49500 48.56500 20.20400
H  35.00300 47.01000 19.54500
H  38.85500 45.40200 21.52600
H  39.26000 47.04100 21.74700
H  38.33400 46.37100 19.00000
H  39.73900 45.48800 19.46400
H  39.84800 47.20100 19.43000
H  38.16700 42.82800 26.01300
H  37.89400 42.98300 24.29700
H  36.65500 42.27100 25.49200
H  36.79300 46.12600 29.80800
H  32.93200 45.14300 31.73900
H  34.11300 45.52800 33.01200
H  33.84600 43.95200 32.37500

