158

Mg 16.47100 -2.60400 28.36900
C  15.58100 -0.77500 31.31000
C  18.76800 -4.32900 30.32800
C  17.96500 -3.67300 25.55300
C  14.52900 -0.46400 26.51500
N  17.21500 -2.38400 30.55000
C  16.56400 -1.74600 31.56300
C  17.21700 -2.12000 32.94700
C  18.29800 -3.17200 32.55900
C  18.06400 -3.35400 31.01400
C  19.77500 -2.62300 33.02900
C  16.06200 -2.68500 33.89200
C  15.84100 -1.92100 35.28800
H  17.05100 -1.18600 35.90400
N  17.97800 -3.95900 27.99900
C  18.72900 -4.61900 28.93700
C  19.60200 -5.52500 28.23000
C  19.41900 -5.37000 26.82100
C  18.45100 -4.30300 26.70500
C  20.53900 -6.55400 28.95600
C  20.12000 -5.98900 25.66300
O  19.69400 -5.89600 24.51300
C  21.19900 -6.96300 25.83800
N  16.16400 -2.20700 26.27800
C  16.99800 -2.69500 25.38100
C  16.81200 -2.00100 23.99000
C  15.58900 -1.14100 24.20200
C  15.37200 -1.27200 25.75600
C  18.09000 -1.30800 23.55900
C  14.35100 -1.41600 23.28300
C  14.11700 -0.36800 22.25000
N  15.21100 -1.08000 28.82700
C  14.43200 -0.30400 27.91200
C  13.67600 0.64600 28.61900
C  14.09800 0.48200 29.95100
C  14.99900 -0.55000 30.04700
C  12.63300 1.51400 28.11900
C  13.90200 0.97600 31.33600
O  13.25900 1.91800 31.70300
C  14.90600 0.15900 32.30100
C  15.79600 1.12100 33.00100
O  17.01100 1.25700 32.85000
O  15.05800 1.92000 33.81400
C  15.76600 2.97800 34.49100
H  19.44900 -4.82700 31.02100
H  18.59200 -3.73500 24.66100
H  14.03000 0.19900 25.80500
H  17.60400 -1.28600 33.53200
H  18.06000 -4.07900 33.11400
H  19.84100 -1.74700 33.67400
H  20.25900 -2.36900 32.08500
H  20.28700 -3.47100 33.48400
H  16.15900 -3.73700 34.16000
H  15.10300 -2.60300 33.38100
H  15.59400 -2.72900 35.97700
H  15.07100 -1.15200 35.35300
H  21.54100 -6.24800 28.65700
H  20.34700 -7.54700 28.54800
H  20.46100 -6.56600 30.04300
H  20.85900 -7.80400 26.44200
H  22.05700 -6.50400 26.32900
H  21.46500 -7.30000 24.83600
H  16.46700 -2.68900 23.21800
H  15.98200 -0.13000 24.09800
H  18.15300 -1.06600 22.49800
H  18.94500 -1.90800 23.87100
H  18.21800 -0.36600 24.09300
H  13.44700 -1.54500 23.87800
H  14.37400 -2.29800 22.64400
H  14.06100 -0.71900 21.22000
H  14.87100 0.41900 22.23600
H  13.18300 0.17200 22.40000
H  12.39300 1.32700 27.07300
H  12.94300 2.55100 28.24900
H  11.78700 1.32500 28.78000
H  14.36300 -0.50600 32.97400
H  16.00600 3.80800 33.82700
H  16.64600 2.58200 34.99800
H  15.12500 3.33100 35.29800
Mg -4.89100 24.97700 25.51900
C  -3.30100 26.00900 28.41500
C  -7.11000 23.16100 27.37800
C  -5.95700 23.56100 22.66100
C  -2.24200 26.48600 23.59600
N  -5.06600 24.57200 27.71000
C  -4.44500 25.26400 28.72700
C  -5.07900 24.96100 30.10600
C  -6.23700 23.92200 29.73700
C  -6.19100 23.89400 28.17300
C  -5.98400 22.48400 30.40100
C  -5.68600 26.27500 30.72600
C  -5.32200 26.66400 32.10300
H  -4.89600 25.51300 33.09300
N  -6.32200 23.53500 25.07600
C  -7.16800 22.92400 25.99900
C  -8.14300 22.12200 25.31800
C  -7.82800 22.17700 23.95500
C  -6.66700 23.16400 23.82000
C  -9.22300 21.34200 26.02600
C  -8.50500 21.45000 22.81600
O  -8.05100 21.57200 21.66300
C  -9.70800 20.65400 23.03700
N  -4.25100 25.10400 23.44900
C  -4.84200 24.40700 22.46100
C  -4.36700 24.77000 21.03700
C  -3.21700 25.80100 21.35000
C  -3.25500 25.83900 22.87300
C  -3.90500 23.51500 20.18400
C  -3.37000 27.22300 20.74800
C  -2.34800 27.66800 19.74200
N  -3.15700 26.05800 25.87600
C  -2.24400 26.67100 25.00300
C  -1.31100 27.43500 25.76600
C  -1.68500 27.20200 27.09500
C  -2.74600 26.28600 27.11300
C  -0.36100 28.50500 25.16000
C  -1.38300 27.55500 28.45500
O  -0.59900 28.37000 28.84400
C  -2.37300 26.74000 29.36700
C  -1.58200 25.92400 30.29000
O  -1.08400 24.84400 29.95400
O  -1.29100 26.61500 31.39100
C  -0.46600 25.99400 32.37800
H  -7.91900 22.66700 27.91900
H  -6.20700 23.17700 21.67000
H  -1.31800 26.89800 23.18500
H  -4.38200 24.54000 30.83100
H  -7.13400 24.39500 30.13600
H  -6.06000 21.65500 29.69700
H  -6.66000 22.39800 31.25200
H  -4.96800 22.35900 30.77500
H  -6.77000 26.15900 30.70800
H  -5.50800 27.10400 30.04100
H  -6.27000 26.97600 32.53900
H  -4.66100 27.52900 32.16500
H  -10.22600 21.61800 25.70100
H  -9.39600 21.54900 27.08200
H  -9.02400 20.28800 25.83300
H  -9.34400 19.85100 23.67800
H  -10.12900 20.32600 22.08700
H  -10.57300 21.17300 23.45200
H  -5.27400 25.24300 20.66000
H  -2.24900 25.37500 21.08500
H  -4.37600 23.64900 19.21000
H  -4.19400 22.59800 20.69700
H  -2.81700 23.52200 20.11700
H  -3.36700 27.96600 21.54500
H  -4.28000 27.19800 20.14900
H  -2.80200 27.84600 18.76700
H  -1.58100 26.91200 19.57700
H  -1.88900 28.58100 20.12200
H  -0.14300 29.20500 25.96700
H  -0.78500 28.93300 24.25200
H  0.61800 28.11500 24.88200
H  -3.01900 27.40800 29.93700
H  0.59900 26.04900 32.14800
H  -0.83300 24.97900 32.52800
H  -0.66300 26.51200 33.31600

