158

Mg 17.03800 -0.50800 27.99200
C  16.00000 1.59200 30.63900
C  19.13600 -2.06200 30.18600
C  18.63000 -2.04500 25.35100
C  15.42100 1.66000 25.72700
N  17.56600 -0.14900 30.05500
C  16.92000 0.55500 31.02400
C  17.33600 0.19900 32.41300
C  18.54000 -0.78600 32.25100
C  18.39500 -1.02600 30.71800
C  19.95500 -0.10000 32.43700
C  16.20500 -0.31100 33.39000
C  16.73200 -0.70400 34.78100
H  17.88500 0.05200 35.51800
N  18.52600 -2.07400 27.86200
C  19.32400 -2.55100 28.87300
C  20.17600 -3.60100 28.38400
C  19.96600 -3.61600 26.99300
C  18.99800 -2.57900 26.65700
C  21.21300 -4.29200 29.31400
C  20.61900 -4.44400 25.87600
O  20.30900 -4.31200 24.68800
C  21.44200 -5.58200 26.17100
N  16.87500 -0.29400 25.81300
C  17.75000 -0.98100 25.03900
C  17.63900 -0.38300 23.64600
C  16.46600 0.63600 23.69300
C  16.24700 0.71500 25.16300
C  18.98100 0.18900 23.16400
C  15.22700 0.30300 22.87000
C  14.01100 -0.31300 23.48300
N  15.83100 1.16200 28.10000
C  15.22800 1.92800 27.14100
C  14.51900 3.02200 27.73400
C  14.80000 2.90300 29.09200
C  15.63400 1.81200 29.28200
C  13.65500 3.96300 27.14300
C  14.42900 3.49000 30.35000
O  13.66600 4.38600 30.66400
C  15.21100 2.61400 31.44600
C  15.97700 3.45900 32.35200
O  17.17500 3.64300 32.31100
O  15.16800 3.97000 33.31600
C  15.87600 4.41600 34.50900
H  19.57700 -2.65800 30.98800
H  19.21400 -2.33800 24.47600
H  14.98100 2.42500 25.08400
H  17.73100 1.09600 32.89000
H  18.52900 -1.60800 32.96600
H  20.61100 -0.33300 31.59800
H  20.55700 -0.27600 33.32800
H  19.77300 0.97400 32.42900
H  15.98700 -1.27600 32.93200
H  15.32900 0.33800 33.42400
H  17.04900 -1.74300 34.68900
H  15.90100 -0.62400 35.48200
H  21.23400 -5.37000 29.15300
H  20.83200 -4.28400 30.33600
H  22.23500 -3.93500 29.19500
H  21.14400 -6.15500 27.04800
H  22.41100 -5.18100 26.47000
H  21.51400 -6.20500 25.27900
H  17.40000 -1.24600 23.02400
H  16.79200 1.61000 23.32900
H  19.08100 1.26900 23.27100
H  19.10200 -0.10500 22.12200
H  19.83500 -0.11700 23.76800
H  15.51600 -0.34000 22.03800
H  14.92600 1.26000 22.44300
H  14.10500 -0.82400 24.44100
H  13.54700 -1.08500 22.86900
H  13.29700 0.48400 23.69300
H  13.70200 4.97400 27.54500
H  12.67200 3.50500 27.25100
H  13.88000 4.11500 26.08700
H  14.46800 2.00800 31.96600
H  16.69600 5.09100 34.26400
H  16.33100 3.52900 34.94900
H  15.22800 4.91300 35.23100
Mg 30.01100 57.57900 40.98000
C  27.29300 55.70900 39.78400
C  32.11500 55.44500 39.51100
C  32.40900 59.76000 41.67900
C  27.64200 59.97000 42.21200
N  29.73500 55.91700 39.67000
C  28.52400 55.18100 39.43100
C  28.87000 54.04200 38.54100
C  30.32200 53.72000 39.03100
C  30.74100 55.10600 39.45500
C  30.53100 52.65300 40.14700
C  28.62500 54.11200 36.96000
C  27.24900 53.59100 36.48000
H  26.31600 54.63100 35.80500
N  32.01300 57.62500 40.60500
C  32.69900 56.63600 39.93700
C  34.10100 56.92500 39.99600
C  34.26000 58.17900 40.67200
C  32.85800 58.54500 41.03400
C  35.14300 55.99500 39.28800
C  35.52400 58.89400 40.90700
O  36.52900 58.31900 40.54200
C  35.65600 60.07900 41.64100
N  29.97100 59.70800 41.67200
C  31.19700 60.29400 41.88800
C  30.96400 61.76000 42.43200
C  29.45900 61.72600 42.74200
C  28.96100 60.46500 42.18800
C  31.91400 62.03800 43.58300
C  28.67900 63.10100 42.40800
C  27.75600 63.64200 43.42800
N  27.90800 57.91600 41.02800
C  27.09900 58.88000 41.60400
C  25.72400 58.49800 41.32800
C  25.76700 57.25800 40.65700
C  27.12200 56.97300 40.44200
C  24.54800 59.24800 41.90800
C  24.93200 56.19500 40.06400
O  23.72000 56.11500 40.02500
C  25.92300 55.16000 39.44000
C  25.64600 53.88000 40.18900
O  26.19900 53.53000 41.21800
O  24.73800 53.13900 39.41500
C  24.24600 51.98300 40.07300
H  32.76800 54.57200 39.45200
H  33.17900 60.44500 42.04000
H  26.98900 60.70400 42.68900
H  28.18300 53.24200 38.81800
H  30.88100 53.48600 38.12500
H  29.62000 52.06700 40.26800
H  30.70500 53.29400 41.01100
H  31.40200 52.08400 39.82200
H  29.36500 53.55400 36.38800
H  28.76700 55.15200 36.66600
H  26.65300 53.33600 37.35600
H  27.39500 52.69100 35.88200
H  34.77700 55.04700 38.89300
H  36.01300 55.77900 39.90700
H  35.43200 56.50600 38.37000
H  35.06200 60.77700 41.05000
H  36.72300 60.29900 41.61800
H  35.27900 59.96800 42.65800
H  31.20100 62.41300 41.59200
H  29.40200 61.58700 43.82200
H  32.66100 62.72700 43.18700
H  32.48000 61.18400 43.95400
H  31.42800 62.53700 44.42100
H  28.04400 62.87700 41.55100
H  29.39400 63.84100 42.04900
H  28.27200 64.45100 43.94600
H  27.58400 62.95000 44.25200
H  26.85600 63.88500 42.86300
H  24.89900 60.02300 42.58800
H  23.79000 58.54600 42.25700
H  24.06400 59.69600 41.04000
H  25.68300 54.99700 38.39000
H  23.95700 52.26000 41.08600
H  25.01900 51.22300 40.18500
H  23.33700 51.70000 39.54300

