158

Mg 1.65400 -2.89300 44.84800
C  4.96100 -1.93300 44.01800
C  0.64800 0.04400 43.09300
C  -1.41200 -3.98400 45.01400
C  2.87700 -5.92400 45.92300
N  2.77100 -1.13000 43.68600
C  4.13600 -0.99500 43.52300
C  4.41100 0.38800 42.79800
C  3.02200 1.11100 42.87000
C  2.05900 -0.04800 43.18600
C  2.89200 2.32100 43.77800
C  4.84000 0.14300 41.32900
C  6.06800 0.81000 40.90200
H  6.58000 0.48400 39.49600
N  -0.16100 -2.09400 44.24400
C  -0.36000 -0.92000 43.57200
C  -1.72800 -0.72500 43.42000
C  -2.39900 -1.96600 43.84900
C  -1.34500 -2.75800 44.41800
C  -2.36500 0.52800 42.74500
C  -3.93700 -2.22400 43.89100
O  -4.75100 -1.34100 43.61200
C  -4.56200 -3.46500 44.38600
N  0.82500 -4.86100 45.38200
C  -0.47200 -4.96300 45.44800
C  -0.94700 -6.29200 46.16700
C  0.49000 -6.98500 46.24700
C  1.46800 -5.90600 45.84500
C  -1.66000 -6.15300 47.52400
C  0.66600 -8.26100 45.40800
C  0.00600 -9.46800 45.98300
N  3.53000 -3.80000 45.00700
C  3.88300 -5.01600 45.54100
C  5.37100 -5.23500 45.61300
C  5.83700 -4.00300 45.00700
C  4.67300 -3.19000 44.64700
C  6.20100 -6.37500 46.19100
C  6.99700 -3.17500 44.70600
O  8.22400 -3.43600 44.70200
C  6.45900 -1.84500 44.04400
C  6.97800 -0.71900 45.02400
O  6.46200 -0.38900 46.10400
O  7.95300 -0.08900 44.30300
C  8.20000 1.21800 44.85900
H  0.25900 0.94000 42.60500
H  -2.40700 -4.41200 45.15500
H  3.36700 -6.79000 46.37300
H  5.25700 0.83200 43.32400
H  2.66400 1.46800 41.90400
H  3.73300 2.29600 44.47100
H  1.95500 2.31100 44.33500
H  2.90800 3.24500 43.20000
H  4.00600 0.47100 40.70800
H  4.97700 -0.90300 41.05800
H  6.90300 0.51400 41.53800
H  5.84600 1.87400 40.98400
H  -2.01400 0.80000 41.74900
H  -2.09400 1.42700 43.29900
H  -3.45300 0.57300 42.70800
H  -4.06400 -4.38200 44.07200
H  -5.49900 -3.64000 43.85900
H  -4.75800 -3.57800 45.45200
H  -1.61000 -6.88100 45.53300
H  0.67400 -7.28100 47.28000
H  -1.03200 -6.60500 48.29200
H  -2.64100 -6.62600 47.54300
H  -1.80400 -5.09600 47.75000
H  1.71100 -8.57300 45.39400
H  0.49600 -8.06100 44.35000
H  -0.86800 -9.27600 46.60400
H  0.73800 -10.00900 46.58300
H  -0.39700 -10.02000 45.13300
H  6.27000 -7.29100 45.60500
H  5.71400 -6.65900 47.12300
H  7.23800 -6.04200 46.23200
H  6.91100 -1.61800 43.07800
H  7.20700 1.64600 44.99000
H  8.73200 1.94300 44.24200
H  8.73800 1.11600 45.80200
Mg 24.46400 0.69500 29.45200
C  26.53200 1.03800 32.08600
C  21.84700 1.19200 31.53400
C  22.30500 0.18800 26.79100
C  27.15200 0.42600 27.26300
N  24.28100 1.22200 31.54800
C  25.31500 1.36400 32.48900
C  24.80700 1.68800 33.88300
C  23.25300 1.51500 33.66200
C  23.11300 1.38600 32.14100
C  22.66000 0.33100 34.38400
C  25.35700 2.97400 34.52800
C  26.14100 2.74900 35.83400
H  25.98700 3.60400 37.11500
N  22.44400 0.53700 29.23500
C  21.54500 0.76100 30.26000
C  20.21600 0.38200 29.81900
C  20.31900 0.11800 28.45300
C  21.71400 0.27900 28.08600
C  19.01200 0.48600 30.77800
C  19.25000 -0.27100 27.49000
O  19.46000 -0.68600 26.38700
C  17.82300 -0.15900 27.91500
N  24.71000 0.36500 27.35400
C  23.65200 0.36700 26.46700
C  24.23300 0.53800 24.97700
C  25.82500 0.56500 25.20600
C  25.90500 0.37800 26.68000
C  23.68700 -0.56000 23.99400
C  26.46500 1.96300 24.75300
C  25.67800 3.30000 25.06300
N  26.41400 0.64100 29.56500
C  27.41300 0.51100 28.65000
C  28.69900 0.42100 29.23400
C  28.42700 0.52600 30.59300
C  27.02600 0.77200 30.77800
C  29.97700 0.09100 28.33800
C  29.08400 0.47100 31.90500
O  30.17400 0.36200 32.29600
C  27.88100 0.78800 32.88300
C  27.70600 -0.29300 33.85300
O  27.11700 -1.35100 33.67700
O  28.26600 0.19500 35.02300
C  28.18000 -0.70600 36.19800
H  21.06600 1.47800 32.24200
H  21.66300 0.23100 25.90800
H  28.00300 0.47600 26.58100
H  25.24700 0.83100 34.39300
H  22.81000 2.40800 34.10400
H  22.07300 -0.23700 33.66200
H  21.89900 0.69600 35.07300
H  23.36000 -0.40300 34.78300
H  24.52000 3.66300 34.63800
H  26.01700 3.41400 33.78000
H  27.17000 2.88300 35.50200
H  26.07700 1.70100 36.12700
H  18.14000 -0.11000 30.50800
H  18.79200 1.55300 30.82700
H  19.31000 0.12700 31.76300
H  17.25400 -0.15800 26.98500
H  17.50500 0.84400 28.19900
H  17.65600 -1.00400 28.58300
H  23.91700 1.47200 24.51300
H  26.45100 -0.17800 24.71200
H  23.05900 -1.30600 24.48000
H  24.51800 -1.09800 23.53700
H  23.22700 0.00200 23.18000
H  26.47800 1.93400 23.66300
H  27.53300 2.04100 24.95600
H  26.45000 4.07000 25.06500
H  25.08500 3.41100 25.97100
H  25.12100 3.54100 24.15800
H  30.83100 0.19000 29.00900
H  30.04400 0.79100 27.50500
H  29.87300 -0.94000 28.00100
H  28.21200 1.68600 33.40500
H  27.33500 -0.29000 36.74800
H  29.06900 -0.79500 36.82400
H  27.95900 -1.70900 35.83400

