158

Mg 17.07800 -1.24600 27.04500
C  16.33300 0.84400 29.80600
C  18.75300 -3.31600 29.31200
C  18.71100 -2.73400 24.41200
C  15.91000 1.09200 24.99100
N  17.45100 -1.22200 29.36700
C  16.94300 -0.34300 30.28100
C  17.34900 -0.72300 31.74900
C  18.27200 -1.97000 31.47500
C  18.17000 -2.21700 29.95000
C  19.70100 -1.79100 31.92800
C  16.11400 -0.92600 32.72400
C  16.09400 -0.09600 34.02800
H  17.35800 0.33000 34.79200
N  18.35600 -2.98900 26.87500
C  18.93200 -3.65300 27.92100
C  19.79200 -4.71000 27.39700
C  19.73900 -4.62000 25.99100
C  18.98400 -3.40100 25.70200
C  20.61700 -5.62400 28.23600
C  20.41800 -5.47100 24.86500
O  20.31900 -5.34500 23.65500
C  21.20700 -6.65100 25.28200
N  17.40600 -0.72100 25.05900
C  17.92400 -1.61200 24.16900
C  17.83900 -1.05300 22.72200
C  16.89000 0.09600 22.94900
C  16.65000 0.18800 24.39000
C  19.21600 -0.70600 22.15800
C  15.56900 0.11200 22.04500
C  15.26000 1.29600 21.14200
N  16.21700 0.52700 27.27500
C  15.71700 1.34100 26.36500
C  15.01800 2.43200 27.03200
C  15.22200 2.34500 28.35300
C  15.95500 1.19200 28.46000
C  14.13700 3.36200 26.36900
C  15.00400 2.99600 29.67900
O  14.57200 4.10000 29.98700
C  15.68200 1.92500 30.62300
C  16.54400 2.63300 31.55200
O  17.79700 2.77300 31.52900
O  15.65600 3.13700 32.51000
C  16.17900 3.95800 33.52100
H  19.33700 -3.98900 29.94200
H  19.07800 -3.26300 23.52900
H  15.43300 1.85800 24.37700
H  17.88100 0.17300 32.06800
H  17.90200 -2.92100 31.85900
H  20.20200 -1.40000 31.04200
H  20.17200 -2.74600 32.16200
H  19.70700 -1.02500 32.70500
H  15.96700 -1.98300 32.94900
H  15.25200 -0.55600 32.16900
H  15.76500 -0.89800 34.68900
H  15.36100 0.70600 34.11000
H  20.41400 -5.74200 29.30000
H  21.65100 -5.29800 28.12000
H  20.54800 -6.65400 27.88500
H  22.14700 -6.44500 25.79500
H  21.52800 -7.15700 24.37200
H  20.57900 -7.31000 25.88100
H  17.36100 -1.76700 22.05100
H  17.49800 0.96100 22.68400
H  19.71900 -0.10600 22.91700
H  19.27400 -0.11900 21.24200
H  19.80600 -1.61500 22.04600
H  14.65400 0.08000 22.63600
H  15.55900 -0.80500 21.45500
H  14.30300 1.72100 21.44300
H  15.40500 0.95400 20.11700
H  15.99300 2.06700 21.37800
H  14.61400 4.26100 25.98000
H  13.36600 3.70100 27.06200
H  13.58500 2.90600 25.54700
H  14.98400 1.35700 31.23700
H  17.14700 3.62700 33.89400
H  15.39300 4.08700 34.26600
H  16.24200 4.96800 33.11400
Mg 29.85200 58.40600 42.05300
C  27.05500 56.82100 40.47300
C  31.80500 56.01800 40.65400
C  32.49100 60.39300 42.40000
C  27.66500 61.11900 42.72500
N  29.46100 56.76500 40.39000
C  28.25500 56.21800 39.98100
C  28.44900 54.95400 39.16000
C  30.01800 54.58100 39.42000
C  30.48000 55.84700 40.20800
C  30.21900 53.26800 40.31200
C  28.23000 55.08000 37.60900
C  27.41000 53.97400 37.01800
H  26.51100 54.37400 35.83800
N  31.93200 58.09500 41.81900
C  32.50700 57.03900 41.22600
C  34.02700 57.27100 41.17700
C  34.27400 58.59600 41.67600
C  32.90600 59.06800 42.12100
C  35.06600 56.41500 40.58600
C  35.57600 59.27900 41.75700
O  36.56400 58.73000 41.34400
C  35.68500 60.73600 42.14100
N  30.04300 60.39900 42.51000
C  31.31100 61.03900 42.73400
C  31.12800 62.54600 43.00300
C  29.58800 62.63100 43.31200
C  29.05000 61.31600 42.74900
C  32.11400 63.09100 44.06400
C  28.82300 63.87900 42.72700
C  27.90200 64.70600 43.69000
N  27.74800 58.88200 41.86900
C  27.00100 59.96000 42.25300
C  25.51600 59.66300 42.09900
C  25.51700 58.47100 41.38200
C  26.87700 58.06600 41.20500
C  24.51500 60.59000 42.53400
C  24.63700 57.59200 40.68900
O  23.43800 57.60000 40.48600
C  25.63100 56.39700 40.10000
C  25.19600 55.04600 40.60500
O  25.54700 54.58900 41.69300
O  24.48100 54.34800 39.65000
C  24.09800 53.02500 40.12500
H  32.41500 55.17200 40.33000
H  33.30800 61.09700 42.57300
H  27.04700 61.92800 43.12100
H  27.88900 54.15100 39.63900
H  30.55900 54.47900 38.47900
H  29.29500 52.69300 40.26200
H  30.52200 53.42200 41.34700
H  31.07100 52.69900 39.93900
H  29.11600 55.18800 36.98400
H  27.62800 55.98900 37.60200
H  26.72700 53.64300 37.80200
H  28.10400 53.18300 36.73400
H  35.94400 56.36200 41.22900
H  35.42000 56.88600 39.66900
H  34.77500 55.39400 40.34000
H  34.90300 61.26500 41.59800
H  36.67700 61.12700 41.91500
H  35.59900 60.81100 43.22500
H  31.27900 63.14100 42.10200
H  29.60500 62.76900 44.39300
H  32.92200 62.36700 44.16800
H  31.60100 63.15100 45.02400
H  32.51900 64.06800 43.79800
H  28.31100 63.54500 41.82500
H  29.64200 64.45600 42.29800
H  28.12700 65.77000 43.75500
H  28.04100 64.25900 44.67500
H  26.88600 64.51700 43.34000
H  24.91700 61.13900 43.38600
H  23.56400 60.07500 42.66800
H  24.39300 61.30600 41.72200
H  25.48300 56.26800 39.02700
H  23.36100 53.09700 40.92500
H  24.95600 52.41000 40.39700
H  23.60700 52.47600 39.32100

