158

Mg 43.84400 3.90000 47.55800
C  41.50100 6.48500 46.90400
C  41.33400 1.56100 47.51600
C  46.28700 1.66000 47.51700
C  46.35300 6.39200 46.91300
N  41.63700 4.01800 47.10000
C  40.93300 5.14900 46.86600
C  39.44000 4.66500 46.64600
C  39.41800 3.20700 47.36400
C  40.86000 2.89200 47.31000
C  38.92900 3.24500 48.85000
C  39.12200 4.71400 45.18200
C  37.84600 5.46600 44.76700
H  37.99500 6.59400 43.66200
N  43.78700 1.92100 47.66100
C  42.70400 1.12300 47.54400
C  43.11400 -0.24200 47.53300
C  44.49400 -0.31700 47.56600
C  44.91200 1.12400 47.59000
C  42.10800 -1.38100 47.42400
C  45.36200 -1.59900 47.54400
O  44.78100 -2.69200 47.57000
C  46.83100 -1.65000 47.46800
N  45.97900 3.95000 47.23400
C  46.72900 2.92900 47.44100
C  48.21900 3.28500 47.62800
C  48.19100 4.74400 47.13700
C  46.74800 5.06600 47.12400
C  48.65400 3.01400 49.15400
C  48.88300 5.02300 45.83700
C  47.97100 4.49100 44.64800
N  43.95800 6.05900 47.16800
C  45.05300 6.87700 46.83500
C  44.61800 8.25600 46.64400
C  43.23000 8.14800 46.76700
C  42.86600 6.75700 46.92400
C  45.42500 9.46500 46.36000
C  41.95100 8.90400 46.66100
O  41.77200 10.13900 46.49800
C  40.74600 7.79400 46.79500
C  40.00100 8.10800 47.97400
O  40.26000 7.90400 49.13500
O  38.85900 8.81300 47.61200
C  38.04200 9.32900 48.71800
H  40.60900 0.74500 47.48100
H  46.96900 0.81200 47.60800
H  47.14300 7.13900 46.81800
H  38.76100 5.38700 47.10000
H  38.92000 2.37300 46.87000
H  38.35700 4.16200 48.99100
H  39.71000 3.11200 49.59900
H  38.12200 2.52800 48.99800
H  38.96900 3.66500 44.92700
H  39.95500 4.98300 44.53300
H  37.50000 6.07700 45.60000
H  37.04300 4.80700 44.43500
H  42.61100 -2.21600 46.93400
H  41.16500 -1.18700 46.91300
H  41.74300 -1.50600 48.44300
H  47.14500 -1.36000 48.47100
H  47.19100 -0.96900 46.69700
H  47.21500 -2.65600 47.30000
H  48.90000 2.77800 46.94400
H  48.64900 5.28500 47.96500
H  49.39600 2.21700 49.11300
H  47.77800 2.75900 49.75000
H  49.01000 3.90300 49.67300
H  49.79800 4.44100 45.73100
H  49.20400 6.06500 45.80600
H  47.56600 5.35500 44.12100
H  47.25000 3.69200 44.82100
H  48.62700 3.95900 43.95900
H  45.92500 9.43600 45.39100
H  46.16900 9.59800 47.14500
H  44.84500 10.38800 46.33600
H  40.05000 7.88100 45.96000
H  37.15700 9.81500 48.30700
H  38.63200 9.99600 49.34500
H  37.76800 8.49000 49.35800
Mg -5.91300 24.55200 26.69700
C  -4.16500 26.11500 29.38700
C  -7.05300 22.28300 29.08000
C  -7.64800 23.18800 24.29300
C  -4.14000 26.55100 24.49600
N  -5.53200 24.19200 28.97600
C  -4.93800 25.03900 29.80800
C  -5.19400 24.68800 31.24900
C  -5.78500 23.22200 31.16400
C  -6.23100 23.22200 29.64800
C  -4.69000 22.20700 31.41200
C  -6.20700 25.63100 31.94200
C  -5.93600 26.02100 33.46500
H  -5.94200 24.76400 34.43000
N  -7.16500 23.00700 26.73300
C  -7.49400 22.21900 27.78300
C  -8.40300 21.14600 27.27700
C  -8.56600 21.38800 25.91500
C  -7.76300 22.58300 25.55400
C  -8.75000 19.93500 28.10200
C  -9.45600 20.62600 24.90600
O  -9.46700 20.86200 23.70500
C  -10.42200 19.59000 25.35400
N  -5.89700 24.79500 24.66600
C  -6.73300 24.21300 23.86400
C  -6.54800 24.53800 22.39400
C  -5.37300 25.60100 22.37700
C  -5.12300 25.71100 23.93200
C  -6.25600 23.24000 21.49100
C  -5.71500 27.01700 21.77600
C  -6.76900 27.05600 20.62600
N  -4.45500 25.92700 26.84800
C  -3.87900 26.67600 25.83100
C  -2.96000 27.58500 26.44700
C  -3.01000 27.37500 27.77900
C  -3.95400 26.38200 28.00000
C  -2.12200 28.62900 25.67400
C  -2.50300 27.87500 29.12000
O  -1.70900 28.73300 29.49000
C  -3.25700 27.03500 30.16500
C  -2.32200 26.38800 31.02000
O  -1.81600 25.34000 30.80200
O  -2.12200 27.07700 32.23300
C  -1.34700 26.40100 33.32500
H  -7.49700 21.55700 29.76400
H  -8.40100 22.84300 23.58200
H  -3.61100 27.28100 23.87900
H  -4.31300 24.59700 31.88500
H  -6.48800 23.13700 31.99300
H  -4.77900 21.93800 32.46500
H  -3.71300 22.65500 31.22800
H  -4.83600 21.32400 30.79000
H  -7.15600 25.09700 31.98400
H  -6.46400 26.55500 31.42400
H  -6.67400 26.77200 33.74700
H  -5.00500 26.55800 33.64900
H  -9.82500 19.95300 28.27800
H  -8.23400 19.79800 29.05200
H  -8.44700 19.02100 27.59000
H  -10.85900 19.93900 26.28900
H  -9.82900 18.68200 25.46800
H  -11.28800 19.41500 24.71600
H  -7.53500 24.92400 22.13700
H  -4.48000 25.20000 21.89900
H  -7.05500 23.23800 20.75000
H  -6.43600 22.35500 22.10300
H  -5.26600 23.24700 21.03300
H  -4.72900 27.39200 21.50000
H  -6.05700 27.67600 22.57300
H  -7.61500 27.44900 21.19000
H  -6.97400 26.13300 20.08200
H  -6.38000 27.77200 19.90200
H  -1.17200 28.25300 25.29300
H  -1.88700 29.40700 26.40100
H  -2.66300 28.94300 24.78200
H  -3.93600 27.68900 30.71300
H  -0.75600 27.13700 33.86900
H  -0.62700 25.63600 33.03600
H  -2.07300 26.03900 34.05300

