158

Mg 47.62400 35.59100 27.97100
C  46.33700 33.62200 30.47300
C  48.09700 38.10800 30.31800
C  49.21200 37.28900 25.60800
C  47.37800 32.87500 25.76700
N  47.21300 35.87300 30.15500
C  46.92900 34.83000 31.00800
C  47.35000 35.12300 32.41900
C  47.54300 36.73000 32.40600
C  47.55900 36.96800 30.88000
C  46.35700 37.48500 33.20000
C  48.55600 34.21600 32.87500
C  49.17500 34.47200 34.27400
H  48.28000 35.29500 35.28300
N  48.35400 37.54600 27.90300
C  48.39600 38.42600 28.94800
C  49.05500 39.68900 28.47600
C  49.44000 39.49300 27.12900
C  48.96000 38.02900 26.79600
C  49.28800 40.78500 29.46400
C  50.13800 40.34900 26.16300
O  50.58300 39.95600 25.08200
C  50.50300 41.76500 26.53800
N  48.09100 35.15600 25.87800
C  48.75600 36.03500 25.13800
C  49.23300 35.42000 23.84000
C  48.55400 34.00700 23.86300
C  47.92300 33.99300 25.19900
C  48.89100 36.27800 22.53400
C  49.55300 32.90000 23.54000
C  50.06600 32.90600 22.09700
N  46.86100 33.66700 27.95900
C  46.88000 32.67100 27.04400
C  46.22700 31.53200 27.61700
C  46.01900 31.89500 28.95800
C  46.35300 33.22200 29.09800
C  46.07500 30.08500 27.02600
C  45.40900 31.33400 30.18800
O  44.95400 30.25300 30.46500
C  45.49400 32.46400 31.13600
C  45.82600 32.06300 32.51400
O  46.70100 31.36700 32.89700
O  44.82400 32.66100 33.27600
C  44.66900 32.36500 34.67600
H  48.40300 38.89800 31.00800
H  49.78100 37.83900 24.85500
H  47.35700 31.95600 25.17700
H  46.44100 34.93000 32.98800
H  48.55800 36.99500 32.70300
H  46.73900 38.27200 33.85000
H  45.77200 36.90000 33.91000
H  45.67300 37.93900 32.48300
H  49.33400 34.49400 32.16400
H  48.40700 33.17300 32.59600
H  50.03900 35.09700 34.05000
H  49.46100 33.45300 34.53300
H  49.31200 41.79200 29.04800
H  50.19700 40.63100 30.04600
H  48.39100 40.78100 30.08200
H  49.64400 42.23100 27.02200
H  50.86900 42.23500 25.62600
H  51.26300 41.67100 27.31400
H  50.30400 35.22400 23.80300
H  47.75700 34.07700 23.12300
H  48.51200 37.26000 22.81500
H  48.04700 35.76200 22.07700
H  49.67500 36.39400 21.78500
H  49.14200 31.89600 23.64900
H  50.33300 32.82000 24.29700
H  49.95900 31.89500 21.70500
H  51.11100 33.20600 22.16600
H  49.61000 33.64500 21.43900
H  46.29100 29.93500 25.96800
H  45.09800 29.72400 27.34900
H  46.75700 29.41700 27.55300
H  44.49500 32.89300 31.22000
H  43.63100 32.03100 34.67200
H  44.75200 33.34000 35.15600
H  45.47000 31.74600 35.07900
Mg 0.30300 42.44400 25.73700
C  2.12300 42.55200 28.86600
C  -2.42000 41.32000 27.50800
C  -1.10700 41.90300 22.85300
C  3.50700 43.13200 24.09400
N  -0.10000 42.12600 27.91300
C  0.72100 42.32600 28.92300
C  0.05900 42.18100 30.21200
C  -1.32400 41.55400 29.72800
C  -1.26900 41.59000 28.28000
C  -1.61300 40.08300 30.14500
C  -0.11700 43.43300 31.05900
C  -0.30400 43.25900 32.58100
H  -0.33400 41.93100 33.37700
N  -1.49600 41.74800 25.22400
C  -2.51300 41.39400 26.06700
C  -3.73500 41.14300 25.40200
C  -3.37300 41.27400 24.00800
C  -1.92700 41.62000 23.94900
C  -5.03400 40.82900 26.12000
C  -4.35100 41.18000 22.90200
O  -4.01700 41.35400 21.69700
C  -5.84400 40.97600 23.22500
N  1.19400 42.47900 23.79100
C  0.26700 42.38600 22.79800
C  0.89300 42.82500 21.43400
C  2.36400 43.12500 21.79600
C  2.37200 42.88900 23.33900
C  0.92400 41.64300 20.35500
C  2.82500 44.56100 21.32700
C  4.11800 44.51300 20.45800
N  2.42500 42.71200 26.29100
C  3.55000 43.02000 25.48100
C  4.63900 43.35300 26.41300
C  4.12400 43.11800 27.71900
C  2.82000 42.71600 27.61700
C  5.99200 43.84200 25.88900
C  4.44400 43.09800 29.13500
O  5.48400 43.32700 29.68600
C  3.11900 42.82700 29.96700
C  3.42800 41.61100 30.87300
O  3.74100 40.53400 30.37100
O  3.33400 41.89800 32.15600
C  4.04600 40.85800 33.05000
H  -3.25600 41.16700 28.19300
H  -1.68500 41.80900 21.93200
H  4.38600 43.46900 23.54100
H  0.62100 41.42600 30.76200
H  -2.15100 42.14900 30.11300
H  -1.11500 39.91600 31.10000
H  -1.23500 39.36300 29.42000
H  -2.66200 39.83000 30.30000
H  -1.06100 43.96000 30.92100
H  0.71200 44.12600 30.91800
H  -1.30100 43.67800 32.71700
H  0.46500 43.91700 32.98500
H  -5.55200 41.77800 26.25700
H  -4.91000 40.57000 27.17100
H  -5.59500 40.02500 25.64400
H  -6.27400 41.66900 23.94900
H  -6.07800 39.93900 23.46800
H  -6.51900 41.31900 22.44200
H  0.32100 43.64100 20.99400
H  3.03400 42.39500 21.34400
H  1.85700 41.57800 19.79500
H  0.07600 41.82300 19.69300
H  0.70400 40.71900 20.88900
H  3.04700 45.08900 22.25400
H  2.04800 45.04600 20.73600
H  5.02000 44.76900 21.01500
H  4.20200 45.00500 19.48900
H  4.33700 43.47500 20.20800
H  6.43300 44.43800 26.68800
H  5.85900 44.45200 24.99600
H  6.55800 42.91600 25.79400
H  2.90800 43.64600 30.65500
H  4.22600 41.32200 34.02000
H  4.97300 40.54800 32.56700
H  3.35400 40.01900 33.12700

