158

Mg 46.51100 25.44900 28.14200
C  47.38100 27.88100 30.76700
C  45.11300 23.53600 30.66700
C  46.25100 23.08200 25.84800
C  48.21400 27.56700 25.84600
N  46.35100 25.74000 30.40700
C  46.70600 26.75500 31.26600
C  46.13800 26.56700 32.70800
C  45.65400 25.10900 32.69700
C  45.65600 24.74300 31.15700
C  46.49000 24.07700 33.56900
C  45.00900 27.56900 33.10200
C  45.29400 28.54400 34.23400
H  44.14000 28.83000 35.16100
N  45.65100 23.60000 28.23100
C  45.14300 22.95400 29.34300
C  44.60400 21.68600 28.95400
C  44.99400 21.51400 27.57900
C  45.70400 22.75900 27.13800
C  43.90300 20.74300 29.91600
C  44.73100 20.38200 26.67700
O  45.09100 20.47300 25.51000
C  44.11200 19.12100 27.11700
N  47.01800 25.40900 26.11200
C  46.81500 24.29600 25.32600
C  47.32200 24.47600 23.92200
C  47.81500 25.95200 23.91400
C  47.71700 26.29600 25.34900
C  48.40100 23.52100 23.36400
C  47.13800 26.91000 22.92400
C  45.82300 27.65200 23.42900
N  47.52200 27.40900 28.20500
C  48.15500 28.08300 27.15100
C  48.77400 29.24900 27.76200
C  48.39100 29.25000 29.13100
C  47.75800 28.05200 29.38700
C  49.60200 30.18800 26.98900
C  48.53300 30.00100 30.32500
O  48.95600 31.11200 30.57800
C  47.89500 29.06900 31.47400
C  48.86800 28.75200 32.54300
O  49.62500 27.74500 32.61200
O  48.82900 29.76500 33.46800
C  49.16500 29.30000 34.80600
H  44.65600 22.92400 31.44700
H  46.17800 22.44600 24.96400
H  48.88500 28.11600 25.18200
H  46.99300 26.60700 33.38200
H  44.59900 25.02500 32.95500
H  46.83700 23.29100 32.89800
H  45.79800 23.60200 34.26500
H  47.26700 24.36500 34.27800
H  44.16500 26.97300 33.44900
H  44.62700 28.05600 32.20400
H  45.45600 29.49500 33.72800
H  46.21400 28.35000 34.78500
H  43.15300 20.21200 29.33000
H  43.47600 21.22100 30.79700
H  44.78500 20.19000 30.24100
H  44.66400 18.78900 27.99700
H  44.25700 18.37900 26.33200
H  43.07600 19.24600 27.43000
H  46.42600 24.38600 23.30800
H  48.87100 25.95600 23.64400
H  48.77500 22.94600 24.21200
H  49.21600 23.94900 22.78000
H  47.94200 22.88800 22.60400
H  46.83300 26.56100 21.93700
H  47.85300 27.70100 22.69600
H  45.92400 28.72900 23.55900
H  45.60700 27.22400 24.40800
H  45.00700 27.46400 22.73100
H  49.59500 31.13900 27.52100
H  48.97800 30.36300 26.11300
H  50.63400 29.86300 26.85000
H  47.09500 29.68100 31.89000
H  50.17100 28.88200 34.78900
H  48.46400 28.52800 35.12600
H  49.11100 30.21300 35.39900
Mg 1.18800 42.08800 25.72700
C  1.97500 42.36900 28.96600
C  -1.75700 40.74100 26.68600
C  0.52000 41.17300 22.46900
C  4.38800 43.05500 24.78200
N  0.16900 41.81300 27.60500
C  0.71000 42.07900 28.81900
C  -0.33700 41.95900 29.96100
C  -1.49100 41.22100 29.16300
C  -0.98200 41.14500 27.72800
C  -1.91100 39.88100 29.82000
C  -0.79300 43.33000 30.46800
C  -0.82700 43.33500 31.98300
H  -1.68800 42.30400 32.71700
N  -0.55800 41.25800 24.65500
C  -1.57800 40.69500 25.27100
C  -2.45200 40.09900 24.22200
C  -1.91200 40.29700 22.98400
C  -0.59600 40.96900 23.33800
C  -3.79300 39.45700 24.49900
C  -2.42000 39.99600 21.60800
O  -1.81600 40.30100 20.62100
C  -3.70200 39.26900 21.48200
N  2.28900 42.06100 23.94600
C  1.75800 41.72600 22.72300
C  2.67100 42.19800 21.57600
C  3.76800 43.03000 22.28000
C  3.49800 42.73300 23.76300
C  3.30600 40.99200 20.73300
C  3.73100 44.51900 21.89000
C  4.87800 45.06400 21.11100
N  2.91900 42.47500 26.66800
C  4.11300 42.91300 26.20900
C  4.94100 43.32200 27.29700
C  4.20400 43.07600 28.48500
C  2.96900 42.57400 27.96300
C  6.39700 43.65900 27.19300
C  4.17600 42.99000 29.88300
O  5.09600 43.24300 30.66100
C  2.78400 42.51900 30.34200
C  2.84500 41.25500 31.07600
O  3.47600 40.19700 30.73800
O  2.03000 41.34100 32.11500
C  2.04000 40.35200 33.16300
H  -2.65700 40.28200 27.10100
H  0.33500 40.95400 21.41500
H  5.33700 43.45200 24.41500
H  0.04200 41.28500 30.72900
H  -2.41400 41.77600 28.99600
H  -1.34400 39.05800 29.38600
H  -2.98500 39.69400 29.79700
H  -1.63400 39.96600 30.87100
H  -1.83200 43.41200 30.14900
H  -0.25600 44.17300 30.03500
H  -1.20100 44.33800 32.19300
H  0.21700 43.22300 32.27500
H  -3.89500 39.41400 25.58400
H  -3.67400 38.44200 24.12200
H  -4.64400 40.06900 24.19700
H  -3.71600 38.41100 22.15400
H  -3.81400 39.02300 20.42600
H  -4.39200 40.08100 21.71100
H  2.16800 42.86100 20.87200
H  4.65900 42.50900 21.93000
H  3.09000 40.04400 21.22600
H  4.36800 40.95300 20.49000
H  3.01300 41.08100 19.68700
H  3.61100 45.03700 22.84100
H  2.89000 44.75500 21.23800
H  5.64400 44.29700 20.99600
H  5.32600 45.95500 21.55100
H  4.50000 45.33100 20.12400
H  7.12800 42.85500 27.28100
H  6.55900 44.32500 28.04100
H  6.52600 44.11000 26.20900
H  2.36400 43.29700 30.97900
H  2.64400 39.48300 32.90200
H  1.04300 39.93800 33.31400
H  2.40000 40.78900 34.09400

