158

Mg 26.44000 50.23000 26.34300
C  24.24900 51.24100 28.83900
C  28.79100 49.24300 28.86300
C  28.66300 49.55200 23.91700
C  24.21500 51.52100 24.01700
N  26.50500 50.26100 28.53500
C  25.39900 50.59100 29.35300
C  25.68100 50.28900 30.85400
C  27.22900 49.91500 30.84000
C  27.52700 49.71400 29.29500
C  28.17900 50.97700 31.43900
C  24.77400 49.12700 31.48500
C  24.22400 49.27600 32.89000
H  24.84000 50.15200 33.97100
N  28.39300 49.48800 26.39800
C  29.22600 49.14800 27.52300
C  30.52600 48.78200 27.00300
C  30.53500 49.07700 25.60000
C  29.16600 49.42400 25.25900
C  31.68300 48.35400 27.83300
C  31.65400 49.04000 24.47500
O  31.48600 49.22800 23.28700
C  32.97700 48.71200 24.98800
N  26.48900 50.59300 24.25700
C  27.40700 49.95800 23.45300
C  26.97400 49.95200 21.93800
C  25.45800 50.47200 22.06000
C  25.40300 50.94600 23.52900
C  27.87000 50.78600 20.94500
C  24.33200 49.46900 21.79400
C  23.30600 49.96600 20.75000
N  24.62900 51.20500 26.34500
C  23.77800 51.66500 25.36100
C  22.60800 52.21300 25.92700
C  22.71200 52.00800 27.28900
C  23.97500 51.45700 27.52600
C  21.51500 53.05900 25.30300
C  22.06000 52.25400 28.58200
O  21.06300 52.79900 28.81800
C  22.99700 51.66200 29.64300
C  23.33700 52.76700 30.69400
O  24.16800 53.61200 30.52600
O  22.41800 52.71200 31.72600
C  22.57400 53.71000 32.76700
H  29.44800 48.95800 29.68800
H  29.20600 49.15500 23.05700
H  23.45800 51.87600 23.31400
H  25.43700 51.14300 31.48500
H  27.32000 49.03300 31.47300
H  29.13700 50.62000 31.81600
H  27.58400 51.29700 32.29400
H  28.24300 51.76300 30.68600
H  25.35100 48.20500 31.42500
H  23.93600 48.95700 30.80900
H  24.13100 48.23400 33.19500
H  23.18200 49.59200 32.83900
H  32.04300 47.43900 27.36300
H  31.49600 48.12500 28.88200
H  32.41600 49.16100 27.80700
H  33.62700 49.00600 24.16400
H  33.24900 47.66000 25.08200
H  33.23800 49.28100 25.88000
H  26.90000 48.91100 21.62500
H  25.38500 51.35300 21.42200
H  28.59300 51.50300 21.33500
H  27.17500 51.24500 20.24200
H  28.49000 50.01700 20.48300
H  23.84100 49.18100 22.72400
H  24.84800 48.61400 21.35900
H  23.40700 49.27600 19.91300
H  23.49000 50.98100 20.39600
H  22.25300 49.88800 21.02100
H  21.79300 53.22400 24.26200
H  21.44400 54.02100 25.81000
H  20.52600 52.62500 25.44800
H  22.58100 50.89600 30.29700
H  23.57300 53.58100 33.18400
H  21.74800 53.72600 33.47700
H  22.71300 54.67700 32.28300
Mg -12.39100 16.16000 43.15000
C  -9.39400 14.62100 42.14300
C  -11.31000 18.96000 41.60800
C  -15.54000 17.46200 43.53200
C  -13.55300 13.04600 44.10800
N  -10.55600 16.65100 41.92500
C  -9.38900 15.95800 41.76200
C  -8.26400 16.82200 41.23700
C  -8.91000 18.22800 41.37900
C  -10.35600 18.00000 41.63900
C  -8.23300 19.22500 42.30400
C  -7.92800 16.42500 39.73200
C  -6.47000 16.35400 39.51600
H  -5.98800 16.91000 38.19300
N  -13.35100 18.06100 42.65500
C  -12.68500 19.03800 41.98600
C  -13.54500 20.18200 41.86000
C  -14.85400 19.79600 42.42000
C  -14.63000 18.38400 42.89300
C  -13.17600 21.38200 41.03900
C  -16.09800 20.69100 42.37900
O  -16.03000 21.79500 41.91700
C  -17.44700 20.17100 42.86400
N  -14.29200 15.26700 43.54200
C  -15.36400 16.09200 43.79200
C  -16.55800 15.28500 44.46600
C  -15.96700 13.83100 44.60800
C  -14.51300 14.02300 43.99600
C  -17.14900 15.86300 45.77400
C  -16.90400 12.77900 43.88000
C  -16.43700 12.05900 42.63900
N  -11.54100 14.28300 43.43800
C  -12.15500 13.07100 43.79400
C  -11.23600 11.94000 43.58100
C  -10.10000 12.54600 43.03900
C  -10.40400 13.91500 42.87200
C  -11.48200 10.49800 44.00600
C  -8.76800 12.34600 42.56000
O  -8.07100 11.31500 42.61600
C  -8.24600 13.65600 41.96700
C  -7.01200 14.09800 42.67400
O  -6.90100 14.59700 43.81300
O  -5.92900 13.81700 41.83900
C  -4.62300 14.47900 42.08200
H  -10.82500 19.85300 41.20900
H  -16.55300 17.84900 43.65500
H  -13.98600 12.06100 44.29600
H  -7.37300 16.71500 41.85600
H  -8.96800 18.77200 40.43700
H  -7.19600 18.89000 42.31900
H  -8.57400 19.22200 43.33900
H  -8.19900 20.22300 41.86700
H  -8.30900 17.08000 38.94900
H  -8.34800 15.43100 39.57700
H  -6.12900 15.32000 39.58200
H  -5.87800 16.99000 40.17300
H  -12.09200 21.46100 40.95100
H  -13.60200 22.19300 41.62900
H  -13.75600 21.43600 40.11700
H  -17.40900 19.79000 43.88500
H  -17.71100 19.39400 42.14600
H  -18.24200 20.91400 42.93300
H  -17.35700 15.34800 43.72800
H  -15.76800 13.41600 45.59600
H  -16.48000 15.76000 46.62800
H  -18.05400 15.27000 45.90600
H  -17.52200 16.88500 45.70900
H  -17.90900 13.13700 43.66000
H  -17.21100 11.94800 44.51500
H  -15.58000 12.63000 42.28000
H  -17.21500 11.98300 41.87900
H  -16.06000 11.05100 42.81200
H  -10.90700 9.86900 43.32800
H  -12.53900 10.27800 44.15900
H  -10.93700 10.30500 44.93000
H  -7.90600 13.51100 40.94200
H  -4.50700 15.15700 41.23600
H  -3.81600 13.75600 42.19600
H  -4.58200 15.20700 42.89200

