158

Mg 16.27100 -2.59900 28.44200
C  15.36500 -0.15800 30.88400
C  17.99500 -4.16200 31.07500
C  17.69100 -4.66700 26.23800
C  15.27400 -0.37700 25.96100
N  16.72800 -2.05700 30.65800
C  16.06700 -1.16800 31.47900
C  16.39300 -1.41900 32.99700
C  17.46500 -2.57300 32.86200
C  17.40600 -2.97300 31.44000
C  18.83800 -2.11600 33.43200
C  15.11300 -1.88800 33.73700
C  14.94500 -1.22800 35.06200
H  16.17200 -0.69300 35.86200
N  17.48800 -4.27600 28.65600
C  18.01100 -4.78700 29.81500
C  18.72700 -6.00000 29.49800
C  18.67100 -6.22200 28.08800
C  17.92600 -5.03400 27.57000
C  19.27300 -6.90200 30.64400
C  19.16700 -7.43900 27.31500
O  18.85100 -7.61600 26.15800
C  20.07500 -8.43900 27.94400
N  16.24200 -2.62400 26.35400
C  17.02900 -3.54000 25.62900
C  16.91500 -3.18000 24.15100
C  16.03800 -1.89300 24.06600
C  15.81200 -1.61200 25.57200
C  18.21500 -3.22000 23.28800
C  14.73200 -2.00600 23.32500
C  14.33800 -0.84000 22.40100
N  15.34300 -0.78200 28.35300
C  15.02600 0.01500 27.34000
C  14.31700 1.19700 27.76700
C  14.44100 1.17800 29.17000
C  15.09500 -0.03200 29.47800
C  13.67000 2.28800 26.98600
C  14.09000 1.89000 30.36200
O  13.42900 2.88100 30.54600
C  14.62700 1.04900 31.60200
C  15.60300 1.85300 32.32100
O  16.58300 2.32700 31.83300
O  15.10300 2.28900 33.56800
C  15.88700 3.32000 34.26400
H  18.45000 -4.74000 31.88200
H  18.18700 -5.34600 25.54100
H  14.79400 0.21000 25.17500
H  16.77000 -0.49700 33.44000
H  17.17800 -3.46900 33.41200
H  18.79000 -2.47800 34.45900
H  18.86800 -1.02700 33.46800
H  19.67900 -2.49600 32.85200
H  15.04300 -2.96000 33.92300
H  14.28300 -1.54700 33.11800
H  14.36000 -1.88400 35.70700
H  14.25800 -0.38600 34.97600
H  19.16600 -7.96900 30.44400
H  18.81600 -6.72400 31.61800
H  20.30800 -6.57300 30.73200
H  19.59800 -9.17600 28.59000
H  20.73300 -7.95200 28.66400
H  20.77100 -8.78400 27.17900
H  16.24700 -3.93100 23.72900
H  16.66700 -1.04200 23.80500
H  18.94500 -3.58200 24.01200
H  18.56700 -2.27000 22.88700
H  18.06100 -3.80400 22.38000
H  13.90300 -2.15700 24.01600
H  14.66500 -2.92200 22.73700
H  13.72600 -1.07400 21.53100
H  15.18000 -0.34800 21.91400
H  13.82600 -0.05700 22.96100
H  13.39100 1.89600 26.00800
H  14.33200 3.14000 26.83100
H  12.74800 2.60900 27.47000
H  13.76300 0.79900 32.21700
H  16.71600 2.73600 34.66400
H  15.29800 3.81300 35.03700
H  16.17200 4.05400 33.51100
Mg 45.99400 24.61300 28.82900
C  46.94100 27.00500 31.35200
C  45.24200 22.45600 31.53300
C  45.81300 22.12100 26.65900
C  47.55400 26.71700 26.57700
N  46.09300 24.77500 31.15200
C  46.37800 25.85200 31.91000
C  46.09600 25.64300 33.39400
C  45.66900 24.13400 33.37800
C  45.57200 23.80100 31.89100
C  46.65000 23.20900 34.15200
C  44.92800 26.59400 33.89400
C  45.25000 27.46700 35.18200
H  44.18000 27.40500 36.31600
N  45.47400 22.54300 29.04100
C  45.10500 21.90600 30.19400
C  44.83400 20.51600 29.80400
C  45.07800 20.38300 28.39200
C  45.42500 21.76700 27.92500
C  44.50600 19.48600 30.94500
C  45.06600 19.15400 27.55800
O  45.42600 19.11000 26.33300
C  44.51900 17.87200 28.28300
N  46.67400 24.37200 26.93600
C  46.35500 23.31100 26.15700
C  46.76700 23.51200 24.71500
C  47.14400 25.06200 24.62900
C  47.13000 25.44900 26.14200
C  47.85500 22.48700 24.33100
C  46.05100 25.89600 23.84500
C  44.76300 26.27600 24.62900
N  46.91300 26.57700 28.77900
C  47.51500 27.26300 27.79100
C  47.97100 28.57400 28.31000
C  47.75200 28.55200 29.71700
C  47.15100 27.25900 29.97800
C  48.53400 29.64800 27.40000
C  47.77300 29.29800 30.93400
O  47.97100 30.51900 31.07600
C  47.31400 28.32900 32.13100
C  48.47200 28.10600 33.01200
O  49.64200 27.84700 32.70800
O  48.18300 28.49600 34.32400
C  49.27500 28.50600 35.27100
H  44.95400 21.87200 32.41000
H  45.68400 21.31800 25.92900
H  47.87700 27.31900 25.72500
H  47.03600 25.82700 33.91600
H  44.71700 24.03600 33.89900
H  46.00800 22.59700 34.78600
H  47.27000 23.71300 34.89300
H  47.22100 22.56300 33.48600
H  43.99700 26.04900 34.05100
H  44.78000 27.32400 33.09800
H  45.34700 28.51200 34.88800
H  46.20100 27.23600 35.66100
H  45.02900 18.54900 30.75000
H  43.44000 19.30000 30.80900
H  44.73100 19.86500 31.94100
H  45.40400 17.37600 28.68200
H  44.07700 17.14700 27.60000
H  43.72700 18.07600 29.00300
H  45.95400 23.28700 24.02300
H  48.08900 25.30400 24.14300
H  48.28000 21.95100 25.18000
H  48.68700 22.97500 23.82200
H  47.44800 21.73700 23.65300
H  45.67600 25.29100 23.01900
H  46.44600 26.86900 23.55500
H  44.64800 25.62200 25.49300
H  43.88300 26.01200 24.04200
H  44.77400 27.33000 24.90600
H  47.76300 30.41200 27.30300
H  48.74600 29.20800 26.42600
H  49.52000 29.90600 27.78700
H  46.42500 28.67900 32.65700
H  49.87000 27.60600 35.11000
H  48.98500 28.59200 36.31800
H  49.91300 29.37900 35.13300

