158

Mg 35.57300 48.09400 25.76500
C  35.84000 45.96200 28.59400
C  34.56000 50.55200 27.84700
C  34.85200 49.88500 23.13300
C  36.23500 45.33600 23.72700
N  35.03500 48.09400 27.94200
C  35.36400 47.19700 28.89700
C  35.15600 47.82900 30.31500
C  34.44600 49.16600 30.00300
C  34.63400 49.23200 28.50000
C  32.87400 49.23900 30.41800
C  36.40100 47.90800 31.22500
C  36.26800 47.44200 32.70200
H  34.90400 47.59000 33.31400
N  34.86700 49.98800 25.53200
C  34.67300 50.87900 26.49300
C  34.44500 52.20400 25.88700
C  34.52900 52.06900 24.46800
C  34.81100 50.60600 24.31800
C  34.20500 53.38900 26.78900
C  34.29200 53.12300 23.32000
O  34.51300 52.87700 22.11500
C  33.67100 54.36400 23.62800
N  35.28400 47.52200 23.71600
C  35.10200 48.52800 22.83400
C  34.98000 47.98600 21.37700
C  35.64200 46.62700 21.57500
C  35.70800 46.45100 23.05700
C  33.56500 47.90900 20.87000
C  36.98700 46.49100 20.88100
C  38.19700 46.89300 21.61400
N  36.12900 46.15000 25.98600
C  36.36800 45.09400 25.13400
C  36.89500 43.96200 25.81700
C  36.66400 44.19100 27.14200
C  36.11700 45.55600 27.27200
C  37.42000 42.65200 25.24100
C  36.75700 43.66500 28.44700
O  37.14500 42.59200 28.88600
C  36.26000 44.84200 29.45000
C  35.03700 44.37100 30.21100
O  34.06000 43.89400 29.77900
O  35.28400 44.44600 31.54700
C  34.28400 43.87900 32.42400
H  34.19000 51.35000 28.49500
H  34.60200 50.53900 22.29500
H  36.66200 44.49000 23.18300
H  34.39200 47.22300 30.80000
H  34.92400 50.01900 30.48500
H  32.58200 50.20200 30.83800
H  32.70900 48.53900 31.23700
H  32.26900 49.01400 29.53900
H  36.86000 48.89700 31.24200
H  37.08800 47.19800 30.76500
H  37.01600 47.93500 33.32300
H  36.50900 46.39400 32.88000
H  33.11900 53.47700 26.75900
H  34.59900 54.27400 26.28900
H  34.71800 53.36300 27.75000
H  34.39600 55.16300 23.77900
H  33.18900 54.22400 24.59600
H  32.89100 54.63700 22.91700
H  35.63000 48.62200 20.77500
H  34.95000 45.89300 21.16100
H  32.92900 48.54000 21.49200
H  33.18400 46.90600 21.06600
H  33.48400 48.13500 19.80700
H  37.04300 46.98500 19.91100
H  37.15100 45.42800 20.70200
H  38.40500 45.98600 22.18100
H  37.96500 47.59100 22.41900
H  39.10500 47.13400 21.06100
H  38.43600 42.66800 25.63600
H  37.45400 42.39900 24.18100
H  36.77700 41.92200 25.73400
H  37.08500 44.97700 30.15000
H  34.00500 42.90600 32.02000
H  33.42100 44.54500 32.44600
H  34.70400 43.67800 33.40900
Mg -0.19000 44.04100 25.71200
C  2.27000 44.17500 28.39600
C  -2.44300 43.13600 28.04000
C  -2.19900 43.66000 23.15900
C  2.56200 44.30400 23.55900
N  0.00400 43.59100 27.93800
C  1.00400 43.85100 28.84800
C  0.59300 43.73600 30.34200
C  -0.95300 43.22000 30.08900
C  -1.13800 43.28200 28.57200
C  -1.38000 41.84700 30.70000
C  0.61600 45.10400 31.03100
C  0.83500 45.07200 32.66200
H  0.44900 43.82800 33.44500
N  -2.11200 43.55400 25.61500
C  -2.91600 43.25200 26.71500
C  -4.28300 43.05800 26.23700
C  -4.19500 43.25600 24.79700
C  -2.77800 43.50200 24.43900
C  -5.40800 42.67500 27.05200
C  -5.32600 43.09700 23.69600
O  -5.08400 43.06900 22.52700
C  -6.71700 42.82000 24.01000
N  0.14800 43.89400 23.72800
C  -0.87300 43.73400 22.79400
C  -0.35100 43.68300 21.33100
C  1.07900 44.18300 21.49000
C  1.27000 44.08700 23.01500
C  -0.54700 42.26800 20.67000
C  1.36900 45.64400 20.89600
C  1.27200 46.89700 21.88400
N  1.94000 44.36700 25.88800
C  2.88200 44.40400 24.92100
C  4.28100 44.40200 25.49500
C  4.01900 44.42600 26.88700
C  2.61900 44.32500 27.02000
C  5.57700 44.62200 24.75000
C  4.71200 44.52400 28.21800
O  5.87900 44.62000 28.47700
C  3.53900 44.41700 29.30500
C  3.81000 43.24600 30.13000
O  3.67900 42.12600 29.72100
O  4.14200 43.67900 31.37200
C  4.48500 42.64900 32.30100
H  -3.25200 42.96900 28.75400
H  -2.87100 43.77000 22.30600
H  3.30200 44.39000 22.76000
H  1.26500 43.06900 30.88300
H  -1.70300 43.90100 30.49300
H  -0.47100 41.35000 31.04100
H  -1.92100 41.27000 29.95000
H  -1.96800 41.97800 31.60800
H  -0.33500 45.62500 30.92000
H  1.32300 45.65700 30.41300
H  0.55300 45.97500 33.20500
H  1.92500 45.08700 32.66500
H  -6.28300 43.06900 26.53500
H  -5.40900 43.25800 27.97300
H  -5.45800 41.60700 27.26300
H  -6.65600 41.95100 24.66400
H  -7.27800 42.50800 23.12900
H  -7.17700 43.63000 24.57600
H  -1.08000 44.34500 20.86500
H  1.79200 43.54300 20.97000
H  -1.37700 41.84400 21.23600
H  0.38100 41.69700 20.63600
H  -0.97800 42.36300 19.67300
H  0.58600 45.70200 20.13900
H  2.26800 45.68500 20.28100
H  0.63600 47.73300 21.59100
H  2.25000 47.28100 22.17400
H  0.75200 46.55000 22.77600
H  6.10000 45.49300 25.14500
H  5.27000 44.74800 23.71200
H  6.20800 43.76000 24.96700
H  3.52800 45.34500 29.87800
H  4.06800 43.00300 33.24400
H  5.56600 42.56100 32.41000
H  4.23900 41.60500 32.10700

