158

Mg 46.87500 25.54700 27.38400
C  47.62400 27.46100 30.23800
C  46.66400 22.77400 29.46300
C  46.46600 23.55500 24.69200
C  47.85700 28.12600 25.31900
N  47.09800 25.17300 29.66000
C  47.28100 26.14000 30.58800
C  47.17800 25.53700 32.00000
C  46.97600 23.98600 31.69700
C  47.03200 23.93200 30.18900
C  47.97600 22.99200 32.35500
C  46.08900 26.21300 32.91300
C  46.64400 26.84300 34.22700
H  45.59200 27.50700 35.14600
N  46.44500 23.50600 27.15500
C  46.39000 22.50500 28.13400
C  46.05600 21.21400 27.44700
C  46.01100 21.51600 26.04700
C  46.33400 22.91500 25.91400
C  46.09900 19.83900 28.12100
C  45.76400 20.54800 24.94500
O  45.95500 20.85400 23.74000
C  45.21500 19.18200 25.20700
N  46.90000 25.91000 25.29300
C  46.74700 24.94400 24.35900
C  46.79300 25.44700 22.91100
C  47.35800 26.94000 23.11400
C  47.34100 27.07700 24.66000
C  47.72200 24.66800 21.89700
C  46.36600 27.95600 22.41900
C  46.33400 27.80600 20.93500
N  47.55500 27.38900 27.69600
C  47.92800 28.37100 26.72100
C  48.25500 29.61200 27.38700
C  48.21500 29.26500 28.78800
C  47.72300 27.94200 28.88900
C  48.64400 30.84200 26.69500
C  48.47600 29.74700 30.11800
O  48.77900 30.82600 30.38100
C  48.00000 28.65700 31.16400
C  49.17100 28.38200 32.04800
O  50.07100 27.66200 31.77500
O  49.09600 29.15600 33.14300
C  50.10900 28.94600 34.23100
H  46.62400 21.85700 30.05400
H  46.32100 22.99600 23.76500
H  47.94100 28.96500 24.62600
H  48.13100 25.61500 32.52300
H  46.03500 23.79700 32.21400
H  47.42700 22.37700 33.06900
H  48.77500 23.54800 32.84500
H  48.52800 22.30700 31.71100
H  45.20100 25.62800 33.15300
H  45.77200 27.06100 32.30600
H  47.33900 27.65100 34.00000
H  47.24100 26.05400 34.68500
H  45.13600 19.34800 27.98000
H  46.16100 19.97800 29.20000
H  46.97300 19.28500 27.78100
H  45.95600 18.69400 25.84000
H  45.16100 18.69100 24.23600
H  44.22400 19.19200 25.66100
H  45.80400 25.62400 22.49000
H  48.36500 27.04400 22.71000
H  47.14500 24.20400 21.09600
H  48.29900 23.94900 22.47900
H  48.43100 25.32100 21.38800
H  46.66100 28.95800 22.73000
H  45.33400 27.88200 22.76100
H  47.06200 27.08300 20.56700
H  46.60800 28.75800 20.48000
H  45.33900 27.67800 20.50900
H  48.19400 31.73900 27.11800
H  48.34100 30.75300 25.65100
H  49.73100 30.89700 26.76400
H  47.12300 29.09300 31.64200
H  50.02700 27.87700 34.42400
H  49.94600 29.43700 35.19000
H  51.07600 29.26700 33.84300
Mg 29.86100 57.91500 40.24700
C  27.03500 55.92000 39.16500
C  31.84800 55.29400 39.00000
C  32.43800 59.87300 40.39300
C  27.66700 60.64700 40.53300
N  29.52900 55.93000 39.08100
C  28.31300 55.30300 38.88300
C  28.46600 53.83100 38.52700
C  29.94800 53.54900 38.56900
C  30.46500 55.01800 38.86800
C  30.46700 52.43600 39.55000
C  27.83300 53.46000 37.05400
C  28.47400 54.22200 35.82100
H  27.57500 55.29600 35.14200
N  31.96400 57.58900 39.95200
C  32.57900 56.48000 39.38500
C  34.00000 56.71800 39.42900
C  34.21600 58.00700 39.96800
C  32.84000 58.50800 40.16200
C  34.93900 55.64500 38.96600
C  35.55300 58.70300 40.23500
O  36.58900 58.12000 39.94900
C  35.71900 60.05900 40.80500
N  30.06400 59.99400 40.29000
C  31.25800 60.51000 40.52300
C  31.19900 62.02600 40.91300
C  29.67900 62.31400 40.78700
C  29.05900 60.92100 40.55000
C  31.74500 62.34800 42.31600
C  29.35000 63.21300 39.55000
C  28.38100 64.33100 39.93600
N  27.73700 58.27700 40.10000
C  27.00800 59.42000 40.19500
C  25.64900 59.11200 39.87800
C  25.60500 57.73400 39.53300
C  26.93800 57.30300 39.62900
C  24.48100 60.09400 39.92400
C  24.68200 56.54200 39.21600
O  23.43700 56.57400 39.12800
C  25.61300 55.37000 38.90700
C  25.25400 54.27800 39.85100
O  25.72500 54.07000 40.95900
O  24.34700 53.41300 39.27200
C  23.94900 52.22100 40.07200
H  32.45200 54.40500 38.80900
H  33.28900 60.55500 40.45200
H  27.01600 61.49300 40.76400
H  27.95000 53.21600 39.26500
H  30.29300 53.22500 37.58600
H  30.52300 53.02400 40.46700
H  31.44800 52.08000 39.23300
H  29.75700 51.60900 39.56400
H  26.81700 53.83900 37.16500
H  27.97500 52.38100 36.99300
H  28.73800 53.52600 35.02500
H  29.35800 54.75600 36.16900
H  35.79500 55.92700 38.35300
H  34.53000 54.78100 38.44300
H  35.42100 55.32500 39.89000
H  35.20100 60.20800 41.75300
H  35.33900 60.79200 40.09300
H  36.77200 60.31800 40.92000
H  31.81700 62.60400 40.22600
H  29.31100 62.82400 41.67800
H  30.94700 62.73300 42.95100
H  32.40000 63.18600 42.07800
H  32.25700 61.50800 42.78700
H  28.95200 62.55000 38.78200
H  30.23700 63.67800 39.11900
H  27.47800 64.09900 39.37100
H  28.69400 65.29900 39.54600
H  28.21000 64.36100 41.01200
H  24.53500 60.72100 39.03400
H  24.70100 60.71000 40.79600
H  23.50700 59.61900 40.04400
H  25.36600 54.92000 37.94600
H  23.73200 52.61000 41.06700
H  24.78000 51.52200 40.16600
H  23.11200 51.73200 39.57400

