158

Mg 43.80100 4.15600 47.52300
C  41.55600 6.91700 47.27300
C  41.01700 2.19200 48.03600
C  45.72700 1.48200 47.26400
C  46.36300 6.28500 46.87300
N  41.54400 4.57100 47.62100
C  40.90600 5.74700 47.44300
C  39.40000 5.55700 47.63800
C  39.22500 4.03600 47.90900
C  40.66600 3.53800 47.90600
C  38.28700 3.60500 49.10700
C  38.47800 6.11800 46.54900
C  38.96900 6.09300 45.13300
H  38.53900 7.21000 44.16900
N  43.43100 2.09900 47.70300
C  42.22500 1.50600 47.89200
C  42.51400 0.05800 48.02200
C  43.84900 -0.20100 47.69900
C  44.39800 1.14500 47.58700
C  41.48300 -1.00700 48.30200
C  44.52900 -1.55800 47.70700
O  43.89800 -2.55900 48.00300
C  45.89300 -1.84800 47.26700
N  45.69800 3.91200 46.84800
C  46.27800 2.67500 47.04300
C  47.81600 2.82400 47.08700
C  48.04700 4.39700 46.88800
C  46.63500 4.92000 46.85500
C  48.54800 2.18400 48.36400
C  48.87800 4.73200 45.56900
C  50.32500 4.99100 45.86100
N  43.96300 6.20800 46.97000
C  45.13600 7.00100 46.86500
C  44.76600 8.40700 46.76100
C  43.39400 8.39500 46.86600
C  42.90800 7.09900 46.98100
C  45.69700 9.58500 46.63800
C  42.29400 9.23700 47.06000
O  42.27800 10.46600 47.13900
C  40.98200 8.32200 47.14600
C  40.07900 8.72800 48.33000
O  40.24600 8.46900 49.47800
O  38.96600 9.39200 47.78900
C  38.07300 9.97300 48.73800
H  40.11700 1.57600 48.09400
H  46.40800 0.63100 47.20800
H  47.25000 6.90800 46.74500
H  39.10500 6.08800 48.54300
H  38.69700 3.59300 47.06400
H  37.91000 4.53700 49.52800
H  38.85800 3.05100 49.85200
H  37.48500 2.92900 48.80900
H  38.07700 7.10900 46.76200
H  37.53400 5.57800 46.47600
H  38.49200 5.22000 44.68900
H  40.02900 5.84300 45.07900
H  41.65400 -1.44500 49.28500
H  41.51700 -1.60900 47.39400
H  40.45700 -0.64000 48.26400
H  46.73500 -1.45700 47.83700
H  46.00700 -1.41900 46.27100
H  45.93800 -2.93500 47.19300
H  48.32300 2.28000 46.29000
H  48.51900 4.66700 47.83200
H  47.75800 1.94500 49.07600
H  49.26900 2.80700 48.89300
H  49.00000 1.25600 48.01600
H  48.54600 5.71400 45.23200
H  48.71600 4.03600 44.74700
H  50.89000 4.83700 44.94100
H  50.76100 4.40900 46.67300
H  50.38300 6.03600 46.16700
H  46.49400 9.29800 45.95100
H  46.18600 9.66800 47.60900
H  45.19600 10.51900 46.38400
H  40.35400 8.35100 46.25600
H  38.59000 10.32100 49.63200
H  37.39800 9.17000 49.03400
H  37.62700 10.79100 48.17300
Mg 52.51500 24.03800 44.68500
C  50.18100 26.39000 44.05000
C  50.46100 21.64700 43.13000
C  55.16200 21.80700 44.72200
C  54.69400 26.45400 45.90300
N  50.64800 24.13000 43.51800
C  49.82100 25.19300 43.42700
C  48.51900 24.94100 42.61100
C  48.52800 23.35500 42.80000
C  50.00100 22.99300 43.15900
C  47.49200 22.89300 43.89200
C  48.64400 25.22700 41.02600
C  50.06100 25.26300 40.40800
H  50.23400 25.94000 39.07900
N  52.64900 21.90200 44.22300
C  51.73600 21.12600 43.54100
C  52.30600 19.79100 43.54200
C  53.63400 19.84300 44.04600
C  53.87900 21.24000 44.34200
C  51.47800 18.56500 43.07500
C  54.51600 18.61400 44.26500
O  54.16600 17.51000 43.86000
C  55.69100 18.69700 45.12100
N  54.67500 24.12400 45.08000
C  55.54200 23.10600 45.08400
C  56.92400 23.38600 45.48500
C  56.76700 24.88200 45.91600
C  55.25500 25.17500 45.63500
C  57.52600 22.39200 46.50300
C  57.72500 25.86400 45.11800
C  57.21800 26.40000 43.71200
N  52.54000 26.00300 44.93100
C  53.45600 26.88200 45.55100
C  52.81500 28.12200 45.72500
C  51.55100 27.96100 45.17600
C  51.44400 26.66600 44.69100
C  53.48500 29.40500 46.35400
C  50.26600 28.64300 44.93500
O  49.86600 29.79700 45.21600
C  49.39800 27.62200 44.21600
C  48.70600 28.11300 42.94600
O  49.30000 28.53200 41.97200
O  47.38100 27.99000 43.12600
C  46.55200 28.49800 42.05000
H  49.79200 20.87100 42.75400
H  55.94700 21.05100 44.65300
H  55.47400 27.14000 46.23800
H  47.60500 25.38600 43.00400
H  48.17600 22.90900 41.87000
H  46.71900 22.20400 43.55000
H  47.06200 23.78600 44.34500
H  48.07600 22.38000 44.65600
H  48.05300 26.12400 40.83900
H  48.11700 24.44900 40.47300
H  50.38300 24.22600 40.30800
H  50.75500 25.79000 41.06200
H  50.55700 18.92400 42.61500
H  51.19600 17.93700 43.92000
H  52.04500 17.87900 42.44600
H  55.67500 19.46000 45.90000
H  56.56800 18.87000 44.49800
H  55.81100 17.74000 45.62700
H  57.41700 23.26600 44.52000
H  56.86600 25.08800 46.98200
H  56.92000 21.52400 46.76400
H  57.73300 22.88100 47.45400
H  58.39800 21.98600 45.98900
H  58.68500 25.37100 44.96900
H  57.85300 26.69900 45.80800
H  57.94700 26.02700 42.99200
H  57.21100 27.48500 43.60600
H  56.25100 26.03300 43.36800
H  52.77700 30.08300 46.83200
H  54.16200 29.97500 45.71800
H  54.10900 29.09900 47.19400
H  48.59100 27.42200 44.92100
H  46.11900 27.68300 41.46900
H  47.07900 29.26000 41.47600
H  45.73200 29.09900 42.44400

