158

Mg 47.61800 34.10900 27.42000
C  45.80300 32.66800 29.84600
C  47.98700 37.03400 29.24800
C  48.69700 35.66700 24.66800
C  47.04900 31.20200 25.49700
N  46.84300 34.85700 29.29000
C  46.36700 33.94300 30.24200
C  46.37700 34.55000 31.63800
C  46.88300 36.06400 31.32300
C  47.32700 35.99900 29.88300
C  45.86200 37.20500 31.68100
C  47.17000 33.77000 32.75700
C  47.98300 34.61400 33.70700
H  47.13800 35.61000 34.51300
N  48.33600 36.06300 26.99700
C  48.48400 37.03900 27.93100
C  49.32100 38.12300 27.33700
C  49.38300 37.88700 25.92100
C  48.77800 36.49000 25.74300
C  49.91100 39.21700 28.11200
C  50.07900 38.61900 24.83300
O  50.24500 38.14800 23.70700
C  50.66200 39.97900 25.07500
N  47.83900 33.57500 25.33000
C  48.30700 34.39800 24.44300
C  48.72900 33.56700 23.17000
C  48.17800 32.16400 23.53900
C  47.68900 32.29100 24.87900
C  48.09800 34.02800 21.83900
C  49.29800 31.09200 23.37900
C  50.15400 30.78600 24.61600
N  46.76400 32.25700 27.63600
C  46.61000 31.15600 26.82100
C  45.76600 30.17500 27.45800
C  45.35000 30.76400 28.56600
C  46.03400 31.95900 28.70300
C  45.32000 28.93800 26.85900
C  44.41700 30.64300 29.69600
O  43.64600 29.76200 29.97200
C  44.66800 31.89900 30.54700
C  44.87300 31.49300 31.96700
O  45.77600 30.69300 32.36500
O  43.82900 32.00100 32.72900
C  43.92300 31.83200 34.18000
H  48.15000 37.89300 29.90200
H  49.04600 36.17000 23.76400
H  46.91900 30.22400 25.03000
H  45.32900 34.59600 31.93200
H  47.83400 36.30400 31.80000
H  44.92900 36.79400 32.06600
H  45.68500 37.71800 30.73500
H  46.20300 37.92200 32.42800
H  47.94600 33.17200 32.27900
H  46.49400 33.16500 33.36200
H  48.79800 35.12700 33.19700
H  48.38600 33.93800 34.46200
H  49.55700 40.13400 27.64000
H  51.00100 39.20100 28.12100
H  49.56000 39.25100 29.14400
H  51.54000 39.88400 25.71300
H  49.96400 40.68700 25.52400
H  51.10800 40.29800 24.13300
H  49.81600 33.50700 23.11300
H  47.19800 31.89300 23.14600
H  47.47400 34.89700 22.05100
H  47.50800 33.33800 21.23600
H  48.97300 34.19100 21.21200
H  49.98800 31.35500 22.57800
H  48.70600 30.25100 23.01600
H  49.90400 31.38600 25.49100
H  51.19200 31.03500 24.39300
H  50.03600 29.72500 24.83700
H  45.83500 28.68400 25.93200
H  44.24400 28.86800 26.70100
H  45.55700 28.26300 27.68200
H  43.81800 32.58100 30.55300
H  44.55600 32.65100 34.52300
H  44.49700 30.95900 34.49200
H  42.95500 31.82100 34.68100
Mg -5.74600 25.47000 25.39600
C  -3.97100 26.78200 28.13500
C  -7.01400 23.12500 27.54700
C  -7.00200 23.94100 22.70200
C  -3.90300 27.71900 23.35200
N  -5.52600 25.02200 27.63400
C  -4.83800 25.79800 28.51400
C  -5.23900 25.35500 29.92600
C  -6.10600 24.05700 29.75000
C  -6.21600 24.01400 28.21100
C  -5.44900 22.72600 30.33400
C  -6.04300 26.42000 30.84800
C  -6.95300 25.92000 32.02300
H  -6.34600 24.86200 32.91200
N  -6.83200 23.72600 25.16300
C  -7.31300 22.94800 26.16700
C  -8.14800 21.92000 25.54100
C  -8.17900 22.13800 24.11400
C  -7.33800 23.32600 23.93200
C  -8.72700 20.71700 26.28500
C  -8.89400 21.36100 23.02100
O  -8.85400 21.69300 21.83400
C  -9.72000 20.06000 23.33500
N  -5.60900 25.95100 23.29200
C  -6.21200 25.12600 22.36900
C  -5.81400 25.62100 21.01600
C  -4.94900 26.90200 21.24400
C  -4.84000 26.89000 22.72800
C  -5.04300 24.56900 20.17200
C  -5.45900 28.21600 20.50900
C  -5.94800 29.40600 21.31900
N  -4.30800 27.04300 25.57600
C  -3.67000 27.87400 24.66400
C  -2.80600 28.75100 25.34500
C  -2.87300 28.31400 26.68800
C  -3.81600 27.27600 26.80100
C  -1.91300 29.71900 24.77400
C  -2.32800 28.61500 27.99900
O  -1.59000 29.50200 28.38000
C  -3.10900 27.66200 28.99500
C  -2.06300 26.92400 29.78100
O  -1.15600 26.20200 29.35700
O  -2.20200 27.35700 31.10600
C  -1.15300 26.85900 32.05300
H  -7.59400 22.45500 28.18500
H  -7.15900 23.37900 21.77900
H  -3.34200 28.37400 22.68200
H  -4.23300 25.16800 30.30200
H  -7.13200 24.03600 30.11900
H  -4.57600 22.89600 30.96400
H  -5.23500 22.04600 29.50900
H  -6.14500 22.16300 30.95600
H  -6.44400 27.16400 30.16000
H  -5.25900 26.90300 31.43200
H  -7.86200 25.49600 31.59700
H  -7.23500 26.80800 32.59000
H  -9.75800 20.70700 25.92900
H  -8.80700 20.88300 27.35900
H  -8.18600 19.84300 25.92100
H  -8.88600 19.59900 23.86400
H  -10.00300 19.47300 22.46100
H  -10.55500 20.33600 23.97800
H  -6.73600 25.94100 20.53100
H  -3.94700 26.73500 20.84700
H  -4.51100 23.90000 20.84800
H  -4.38200 25.01100 19.42600
H  -5.81000 24.01100 19.63600
H  -6.20300 27.87100 19.79000
H  -4.66700 28.60300 19.86900
H  -6.62700 29.89700 20.62200
H  -5.09400 30.04400 21.54800
H  -6.48400 29.07800 22.21000
H  -1.59600 29.52500 23.74900
H  -1.01100 29.76200 25.38500
H  -2.40900 30.68200 24.89800
H  -3.71200 28.19700 29.72800
H  -1.60400 26.79900 33.04300
H  -0.33200 27.56700 32.16300
H  -0.81500 25.85400 31.80000

