158

Mg 30.18500 57.88300 41.34400
C  27.36800 56.13100 40.13800
C  32.14800 55.80200 39.53700
C  32.82700 60.02500 41.99000
C  28.00200 60.39100 42.37300
N  29.71100 56.11700 39.98200
C  28.51200 55.52500 39.67500
C  28.76000 54.46100 38.61800
C  30.28000 54.14500 38.82600
C  30.80800 55.47900 39.49600
C  30.50200 52.98000 39.88300
C  28.41200 54.84900 37.12500
C  27.46400 53.82000 36.46500
H  26.69800 54.37500 35.20900
N  32.30400 57.82200 40.96500
C  32.90500 56.92900 40.18400
C  34.30500 57.19400 40.14100
C  34.52700 58.39100 40.84400
C  33.18500 58.80900 41.34700
C  35.22600 56.41400 39.37100
C  35.82500 59.13000 40.89200
O  36.83700 58.61800 40.41700
C  36.01500 60.46000 41.70100
N  30.39000 59.88200 42.07400
C  31.58800 60.49900 42.34200
C  31.39600 61.84100 43.03200
C  29.81500 61.88900 43.30800
C  29.34900 60.65500 42.53600
C  32.20400 62.10900 44.39400
C  29.08100 63.21300 42.93200
C  27.96600 63.53700 43.97500
N  28.09200 58.16400 41.46100
C  27.38300 59.31500 41.76100
C  25.97200 59.07200 41.54500
C  25.95000 57.82400 40.93100
C  27.27600 57.35900 40.83700
C  24.75800 60.01500 42.06200
C  25.05400 56.81100 40.37500
O  23.83800 56.83200 40.29200
C  25.93100 55.80300 39.75900
C  25.52600 54.47700 40.23400
O  25.44400 54.14700 41.42200
O  24.99600 53.76600 39.15800
C  24.51400 52.43200 39.50800
H  32.75700 55.22000 38.84200
H  33.59800 60.71800 42.33300
H  27.27100 61.15100 42.65800
H  28.18100 53.56100 38.82500
H  30.78800 53.99000 37.87400
H  29.64900 52.30400 39.83100
H  30.58000 53.33900 40.90900
H  31.40800 52.43600 39.61600
H  29.34000 54.70100 36.57300
H  28.04900 55.87400 37.04200
H  26.78600 53.59300 37.28700
H  28.07800 52.93100 36.31800
H  35.24300 56.86200 38.37700
H  34.89700 55.37600 39.31900
H  36.20800 56.37300 39.84200
H  35.60200 60.34700 42.70300
H  35.49300 61.22700 41.12800
H  37.04200 60.81900 41.77800
H  31.63500 62.50500 42.20100
H  29.63100 61.61100 44.34600
H  33.01300 61.37900 44.37100
H  31.71700 62.05500 45.36800
H  32.64200 63.10500 44.34300
H  28.54000 62.97700 42.01500
H  29.73800 64.04700 42.68700
H  28.18400 64.56100 44.28100
H  28.01200 62.97000 44.90500
H  27.02500 63.44200 43.43300
H  24.04400 59.37500 42.58100
H  24.36600 60.66400 41.27900
H  25.13800 60.74100 42.78000
H  25.76600 55.77800 38.68200
H  23.45800 52.42600 39.77900
H  25.09500 51.87800 40.24500
H  24.66600 51.86400 38.59100
Mg 8.97200 47.53500 26.39200
C  7.19100 47.81100 29.48400
C  11.84700 48.57900 28.18800
C  10.62900 47.56000 23.54300
C  6.09900 46.77400 24.85000
N  9.44800 48.08700 28.57500
C  8.56300 48.03400 29.63200
C  9.26000 48.37600 30.94700
C  10.61000 49.09000 30.44900
C  10.68400 48.55500 28.97300
C  10.65200 50.58000 30.58600
C  9.50500 47.16800 31.88800
C  9.18900 47.39600 33.32700
H  9.17900 46.23300 34.41900
N  10.96200 47.93500 25.96300
C  12.02300 48.31300 26.82400
C  13.24900 48.54000 26.02800
C  12.90000 48.08200 24.68300
C  11.45300 47.93300 24.66900
C  14.57900 48.94200 26.74100
C  13.76600 47.91400 23.49100
O  13.28900 47.57000 22.43800
C  15.29500 48.16600 23.53300
N  8.36400 47.43100 24.48700
C  9.21500 47.41500 23.44900
C  8.50500 47.09800 22.13400
C  7.10700 46.61300 22.56000
C  7.17700 46.98000 24.03700
C  8.60800 48.10900 20.96000
C  6.84900 45.03100 22.41900
C  7.63000 44.06200 23.25500
N  7.05300 47.37000 26.97800
C  5.94300 47.08400 26.21800
C  4.80600 46.98000 27.03200
C  5.18700 47.27900 28.34700
C  6.58000 47.45900 28.25600
C  3.40200 46.61000 26.55000
C  4.80000 47.53000 29.73300
O  3.64500 47.68200 30.22300
C  6.13300 47.72100 30.55200
C  6.30800 46.51900 31.33400
O  6.59100 45.42200 30.81100
O  5.63600 46.61500 32.52400
C  5.52100 45.35800 33.29900
H  12.70300 48.95700 28.75200
H  11.07400 47.34400 22.56900
H  5.31600 46.31800 24.24100
H  8.57000 49.07500 31.42000
H  11.52100 48.74800 30.94000
H  9.80000 50.92700 31.17200
H  10.35900 50.91900 29.59300
H  11.60900 51.02200 30.86000
H  10.58200 47.00100 31.85400
H  9.12200 46.19700 31.57400
H  8.28400 48.00300 33.31600
H  9.94500 48.01300 33.81300
H  14.44400 49.35400 27.74100
H  14.99300 49.80400 26.21800
H  15.37300 48.20900 26.59700
H  15.56600 49.03600 24.13200
H  15.48900 48.39100 22.48500
H  15.68600 47.23700 23.94800
H  8.94600 46.19000 21.72200
H  6.31800 47.23200 22.13200
H  9.06900 49.05000 21.26000
H  7.63600 48.44700 20.60100
H  9.22600 47.65700 20.18300
H  6.95000 44.71200 21.38200
H  5.78500 44.85600 22.58100
H  7.04100 43.53000 24.00300
H  8.41500 44.59400 23.79300
H  8.24100 43.36700 22.67900
H  2.78000 47.50300 26.49400
H  2.92300 45.90700 27.23100
H  3.40400 46.22100 25.53200
H  6.18500 48.58800 31.21000
H  4.51500 44.98800 33.09900
H  5.58100 45.50000 34.37800
H  6.24000 44.59800 32.99100

