158

Mg 0.51500 8.00300 25.75400
C  1.23300 10.02600 28.33400
C  0.48800 5.30600 27.75200
C  0.17100 6.03200 22.94700
C  0.68500 10.78300 23.65700
N  0.99100 7.69600 27.87800
C  1.08100 8.70600 28.77200
C  1.14700 8.20400 30.19600
C  1.09000 6.62200 30.01300
C  0.74700 6.53400 28.42700
C  2.47900 5.84600 30.22700
C  0.04300 8.80500 31.03800
C  0.45400 8.97700 32.49800
H  1.60300 8.12000 33.11800
N  0.41100 5.99000 25.43700
C  0.36900 5.00600 26.38200
C  0.21800 3.71600 25.72900
C  0.08600 3.87300 24.36500
C  0.17500 5.33100 24.18000
C  0.14800 2.41500 26.56700
C  -0.13400 2.92400 23.21800
O  -0.16900 3.17800 21.97900
C  -0.16400 1.42900 23.56900
N  0.43800 8.31400 23.62000
C  0.26700 7.39900 22.65100
C  -0.05800 7.96400 21.30100
C  0.05400 9.44800 21.51700
C  0.52200 9.50400 23.04100
C  0.98000 7.52800 20.22800
C  -1.33500 10.20500 21.28700
C  -1.27400 11.13800 20.16300
N  0.88000 10.05200 25.93500
C  0.91700 11.03100 24.99600
C  1.23300 12.32500 25.59900
C  1.42800 11.96200 26.92400
C  1.13900 10.60000 27.04100
C  1.31100 13.65800 24.89800
C  1.88600 12.39900 28.19400
O  2.36600 13.45300 28.56700
C  1.60000 11.20900 29.17300
C  2.85300 11.08600 29.91700
O  3.94100 10.56400 29.51300
O  2.65200 11.54600 31.16400
C  3.90900 11.82800 31.92100
H  0.48100 4.45500 28.43600
H  -0.06900 5.36100 22.11900
H  0.89600 11.61600 22.98200
H  2.13400 8.51300 30.54000
H  0.29800 6.21400 30.64100
H  2.81200 5.40300 29.28800
H  2.57600 5.01800 30.92900
H  3.25400 6.56900 30.48200
H  -0.76300 8.07300 31.01200
H  -0.16100 9.78700 30.61000
H  -0.40200 8.72800 33.12600
H  0.62300 10.05300 32.54500
H  -0.90300 2.15100 26.44500
H  0.42300 2.53400 27.61500
H  0.80500 1.67200 26.11600
H  -0.87000 1.13900 24.34700
H  0.85500 1.10800 23.78700
H  -0.45900 0.79900 22.72900
H  -1.09900 7.67400 21.15800
H  0.89500 9.85700 20.95700
H  1.57700 6.69800 20.60500
H  1.72300 8.29000 19.99200
H  0.52800 7.21500 19.28700
H  -1.50400 10.70300 22.24200
H  -2.15300 9.49600 21.16400
H  -0.39000 11.02400 19.53600
H  -1.35500 12.11900 20.63100
H  -2.14600 11.03500 19.51700
H  1.63400 14.42500 25.60200
H  0.31400 13.88600 24.51800
H  2.10200 13.54300 24.15700
H  0.78800 11.51000 29.83400
H  4.53500 12.50600 31.34100
H  4.37200 10.85400 32.07800
H  3.60700 12.30700 32.85300
Mg -12.32300 37.99800 41.91500
C  -10.23300 35.40700 40.83300
C  -10.28000 40.21000 40.15200
C  -14.52800 40.41600 42.50500
C  -14.24700 35.69700 43.44200
N  -10.59400 37.73800 40.58100
C  -9.88900 36.61300 40.29400
C  -8.83800 36.86100 39.19400
C  -8.71200 38.43300 39.33900
C  -10.02200 38.87000 40.03900
C  -7.44200 38.84700 40.21300
C  -9.03200 36.23500 37.76900
C  -7.78800 35.47900 37.17200
H  -6.78600 36.37600 36.30500
N  -12.34400 40.12600 41.50000
C  -11.41300 40.76800 40.81600
C  -11.84800 42.16800 40.81200
C  -13.16400 42.30400 41.44800
C  -13.39000 40.91000 41.88800
C  -11.02900 43.14800 40.16700
C  -13.94200 43.54800 41.73400
O  -13.51800 44.66000 41.44000
C  -15.30800 43.54400 42.34900
N  -14.14100 38.05400 42.69100
C  -14.89200 39.14600 42.88500
C  -16.21100 38.80500 43.72600
C  -16.12800 37.24700 43.94200
C  -14.77700 36.98500 43.29900
C  -16.19100 39.64400 44.94000
C  -17.21300 36.39200 43.26900
C  -17.91500 35.33600 44.09200
N  -12.32400 35.90600 42.06900
C  -13.07800 35.13500 42.93000
C  -12.53600 33.76800 43.09600
C  -11.32600 33.80600 42.32200
C  -11.31800 35.10200 41.67900
C  -12.99700 32.64900 43.99600
C  -10.15500 33.17500 41.81800
O  -9.73400 32.03900 42.01700
C  -9.55300 34.07800 40.65400
C  -8.03000 34.14600 40.77100
O  -7.24200 34.79600 41.46200
O  -7.57000 33.17300 39.90800
C  -6.11900 33.07600 39.83200
H  -9.58200 40.87300 39.63700
H  -15.32200 41.15000 42.65400
H  -14.81400 34.91200 43.94600
H  -7.88000 36.49500 39.56300
H  -8.67000 38.93800 38.37400
H  -6.81200 38.05200 40.61300
H  -7.82300 39.39200 41.07600
H  -6.81500 39.55200 39.66700
H  -9.26100 36.93300 36.96300
H  -9.78500 35.44900 37.81400
H  -8.14200 34.64700 36.56300
H  -7.24100 35.01200 37.99100
H  -11.66200 43.98600 39.87600
H  -10.48000 42.86700 39.26800
H  -10.29700 43.40000 40.93400
H  -15.97600 42.91200 41.76300
H  -15.66400 44.56000 42.52300
H  -15.26400 43.09400 43.34000
H  -17.09500 39.08000 43.15100
H  -16.07200 37.05700 45.01300
H  -15.13000 39.75300 45.16900
H  -16.60100 39.05900 45.76300
H  -16.73200 40.58900 44.89600
H  -16.74200 35.80900 42.47700
H  -17.88900 37.08800 42.77300
H  -17.96100 35.52200 45.16500
H  -17.61700 34.28900 44.03000
H  -18.91000 35.25700 43.65500
H  -12.36200 31.77100 43.87500
H  -14.03600 32.39800 43.78400
H  -13.11400 32.98200 45.02700
H  -9.95400 33.66500 39.72900
H  -5.69800 32.67400 40.75400
H  -5.74500 34.08400 39.65300
H  -5.87300 32.29100 39.11700

