158

Mg 24.50100 2.72600 29.78400
C  26.80300 2.15700 32.42700
C  21.89700 2.61800 32.30500
C  22.30500 2.90500 27.32000
C  26.99400 1.93700 27.56500
N  24.40000 2.53300 32.11900
C  25.52200 2.41800 32.94500
C  25.12000 2.60600 34.37800
C  23.53800 2.57100 34.23400
C  23.24300 2.53700 32.76900
C  22.87300 1.35900 34.94600
C  25.76900 3.84800 35.03900
C  26.62900 3.73500 36.33900
H  26.16200 4.70900 37.47700
N  22.37900 2.65800 29.75000
C  21.55100 2.69300 30.86000
C  20.23000 2.88300 30.33600
C  20.25400 2.83600 28.91800
C  21.68400 2.79300 28.55100
C  18.99000 3.05100 31.12500
C  19.18700 2.95900 27.89700
O  19.36000 3.31600 26.70500
C  17.77100 2.62000 28.28200
N  24.66300 2.73300 27.76800
C  23.63900 2.87900 26.95700
C  24.10700 2.87500 25.42500
C  25.61700 2.58200 25.53900
C  25.77700 2.41400 27.06600
C  23.34200 2.09100 24.27600
C  26.51400 3.59900 24.68600
C  26.85200 4.93600 25.40200
N  26.51300 2.23800 29.91800
C  27.36800 1.85800 28.97800
C  28.68900 1.40800 29.54300
C  28.48500 1.53400 30.87500
C  27.17700 2.02700 31.08200
C  29.98600 0.98800 28.85000
C  29.15800 1.30300 32.13600
O  30.34300 1.03400 32.37900
C  28.10000 1.85800 33.27300
C  27.96600 0.89200 34.40400
O  27.31400 -0.12200 34.31100
O  28.71300 1.38000 35.50200
C  28.62400 0.66000 36.81600
H  21.11800 2.80000 33.04800
H  21.59500 2.98600 26.49400
H  27.71000 1.53700 26.84400
H  25.30200 1.64300 34.85600
H  23.19100 3.54700 34.57300
H  22.60600 0.59800 34.21300
H  21.92700 1.80700 35.25100
H  23.38400 0.88500 35.78500
H  25.01500 4.55800 35.37800
H  26.47000 4.35800 34.37800
H  27.61600 4.10600 36.06200
H  26.65600 2.69500 36.66300
H  18.38400 2.15700 30.97500
H  18.44500 3.95000 30.83700
H  19.32000 3.10700 32.16300
H  17.36600 3.46700 28.83600
H  17.86600 1.76300 28.94800
H  17.15900 2.32000 27.43100
H  23.98700 3.90800 25.09900
H  25.81600 1.56800 25.19200
H  22.48000 1.66100 24.78600
H  23.93400 1.23700 23.94900
H  23.08600 2.71300 23.41900
H  25.92800 3.89600 23.81600
H  27.43700 3.16500 24.30200
H  26.66800 4.87100 26.47400
H  26.15600 5.72800 25.12700
H  27.86000 5.19300 25.07800
H  30.43800 1.78600 28.26100
H  29.77400 0.23700 28.08900
H  30.69300 0.41800 29.45400
H  28.53500 2.80500 33.59200
H  29.63100 0.30500 37.03400
H  27.96800 -0.21000 36.82100
H  28.26800 1.34000 37.59000
Mg -1.60200 33.66400 27.12000
C  -3.44500 32.28000 29.85400
C  0.09700 35.69500 29.30900
C  -0.28400 35.25500 24.40900
C  -3.73200 32.02200 24.92100
N  -1.67800 33.96700 29.42200
C  -2.42500 33.24500 30.31300
C  -2.01000 33.67100 31.77100
C  -0.93900 34.82800 31.46800
C  -0.84600 34.89900 29.95300
C  -1.31800 36.22200 32.11700
C  -1.54300 32.47500 32.68700
C  -2.48500 31.92500 33.65800
H  -2.07700 31.89100 35.13500
N  -0.20200 35.21600 26.86800
C  0.33600 35.94100 27.91600
C  1.30200 36.82200 27.37000
C  1.16100 36.76900 25.90500
C  0.20800 35.71600 25.65000
C  2.07200 37.75900 28.22300
C  1.84300 37.56400 24.90800
O  1.70900 37.38100 23.68200
C  2.86400 38.65500 25.36400
N  -1.97200 33.74900 24.98400
C  -1.26400 34.34500 24.09100
C  -1.66100 34.03900 22.63600
C  -2.48400 32.71500 22.84700
C  -2.78000 32.82300 24.35800
C  -2.48100 35.15000 22.04300
C  -1.78100 31.31700 22.53600
C  -2.68500 30.18800 21.93100
N  -3.21000 32.35500 27.26000
C  -3.96200 31.73200 26.29200
C  -4.87100 30.85100 26.92000
C  -4.65600 30.99600 28.30700
C  -3.70200 31.95100 28.47800
C  -5.93500 29.99200 26.18800
C  -5.12600 30.63700 29.60800
O  -6.04500 29.78600 29.89900
C  -4.37200 31.48300 30.65400
C  -5.45600 32.37000 31.13700
O  -6.13300 33.19200 30.55500
O  -5.82700 31.97200 32.35900
C  -7.05200 32.62200 32.82700
H  0.69100 36.23000 30.05400
H  0.06400 35.58900 23.43000
H  -4.29700 31.52200 24.13200
H  -2.88300 34.13200 32.23200
H  0.07000 34.62400 31.82700
H  -1.75600 36.86900 31.35700
H  -0.44700 36.76400 32.48600
H  -2.07600 36.17500 32.89800
H  -0.69800 32.87800 33.24400
H  -1.12200 31.69000 32.05900
H  -2.69300 30.86400 33.52200
H  -3.47100 32.37600 33.54700
H  1.67100 37.74400 29.23700
H  1.92300 38.80400 27.94900
H  3.13300 37.51200 28.25600
H  3.42700 39.06300 24.52400
H  3.57500 38.13200 26.00400
H  2.29000 39.42700 25.87600
H  -0.75600 33.80400 22.07600
H  -3.42000 32.74200 22.28900
H  -2.35200 36.07100 22.61000
H  -3.52100 34.92400 21.80600
H  -2.04600 35.48200 21.10100
H  -1.48300 30.99800 23.53400
H  -0.84500 31.51800 22.01300
H  -2.86300 29.41200 22.67600
H  -2.20600 29.60300 21.14600
H  -3.63300 30.57900 21.56100
H  -5.46500 29.04100 25.93700
H  -6.33000 30.66500 25.42700
H  -6.74600 29.75900 26.87700
H  -3.90500 30.83300 31.39400
H  -7.82700 32.44900 32.08100
H  -6.86100 33.68800 32.95400
H  -7.44100 32.12300 33.71500

