158

Mg -0.14300 7.36800 26.70200
C  0.36600 9.84500 29.22800
C  -0.19700 5.08800 29.21900
C  -0.03600 5.14600 24.34000
C  0.09000 10.03900 24.27100
N  0.20600 7.44200 28.91000
C  0.29000 8.54200 29.70800
C  0.41800 8.14000 31.22100
C  0.51600 6.58400 31.16500
C  0.04100 6.36300 29.68400
C  2.00300 6.12700 31.49500
C  -0.76800 8.66900 32.12800
C  -0.40500 9.23300 33.51400
H  -0.84800 8.64500 34.85600
N  -0.23100 5.35700 26.74700
C  -0.24400 4.58700 27.87700
C  -0.49700 3.22000 27.46500
C  -0.33800 3.15300 26.07100
C  -0.20300 4.60100 25.66900
C  -0.68900 2.03100 28.50500
C  -0.51800 1.97000 25.06900
O  -0.35500 2.11200 23.88200
C  -0.71900 0.61200 25.52400
N  0.27200 7.54800 24.55900
C  0.12000 6.49100 23.81000
C  0.12400 6.88400 22.36100
C  -0.36800 8.40000 22.34000
C  -0.02600 8.67100 23.79600
C  1.42500 6.62200 21.60400
C  -1.87700 8.60700 22.02200
C  -2.27500 9.90600 21.40600
N  0.16900 9.50800 26.68000
C  0.26000 10.45400 25.63200
C  0.48100 11.82200 26.11600
C  0.40300 11.58900 27.53400
C  0.37500 10.21800 27.83300
C  0.54200 13.15000 25.38900
C  0.54200 12.28800 28.81300
O  0.68300 13.48600 29.09500
C  0.40500 11.16000 29.93100
C  1.57500 11.20600 30.83000
O  2.75000 11.03300 30.67200
O  1.05400 11.50900 32.07400
C  2.10900 11.84500 33.04400
H  -0.34100 4.35100 30.01100
H  -0.08400 4.43700 23.51100
H  0.07200 10.85700 23.54900
H  1.29900 8.69500 31.54100
H  -0.11800 6.17700 31.95300
H  2.42200 5.55700 30.66600
H  2.03400 5.47500 32.36700
H  2.73200 6.88400 31.78400
H  -1.56100 7.92200 32.12000
H  -1.22300 9.51600 31.61300
H  -0.71100 10.27900 33.46900
H  0.68100 9.30300 33.44300
H  -1.38000 1.30700 28.07300
H  -1.04200 2.19100 29.52400
H  0.31400 1.62800 28.64200
H  -1.79000 0.51800 25.70300
H  0.00600 0.33700 26.28900
H  -0.46800 -0.03500 24.68400
H  -0.65700 6.24400 21.95000
H  0.27100 9.01400 21.70600
H  1.92600 5.87300 22.21800
H  2.04300 7.51000 21.47100
H  1.18000 6.16700 20.64400
H  -2.35900 8.55200 22.99700
H  -2.12600 7.81200 21.31900
H  -3.08400 10.31300 22.01300
H  -2.78300 9.71000 20.46200
H  -1.49700 10.63000 21.16900
H  0.78800 14.00400 26.02000
H  -0.26800 13.36900 24.69200
H  1.43000 13.13200 24.75700
H  -0.43000 11.45000 30.56900
H  2.70200 12.68500 32.68200
H  2.67100 10.93200 33.24100
H  1.66100 12.22800 33.96000
Mg -5.77400 26.08100 25.62900
C  -4.31000 26.95200 28.65200
C  -7.70400 23.80900 27.30600
C  -6.90600 24.68600 22.58500
C  -3.30500 27.71600 23.87400
N  -6.07000 25.51200 27.66800
C  -5.36400 26.05800 28.79700
C  -5.85400 25.48900 30.14300
C  -6.81800 24.21700 29.63000
C  -6.87100 24.56100 28.12300
C  -6.30800 22.76600 30.07000
C  -6.58500 26.55100 31.06200
C  -6.14300 26.48300 32.49600
H  -5.58500 25.16700 33.01400
N  -7.11800 24.53000 25.02800
C  -7.88800 23.74700 25.92300
C  -8.85100 22.86100 25.17100
C  -8.70500 23.26700 23.79000
C  -7.51500 24.23100 23.73900
C  -9.77600 21.88700 25.87900
C  -9.38800 22.69100 22.55700
O  -9.19500 23.12300 21.44600
C  -10.34700 21.54800 22.79000
N  -5.21600 26.23400 23.59000
C  -5.78200 25.63100 22.52700
C  -5.11900 26.01200 21.15200
C  -4.08500 27.06300 21.65000
C  -4.19600 27.00900 23.12400
C  -4.51300 24.75500 20.42900
C  -4.33800 28.50800 21.16400
C  -4.59200 28.79600 19.64400
N  -4.27200 27.24300 26.13500
C  -3.36700 27.89900 25.27500
C  -2.52400 28.67900 26.19700
C  -2.79200 28.35700 27.48200
C  -3.90800 27.50500 27.43100
C  -1.48100 29.65000 25.76900
C  -2.33100 28.48300 28.91400
O  -1.40200 29.16100 29.41700
C  -3.40900 27.57800 29.76300
C  -2.61800 26.54200 30.56600
O  -2.27100 25.46400 30.07900
O  -2.34300 26.95700 31.81900
C  -1.44400 26.27000 32.72200
H  -8.38100 23.16300 27.86900
H  -7.13600 24.26000 21.60600
H  -2.42900 28.18900 23.42400
H  -4.90900 25.15100 30.56900
H  -7.83700 24.39200 29.97600
H  -7.00500 22.22500 30.71000
H  -5.40600 22.87600 30.67100
H  -5.85200 22.25800 29.22000
H  -7.66000 26.46100 30.90600
H  -6.43300 27.58300 30.74600
H  -6.92600 26.78600 33.19100
H  -5.34300 27.17900 32.75000
H  -9.62900 20.90200 25.43700
H  -10.82400 22.17200 25.79800
H  -9.43900 21.70500 26.89900
H  -11.20700 21.73600 23.43200
H  -9.88000 20.61300 23.09700
H  -10.70200 21.43400 21.76500
H  -5.94400 26.36600 20.53400
H  -3.11700 26.64100 21.38100
H  -4.92800 24.71800 19.42200
H  -4.76000 23.79000 20.87300
H  -3.44900 24.94500 20.28400
H  -3.43400 29.09100 21.33900
H  -5.05700 29.05900 21.77100
H  -5.58500 29.23900 19.56900
H  -4.50900 27.92300 18.99700
H  -3.87200 29.55200 19.33000
H  -1.75300 30.19700 24.86700
H  -0.51900 29.17100 25.58100
H  -1.26400 30.35900 26.56900
H  -4.03400 28.19700 30.40700
H  -1.38100 25.20000 32.52800
H  -1.92100 26.35500 33.69900
H  -0.42600 26.64900 32.63100

