158

Mg 36.68200 48.95100 24.63400
C  36.59400 47.43400 27.80300
C  36.08400 51.92800 26.22300
C  36.42200 50.23700 21.63300
C  37.07900 45.76000 23.26900
N  36.25100 49.54700 26.82900
C  36.36700 48.82800 27.92400
C  36.05200 49.62000 29.23700
C  35.81200 51.05300 28.69000
C  36.05500 50.85400 27.14900
C  34.46100 51.69400 29.07700
C  37.32800 49.52200 30.13000
C  37.03600 49.13700 31.61200
H  35.84500 49.77700 32.24800
N  36.24000 50.80300 23.96800
C  36.17500 51.92200 24.76000
C  36.10600 53.08100 23.92500
C  36.26000 52.66900 22.63400
C  36.26500 51.15400 22.67600
C  35.88100 54.47100 24.51800
C  36.28600 53.44700 21.38000
O  36.29000 52.88900 20.21300
C  36.33400 55.04600 21.30600
N  36.52900 48.08100 22.60800
C  36.55900 48.85700 21.60400
C  36.68100 48.02200 20.25000
C  37.05900 46.58500 20.79800
C  36.83200 46.77800 22.29000
C  35.40300 48.12000 19.34800
C  38.49600 46.18000 20.29800
C  39.64400 46.58400 21.25400
N  36.94500 47.07700 25.34000
C  37.10900 45.82100 24.70200
C  37.44600 44.76800 25.64400
C  37.12500 45.30100 26.86000
C  36.83700 46.69200 26.60800
C  37.82800 43.37600 25.27600
C  37.08400 44.97800 28.27400
O  37.29700 43.95200 28.90500
C  36.68200 46.42900 28.94700
C  35.42400 46.21900 29.72100
O  34.26400 46.29000 29.27500
O  35.71100 45.93500 31.05300
C  34.58700 45.81800 32.00000
H  35.99700 52.87000 26.76800
H  36.20400 50.53800 20.60700
H  37.24400 44.79500 22.78400
H  35.23600 49.10000 29.74000
H  36.54600 51.78900 29.01700
H  33.86400 51.95400 28.20300
H  34.57600 52.63700 29.61200
H  33.88200 51.14200 29.81800
H  37.80800 50.49600 30.22200
H  38.08900 48.84700 29.73700
H  37.89900 49.55900 32.12700
H  37.07900 48.04900 31.55900
H  36.89700 54.83400 24.66900
H  35.30700 54.46500 25.44500
H  35.44400 55.14500 23.78100
H  37.09400 55.50300 21.94000
H  35.33100 55.36100 21.59300
H  36.50600 55.23200 20.24600
H  37.57300 48.38800 19.74200
H  36.28100 45.84900 20.59400
H  34.58000 48.40600 20.00400
H  35.17200 47.12700 18.96300
H  35.41000 48.82300 18.51500
H  38.54400 46.52000 19.26400
H  38.50300 45.09400 20.20600
H  39.35000 47.16100 22.13100
H  40.35200 47.16800 20.66600
H  40.16400 45.66700 21.53100
H  38.40800 43.34400 24.35300
H  36.91900 42.78100 25.19500
H  38.52000 42.91600 25.98200
H  37.50300 46.66100 29.62500
H  34.74300 46.24200 32.99200
H  34.46300 44.81200 32.40100
H  33.61900 46.16800 31.64000
Mg 6.78400 53.82400 41.16000
C  6.29400 50.33200 41.66600
C  9.89700 53.10100 39.78800
C  7.08900 56.99900 40.32700
C  3.70800 54.31500 42.73700
N  7.84300 51.98500 40.53300
C  7.49800 50.66500 41.02400
C  8.65400 49.75100 40.69300
C  9.88900 50.71000 40.53700
C  9.15000 52.04400 40.31200
C  10.90500 50.75200 41.71300
C  8.37200 48.91000 39.44600
C  7.34100 49.31300 38.40400
H  6.70800 48.23700 37.45500
N  8.20700 54.89400 40.05500
C  9.39000 54.40300 39.53700
C  10.14100 55.49200 39.03100
C  9.40000 56.70400 39.21600
C  8.18300 56.24200 39.89600
C  11.48600 55.29500 38.33000
C  9.88100 58.08000 38.77900
O  10.88800 58.12200 38.06000
C  9.22100 59.30600 39.27300
N  5.41900 55.41400 41.30200
C  5.87200 56.66700 40.98300
C  4.78100 57.68200 41.34500
C  3.84200 56.87000 42.30400
C  4.36300 55.42100 42.16200
C  5.34800 58.97600 41.89000
C  2.32100 56.96700 42.01600
C  1.32600 57.01200 43.14900
N  5.31200 52.59900 42.04500
C  4.09700 52.92900 42.68300
C  3.40500 51.71200 43.23100
C  4.31200 50.67900 42.89300
C  5.33300 51.29400 42.04800
C  2.20400 51.68400 44.03500
C  4.61600 49.21900 43.00300
O  3.97900 48.31900 43.56700
C  5.84800 48.93100 42.07800
C  5.68600 47.90700 41.00700
O  5.02900 48.11400 39.99300
O  6.30700 46.68900 41.36700
C  6.26700 45.63000 40.38600
H  10.90600 52.81900 39.47800
H  7.17900 58.08300 40.22600
H  2.72000 54.38400 43.19700
H  8.88400 49.08600 41.52500
H  10.38700 50.43200 39.60800
H  11.92500 50.54100 41.39500
H  10.56200 50.05700 42.47900
H  10.84500 51.77300 42.09200
H  8.05700 47.93500 39.81900
H  9.31500 48.86700 38.90100
H  7.96900 49.89000 37.72500
H  6.46600 49.78700 38.85000
H  11.57100 55.47700 37.25800
H  11.93000 54.31600 38.50600
H  12.16000 56.04500 38.74300
H  9.37000 59.43100 40.34600
H  8.18100 59.30300 38.94500
H  9.68000 60.16500 38.78400
H  4.03400 57.92800 40.59000
H  3.87500 57.17700 43.34900
H  6.40800 58.99400 42.14100
H  4.81300 59.12700 42.82800
H  5.16900 59.87200 41.29600
H  2.03000 56.04500 41.51400
H  2.11900 57.71000 41.24400
H  0.45800 57.60500 42.86200
H  1.84500 57.37800 44.03500
H  0.96200 56.03700 43.47500
H  1.87700 50.66500 44.24200
H  1.34800 52.26500 43.69100
H  2.40700 52.22700 44.95800
H  6.51300 48.38500 42.74700
H  6.36500 44.66700 40.88800
H  7.19900 45.79300 39.84400
H  5.40400 45.64900 39.72100

