158

Mg 47.34300 25.36200 28.72000
C  48.02400 27.73800 31.20700
C  46.34500 23.15800 31.13700
C  46.60200 23.13400 26.18700
C  48.75900 27.61100 26.41000
N  47.45600 25.39200 30.95300
C  47.51900 26.52800 31.73100
C  47.09800 26.22000 33.18800
C  46.64400 24.75000 33.08900
C  46.93100 24.36000 31.66600
C  47.34800 23.68700 34.14300
C  45.94100 27.26200 33.58400
C  46.02300 28.01900 34.95300
H  46.59900 27.41600 36.22200
N  46.53000 23.39700 28.69200
C  46.11100 22.74900 29.83900
C  45.45900 21.59700 29.34400
C  45.49500 21.61400 27.94600
C  46.26400 22.71100 27.55900
C  44.90400 20.50100 30.29500
C  44.75000 20.70700 27.00300
O  44.83900 20.78000 25.79300
C  43.74300 19.73800 27.47500
N  47.68200 25.32600 26.63000
C  47.30700 24.31900 25.78300
C  47.69700 24.62700 24.34200
C  48.16400 26.07700 24.45900
C  48.19100 26.40200 25.92300
C  48.79100 23.67500 23.81200
C  47.24300 27.09000 23.80600
C  47.99000 28.08800 22.81900
N  48.26200 27.31300 28.71700
C  48.81400 28.03600 27.75100
C  49.29400 29.34400 28.27200
C  48.95600 29.28300 29.63000
C  48.36900 28.01000 29.86900
C  49.94000 30.40500 27.48600
C  48.90200 30.00800 30.89600
O  49.20800 31.13900 31.20200
C  48.37200 28.94300 32.01600
C  49.33400 28.77300 33.10000
O  50.22500 27.89900 33.20100
O  49.08200 29.74800 34.01500
C  50.09800 29.91800 35.00100
H  45.79900 22.58400 31.88800
H  46.17800 22.58000 25.34700
H  49.05500 28.35900 25.67200
H  47.89200 26.23200 33.93500
H  45.57400 24.58400 33.21100
H  48.15000 23.37200 33.47500
H  46.68600 22.84500 34.35000
H  47.71300 24.26100 34.99500
H  45.05200 26.63600 33.65400
H  45.79900 28.02900 32.82200
H  45.05200 28.42800 35.23500
H  46.52700 28.97000 34.78500
H  45.12900 19.50400 29.91700
H  43.81900 20.58000 30.37100
H  45.25200 20.56700 31.32600
H  43.16000 20.08400 28.32800
H  44.27600 18.88000 27.88600
H  43.02200 19.38100 26.74000
H  46.69300 24.60800 23.91700
H  49.19500 26.13300 24.11200
H  49.64200 24.05200 24.37800
H  48.85900 23.87000 22.74200
H  48.45700 22.67400 24.08600
H  46.73200 27.68200 24.56500
H  46.40300 26.65400 23.26500
H  49.02300 27.74500 22.76700
H  48.00000 29.13800 23.11000
H  47.57700 28.20600 21.81700
H  50.98900 30.15500 27.32800
H  49.92900 31.33500 28.05400
H  49.44300 30.56300 26.52800
H  47.48500 29.43200 32.41900
H  49.87400 29.30700 35.87500
H  50.07100 30.97000 35.28200
H  51.12500 29.64700 34.75400
Mg 50.07600 45.64300 42.72200
C  46.85600 46.13500 41.18500
C  49.67700 42.25700 41.97200
C  53.31600 45.22800 43.29200
C  50.37600 49.01000 43.16100
N  48.38700 44.44500 41.66800
C  47.22600 44.83000 41.18100
C  46.51300 43.65400 40.50300
C  47.18500 42.42700 41.23200
C  48.53600 43.05000 41.67300
C  46.49400 41.70500 42.41800
C  46.60200 43.64300 38.98100
C  45.45300 43.08400 38.18200
H  45.85100 42.17300 36.96400
N  51.32600 43.94800 42.76200
C  50.98900 42.65600 42.34100
C  52.14400 41.81200 42.44100
C  53.25400 42.64000 42.91200
C  52.67300 43.98200 43.02200
C  52.22800 40.37600 42.10400
C  54.65200 42.20300 43.32900
O  54.93800 41.03100 43.19800
C  55.68800 43.17700 43.97300
N  51.67200 46.92900 43.02000
C  52.89300 46.52900 43.35600
C  53.82500 47.68800 43.53300
C  52.90300 48.93900 43.61500
C  51.55700 48.23700 43.25200
C  54.77100 47.57900 44.69500
C  53.23200 50.10200 42.59100
C  53.12900 51.50600 43.00000
N  48.82000 47.25400 42.43100
C  49.12900 48.55200 42.65000
C  47.95400 49.39600 42.18000
C  47.07500 48.46100 41.65400
C  47.67300 47.22600 41.79000
C  47.76900 50.99100 42.42500
C  45.75500 48.31900 41.05300
O  44.89700 49.21600 40.87100
C  45.65900 46.80100 40.62700
C  44.33900 46.21500 41.03400
O  43.58100 45.71100 40.19700
O  43.98800 46.50900 42.30300
C  42.69100 46.06300 42.73400
H  49.55400 41.19400 41.75500
H  54.38800 45.01800 43.32000
H  50.41700 50.08000 43.37600
H  45.45300 43.70000 40.75400
H  47.37500 41.62100 40.52200
H  47.13800 41.73000 43.29600
H  46.18500 40.68400 42.19300
H  45.61800 42.29900 42.68000
H  47.50600 43.12900 38.65200
H  46.71700 44.67300 38.64300
H  44.84800 43.79200 37.61600
H  44.74700 42.55900 38.82600
H  53.08800 40.36700 41.43400
H  51.42000 40.04100 41.45400
H  52.29300 39.72400 42.97600
H  56.10200 43.89200 43.26200
H  56.55100 42.57800 44.26500
H  55.43500 43.79600 44.83400
H  54.39000 47.70300 42.60100
H  52.85400 49.36300 44.61800
H  54.55800 46.71900 45.33000
H  54.91000 48.41600 45.38000
H  55.75400 47.43600 44.24800
H  52.47600 49.88200 41.83700
H  54.15400 49.97800 42.02300
H  52.58700 52.10300 42.26700
H  54.04800 52.08100 43.11600
H  52.56600 51.52700 43.93400
H  46.77100 51.19300 42.03500
H  48.59600 51.55700 41.99600
H  47.81600 51.17900 43.49800
H  45.71500 46.66800 39.54700
H  42.57300 45.00300 42.51000
H  41.84200 46.62600 42.34700
H  42.72800 46.20500 43.81500

