158

Mg 40.80800 8.87500 29.44100
C  42.72700 10.01200 32.08900
C  38.62700 7.34200 31.70300
C  39.23800 7.38500 26.85100
C  43.43400 9.67000 27.25400
N  40.68700 8.70400 31.64800
C  41.50000 9.40900 32.54000
C  41.05700 9.22300 33.94700
C  39.85400 8.18400 33.86100
C  39.67400 8.12700 32.28900
C  40.02900 6.87400 34.55600
C  40.80500 10.62000 34.71500
C  41.59500 10.85200 36.10700
H  41.03000 11.87000 37.15400
N  39.17000 7.57500 29.35000
C  38.33400 7.14700 30.32800
C  37.18600 6.44100 29.80400
C  37.40200 6.33900 28.41600
C  38.67200 7.08500 28.13400
C  36.13100 5.85500 30.72300
C  36.58500 5.73100 27.37100
O  36.95300 5.58400 26.23000
C  35.25300 5.20300 27.76400
N  41.26200 8.60600 27.31500
C  40.32800 8.01800 26.46200
C  40.71700 8.29100 24.97100
C  42.17500 8.79000 25.09100
C  42.36400 8.99900 26.64200
C  40.51200 7.12400 24.03300
C  42.64200 10.00100 24.33100
C  42.07700 11.39900 24.82000
N  42.71400 9.78600 29.57900
C  43.64600 10.00200 28.61100
C  44.72300 10.75100 29.21100
C  44.42800 10.69700 30.58000
C  43.20000 10.11800 30.74600
C  45.94800 11.17900 28.56500
C  44.94100 10.93800 31.89400
O  46.01300 11.39000 32.22200
C  43.82700 10.57800 32.90900
C  44.42400 9.77600 34.06200
O  44.64200 8.56300 34.02500
O  44.78200 10.63300 35.12500
C  45.30400 9.95700 36.29300
H  37.97000 6.82800 32.40700
H  38.65400 7.13500 25.96300
H  44.17900 10.00400 26.52900
H  41.90900 8.80500 34.48100
H  38.95400 8.66200 34.24800
H  40.64600 6.20300 33.95800
H  39.06000 6.43500 34.79200
H  40.50100 7.10600 35.51100
H  39.76600 10.84100 34.95900
H  41.06100 11.36300 33.95900
H  42.53300 11.36000 35.88100
H  41.82000 9.95900 36.69100
H  35.88100 6.35600 31.65800
H  36.53600 4.87700 30.98100
H  35.13000 5.82100 30.29300
H  34.77800 4.53800 27.04300
H  34.59500 6.07100 27.82000
H  35.32000 4.61000 28.67600
H  40.02600 9.03700 24.57800
H  42.88700 7.97100 24.98400
H  39.65700 7.17800 23.35900
H  40.49400 6.20000 24.61000
H  41.35800 7.16000 23.34700
H  42.35400 9.91800 23.28300
H  43.73000 10.04600 24.37100
H  41.34900 11.22000 25.61200
H  41.50500 11.76400 23.96700
H  42.86400 12.10000 25.09800
H  46.13900 12.24900 28.64400
H  45.92400 11.01600 27.48700
H  46.75900 10.66500 29.08100
H  43.52100 11.53400 33.33300
H  46.39000 10.04500 36.29500
H  44.90900 8.94200 36.34900
H  44.91400 10.41200 37.20400
Mg -12.88000 16.48600 41.12600
C  -10.02100 14.89900 40.31400
C  -11.56600 19.36000 39.86500
C  -16.09200 17.74500 40.92600
C  -14.34100 13.29900 41.54200
N  -10.97200 17.00600 39.95400
C  -9.90700 16.20500 39.87600
C  -8.62200 16.97100 39.44000
C  -9.18500 18.43200 39.37500
C  -10.69600 18.29200 39.79900
C  -8.36900 19.57300 40.11900
C  -8.08700 16.39500 38.14200
C  -6.52500 16.18900 38.14200
H  -5.62300 16.82600 37.07500
N  -13.71300 18.28000 40.62600
C  -12.95200 19.38100 40.20200
C  -13.79900 20.55700 40.10200
C  -15.12600 20.15600 40.35400
C  -15.04800 18.66700 40.67600
C  -13.33100 21.92900 39.68100
C  -16.31300 20.99700 40.27000
O  -16.29300 22.15700 40.02800
C  -17.70700 20.45800 40.45400
N  -14.94400 15.63500 41.42700
C  -16.04100 16.39900 41.24000
C  -17.33900 15.48000 41.19400
C  -16.71300 14.17500 41.70600
C  -15.27400 14.35900 41.38800
C  -18.58000 15.92700 42.05800
C  -17.31600 12.76200 41.15900
C  -17.90500 11.73800 42.13800
N  -12.34000 14.59400 41.18300
C  -13.00200 13.35300 41.40800
C  -12.09100 12.21100 41.29700
C  -10.86400 12.82500 41.02500
C  -11.06900 14.23100 40.86600
C  -12.33300 10.75800 41.50700
C  -9.49700 12.52700 40.77700
O  -8.86900 11.46100 40.76500
C  -8.92100 13.83700 40.25000
C  -7.65000 14.06600 40.83700
O  -7.38100 14.87100 41.72000
O  -6.68300 13.39800 40.17300
C  -5.25800 13.49600 40.57200
H  -11.07100 20.28000 39.54600
H  -17.14500 18.01500 40.81900
H  -14.78600 12.30900 41.66000
H  -7.91100 16.87100 40.25900
H  -9.19000 18.67800 38.31300
H  -7.29500 19.39100 40.11800
H  -8.67100 19.59900 41.16600
H  -8.55100 20.55900 39.69200
H  -8.36200 17.01200 37.28700
H  -8.45000 15.37300 38.04300
H  -6.36100 15.12200 37.99300
H  -6.07900 16.40400 39.11400
H  -13.78800 22.35400 38.78800
H  -12.26300 21.90500 39.46600
H  -13.55700 22.60900 40.50200
H  -18.49600 21.10100 40.06300
H  -18.01400 20.31700 41.49100
H  -17.85000 19.53700 39.88900
H  -17.63500 15.48900 40.14500
H  -16.64800 14.05400 42.78700
H  -18.36000 16.89700 42.50400
H  -18.60500 15.24700 42.90900
H  -19.51500 15.82700 41.50700
H  -16.67900 12.14800 40.52300
H  -18.12800 13.02900 40.48200
H  -18.95300 11.63600 41.85300
H  -17.91000 12.03000 43.18800
H  -17.36100 10.79400 42.17800
H  -12.59800 10.59900 42.55300
H  -11.41000 10.21700 41.30100
H  -13.12500 10.39400 40.85400
H  -8.69300 13.67400 39.19700
H  -4.79000 12.56900 40.90500
H  -5.05600 14.39400 41.15500
H  -4.66500 13.70500 39.68100

