158

Mg 25.10500 -0.86300 29.09400
C  27.00100 -0.82400 32.04000
C  22.19800 -0.50000 31.24300
C  23.07200 -1.03000 26.44400
C  27.88300 -1.87500 27.27700
N  24.64900 -0.55100 31.36600
C  25.68300 -0.54100 32.30700
C  25.16400 -0.18100 33.66300
C  23.55700 -0.39200 33.40100
C  23.42500 -0.45800 31.88600
C  22.98400 -1.56900 34.22600
C  25.64200 1.25100 34.07800
C  26.64300 1.37600 35.26700
H  26.15600 1.98200 36.59800
N  22.95700 -0.61200 28.82900
C  21.98400 -0.51900 29.82200
C  20.73100 -0.27300 29.15100
C  20.91900 -0.39200 27.76300
C  22.39100 -0.71500 27.63400
C  19.40400 -0.22500 29.81000
C  19.89100 -0.27300 26.57900
O  20.24800 -0.47800 25.42200
C  18.51800 0.31400 26.86900
N  25.42200 -1.71900 27.12600
C  24.41900 -1.38800 26.18600
C  24.99600 -1.45600 24.74000
C  26.54400 -1.39900 25.05400
C  26.65800 -1.70000 26.55100
C  24.59500 -2.58300 23.81100
C  27.31000 -0.16900 24.48600
C  27.80700 0.98000 25.34900
N  27.07400 -1.32800 29.51300
C  28.11900 -1.69400 28.67500
C  29.34700 -1.75900 29.49400
C  28.95700 -1.42100 30.78300
C  27.53800 -1.23000 30.78100
C  30.72400 -2.11200 29.06000
C  29.40700 -1.20900 32.16000
O  30.57100 -1.17800 32.50900
C  28.22600 -0.86900 33.05700
C  28.04600 -1.87100 34.05600
O  27.40300 -2.89500 33.85300
O  28.72500 -1.46200 35.16300
C  28.52400 -2.37000 36.34300
H  21.37200 -0.48100 31.95700
H  22.39700 -0.90200 25.59600
H  28.84800 -1.95500 26.77400
H  25.52600 -0.89900 34.40000
H  23.04700 0.52700 33.69100
H  22.38800 -1.19400 35.05800
H  23.77900 -2.22500 34.58000
H  22.31100 -2.17900 33.62400
H  24.82700 1.87400 34.44500
H  25.94300 1.79900 33.18500
H  27.41500 2.06200 34.92000
H  27.17200 0.46300 35.53900
H  19.50500 -0.71700 30.77700
H  18.70300 -0.66400 29.10000
H  19.13300 0.81900 29.97000
H  18.27700 0.84400 25.94800
H  18.63500 1.10300 27.61200
H  17.84100 -0.47600 27.19100
H  24.69600 -0.48500 24.34600
H  27.13700 -2.18100 24.58000
H  24.45400 -2.37800 22.74900
H  23.72700 -3.04000 24.28600
H  25.41400 -3.30100 23.77600
H  26.76200 0.19700 23.61800
H  28.08500 -0.77000 24.01100
H  27.36500 0.90500 26.34300
H  27.46400 1.92000 24.91700
H  28.89400 0.94600 25.42100
H  30.63900 -2.48200 28.03800
H  31.15200 -2.95300 29.60600
H  31.30600 -1.19200 29.02600
H  28.39600 0.12600 33.46800
H  28.52700 -3.38700 35.95100
H  27.61200 -2.07700 36.86300
H  29.38500 -2.30600 37.00800
Mg -9.91000 17.43800 41.65000
C  -6.52800 16.35800 41.20200
C  -8.89200 20.61900 40.64300
C  -13.11600 18.27800 41.28100
C  -10.80200 14.10800 41.94300
N  -7.83500 18.37100 40.86100
C  -6.65300 17.74000 40.91400
C  -5.51000 18.76400 40.75800
C  -6.31400 20.22300 40.65300
C  -7.80100 19.68600 40.73600
C  -5.96700 21.12600 41.85700
C  -4.70700 18.42400 39.38900
C  -5.53000 17.97900 38.12700
H  -5.10700 18.57900 36.78000
N  -10.87900 19.24000 41.05600
C  -10.25900 20.39300 40.69700
C  -11.32800 21.41100 40.51200
C  -12.58400 20.79400 40.67100
C  -12.25700 19.36500 41.02600
C  -11.10500 22.92800 40.15200
C  -14.02700 21.43600 40.51800
O  -14.15700 22.61900 40.16100
C  -15.18300 20.68200 40.91100
N  -11.74800 16.27900 41.51900
C  -12.97500 16.87500 41.48400
C  -14.17600 15.77700 41.49300
C  -13.35900 14.51400 41.70600
C  -11.88500 14.95800 41.64800
C  -15.23200 16.04700 42.58900
C  -13.58900 13.38100 40.68400
C  -13.30700 11.93100 41.11900
N  -8.94600 15.59700 41.65000
C  -9.43700 14.34700 41.80700
C  -8.37600 13.35600 41.98500
C  -7.26400 14.14100 41.72400
C  -7.58300 15.48000 41.50800
C  -8.44500 11.84900 42.29700
C  -5.75700 14.08600 41.66600
O  -5.00500 13.13700 41.85000
C  -5.24700 15.53400 41.30700
C  -4.34500 15.91800 42.40900
O  -3.11200 16.05800 42.29700
O  -5.06100 16.18200 43.60100
C  -4.24500 16.69200 44.76400
H  -8.62800 21.66000 40.44700
H  -14.19400 18.43800 41.21600
H  -10.96100 13.02700 41.94300
H  -4.89400 18.65100 41.65000
H  -6.01200 20.67800 39.70900
H  -6.84900 21.28100 42.47800
H  -5.64500 22.08600 41.45300
H  -5.20000 20.69400 42.50000
H  -4.19600 17.50400 39.67200
H  -3.90000 19.11500 39.14400
H  -6.56100 18.31600 38.23300
H  -5.54400 16.89000 38.06600
H  -11.33000 23.00000 39.08800
H  -10.02500 23.06300 40.19600
H  -11.66000 23.71200 40.66700
H  -15.05000 20.36000 41.94400
H  -15.27200 19.91500 40.14200
H  -16.09100 21.28600 40.90900
H  -14.58400 15.98500 40.50300
H  -13.47200 14.21500 42.74800
H  -15.90400 16.84100 42.26200
H  -14.82300 16.22000 43.58500
H  -15.97300 15.26900 42.76900
H  -12.96500 13.57300 39.81100
H  -14.56600 13.54900 40.23200
H  -12.73800 11.41600 40.34600
H  -14.24900 11.41900 41.31700
H  -12.85800 11.96600 42.11200
H  -8.50900 11.37200 41.31900
H  -9.28400 11.55500 42.92700
H  -7.66500 11.50400 42.97600
H  -4.74400 15.39100 40.35100
H  -3.60300 15.84300 45.00200
H  -4.77100 16.88100 45.70000
H  -3.76700 17.63200 44.48700

