158

Mg 8.27900 3.93900 27.73100
C  9.56000 2.41500 30.61200
C  6.50600 6.05600 29.49200
C  7.09900 5.18800 24.70900
C  10.04600 1.44100 25.82800
N  8.07000 4.12400 29.82900
C  8.72600 3.51200 30.87900
C  8.32900 4.10800 32.22000
C  7.26000 5.14900 31.78200
C  7.26600 5.14700 30.25900
C  5.83300 4.77300 32.35100
C  9.51500 4.76800 32.84900
C  9.44700 5.32700 34.30600
H  10.42600 4.61800 35.32500
N  6.92600 5.38200 27.19200
C  6.42400 6.24000 28.10800
C  5.68600 7.22800 27.46700
C  5.81800 6.97700 26.02700
C  6.60000 5.77700 25.93500
C  5.02700 8.24500 28.20100
C  5.15200 7.78700 24.82900
O  5.23500 7.47400 23.62700
C  4.48200 9.10200 25.17100
N  8.43800 3.28800 25.55300
C  7.88600 4.00200 24.52300
C  8.31200 3.43000 23.17800
C  9.27500 2.23900 23.52200
C  9.25200 2.29300 25.05000
C  7.16300 3.03300 22.22100
C  10.71700 2.43600 22.98000
C  11.42800 1.31300 22.23000
N  9.51500 2.28100 28.04400
C  10.13900 1.35500 27.22200
C  10.85100 0.40700 28.02100
C  10.66300 0.81400 29.36800
C  9.80800 1.92100 29.35200
C  11.52400 -0.86100 27.64600
C  11.04300 0.58200 30.74200
O  11.79500 -0.25700 31.26900
C  10.30700 1.51300 31.60900
C  9.44700 0.68200 32.45900
O  8.41300 0.07600 32.14100
O  9.91900 0.80600 33.79700
C  9.19700 0.15900 34.90100
H  5.82600 6.61300 30.14000
H  6.81500 5.73900 23.81000
H  10.43000 0.59800 25.24900
H  8.02200 3.35900 32.95000
H  7.52400 6.17400 32.04300
H  5.77900 4.16400 33.25300
H  5.14700 4.37300 31.60500
H  5.38100 5.68400 32.74300
H  9.76900 5.62200 32.22100
H  10.37900 4.11200 32.95600
H  8.50400 5.04100 34.77100
H  9.55800 6.41100 34.34300
H  5.24900 8.32300 29.26500
H  3.95100 8.07000 28.19000
H  5.16200 9.24900 27.80000
H  3.82100 9.52000 24.41200
H  5.23800 9.85100 25.40500
H  3.80700 8.99700 26.02100
H  8.73700 4.27400 22.63400
H  8.96200 1.21600 23.31400
H  6.13300 2.99700 22.57400
H  7.44900 2.08200 21.77300
H  7.10400 3.69500 21.35700
H  11.29300 2.67800 23.87400
H  10.68400 3.30200 22.31800
H  11.51800 1.76000 21.24000
H  10.75100 0.46000 22.27400
H  12.32200 1.10600 22.81800
H  12.56700 -0.70700 27.37100
H  11.02500 -1.32300 26.79500
H  11.32500 -1.51900 28.49200
H  11.14600 1.90300 32.18600
H  9.65100 -0.83100 34.93000
H  8.12100 0.00300 34.81500
H  9.34200 0.65100 35.86200
Mg 35.58100 2.40700 30.14900
C  33.04900 3.14800 32.34100
C  37.86200 2.73700 32.65900
C  37.95100 1.83100 27.80300
C  33.22600 2.55600 27.45000
N  35.46600 2.93500 32.22800
C  34.32600 2.96200 32.94300
C  34.50700 2.93100 34.47700
C  36.06700 3.22500 34.49700
C  36.55700 2.94600 33.06500
C  36.39200 4.65600 34.87200
C  33.98400 1.66700 35.26500
C  33.60700 1.89200 36.79800
H  34.40700 2.93300 37.66400
N  37.59200 2.24900 30.29500
C  38.35100 2.45400 31.43300
C  39.77100 2.21300 31.06200
C  39.79200 1.80900 29.70900
C  38.40200 1.96100 29.22900
C  40.91400 2.19000 32.06900
C  40.94300 1.43700 28.74200
O  40.77400 0.90800 27.59400
C  42.38100 1.49200 29.18400
N  35.62400 2.39500 27.86700
C  36.76600 1.99800 27.23000
C  36.44900 1.69000 25.74700
C  34.96400 2.01700 25.65300
C  34.53800 2.42600 27.06300
C  37.35600 2.38300 24.74300
C  34.08500 0.88900 24.96500
C  33.58700 -0.27400 25.83600
N  33.50000 2.67900 29.91100
C  32.70100 2.73700 28.72600
C  31.31500 3.01600 29.15800
C  31.39800 3.25500 30.56100
C  32.73600 2.98800 30.94800
C  30.09400 3.23000 28.29700
C  30.73100 3.64800 31.79300
O  29.58100 4.06800 31.95200
C  31.74900 3.38400 33.01700
C  31.73500 4.62200 33.84700
O  32.35800 5.70900 33.69600
O  30.85100 4.40400 34.87200
C  31.06400 5.15900 36.13700
H  38.65900 2.93100 33.37900
H  38.67600 1.61300 27.01600
H  32.44400 2.48500 26.69100
H  33.98600 3.79800 34.88300
H  36.70500 2.61100 35.13300
H  37.16500 4.80900 35.62500
H  35.49600 5.17000 35.22100
H  36.61600 5.26000 33.99300
H  34.73000 0.87500 35.32500
H  33.14200 1.28300 34.68800
H  33.83300 0.94700 37.29300
H  32.53600 2.09500 36.79600
H  40.53400 2.17400 33.09100
H  41.57900 3.04100 31.92200
H  41.63100 1.37200 32.00500
H  42.97100 1.63300 28.27800
H  42.55800 0.52300 29.65100
H  42.55100 2.33800 29.85000
H  36.59300 0.61600 25.63600
H  34.87000 2.95700 25.11000
H  36.83500 2.94100 23.96400
H  37.98800 1.66300 24.22400
H  37.97500 3.03100 25.36300
H  34.67100 0.50100 24.13100
H  33.21000 1.32900 24.48500
H  34.05500 -1.15100 25.39000
H  32.49800 -0.31200 25.84600
H  33.91300 -0.14300 26.86800
H  29.17400 2.76800 28.65500
H  30.18000 2.72800 27.33400
H  30.01200 4.28900 28.05000
H  31.38300 2.59300 33.67200
H  30.82200 6.21900 36.06000
H  32.04400 4.92500 36.55400
H  30.38400 4.76000 36.89000

