158

Mg 30.34600 57.94200 40.83500
C  27.24100 56.52300 39.84600
C  31.97700 55.24100 39.21600
C  33.20000 59.60000 40.85000
C  28.58500 60.72600 41.82000
N  29.66600 56.20800 39.55600
C  28.34400 55.78700 39.35800
C  28.31700 54.49100 38.54900
C  29.81100 54.06100 38.61300
C  30.57000 55.24300 39.22200
C  30.03700 52.75300 39.42000
C  27.82200 54.62700 37.07300
C  26.51900 53.82800 36.68300
H  26.25700 53.72900 35.16300
N  32.38900 57.38200 40.25500
C  32.82600 56.24800 39.70800
C  34.29600 56.33600 39.50300
C  34.68300 57.68900 39.88700
C  33.40200 58.26500 40.35700
C  35.16200 55.24900 38.98100
C  36.09900 58.29200 39.75900
O  37.01300 57.59700 39.37600
C  36.42900 59.66800 40.21200
N  30.83500 59.92000 41.17300
C  32.07000 60.37100 41.21200
C  32.14100 61.85600 41.61400
C  30.66300 62.19800 41.95200
C  29.94700 60.84300 41.58700
C  33.17100 62.22800 42.72700
C  30.12200 63.37200 41.13800
C  29.38600 64.47100 41.81100
N  28.28400 58.55600 40.94800
C  27.75600 59.64300 41.51700
C  26.30100 59.53100 41.53700
C  26.09900 58.34400 40.85900
C  27.30800 57.73200 40.52100
C  25.38400 60.62600 42.06100
C  25.05500 57.49500 40.29100
O  23.82200 57.68000 40.31100
C  25.79000 56.30700 39.64400
C  25.26000 55.09900 40.22000
O  25.81300 54.44400 41.09300
O  24.04100 54.79700 39.65800
C  23.38100 53.54200 39.96700
H  32.45400 54.31800 38.88200
H  34.13700 60.15300 40.94300
H  28.16700 61.69200 42.11300
H  27.75800 53.72300 39.08300
H  30.23900 53.88400 37.62600
H  30.86600 52.35400 38.83500
H  29.13000 52.14800 39.43600
H  30.39700 53.03800 40.40900
H  28.55000 54.25500 36.35300
H  27.60700 55.64700 36.75600
H  25.69100 54.13600 37.32000
H  26.54600 52.78100 36.98600
H  34.57000 54.52700 38.41900
H  35.44700 54.71200 39.88600
H  35.98900 55.64800 38.39400
H  37.44600 59.99400 39.99300
H  36.37700 59.55000 41.29400
H  35.75400 60.37700 39.73300
H  32.44100 62.35100 40.69000
H  30.72800 62.33700 43.03100
H  33.70400 61.32100 43.01100
H  32.62400 62.61300 43.58800
H  33.91800 62.97400 42.45500
H  29.41600 62.86800 40.47900
H  30.91300 63.78000 40.50900
H  29.37000 64.18400 42.86300
H  28.41600 64.55000 41.31900
H  29.98300 65.33800 41.53100
H  25.96400 61.44600 42.48500
H  24.67000 60.12100 42.71100
H  24.81500 61.13900 41.28500
H  25.65000 56.30600 38.56300
H  23.60100 52.77400 39.22600
H  22.30500 53.71300 40.00000
H  23.66200 53.23200 40.97300
Mg 35.60500 49.45200 25.48000
C  35.56400 47.46000 28.33700
C  34.34700 52.07000 27.24200
C  35.32100 51.05300 22.54300
C  36.61200 46.65600 23.66500
N  35.05500 49.68000 27.53000
C  35.22400 48.81900 28.58800
C  34.79700 49.39700 29.91300
C  34.42100 50.90700 29.49500
C  34.59900 50.90900 27.94400
C  32.97900 51.36800 29.98800
C  36.00800 49.37600 30.95200
C  35.68800 48.92100 32.37100
H  34.24400 49.12300 32.85800
N  35.04700 51.34800 24.96400
C  34.57500 52.29800 25.86200
C  34.22200 53.49900 25.13400
C  34.53100 53.21800 23.74500
C  35.00400 51.83800 23.69900
C  33.49000 54.70600 25.87900
C  34.34600 54.17300 22.59800
O  34.50800 53.81000 21.50000
C  34.22900 55.64000 22.81900
N  35.85000 48.92100 23.42900
C  35.66400 49.73100 22.38200
C  36.13000 49.10900 20.96000
C  36.69900 47.77000 21.36600
C  36.41500 47.80500 22.93900
C  34.93500 49.06500 19.94100
C  38.24700 47.50900 20.99700
C  38.60500 46.25000 20.28700
N  35.93200 47.42800 25.86500
C  36.37900 46.46500 25.05300
C  36.52000 45.18400 25.81100
C  36.30300 45.55400 27.12100
C  35.90000 46.94200 27.10700
C  37.01500 43.84000 25.22500
C  36.29000 45.13100 28.48400
O  36.59300 44.03800 28.90800
C  35.70400 46.28400 29.34400
C  34.41600 45.91300 29.99800
O  33.30900 45.98800 29.53400
O  34.66600 45.46700 31.30500
C  33.46200 45.02700 32.08100
H  33.95600 52.85900 27.88900
H  35.44400 51.48600 21.54800
H  36.89700 45.72900 23.16200
H  33.90700 48.85600 30.23600
H  35.17300 51.61800 29.83800
H  32.17200 51.55400 29.27900
H  32.98600 52.16400 30.73200
H  32.59500 50.53100 30.57100
H  36.20000 50.43500 31.12600
H  36.92300 48.89800 30.60200
H  36.49000 49.45800 32.87900
H  36.08700 47.90700 32.35400
H  33.80600 55.67000 25.48000
H  33.68500 54.67700 26.95100
H  32.41800 54.56200 25.73900
H  33.27300 56.06600 23.12200
H  34.48400 56.15900 21.89600
H  35.00300 56.00100 23.49700
H  36.85100 49.87200 20.66600
H  35.97300 47.02700 21.03700
H  35.36100 49.47300 19.02400
H  34.07000 49.64700 20.25900
H  34.62200 48.04100 19.74200
H  38.96400 47.82400 21.75500
H  38.38100 48.14800 20.12500
H  39.30800 45.70000 20.91300
H  39.01100 46.39300 19.28600
H  37.70800 45.63100 20.26200
H  37.52900 43.29900 26.01900
H  37.62600 44.00200 24.33800
H  36.18700 43.27900 24.79100
H  36.40400 46.42000 30.16700
H  33.81300 44.47100 32.95000
H  32.80400 44.39900 31.48000
H  32.92100 45.80800 32.61400

