158

Mg 8.95000 2.92200 27.57500
C  10.59400 1.47700 30.29400
C  7.61400 5.14900 29.68400
C  7.41900 4.21000 24.91300
C  10.29800 0.47800 25.54500
N  8.92000 3.14400 29.79900
C  9.73600 2.54900 30.70800
C  9.52800 3.15000 32.14700
C  8.53600 4.30900 31.89500
C  8.25000 4.14300 30.41800
C  7.26800 4.39600 32.76700
C  10.78100 3.72000 32.82600
C  10.53400 4.52600 34.09400
H  11.40100 4.22900 35.31900
N  7.77400 4.45900 27.28400
C  7.41200 5.32800 28.31100
C  6.58200 6.35600 27.75600
C  6.52400 6.17400 26.35900
C  7.17000 4.89200 26.10500
C  6.05900 7.55300 28.61100
C  5.90100 7.04600 25.28300
O  6.05100 6.81500 24.13200
C  5.14300 8.24200 25.72100
N  8.86200 2.49000 25.50600
C  8.05700 3.07700 24.58000
C  8.25100 2.51000 23.22400
C  9.33200 1.42000 23.40900
C  9.62100 1.50900 24.93000
C  6.99100 2.09000 22.56400
C  10.61500 1.45400 22.44400
C  10.75000 0.40500 21.32900
N  10.20500 1.29900 27.83100
C  10.61100 0.40700 26.90400
C  11.38500 -0.59200 27.47300
C  11.47200 -0.21300 28.83100
C  10.72800 0.95500 28.96300
C  12.03000 -1.74600 26.81800
C  11.94800 -0.53100 30.16100
O  12.57900 -1.42700 30.71200
C  11.36700 0.58100 31.11400
C  10.45100 -0.07600 32.14000
O  9.44700 -0.71800 31.93400
O  10.90000 0.31300 33.36400
C  10.20300 -0.27400 34.49500
H  7.14100 5.91000 30.30700
H  6.98700 4.71000 24.04400
H  10.48400 -0.42700 24.96200
H  9.16200 2.37800 32.82400
H  9.03200 5.27900 31.87000
H  6.33100 4.34100 32.21200
H  7.25800 5.37800 33.23900
H  7.23500 3.68100 33.58800
H  11.31800 4.28800 32.06700
H  11.53500 2.97800 33.08800
H  9.47600 4.39700 34.32100
H  10.50600 5.60300 33.92700
H  6.50200 8.52800 28.40700
H  5.86700 7.30100 29.65300
H  5.01100 7.70900 28.35600
H  5.90100 8.74400 26.32200
H  4.25800 7.96800 26.29500
H  4.66500 8.74300 24.88000
H  8.64800 3.34900 22.65300
H  8.84800 0.45200 23.27700
H  7.01200 1.08200 22.15100
H  6.78400 2.77100 21.73800
H  6.18000 2.20100 23.28400
H  11.49800 1.36100 23.07600
H  10.80500 2.43500 22.00900
H  9.79000 -0.05900 21.10800
H  11.42600 -0.38700 21.65300
H  11.19300 0.68500 20.37300
H  12.85900 -1.33500 26.24200
H  11.45200 -2.34000 26.11000
H  12.32600 -2.30800 27.70400
H  12.15000 1.14200 31.62600
H  9.28700 -0.82500 34.27800
H  9.93100 0.40200 35.30600
H  10.85700 -0.99100 34.99300
Mg -9.11500 18.43400 42.37000
C  -5.61800 18.14600 42.48400
C  -8.81400 21.75000 41.60200
C  -12.36100 18.58800 41.89800
C  -9.23500 14.86600 42.12200
N  -7.45700 19.78200 42.08500
C  -6.07400 19.47400 42.16900
C  -5.22100 20.71300 42.03700
C  -6.30200 21.86200 42.02600
C  -7.64000 21.08500 41.89600
C  -6.13900 22.84700 43.23100
C  -4.11900 20.75700 40.95100
C  -4.49300 20.13400 39.62200
H  -4.56400 21.01300 38.37000
N  -10.47800 19.96000 41.90100
C  -10.08700 21.23500 41.66800
C  -11.26800 22.00400 41.33900
C  -12.39600 21.20100 41.56800
C  -11.78300 19.88700 41.85000
C  -11.23000 23.42100 40.89900
C  -13.82700 21.53700 41.42100
O  -14.13800 22.60300 40.91200
C  -14.84100 20.54400 41.80000
N  -10.62000 16.95800 42.09200
C  -11.91800 17.27800 42.07700
C  -12.83100 16.05200 42.11800
C  -11.81500 14.87700 42.10700
C  -10.43900 15.58600 42.02400
C  -13.72800 15.96500 43.35700
C  -12.00700 14.02500 40.84900
C  -12.99100 12.85600 41.00000
N  -7.74800 16.82400 42.47400
C  -7.99000 15.48300 42.29900
C  -6.75900 14.77300 42.33600
C  -5.78700 15.82600 42.53300
C  -6.46400 17.02400 42.55900
C  -6.56400 13.24100 42.12500
C  -4.32300 16.07700 42.58500
O  -3.43500 15.24800 42.62700
C  -4.13000 17.66300 42.55300
C  -3.25900 18.23100 43.66800
O  -2.26500 18.93400 43.57200
O  -3.84900 17.75900 44.88300
C  -3.38100 18.18400 46.23900
H  -8.67600 22.81900 41.42500
H  -13.40800 18.55700 41.58700
H  -9.04000 13.79300 42.18300
H  -4.79000 20.74900 43.03800
H  -6.27300 22.49300 41.13800
H  -5.13800 22.85200 43.66200
H  -6.71100 22.53000 44.10300
H  -6.36200 23.87200 42.93700
H  -3.21100 20.25600 41.28400
H  -3.77700 21.77800 40.78100
H  -5.38500 19.52100 39.75500
H  -3.73600 19.37600 39.42200
H  -10.90200 24.07700 41.70400
H  -12.10500 23.81000 40.37800
H  -10.43300 23.45000 40.15500
H  -14.48200 20.15500 42.75300
H  -14.90300 19.74000 41.06600
H  -15.80900 21.00400 42.00300
H  -13.44300 16.13600 41.22000
H  -11.79500 14.33400 43.05100
H  -13.32700 16.58200 44.16100
H  -13.85900 14.92900 43.66900
H  -14.73300 16.34400 43.16800
H  -10.99500 13.73500 40.56600
H  -12.39200 14.75200 40.13400
H  -13.79800 13.06400 40.29700
H  -13.48500 12.62600 41.94400
H  -12.47400 11.95000 40.68500
H  -6.78900 12.90600 41.11300
H  -7.10900 12.67500 42.88100
H  -5.48200 13.18000 42.24600
H  -3.63000 17.87800 41.60800
H  -2.50300 18.82600 46.17200
H  -3.21000 17.28400 46.83000
H  -4.26600 18.72200 46.57900

