158

Mg 47.04000 16.32700 28.94100
C  44.92400 15.57600 31.79500
C  49.16500 17.95300 30.94500
C  48.54600 17.17100 26.23500
C  44.20700 15.00300 27.00700
N  47.04400 16.68100 31.13000
C  46.15400 16.20300 32.13100
C  46.54600 16.67500 33.56400
C  47.82800 17.54300 33.19800
C  48.08100 17.38200 31.73600
C  47.72700 19.05900 33.51300
C  46.78200 15.41100 34.47800
C  46.50200 15.60400 36.01800
H  46.58800 16.99700 36.76800
N  48.73200 17.34000 28.65200
C  49.57100 17.90100 29.57200
C  50.75700 18.47600 28.96000
C  50.46000 18.34700 27.60200
C  49.15000 17.69000 27.43400
C  51.95600 19.09500 29.69000
C  51.37900 18.74700 26.41500
O  51.09800 18.48600 25.21300
C  52.58300 19.67300 26.69500
N  46.42200 16.10200 26.95300
C  47.35200 16.49000 26.01600
C  46.84900 16.26200 24.55300
C  45.57800 15.44000 24.82200
C  45.43400 15.46500 26.38700
C  46.55800 17.60800 23.77400
C  45.54900 14.00300 24.28700
C  44.30500 13.67300 23.40100
N  45.00200 15.50800 29.24800
C  44.02700 15.03800 28.33800
C  42.88200 14.60600 29.05300
C  43.17100 14.82300 30.41900
C  44.54500 15.29200 30.45300
C  41.63600 14.00600 28.52100
C  42.63600 14.60400 31.79200
O  41.63900 14.07700 32.28400
C  43.71600 15.24500 32.69100
C  43.10700 16.53500 33.16400
O  42.95200 17.56500 32.51100
O  43.01300 16.54200 34.53700
C  42.50200 17.71900 35.24100
H  49.91900 18.43800 31.56900
H  49.01600 17.45400 25.29000
H  43.50200 14.57100 26.29300
H  45.77800 17.36000 33.92400
H  48.71600 17.22700 33.74400
H  48.14200 19.70300 32.73700
H  48.23100 19.32600 34.44200
H  46.72000 19.38100 33.77700
H  47.80600 15.14900 34.21300
H  46.09500 14.60400 34.22100
H  47.18200 14.91500 36.52000
H  45.49500 15.23700 36.21600
H  51.96100 20.16700 29.49500
H  52.91000 18.70200 29.33800
H  51.94700 18.97900 30.77400
H  52.86300 19.92300 25.67200
H  53.29200 18.97400 27.13900
H  52.44200 20.53400 27.34900
H  47.56400 15.68600 23.96500
H  44.61700 15.82900 24.48500
H  45.49200 17.83200 23.76300
H  46.96200 17.49300 22.76800
H  47.04100 18.35100 24.40900
H  45.57900 13.36400 25.17000
H  46.44300 13.91700 23.67100
H  44.58800 12.83600 22.76300
H  43.99300 14.36100 22.61500
H  43.39800 13.63700 24.00500
H  41.41700 14.60800 27.63900
H  40.81400 14.03500 29.23500
H  41.86800 12.97400 28.25800
H  43.79400 14.67300 33.61500
H  41.54300 17.36900 35.62300
H  42.14600 18.56000 34.64500
H  43.21400 18.03300 36.00400
Mg 36.30100 48.98700 25.45400
C  36.38000 47.19900 28.50800
C  35.35800 51.85900 27.20200
C  35.63200 50.45400 22.48900
C  37.35100 46.10200 23.77200
N  35.66300 49.37400 27.57300
C  35.91600 48.53000 28.63900
C  35.80000 49.28400 29.94000
C  35.24400 50.68600 29.47000
C  35.42200 50.67000 27.97500
C  33.79500 51.15400 29.85500
C  37.20100 49.29500 30.72200
C  37.23100 49.04900 32.27300
H  35.86900 48.84800 32.94500
N  35.60100 50.88500 24.93300
C  35.39200 51.96700 25.78900
C  35.13000 53.19900 25.02500
C  35.08800 52.81200 23.64300
C  35.40500 51.25600 23.57900
C  34.83600 54.60400 25.63600
C  34.85000 53.64600 22.41400
O  34.83300 53.12300 21.30600
C  34.48400 55.02900 22.48100
N  36.33500 48.33000 23.45100
C  36.08100 49.17800 22.40600
C  36.42400 48.43400 21.07000
C  36.97200 47.04000 21.45300
C  36.94900 47.18600 23.01100
C  35.16600 48.29600 20.07500
C  38.34200 46.74300 20.89400
C  39.57900 47.34100 21.59100
N  36.75100 46.99800 25.97300
C  37.28900 46.00000 25.17300
C  37.48500 44.84900 26.07600
C  37.23200 45.33200 27.39100
C  36.81400 46.67500 27.27600
C  37.78400 43.44000 25.49200
C  37.12000 44.92300 28.82700
O  37.32000 43.83300 29.27400
C  36.56500 46.11600 29.57900
C  35.24400 45.73400 30.20300
O  34.17100 45.94800 29.63100
O  35.31700 45.14700 31.41300
C  34.02900 44.91300 32.10500
H  35.13300 52.76900 27.76100
H  35.52100 50.97200 21.53400
H  37.58400 45.21600 23.17700
H  35.00600 48.82500 30.53000
H  35.87800 51.49800 29.82500
H  33.98300 51.97100 30.55100
H  33.25600 50.31300 30.29400
H  33.22500 51.66100 29.07700
H  37.74300 50.21700 30.50800
H  37.81500 48.53700 30.23600
H  37.68000 49.91800 32.75500
H  37.89500 48.22400 32.52900
H  33.76000 54.76700 25.68700
H  35.36300 55.39500 25.10200
H  35.25400 54.62300 26.64300
H  34.40800 55.42100 21.46700
H  35.36900 55.47600 22.93200
H  33.59900 55.15300 23.10500
H  37.12000 49.03000 20.48000
H  36.22400 46.28200 21.22000
H  34.29800 48.51200 20.69700
H  35.17100 47.32400 19.58000
H  35.17300 49.10700 19.34700
H  38.30900 47.09700 19.86300
H  38.48700 45.66300 20.87800
H  39.27500 48.00400 22.40100
H  40.12500 47.90400 20.83500
H  40.28000 46.53200 21.79500
H  38.29100 43.45200 24.52800
H  36.85300 42.96000 25.19000
H  38.29400 42.82700 26.23500
H  37.30800 46.38900 30.32900
H  33.15800 45.34100 31.60900
H  34.13200 45.52600 33.00000
H  33.82600 43.88600 32.40700

