158

Mg 48.05600 25.57000 27.90700
C  49.03500 27.87900 30.30000
C  47.00300 23.53500 30.43400
C  47.34500 23.46500 25.53900
C  50.06500 27.47100 25.61200
N  48.05200 25.67800 30.13300
C  48.44600 26.80200 30.87500
C  47.96500 26.63300 32.36500
C  47.42700 25.15700 32.37200
C  47.47500 24.74700 30.90800
C  48.26800 24.16100 33.22600
C  46.91300 27.72100 32.82900
C  46.09500 27.41800 34.09300
H  45.88200 28.43200 35.26800
N  47.38800 23.74500 27.93300
C  46.91600 23.06800 29.09300
C  46.49000 21.73300 28.68100
C  46.44100 21.74800 27.27800
C  47.03000 23.02600 26.84700
C  46.11700 20.67700 29.67100
C  45.82700 20.72000 26.33000
O  45.96500 20.74400 25.14800
C  45.07900 19.57200 26.90800
N  48.56600 25.54500 25.83100
C  48.03600 24.62000 25.03600
C  48.37100 24.80000 23.57600
C  49.26500 26.13300 23.64500
C  49.34900 26.39300 25.13300
C  49.07200 23.58300 22.91700
C  48.64700 27.35100 22.90000
C  48.22100 27.07300 21.47300
N  49.27100 27.44300 27.85300
C  50.01700 28.03000 26.91600
C  50.64700 29.23500 27.44200
C  50.23700 29.20400 28.84300
C  49.44200 28.06400 28.98500
C  51.45700 30.17200 26.68500
C  50.36000 29.92700 30.02400
O  50.90600 30.99800 30.20100
C  49.49000 29.24300 30.99800
C  50.23500 29.08200 32.28700
O  51.23400 28.32600 32.46100
O  49.70300 29.82800 33.28200
C  50.28200 29.70800 34.59100
H  46.59700 22.75100 31.07600
H  47.10000 22.70700 24.79200
H  50.53300 28.17500 24.92000
H  48.78000 26.75900 33.07800
H  46.39900 25.20300 32.73000
H  49.07600 23.85000 32.56400
H  47.70300 23.24800 33.41300
H  48.65500 24.43600 34.20700
H  46.22100 27.80500 31.99100
H  47.45200 28.66200 32.94500
H  46.58100 26.57700 34.58700
H  45.17700 26.99500 33.68800
H  46.80200 20.82400 30.50600
H  46.24300 19.63900 29.36200
H  45.08200 20.71100 30.01100
H  44.34300 19.93200 27.62700
H  45.62400 18.82400 27.48300
H  44.61800 19.06100 26.06300
H  47.44300 24.95300 23.02500
H  50.23800 25.83900 23.25100
H  48.32200 22.84400 22.63500
H  49.76000 23.11900 23.62400
H  49.74000 23.89700 22.11500
H  49.48200 28.05200 22.91000
H  47.84700 27.78200 23.50100
H  49.07000 26.52900 21.05900
H  48.21400 28.06200 21.01500
H  47.23500 26.61100 21.43100
H  50.92100 31.05000 26.32500
H  52.00400 29.73600 25.84900
H  52.17900 30.41700 27.46400
H  48.64900 29.89000 31.25000
H  51.29400 29.31000 34.67000
H  49.62400 29.16500 35.26900
H  50.32300 30.72400 34.98300
Mg 6.39700 53.81000 42.00700
C  3.92900 51.46200 41.69300
C  8.64300 51.49000 40.62400
C  8.67900 56.28300 41.66600
C  4.09400 56.06600 42.94200
N  6.21800 51.81500 41.06700
C  5.10000 51.04100 41.04600
C  5.32100 49.76000 40.20200
C  6.90700 49.59100 40.36400
C  7.33200 51.05800 40.64900
C  7.52700 48.47800 41.35100
C  4.90300 49.78400 38.74800
C  4.09300 48.51100 38.25400
H  4.56700 47.83100 37.01600
N  8.38800 53.91100 41.41200
C  9.08700 52.79700 40.93200
C  10.41800 53.21300 40.74600
C  10.44900 54.64600 40.77100
C  9.15100 55.03700 41.23500
C  11.45900 52.26100 40.24200
C  11.69500 55.49100 40.27300
O  12.64200 54.91000 39.73600
C  11.60200 57.01800 40.31400
N  6.39300 55.93400 42.17600
C  7.45800 56.72100 42.10500
C  7.16300 58.25300 42.44400
C  5.62500 58.13400 42.68200
C  5.34100 56.66900 42.63700
C  8.01200 58.83600 43.61900
C  4.79700 58.91300 41.66100
C  4.37700 60.31900 42.20500
N  4.37300 53.82400 42.25300
C  3.56200 54.79900 42.81600
C  2.24500 54.26900 43.04300
C  2.43900 52.91900 42.68400
C  3.67800 52.73500 42.16800
C  1.02100 55.03800 43.56700
C  1.76700 51.63500 42.65400
O  0.66000 51.35600 43.03900
C  2.76000 50.55300 42.17600
C  2.22700 49.66700 41.12900
O  1.70100 50.04600 40.05900
O  2.40300 48.33600 41.40400
C  1.62100 47.30600 40.59500
H  9.32200 50.69100 40.31800
H  9.35000 57.12900 41.50200
H  3.39700 56.78300 43.38100
H  4.82500 48.92100 40.69100
H  7.30500 49.29100 39.39400
H  8.10500 47.79900 40.72500
H  6.82300 47.76200 41.77500
H  8.22200 48.89300 42.08100
H  5.72300 49.89600 38.03900
H  4.24400 50.65200 38.70800
H  3.07500 48.86800 38.09600
H  4.16400 47.67800 38.95300
H  11.95100 52.63100 39.34200
H  11.19100 51.20500 40.20300
H  12.20200 52.38200 41.03000
H  10.70300 57.44200 39.86800
H  12.46700 57.45400 39.81500
H  11.68200 57.35700 41.34700
H  7.47900 58.90000 41.62600
H  5.39400 58.37600 43.71900
H  7.37400 59.03300 44.48000
H  8.53900 59.77600 43.45400
H  8.71300 58.06600 43.94100
H  3.87700 58.35700 41.48000
H  5.33000 58.95300 40.71100
H  4.66000 60.65400 43.20200
H  3.29200 60.22900 42.15200
H  4.67100 61.16000 41.57600
H  0.52300 54.50300 44.37600
H  0.19800 54.83700 42.88000
H  1.22200 56.08800 43.77900
H  3.13700 49.95300 43.00400
H  0.68600 47.05300 41.09500
H  2.20500 46.38900 40.51500
H  1.30900 47.60400 39.59500

