158

Mg 29.72300 57.95500 40.78400
C  27.01700 56.28000 39.36100
C  31.75300 55.65900 39.20200
C  32.41300 60.03300 41.20100
C  27.53200 60.64300 41.49900
N  29.37400 56.10400 39.55700
C  28.23200 55.63800 38.98800
C  28.42100 54.44700 38.14700
C  29.91200 54.03500 38.52700
C  30.40100 55.32300 39.14600
C  30.32200 52.76400 39.35700
C  28.21300 54.70400 36.61900
C  27.18400 53.82000 35.84200
H  26.30300 54.55600 34.89800
N  31.83600 57.79000 40.39100
C  32.40800 56.71500 39.74700
C  33.80100 56.91800 39.85400
C  34.08000 58.20000 40.46900
C  32.78500 58.75900 40.71700
C  34.79300 55.91700 39.27100
C  35.46400 58.74900 40.61400
O  36.48000 58.08400 40.31600
C  35.71500 60.03700 41.35000
N  29.95600 59.99700 41.26000
C  31.19600 60.58400 41.41500
C  31.00200 62.02700 41.81600
C  29.50000 62.21600 42.04600
C  28.93200 60.87300 41.57900
C  31.98600 62.52200 42.88200
C  28.75600 63.43300 41.38200
C  27.63400 64.08200 42.29000
N  27.72400 58.37900 40.63700
C  26.96300 59.44700 41.07900
C  25.54100 59.18800 40.77000
C  25.46800 57.88600 40.22900
C  26.85300 57.48100 40.09800
C  24.38700 60.16900 40.98400
C  24.58400 56.90400 39.67700
O  23.37500 56.89700 39.53200
C  25.58700 55.74700 39.13200
C  25.19100 54.52200 39.89800
O  24.99200 54.44500 41.07200
O  24.83400 53.47000 39.03400
C  24.22800 52.26700 39.74000
H  32.43600 54.94600 38.73400
H  33.24300 60.72200 41.37600
H  26.88800 61.48500 41.76100
H  27.75400 53.75500 38.66200
H  30.44100 53.94900 37.57800
H  30.82500 51.95200 38.83300
H  29.38700 52.33700 39.72000
H  30.97500 53.04000 40.18500
H  29.19000 54.69100 36.13600
H  28.00700 55.77300 36.56600
H  26.46500 53.36600 36.52400
H  27.76200 53.02800 35.36600
H  35.60700 55.87100 39.99500
H  35.12800 56.44700 38.37900
H  34.46800 54.90200 39.04300
H  35.37700 60.92800 40.82100
H  36.79400 60.01900 41.19600
H  35.40100 60.07000 42.39300
H  31.28500 62.63600 40.95700
H  29.26100 62.13300 43.10600
H  32.60000 63.26100 42.36900
H  32.65500 61.73200 43.22100
H  31.41800 62.98100 43.69200
H  28.35100 63.11700 40.42100
H  29.49900 64.18600 41.12000
H  27.95900 65.06800 42.62400
H  27.51300 63.59800 43.25900
H  26.63900 64.12900 41.84800
H  23.58100 59.74700 41.58300
H  23.97100 60.41200 40.00600
H  24.85200 60.98700 41.53400
H  25.34500 55.58200 38.08200
H  24.72000 51.46300 39.19200
H  23.18600 52.22900 39.42100
H  24.26300 52.22600 40.82900
Mg -9.97200 40.27500 38.91900
C  -8.94000 36.89000 38.12300
C  -6.86500 41.36800 37.95000
C  -11.31500 43.34300 38.83500
C  -13.29300 38.91000 39.32300
N  -8.18300 39.19000 37.96500
C  -7.92300 37.86700 37.95700
C  -6.43300 37.63900 37.72200
C  -5.79400 39.08200 37.84700
C  -7.05500 39.95500 38.06100
C  -4.88200 39.20500 39.10600
C  -6.15900 36.95500 36.36500
C  -6.71500 37.79100 35.17900
H  -7.81000 37.10500 34.27300
N  -9.18100 42.01000 38.45800
C  -7.87400 42.35600 38.14400
C  -7.73900 43.72000 37.82100
C  -9.03500 44.30500 37.90200
C  -9.91300 43.22600 38.39200
C  -6.47500 44.39900 37.34100
C  -9.41100 45.68100 37.38600
O  -8.57300 46.49800 36.98600
C  -10.83800 46.11500 37.31700
N  -11.99400 41.01600 39.15400
C  -12.22100 42.37500 39.10300
C  -13.75100 42.61200 39.21100
C  -14.34300 41.20500 39.55200
C  -13.18500 40.30200 39.35800
C  -14.05800 43.62700 40.26200
C  -15.68900 40.71300 38.89400
C  -16.66600 39.96300 39.85000
N  -10.95600 38.31300 38.86000
C  -12.26300 37.95900 39.11300
C  -12.38700 36.54700 39.00500
C  -11.10400 36.05100 38.72400
C  -10.31700 37.19100 38.52500
C  -13.68400 35.70200 39.20800
C  -10.31700 34.87400 38.41800
O  -10.56100 33.68400 38.44700
C  -8.89300 35.34600 38.02500
C  -7.86700 34.88200 39.11000
O  -8.00200 34.88100 40.30900
O  -6.79800 34.29000 38.39800
C  -5.76500 33.61100 39.21400
H  -5.85300 41.70900 37.72300
H  -11.78500 44.32500 38.91500
H  -14.27600 38.53500 39.61600
H  -6.05100 37.01200 38.52800
H  -5.18400 39.43400 37.01500
H  -4.79400 38.31400 39.72900
H  -5.28100 39.96100 39.78100
H  -3.88300 39.54200 38.82900
H  -6.64600 35.98000 36.32700
H  -5.09600 36.90900 36.13100
H  -5.80400 38.02700 34.62800
H  -7.07400 38.75700 35.53600
H  -6.55600 44.52200 36.26100
H  -5.60600 43.75200 37.46200
H  -6.11700 45.28900 37.85900
H  -11.22000 46.46800 38.27500
H  -11.52800 45.32600 37.01900
H  -10.86000 46.86500 36.52700
H  -14.16100 42.98600 38.27300
H  -14.37700 41.10600 40.63700
H  -13.14600 44.08100 40.65000
H  -14.46000 43.11800 41.13800
H  -14.79600 44.33900 39.89300
H  -15.59300 40.09300 38.00300
H  -16.26000 41.57200 38.54200
H  -16.15600 39.60900 40.74600
H  -16.78800 39.03200 39.29500
H  -17.60900 40.49700 39.96400
H  -14.11600 35.26700 38.30700
H  -14.49400 36.27700 39.65800
H  -13.48500 35.03800 40.05000
H  -8.69900 35.01600 37.00500
H  -5.94700 32.56300 39.45300
H  -5.81500 33.99400 40.23300
H  -4.71000 33.75900 38.98500

