158

Mg 3.66800 -2.81200 44.57100
C  5.90900 -0.65600 43.49200
C  1.17300 -1.07500 42.82600
C  1.43300 -5.33500 45.36300
C  6.13100 -4.86500 45.80400
N  3.56000 -1.15400 43.15000
C  4.71100 -0.41900 42.77400
C  4.33700 0.71200 41.89100
C  2.78600 0.75800 41.84400
C  2.43700 -0.61400 42.55700
C  2.19400 1.98600 42.51400
C  5.05500 0.64700 40.50400
C  6.11100 1.74100 40.14200
H  5.95400 2.49300 38.86800
N  1.53100 -3.08900 44.23600
C  0.72100 -2.24800 43.53500
C  -0.63200 -2.82900 43.56300
C  -0.58400 -4.01900 44.31300
C  0.84000 -4.19400 44.72900
C  -1.80400 -2.11000 42.97700
C  -1.81900 -4.84900 44.65200
O  -2.90400 -4.62900 44.14000
C  -1.72000 -6.02400 45.57300
N  3.71100 -4.82000 45.50600
C  2.70700 -5.60000 45.77900
C  3.18900 -6.96800 46.30200
C  4.67100 -6.84800 46.17200
C  4.85100 -5.44000 45.78900
C  2.71000 -7.25100 47.80600
C  5.35700 -7.81200 45.15700
C  6.50800 -8.68400 45.64100
N  5.63500 -2.79600 44.69500
C  6.50000 -3.59500 45.30400
C  7.77300 -2.98700 45.41700
C  7.63200 -1.82900 44.66700
C  6.29800 -1.76200 44.27700
C  9.07800 -3.44600 46.12500
C  8.31300 -0.67100 44.18300
O  9.54700 -0.41700 44.11700
C  7.19500 0.16500 43.39300
C  7.02400 1.53100 43.91800
O  7.01300 2.53800 43.26100
O  6.89800 1.49500 45.29100
C  6.48000 2.71200 46.05800
H  0.33100 -0.55500 42.36500
H  0.80700 -6.18100 45.65300
H  6.97900 -5.51600 46.02700
H  4.62600 1.64800 42.36800
H  2.37500 0.67800 40.83700
H  2.89900 2.75900 42.82100
H  1.60600 1.76900 43.40600
H  1.56200 2.45600 41.76000
H  4.29900 0.73100 39.72300
H  5.36500 -0.39100 40.38900
H  7.07400 1.23600 40.22500
H  6.10500 2.48600 40.93800
H  -2.67100 -2.05800 43.63500
H  -1.92500 -2.78900 42.13300
H  -1.51200 -1.13400 42.58700
H  -1.28000 -5.60100 46.47700
H  -1.08800 -6.82200 45.18400
H  -2.63100 -6.51600 45.91400
H  2.83800 -7.77900 45.66500
H  5.28300 -6.90000 47.07300
H  2.13700 -8.17800 47.83400
H  2.08800 -6.45300 48.21200
H  3.59800 -7.41300 48.41600
H  5.71400 -7.25200 44.29300
H  4.60300 -8.50800 44.78800
H  6.33600 -9.75000 45.49900
H  6.69300 -8.49200 46.69800
H  7.33700 -8.27800 45.06100
H  9.88200 -3.56900 45.40000
H  8.87900 -4.36600 46.67400
H  9.38900 -2.71900 46.87500
H  7.56400 0.26800 42.37200
H  5.51900 2.58500 46.55800
H  6.52900 3.57500 45.39400
H  7.20300 2.82300 46.86600
Mg 36.17800 49.22900 24.86300
C  36.30900 47.44100 27.83500
C  35.21600 52.01500 26.60800
C  35.51100 50.85400 21.93900
C  36.71700 46.20900 23.17700
N  35.91100 49.68200 27.05800
C  35.98300 48.80300 28.11100
C  35.60400 49.45700 29.48100
C  35.06700 50.90400 29.01100
C  35.34900 50.87600 27.46400
C  33.56100 51.10700 29.35700
C  36.84800 49.66600 30.41500
C  36.61100 49.12400 31.84300
H  35.22700 49.11900 32.41000
N  35.60200 51.20100 24.36500
C  35.28600 52.17100 25.22500
C  34.85400 53.36000 24.53700
C  34.95600 53.14500 23.11400
C  35.37000 51.70400 23.04600
C  34.44100 54.70500 25.21100
C  34.57000 53.98600 21.92600
O  34.56900 53.60200 20.74400
C  34.06500 55.46100 22.22400
N  36.00000 48.61000 22.82200
C  35.94800 49.55400 21.84100
C  36.28900 48.85000 20.44200
C  36.76300 47.43900 20.80100
C  36.57800 47.37800 22.39600
C  35.12000 48.79800 19.44700
C  38.21700 47.14100 20.38900
C  39.30000 47.73500 21.29500
N  36.52000 47.23200 25.35000
C  36.73700 46.13500 24.55500
C  37.14700 45.00900 25.30700
C  36.98800 45.45000 26.66400
C  36.50900 46.79100 26.62700
C  37.58000 43.71100 24.78100
C  37.06000 45.07300 28.00100
O  37.30900 43.97800 28.50600
C  36.60100 46.30700 28.84200
C  35.43900 46.01100 29.78600
O  34.21500 45.92800 29.49500
O  35.82400 45.77900 31.06100
C  34.80200 45.05000 31.82300
H  34.77300 52.89700 27.07400
H  35.33400 51.33100 20.97200
H  36.94600 45.37700 22.50900
H  34.83400 48.81500 29.91000
H  35.70600 51.66900 29.45200
H  33.00900 51.23200 28.42600
H  33.30100 51.91300 30.04400
H  33.14600 50.23300 29.85900
H  37.21100 50.67900 30.58900
H  37.66900 49.16000 29.90800
H  37.22700 49.69500 32.53800
H  37.08800 48.14500 31.82200
H  34.65100 54.88500 26.26500
H  33.35800 54.72500 25.09200
H  34.86700 55.58800 24.73500
H  33.12200 55.44500 22.76900
H  33.99000 55.85800 21.21100
H  34.88000 56.01400 22.69200
H  37.09200 49.37500 19.92400
H  36.06300 46.69600 20.41800
H  34.53400 49.71200 19.54400
H  34.44900 47.94100 19.51400
H  35.65200 48.80400 18.49600
H  38.34900 47.43200 19.34700
H  38.32500 46.05800 20.45100
H  39.90600 48.38900 20.66800
H  39.93600 47.00400 21.79500
H  38.92600 48.37700 22.09300
H  38.08900 43.84800 23.82700
H  36.69400 43.12900 24.52700
H  38.23400 43.19100 25.48100
H  37.44300 46.66700 29.43300
H  34.48600 44.15000 31.29600
H  34.03000 45.74000 32.16500
H  35.33500 44.78100 32.73500

