158

Mg 15.91800 52.06100 25.02800
C  17.86400 51.20300 27.78300
C  13.36400 52.95200 27.13500
C  14.10000 52.76100 22.26200
C  18.52400 50.90300 22.89700
N  15.57500 51.86800 27.25100
C  16.59900 51.67500 28.18000
C  16.01700 51.98800 29.57400
C  14.51900 52.26000 29.37100
C  14.47400 52.36900 27.82500
C  13.51500 51.14600 29.92000
C  16.71200 53.17300 30.26300
C  16.56900 53.30100 31.83600
H  15.76300 52.18700 32.49300
N  14.00800 52.89200 24.75100
C  13.14100 53.18400 25.73100
C  11.95100 53.72900 25.09200
C  12.03800 53.56000 23.70000
C  13.41300 53.00300 23.52700
C  10.92200 54.43100 25.85600
C  11.08600 53.79900 22.58100
O  11.38500 53.71100 21.37500
C  9.72000 54.19000 22.87700
N  16.27400 51.89300 22.90100
C  15.33700 52.17300 21.98800
C  15.86700 52.02900 20.60400
C  17.30400 51.58600 20.78500
C  17.43600 51.49600 22.28800
C  15.01200 51.01800 19.84800
C  18.43900 52.52700 20.21100
C  19.72800 51.86900 19.62100
N  17.77700 51.14800 25.23300
C  18.76200 50.78800 24.28500
C  19.86300 50.25500 25.03500
C  19.53500 50.35400 26.41700
C  18.25500 50.92600 26.43200
C  21.02900 49.57900 24.46700
C  20.05000 50.11600 27.72200
O  21.14800 49.63800 28.08700
C  18.96900 50.61500 28.72900
C  18.38700 49.46500 29.44400
O  17.85800 48.46800 28.96900
O  18.76700 49.57200 30.76700
C  18.43600 48.36500 31.61600
H  12.53900 53.25000 27.78600
H  13.53500 52.85600 21.33200
H  19.25100 50.50500 22.18700
H  16.25200 51.05000 30.07900
H  14.28200 53.25700 29.74200
H  14.00800 50.21800 30.21100
H  12.88400 50.82500 29.09100
H  12.87000 51.53900 30.70500
H  16.12400 54.05500 30.01200
H  17.71800 53.41100 29.91700
H  16.21200 54.31300 32.02900
H  17.60800 53.15800 32.13300
H  10.89700 55.45700 25.48800
H  11.11900 54.47700 26.92700
H  9.90700 54.03400 25.84900
H  9.01900 54.07200 22.05100
H  9.75600 55.26700 23.04400
H  9.34400 53.53000 23.65900
H  15.88200 52.99700 20.10400
H  17.43000 50.61000 20.31700
H  15.45600 50.04500 19.63700
H  14.65400 51.36900 18.87900
H  14.04800 50.76100 20.28600
H  18.78400 53.15200 21.03600
H  18.14800 53.23100 19.43100
H  19.47600 50.92900 19.13100
H  20.30500 51.70500 20.53100
H  20.40900 52.55600 19.11800
H  21.58900 49.19700 25.32000
H  21.61400 50.33400 23.94200
H  20.68500 48.80500 23.78100
H  19.38300 51.32400 29.44700
H  18.80500 47.40700 31.25000
H  17.35300 48.32300 31.73800
H  18.84100 48.43800 32.62600
Mg -9.89700 39.60500 42.50900
C  -8.68700 36.52000 41.61400
C  -7.23200 41.11800 41.02300
C  -11.61100 42.60200 42.85000
C  -13.03800 37.91600 43.14700
N  -8.25100 38.86700 41.19600
C  -7.88100 37.56800 41.12300
C  -6.60200 37.39400 40.34000
C  -6.07900 38.87400 40.46300
C  -7.23800 39.71100 40.93900
C  -4.85000 38.99100 41.41800
C  -6.87400 36.85800 38.91400
C  -6.10500 35.50700 38.55500
H  -5.06400 35.59300 37.36800
N  -9.42000 41.63100 42.17400
C  -8.23100 42.01800 41.61000
C  -8.19700 43.43700 41.65400
C  -9.38700 43.91400 42.25100
C  -10.17200 42.68900 42.47800
C  -6.99900 44.24900 41.09700
C  -9.74700 45.42100 42.49500
O  -9.05800 46.37200 42.13900
C  -10.98300 45.76700 43.35100
N  -12.00200 40.18600 42.85900
C  -12.44000 41.48200 42.93900
C  -13.91500 41.56800 43.04700
C  -14.40400 40.07500 43.20300
C  -13.05800 39.35300 43.04100
C  -14.29100 42.44100 44.30300
C  -15.52100 39.51300 42.31400
C  -16.68900 38.94100 43.14100
N  -10.71800 37.65000 42.48300
C  -11.94600 37.11400 42.83800
C  -11.90700 35.70600 42.84100
C  -10.58300 35.38500 42.39000
C  -9.94900 36.59000 42.19000
C  -13.10300 34.77600 43.21000
C  -9.60000 34.33700 42.15700
O  -9.75500 33.09800 42.22300
C  -8.30400 34.98400 41.66600
C  -7.18600 34.69300 42.63000
O  -7.05000 35.23100 43.72100
O  -6.21900 33.82200 42.03600
C  -5.10000 33.63100 42.92800
H  -6.35500 41.66400 40.66900
H  -12.02800 43.60900 42.91300
H  -14.00500 37.42300 43.25900
H  -6.00200 36.68600 40.91300
H  -5.85900 39.22900 39.45700
H  -4.49000 37.96300 41.44000
H  -5.02900 39.44600 42.39300
H  -4.14200 39.57200 40.82700
H  -6.76300 37.54700 38.07700
H  -7.94000 36.65000 38.81400
H  -6.84100 34.74000 38.31500
H  -5.65000 34.96500 39.38400
H  -7.25800 45.27200 40.82200
H  -6.66500 43.82600 40.15000
H  -6.15300 44.37100 41.77400
H  -10.86200 46.76700 43.76700
H  -11.12700 45.01100 44.12300
H  -11.77500 45.68200 42.60700
H  -14.32400 41.98200 42.12600
H  -14.71500 39.91400 44.23500
H  -15.16000 42.03200 44.81900
H  -14.59400 43.45100 44.03000
H  -13.45500 42.40000 45.00200
H  -15.09800 38.63000 41.83600
H  -15.73900 40.31400 41.60700
H  -17.56200 39.11000 42.51100
H  -16.76200 39.40300 44.12600
H  -16.66800 37.85500 43.05300
H  -12.93600 34.31200 44.18200
H  -13.28100 33.93600 42.53900
H  -14.00000 35.39600 43.22500
H  -8.03200 34.65500 40.66400
H  -5.33800 33.02100 43.79900
H  -4.70100 34.58700 43.26900
H  -4.27000 33.17900 42.38400

