158

Mg 46.44300 4.78900 47.60100
C  44.89200 7.87600 46.53600
C  43.58800 3.20900 46.68900
C  48.31200 1.99600 47.64600
C  49.35100 6.75700 48.41400
N  44.53500 5.43700 46.64400
C  44.11900 6.78300 46.29900
C  42.71000 6.70700 45.70800
C  42.28700 5.20600 45.88500
C  43.53300 4.56300 46.50700
C  40.98800 4.95600 46.68800
C  42.58700 7.26100 44.26500
C  41.41500 8.27900 44.12000
H  40.28700 8.04100 43.14800
N  46.03900 2.88400 47.23600
C  44.74000 2.42100 46.98300
C  44.87000 0.98600 46.86800
C  46.19100 0.52600 47.11200
C  46.92900 1.78800 47.35000
C  43.72900 -0.00800 46.41100
C  46.77000 -0.86700 47.11400
O  46.05200 -1.79600 46.90000
C  48.18100 -1.22000 47.29500
N  48.55900 4.44200 47.93300
C  49.08300 3.19900 47.74400
C  50.62300 3.23000 47.96700
C  50.93400 4.74000 48.37000
C  49.54100 5.36400 48.27700
C  51.15500 2.17900 49.01600
C  52.12800 5.29900 47.55900
C  51.82100 5.96300 46.22300
N  46.99300 6.89700 47.68500
C  48.22900 7.48700 48.02700
C  48.06400 8.93900 48.10400
C  46.76300 9.12100 47.50000
C  46.21200 7.86800 47.21100
C  49.11300 9.94100 48.54300
C  45.74000 10.08400 47.07900
O  45.75600 11.34200 47.19900
C  44.45500 9.27600 46.46400
C  43.29000 9.62400 47.21400
O  42.97100 9.11200 48.27600
O  42.64900 10.59300 46.42100
C  41.37900 11.10700 46.99900
H  42.68500 2.65300 46.42700
H  48.91600 1.09600 47.77300
H  50.24500 7.25500 48.79800
H  42.21100 7.35400 46.42900
H  42.17900 4.76900 44.89200
H  40.48200 4.29500 45.98500
H  40.48600 5.89300 46.93000
H  41.18800 4.44400 47.62900
H  42.26300 6.44900 43.61500
H  43.43500 7.77600 43.81200
H  41.80800 9.26100 43.85500
H  40.84700 8.36300 45.04600
H  42.82500 0.57900 46.24700
H  43.56500 -0.74300 47.19900
H  44.08800 -0.61900 45.58300
H  48.22200 -2.30900 47.31000
H  48.36200 -0.88300 48.31600
H  48.73500 -0.78800 46.46100
H  50.90900 2.93900 46.95700
H  51.16100 4.71800 49.43600
H  51.45900 1.25500 48.52400
H  50.30700 2.01400 49.68100
H  51.99200 2.42500 49.67000
H  52.72200 4.44200 47.23900
H  52.76700 5.81800 48.27400
H  52.25000 6.96100 46.30700
H  50.76400 6.13100 46.01700
H  52.23200 5.45100 45.35200
H  48.61000 10.88200 48.76400
H  49.85400 10.20400 47.78800
H  49.51700 9.59800 49.49500
H  44.44800 9.56800 45.41400
H  41.51300 11.14600 48.08000
H  40.47000 10.54600 46.78300
H  41.29300 12.09400 46.54500
Mg 1.07700 42.02300 24.99000
C  2.13500 42.13000 28.42400
C  -2.01800 41.12400 26.24700
C  0.08900 41.57700 21.87100
C  4.39700 42.74600 24.02000
N  0.23100 41.53000 27.11400
C  0.80400 41.84600 28.29100
C  -0.17700 41.66500 29.44700
C  -1.55500 41.27600 28.76800
C  -1.13700 41.32300 27.29200
C  -1.89400 39.82700 29.10100
C  -0.24300 42.98300 30.31800
C  -0.31500 42.88100 31.85600
H  -0.47600 41.47100 32.45900
N  -0.80700 41.49700 24.16700
C  -1.88100 41.07300 24.85600
C  -2.95200 40.85000 23.85100
C  -2.41600 40.96400 22.55400
C  -0.99600 41.35700 22.79300
C  -4.36100 40.44600 24.17700
C  -2.98500 40.74800 21.16900
O  -2.33600 41.04200 20.18000
C  -4.38000 40.23600 20.97300
N  2.05000 42.31400 23.26500
C  1.36000 42.05300 22.10300
C  2.28000 42.15800 20.79500
C  3.64700 42.60700 21.51400
C  3.35700 42.53300 23.02500
C  2.26100 40.87400 19.91300
C  4.10700 44.09000 21.11300
C  2.95900 45.12700 21.09800
N  2.92600 42.39400 25.95300
C  4.14200 42.73300 25.45000
C  5.12800 42.74500 26.54100
C  4.28600 42.64900 27.70600
C  3.04500 42.32700 27.30400
C  6.56300 43.04900 26.43100
C  4.30600 42.69100 29.21300
O  5.16200 42.97500 30.07400
C  2.98100 42.36600 29.71500
C  3.34000 41.08200 30.47900
O  3.76300 40.08200 29.95200
O  3.01000 41.20200 31.75500
C  3.41600 40.29700 32.80300
H  -3.04600 41.01900 26.60100
H  -0.16200 41.51300 20.81000
H  5.39200 43.09600 23.73900
H  0.18300 40.90200 30.13600
H  -2.36300 41.98400 28.95500
H  -1.47300 39.48200 30.04600
H  -1.53400 39.22700 28.26600
H  -2.98100 39.87500 29.16800
H  -1.10200 43.53500 29.93400
H  0.68100 43.54700 30.19100
H  -1.16100 43.44800 32.24500
H  0.52100 43.35300 32.37300
H  -5.03000 41.02800 23.54400
H  -4.62100 40.66100 25.21300
H  -4.53500 39.37500 24.06700
H  -4.44100 39.28600 21.50400
H  -4.46900 40.12500 19.89300
H  -5.12000 40.95700 21.32100
H  1.78000 42.98500 20.28900
H  4.38100 41.86400 21.20300
H  1.53300 40.15000 20.27700
H  3.23800 40.38900 19.90100
H  2.12100 41.15200 18.86800
H  4.35600 43.91300 20.06600
H  4.91800 44.44800 21.74700
H  2.07100 44.97100 21.71100
H  2.63000 45.25300 20.06600
H  3.35200 46.09200 21.41700
H  6.62500 43.88700 25.73700
H  7.06100 42.18500 25.99100
H  7.08000 43.27800 27.36300
H  2.63100 43.04000 30.49700
H  4.40000 40.57500 33.18100
H  3.37500 39.21700 32.66400
H  2.75400 40.46500 33.65300

