158

Mg 44.94000 5.50300 48.03000
C  43.05100 8.47900 47.57800
C  42.29900 3.68000 47.12800
C  47.02600 2.92000 47.96200
C  47.79200 7.59600 48.55500
N  42.98700 6.04000 47.31000
C  42.44200 7.28000 47.12300
C  41.14900 7.18200 46.52000
C  40.69300 5.71700 46.75700
C  41.96300 5.05200 47.20300
C  39.49300 5.46700 47.76300
C  41.13300 7.69300 45.03100
C  40.00100 8.63000 44.73200
H  39.19000 8.24300 43.49300
N  44.67700 3.51000 47.74500
C  43.45800 2.94100 47.32600
C  43.66300 1.51400 47.41000
C  45.06500 1.25100 47.62700
C  45.67300 2.57600 47.79600
C  42.45700 0.63900 47.16900
C  45.60500 -0.13300 47.67900
O  44.92300 -1.08500 47.39500
C  47.01100 -0.31200 48.21100
N  47.11100 5.35000 48.22800
C  47.71700 4.07400 48.19200
C  49.28800 4.21100 48.16700
C  49.48100 5.65600 48.64800
C  48.09100 6.28500 48.36700
C  50.07700 3.14000 49.01300
C  50.65100 6.46100 47.97400
C  51.46800 7.29600 48.93900
N  45.41300 7.62500 48.01900
C  46.58800 8.28500 48.32800
C  46.32600 9.70000 48.34700
C  44.93000 9.88000 48.03700
C  44.47400 8.55500 47.93900
C  47.30200 10.75400 48.64900
C  43.79400 10.77600 47.89100
O  43.66100 11.97400 48.13300
C  42.59900 9.93200 47.45100
C  41.44400 10.12200 48.43800
O  41.19000 9.49400 49.44000
O  40.57400 11.03800 47.87900
C  39.40700 11.33000 48.68700
H  41.33400 3.22500 46.89700
H  47.78400 2.15900 47.76600
H  48.57900 8.26200 48.91600
H  40.44000 7.85100 47.00900
H  40.50600 5.28800 45.77200
H  39.15900 6.44700 48.10400
H  39.83100 4.87000 48.61000
H  38.70700 4.92400 47.23900
H  41.15600 6.90600 44.27800
H  42.02700 8.30300 44.89900
H  40.42700 9.59900 44.47100
H  39.29100 8.75800 45.55000
H  42.40900 -0.21400 47.84600
H  42.51600 0.37900 46.11200
H  41.52800 1.18200 47.34300
H  46.95500 -1.16200 48.89100
H  47.24600 0.50300 48.89500
H  47.79100 -0.32100 47.45000
H  49.62900 4.17200 47.13200
H  49.66200 5.61400 49.72300
H  49.34400 2.53100 49.54100
H  50.76600 3.58500 49.73200
H  50.71300 2.55600 48.34700
H  50.16900 7.20200 47.33700
H  51.34800 5.81700 47.43800
H  51.09100 7.32800 49.96100
H  51.55900 8.32300 48.58500
H  52.46100 6.87200 49.08600
H  46.91300 11.77100 48.60000
H  48.15200 10.63800 47.97600
H  47.54000 10.70600 49.71100
H  42.18900 10.29500 46.50900
H  39.19900 12.35000 49.01000
H  39.34000 10.77700 49.62400
H  38.58300 11.00500 48.05200
Mg 10.07900 47.90600 26.74500
C  8.35300 47.78400 29.90300
C  12.76600 48.85100 28.41200
C  11.63200 47.62700 23.73700
C  7.01500 46.92500 25.31100
N  10.45100 48.34300 28.91500
C  9.69400 48.18500 30.00800
C  10.38900 48.49200 31.32500
C  11.63500 49.31700 30.72900
C  11.66100 48.87400 29.28400
C  11.68000 50.81600 30.77500
C  10.84700 47.17700 32.17500
C  10.50000 47.24200 33.71200
H  10.41400 45.95600 34.56600
N  11.88900 48.33000 26.13000
C  12.92700 48.64500 26.98600
C  14.17900 48.64100 26.22100
C  13.74800 48.39300 24.84600
C  12.32200 48.12200 24.82000
C  15.52700 48.95600 26.86800
C  14.62700 48.31300 23.65200
O  14.21600 48.16400 22.46700
C  16.14500 48.33900 23.66500
N  9.40100 47.39800 24.87700
C  10.21000 47.25200 23.75400
C  9.44300 47.05700 22.52000
C  8.01500 46.58500 23.08900
C  8.15700 46.96100 24.51100
C  9.37800 48.36300 21.63300
C  7.88900 45.00900 22.96900
C  9.06100 44.10300 23.43700
N  8.03800 47.68700 27.34300
C  6.91700 47.25600 26.65200
C  5.71200 47.31800 27.48900
C  6.33200 47.41700 28.78700
C  7.69400 47.62300 28.65400
C  4.24900 46.83400 27.13900
C  5.95600 47.23400 30.11900
O  4.96100 46.79600 30.57900
C  7.31800 47.57300 30.98300
C  7.47300 46.33100 31.83300
O  7.98800 45.29600 31.42200
O  6.80800 46.50200 32.94900
C  6.60000 45.28300 33.78600
H  13.61500 49.23700 28.98100
H  12.09100 47.49800 22.75500
H  6.07300 46.73700 24.79200
H  9.82900 49.16100 31.97900
H  12.56600 48.87900 31.09000
H  12.57400 51.16800 31.29000
H  10.88300 51.41500 31.21600
H  11.73000 51.21900 29.76300
H  11.89700 46.89300 32.10200
H  10.39200 46.24800 31.83200
H  9.53900 47.73600 33.85000
H  11.26100 47.84600 34.20500
H  15.51200 48.87300 27.95500
H  15.81600 49.97900 26.63000
H  16.30400 48.36700 26.38000
H  16.61000 49.24700 24.04900
H  16.43400 48.10400 22.64100
H  16.39600 47.50200 24.31600
H  9.89100 46.26400 21.92100
H  7.20900 47.09300 22.56000
H  10.08400 49.11700 21.98200
H  8.39000 48.82200 21.66600
H  9.62700 48.08200 20.61000
H  7.75200 44.58300 21.97500
H  7.01200 44.72300 23.55000
H  9.44600 43.54400 22.58500
H  8.54900 43.40100 24.09600
H  9.85600 44.53400 24.04500
H  4.05200 46.89900 26.06900
H  3.54400 47.39900 27.74800
H  4.08300 45.79600 27.42600
H  7.08000 48.40900 31.64100
H  6.75700 45.57200 34.82500
H  7.08000 44.35600 33.47100
H  5.52400 45.11400 33.74200

