158

Mg 40.48900 9.29700 29.21200
C  42.09400 10.67400 31.96600
C  38.28100 7.78000 31.38300
C  39.19000 7.75400 26.67600
C  43.38700 10.23200 27.24600
N  40.23300 9.17700 31.35900
C  40.90100 9.97500 32.28500
C  40.23300 9.94100 33.66400
C  39.25100 8.74700 33.48700
C  39.28400 8.47100 32.02200
C  39.45500 7.53700 34.41200
C  39.64500 11.31400 34.13400
C  38.91400 11.34700 35.50400
H  39.53700 12.25400 36.60000
N  38.98700 8.00700 28.97700
C  38.13900 7.63400 29.99400
C  37.06500 6.80200 29.41700
C  37.28000 6.70300 27.94600
C  38.48800 7.50400 27.78100
C  35.97000 6.17600 30.22300
C  36.44900 5.92100 26.94400
O  36.78400 5.90600 25.75800
C  35.36200 4.96500 27.32800
N  41.32500 8.90100 27.29000
C  40.43800 8.35100 26.43000
C  40.92700 8.53700 24.93000
C  42.29300 9.24600 25.10300
C  42.37700 9.50000 26.62400
C  40.96800 7.28500 24.00000
C  42.54800 10.53700 24.22800
C  41.79400 11.86700 24.61700
N  42.29100 10.33600 29.49300
C  43.36100 10.63400 28.65500
C  44.32200 11.51000 29.26900
C  43.92400 11.48500 30.59600
C  42.71700 10.77700 30.65400
C  45.45500 12.22100 28.67700
C  44.27300 11.89200 31.84700
O  45.25300 12.54300 32.16400
C  43.15400 11.37500 32.81100
C  43.68700 10.40200 33.86600
O  44.57600 9.55800 33.66100
O  43.16000 10.73700 35.09700
C  43.68600 9.84800 36.21800
H  37.49100 7.42300 32.04800
H  38.70000 7.31500 25.80500
H  44.29700 10.52200 26.71800
H  41.03700 9.70100 34.36000
H  38.32800 9.30300 33.65200
H  39.97000 6.73200 33.88900
H  38.48400 7.28300 34.83800
H  40.19800 7.83500 35.15100
H  38.86700 11.59800 33.42500
H  40.50100 11.98800 34.14400
H  38.82300 10.30200 35.80300
H  37.87900 11.68800 35.49500
H  35.07900 6.19500 29.59600
H  35.74600 6.67000 31.16800
H  36.23600 5.14000 30.43000
H  34.41700 5.50400 27.39600
H  35.58100 4.35900 28.20700
H  35.25800 4.23300 26.52700
H  40.23700 9.29000 24.54700
H  43.11600 8.57300 24.86400
H  40.06400 7.23500 23.39400
H  41.09500 6.42300 24.65500
H  41.77700 7.47800 23.29500
H  42.65900 10.49400 23.14500
H  43.57400 10.83300 24.44800
H  42.59100 12.50600 24.99900
H  41.02400 11.57400 25.33000
H  41.30000 12.21100 23.70800
H  45.56800 12.12600 27.59700
H  46.36100 11.78800 29.10200
H  45.42100 13.27300 28.96000
H  42.75300 12.24400 33.33200
H  43.13900 10.04200 37.14100
H  44.76600 9.95100 36.32200
H  43.42300 8.86900 35.81800
Mg 42.25900 41.88400 26.13000
C  41.64600 44.30300 28.37600
C  43.30900 39.85300 28.69800
C  43.05900 39.73800 23.77200
C  41.71700 44.34700 23.49000
N  42.27300 42.00500 28.29700
C  41.93300 43.08900 29.00400
C  41.86900 42.80100 30.52400
C  42.78500 41.54500 30.62200
C  42.77600 41.08400 29.13100
C  44.22800 41.91300 31.05900
C  40.36300 42.68800 31.05000
C  40.15200 43.22300 32.56400
H  40.80400 42.41500 33.67000
N  42.91100 40.03200 26.26000
C  43.40100 39.38300 27.36800
C  43.90100 38.08400 26.98900
C  43.81100 38.01100 25.56700
C  43.23400 39.28500 25.13900
C  44.40800 36.97400 27.97100
C  43.91600 36.85500 24.66600
O  43.53200 36.86700 23.50400
C  44.16000 35.54600 25.27600
N  42.46500 42.08700 23.87900
C  42.66800 41.00200 23.13800
C  42.70400 41.25400 21.72700
C  42.09600 42.66000 21.64100
C  42.05800 43.05300 23.14100
C  44.11900 41.06700 21.08300
C  40.67100 42.73700 21.01900
C  39.56700 41.79300 21.61400
N  41.79600 43.91600 25.92800
C  41.62200 44.73100 24.84300
C  41.33000 46.06200 25.29900
C  41.32200 46.01300 26.68400
C  41.56100 44.63200 26.99500
C  41.08800 47.30900 24.37800
C  41.06800 46.65400 27.94000
O  40.68000 47.77400 28.20100
C  41.26200 45.59000 29.07400
C  42.10400 46.11500 30.17200
O  43.33400 46.13600 30.15600
O  41.34000 46.41900 31.26100
C  41.92600 46.95200 32.52900
H  43.66000 39.07600 29.38000
H  43.32900 39.11800 22.91500
H  41.43100 45.12000 22.77300
H  42.36700 43.61400 31.05400
H  42.38700 40.73900 31.23900
H  44.14900 42.67200 31.83700
H  44.74400 42.22100 30.15000
H  44.61300 41.04100 31.58800
H  40.07800 41.63900 30.96900
H  39.64300 43.20100 30.41200
H  39.08300 43.17600 32.77200
H  40.33900 44.29200 32.65800
H  44.66600 37.37900 28.94900
H  45.28100 36.39000 27.67700
H  43.50100 36.37200 28.02800
H  44.00200 34.76600 24.53100
H  43.47100 35.34600 26.09700
H  45.19100 35.63200 25.61800
H  42.09000 40.52600 21.19600
H  42.77000 43.37600 21.17200
H  44.44800 41.98400 20.59500
H  44.11500 40.27000 20.34000
H  44.75500 40.82900 21.93500
H  40.75100 42.42900 19.97700
H  40.39400 43.79100 21.03700
H  39.06600 41.28700 20.78900
H  38.84200 42.50200 22.01300
H  39.83600 41.06800 22.38200
H  41.84200 47.42300 23.60000
H  41.12800 48.26100 24.90600
H  40.16000 47.22400 23.81300
H  40.23600 45.56700 29.44100
H  41.82200 46.24300 33.35000
H  41.31600 47.82500 32.76200
H  42.93700 47.35900 32.52300

