158

Mg 25.79600 -8.03000 47.56100
C  27.66600 -5.51600 46.41200
C  23.36100 -7.19700 45.18100
C  24.02300 -10.84100 48.40000
C  28.27500 -8.92400 49.94800
N  25.65000 -6.57100 45.86600
C  26.53000 -5.59800 45.67800
C  26.11800 -4.65500 44.50500
C  24.62600 -5.16800 44.11900
C  24.46100 -6.33700 45.17300
C  23.53300 -4.08100 44.19700
C  27.14000 -4.73500 43.37800
C  27.62000 -3.35100 42.81100
H  27.21600 -3.02200 41.38400
N  23.86400 -8.86900 46.93700
C  23.03100 -8.29300 46.01300
C  21.75500 -9.04100 46.05100
C  21.98800 -10.13700 46.96100
C  23.31600 -10.02000 47.50700
C  20.58500 -8.62900 45.11300
C  20.89100 -11.16400 47.18300
O  19.76900 -10.94300 46.80000
C  21.10400 -12.40200 48.03700
N  26.16900 -9.63500 48.87300
C  25.24000 -10.62700 49.09700
C  25.53900 -11.45900 50.29700
C  27.00500 -11.08000 50.63000
C  27.18200 -9.83600 49.74500
C  24.49400 -11.14900 51.47500
C  28.03400 -12.13400 50.15200
C  28.28900 -13.23500 51.17500
N  27.72600 -7.48900 48.05800
C  28.50900 -7.77600 49.13400
C  29.65200 -6.78800 49.11900
C  29.29500 -5.85800 48.08500
C  28.18300 -6.35900 47.47400
C  30.75000 -6.72100 50.11100
C  29.81300 -4.70700 47.42300
O  30.80700 -4.05500 47.57400
C  28.74100 -4.34700 46.35600
C  28.12300 -3.03000 46.64500
O  27.35300 -2.81800 47.59900
O  28.34100 -2.22000 45.58000
C  27.68000 -0.93800 45.72400
H  22.58800 -6.87000 44.48200
H  23.51900 -11.71500 48.81700
H  28.91100 -9.15000 50.80600
H  26.17500 -3.59300 44.74700
H  24.52300 -5.72000 43.18500
H  22.95300 -4.16700 43.27900
H  24.05900 -3.12800 44.13500
H  22.87200 -4.20600 45.05500
H  26.60700 -5.33100 42.63700
H  28.02000 -5.26200 43.74700
H  28.68300 -3.24500 43.03000
H  27.12900 -2.52700 43.32800
H  20.05800 -9.53000 44.80000
H  20.89800 -8.03000 44.25800
H  19.85400 -8.02500 45.65100
H  21.89800 -13.10900 47.79800
H  20.15200 -12.88600 47.81900
H  21.06100 -12.23100 49.11300
H  25.50900 -12.46200 49.87100
H  27.07300 -10.81900 51.68600
H  23.96600 -12.08600 51.65300
H  23.74600 -10.43400 51.13200
H  25.00800 -10.86700 52.39400
H  28.97300 -11.60800 49.98400
H  27.77000 -12.59500 49.19900
H  29.28700 -13.12200 51.59700
H  28.32500 -14.24100 50.75700
H  27.64200 -13.14200 52.04700
H  30.39000 -7.06500 51.08100
H  31.12400 -5.69900 50.04500
H  31.56800 -7.37100 49.80200
H  29.32100 -4.30700 45.43400
H  26.61400 -1.16100 45.67800
H  28.04900 -0.20200 45.01000
H  28.01300 -0.51800 46.67300
Mg 35.35300 1.39800 29.36000
C  32.89700 2.44900 31.56200
C  37.78200 1.59100 31.67100
C  37.64900 0.82300 26.86500
C  32.84600 1.64600 26.72600
N  35.40500 2.17300 31.37800
C  34.20500 2.40800 32.09700
C  34.58600 2.46000 33.62600
C  36.17400 2.31100 33.59700
C  36.49800 1.99100 32.12400
C  36.85700 3.55800 34.13900
C  33.88100 1.32600 34.43800
C  33.51400 1.55400 35.93300
H  33.74400 2.93400 36.38200
N  37.41000 1.04900 29.34800
C  38.21800 1.07500 30.41800
C  39.52500 0.49700 30.11700
C  39.49800 0.32000 28.64700
C  38.15100 0.76300 28.20400
C  40.53800 0.10000 31.10700
C  40.59700 -0.31700 27.68600
O  40.45900 -0.43100 26.48100
C  41.84200 -0.87000 28.35600
N  35.30600 1.33000 27.12700
C  36.38500 0.95500 26.38600
C  36.05500 0.70800 24.93300
C  34.46500 0.92300 24.87100
C  34.14000 1.34200 26.28300
C  36.83500 1.59300 24.00100
C  33.53500 -0.22000 24.33500
C  32.74600 0.18900 23.08100
N  33.26500 1.83500 29.16800
C  32.39300 1.88600 28.05700
C  31.04500 2.33800 28.57500
C  31.16800 2.39500 29.99600
C  32.58600 2.26300 30.23900
C  29.82300 2.42000 27.80800
C  30.44400 2.79800 31.19600
O  29.29500 3.14100 31.35700
C  31.56200 2.75300 32.29600
C  31.70500 3.97500 33.07500
O  32.32500 4.94600 32.65400
O  30.93400 3.94300 34.28700
C  30.77500 5.30200 34.89100
H  38.53400 1.45600 32.45100
H  38.34600 0.59000 26.05700
H  32.22300 1.89800 25.86500
H  34.25000 3.46900 33.86500
H  36.39700 1.42800 34.19500
H  37.86600 3.56000 33.72800
H  36.92400 3.44300 35.22100
H  36.30000 4.48000 33.97100
H  34.56300 0.47700 34.48900
H  33.03900 0.86400 33.92200
H  34.12800 0.95000 36.60100
H  32.44800 1.33800 36.01300
H  40.77300 -0.92800 30.83100
H  40.20600 0.01200 32.14200
H  41.35100 0.82500 31.11800
H  42.62400 -1.18200 27.66300
H  41.57600 -1.69100 29.02100
H  42.26600 -0.08400 28.98100
H  36.25400 -0.33300 24.67800
H  34.18300 1.80000 24.28900
H  37.26500 0.94700 23.23600
H  37.57700 2.12900 24.59300
H  36.12800 2.26400 23.51300
H  32.83500 -0.53700 25.10800
H  34.13200 -1.11200 24.14200
H  31.77900 -0.31300 23.07700
H  33.27900 -0.13500 22.18800
H  32.54500 1.24900 22.92800
H  29.69800 3.41300 27.37700
H  29.06400 2.21300 28.56200
H  29.88500 1.63000 27.05900
H  31.45600 1.91700 32.98800
H  30.30000 5.14900 35.86000
H  30.10500 5.84000 34.22000
H  31.68800 5.89100 34.97500

