158

Mg 30.12700 58.90300 38.56300
C  27.24100 57.05100 37.76800
C  32.05000 56.28700 37.64800
C  32.88700 60.95100 38.52100
C  28.01900 61.76600 38.85100
N  29.63100 57.04400 37.64500
C  28.41000 56.37000 37.47400
C  28.52400 54.96000 37.04300
C  30.09000 54.68300 37.36700
C  30.65700 56.11000 37.60100
C  30.39900 53.77000 38.56500
C  28.24200 54.78700 35.49800
C  26.87500 54.17900 35.05400
H  26.18100 55.06100 33.94200
N  32.21000 58.59900 38.30700
C  32.78000 57.46800 37.93400
C  34.24500 57.63300 37.88000
C  34.46000 58.97100 38.24700
C  33.16000 59.54700 38.39400
C  35.19900 56.55400 37.50000
C  35.81300 59.62100 38.50100
O  36.91900 59.08200 38.24400
C  35.92400 60.86800 39.22900
N  30.40600 61.01400 38.63800
C  31.63700 61.60900 38.56500
C  31.45700 63.11800 38.67300
C  29.93500 63.37900 38.87100
C  29.40600 61.95200 38.68800
C  32.44300 63.95500 39.59000
C  29.40200 64.42900 37.81600
C  28.45000 65.49400 38.32900
N  28.09000 59.39200 38.36900
C  27.38700 60.55600 38.66400
C  25.93700 60.35800 38.53700
C  25.83100 59.00600 38.18400
C  27.14200 58.46300 38.14300
C  24.86300 61.42700 38.75200
C  24.94200 57.90400 37.97500
O  23.69800 57.86300 38.06800
C  25.75000 56.64300 37.57700
C  25.30100 55.61000 38.44400
O  25.76100 55.44000 39.56900
O  24.33500 54.80300 37.87600
C  23.66300 53.85900 38.73500
H  32.66400 55.38500 37.60200
H  33.68800 61.65900 38.30000
H  27.35300 62.58100 39.14100
H  27.92700 54.35300 37.72400
H  30.55500 54.19600 36.51000
H  31.09400 52.94400 38.40900
H  29.52900 53.13800 38.74600
H  30.62800 54.17000 39.55200
H  29.02200 54.24700 34.96100
H  28.47000 55.79400 35.14700
H  26.34200 53.90600 35.96500
H  27.15200 53.20800 34.64200
H  35.97000 56.59400 38.27000
H  35.69000 56.90100 36.59000
H  34.75000 55.56600 37.40000
H  36.92700 61.13400 39.56400
H  35.17100 60.99300 40.00700
H  35.63400 61.60000 38.47500
H  31.78300 63.42700 37.67900
H  29.68000 63.69200 39.88400
H  31.83300 64.24500 40.44600
H  32.92400 64.82000 39.13300
H  33.19200 63.21800 39.87900
H  28.88300 64.05100 36.93600
H  30.30400 64.96800 37.52600
H  28.90600 66.42600 38.66300
H  27.85900 65.18400 39.19100
H  27.65700 65.83300 37.66300
H  23.95900 61.04900 38.27500
H  25.06800 62.44700 38.42700
H  24.80100 61.41400 39.84000
H  25.62400 56.37700 36.52800
H  23.27000 54.40000 39.59600
H  24.30700 53.08700 39.15600
H  22.96800 53.26500 38.14200
Mg -2.00500 34.02500 27.23200
C  -3.42400 32.13900 29.83200
C  -0.31300 35.85100 29.39100
C  -0.92000 35.93700 24.51300
C  -3.73600 32.07400 24.96400
N  -1.86700 33.92400 29.44200
C  -2.48800 33.13600 30.29700
C  -1.91900 33.31800 31.76100
C  -1.00200 34.59300 31.55700
C  -1.04900 34.85200 30.02300
C  -1.23400 35.88700 32.51600
C  -1.30400 32.03700 32.41200
C  -1.88500 31.56200 33.73100
H  -0.98700 31.69100 34.97600
N  -0.86200 35.63200 26.93300
C  -0.21200 36.23100 27.99900
C  0.67800 37.28000 27.49100
C  0.50300 37.26900 26.09400
C  -0.45400 36.22100 25.76900
C  1.56900 38.14200 28.38600
C  1.21200 38.20900 25.06900
O  0.97200 38.18400 23.85900
C  2.05600 39.34500 25.49700
N  -2.29100 34.00500 25.04400
C  -1.75100 34.88800 24.14200
C  -2.30200 34.79000 22.73400
C  -2.77700 33.31700 22.75500
C  -2.96800 33.07400 24.34600
C  -3.34800 35.97200 22.49500
C  -1.83000 32.27600 22.14200
C  -0.22000 32.32200 22.30900
N  -3.35200 32.55800 27.31400
C  -3.97300 31.82900 26.28700
C  -4.82700 30.81300 26.82500
C  -4.56600 30.90800 28.16700
C  -3.72100 31.96400 28.41700
C  -5.61500 29.76800 26.07000
C  -4.98000 30.31100 29.43500
O  -5.77300 29.39100 29.61200
C  -4.27400 31.14600 30.61000
C  -5.33100 31.80000 31.46400
O  -5.95900 32.82900 31.21800
O  -5.47400 31.12800 32.69200
C  -6.27700 31.77300 33.69600
H  0.41500 36.27100 30.08700
H  -0.64600 36.59700 23.68800
H  -4.16900 31.39900 24.22200
H  -2.88300 33.52800 32.22500
H  -0.00300 34.20600 31.75500
H  -0.34700 36.47300 32.75700
H  -1.61500 35.56500 33.48500
H  -1.84600 36.55700 31.91300
H  -0.23900 32.25500 32.50100
H  -1.49300 31.20100 31.74000
H  -2.27300 30.54300 33.73200
H  -2.71600 32.24800 33.89100
H  2.58500 38.22500 28.00200
H  1.75900 37.70800 29.36800
H  1.13200 39.13700 28.47500
H  1.54200 39.95600 26.23800
H  2.24500 40.04100 24.67900
H  2.98300 38.89100 25.84800
H  -1.39200 34.96400 22.16000
H  -3.75500 33.26200 22.27700
H  -2.92800 36.94800 22.73600
H  -4.19400 35.86600 23.17400
H  -3.64600 35.86400 21.45200
H  -2.07000 32.17000 21.08400
H  -2.13100 31.26600 22.41800
H  0.25300 32.50500 21.34400
H  0.15600 31.36400 22.66700
H  0.18200 33.12100 22.93300
H  -5.27500 29.80600 25.03500
H  -6.68600 29.87900 26.23500
H  -5.37600 28.75900 26.40600
H  -3.77700 30.44700 31.28300
H  -6.90700 31.05700 34.22400
H  -6.92500 32.60100 33.40900
H  -5.71100 32.25200 34.49400

