158

Mg 47.85000 16.31800 29.23600
C  45.63000 15.88400 32.09900
C  49.68000 18.33900 31.12500
C  49.37100 17.17300 26.41600
C  45.56600 14.39900 27.41700
N  47.67100 16.85400 31.41700
C  46.76900 16.69700 32.37500
C  47.12800 17.29200 33.77000
C  48.22800 18.29800 33.33200
C  48.50600 17.83100 31.83800
C  47.81600 19.83100 33.39900
C  47.61200 16.29900 34.85600
C  47.69400 16.67500 36.34600
H  47.24400 18.10500 36.72200
N  49.39200 17.48100 28.88400
C  50.04400 18.19800 29.79800
C  51.23900 18.74800 29.23200
C  51.14700 18.50500 27.82000
C  49.95000 17.62300 27.64400
C  52.11100 19.69700 30.05900
C  51.99500 18.85300 26.61000
O  51.67500 18.81100 25.41800
C  53.41500 19.48400 26.88100
N  47.37300 15.93900 27.10200
C  48.27200 16.29900 26.18900
C  47.86600 15.81800 24.84100
C  46.74600 14.74800 25.16800
C  46.52800 14.98400 26.64800
C  47.32300 17.06600 24.02700
C  47.18800 13.31600 24.97600
C  46.06900 12.24900 24.90100
N  46.07800 15.31700 29.56900
C  45.34700 14.49200 28.79700
C  44.21400 13.95800 29.54800
C  44.32800 14.49800 30.80700
C  45.44600 15.32100 30.82100
C  43.16300 13.08900 28.95200
C  43.64800 14.51100 32.11900
O  42.77400 13.80700 32.59500
C  44.53900 15.45400 33.02200
C  43.77500 16.59500 33.47200
O  43.05800 17.32800 32.81500
O  43.77200 16.51000 34.86000
C  42.92000 17.47700 35.58700
H  50.26800 18.96700 31.79800
H  49.90800 17.35600 25.48200
H  44.90000 13.76100 26.83300
H  46.26100 17.82400 34.16200
H  49.15300 18.15200 33.89000
H  46.86000 19.92300 33.91500
H  47.73000 20.32600 32.43100
H  48.58400 20.33700 33.98400
H  48.60800 15.95100 34.58100
H  46.93200 15.45200 34.77800
H  48.72800 16.53000 36.65700
H  47.21100 15.83700 36.84900
H  52.53300 19.12200 30.88300
H  51.35000 20.35700 30.47600
H  52.84800 20.21700 29.44700
H  53.29200 20.50800 27.23400
H  53.83100 19.56900 25.87700
H  54.02900 18.80300 27.46900
H  48.67700 15.30700 24.32300
H  45.82900 14.87100 24.59200
H  47.38700 18.03600 24.51900
H  46.27500 16.95000 23.75300
H  47.82900 17.20000 23.07100
H  47.77400 13.06500 25.86000
H  47.88800 13.15000 24.15700
H  46.21200 11.68000 23.98200
H  45.09100 12.73100 24.90500
H  46.11800 11.50200 25.69300
H  42.81500 12.44100 29.75700
H  43.58100 12.50100 28.13400
H  42.30900 13.70700 28.67600
H  44.92300 14.81900 33.82000
H  42.13000 17.01100 36.17600
H  42.67100 18.36500 35.00500
H  43.61900 17.83700 36.34200
Mg 36.12700 48.77500 24.06100
C  36.57400 47.04700 27.24200
C  34.86800 51.36800 25.97900
C  35.83700 50.35800 21.28700
C  37.43900 46.03800 22.49000
N  35.63600 49.04800 26.33800
C  36.03500 48.34600 27.45300
C  35.62000 49.01000 28.79900
C  34.99000 50.34500 28.27100
C  35.11100 50.25500 26.75900
C  33.54500 50.70600 28.75700
C  36.85900 49.11900 29.71800
C  36.86700 48.42000 31.13200
H  35.52000 48.43400 31.99000
N  35.53200 50.61200 23.68200
C  34.98600 51.54100 24.64800
C  34.55800 52.72200 23.89800
C  34.77600 52.45700 22.49900
C  35.36100 51.09300 22.43700
C  33.94900 53.89000 24.54000
C  34.38600 53.19500 21.23000
O  34.49000 52.73100 20.08600
C  33.67400 54.48900 21.34000
N  36.41100 48.17600 22.12100
C  36.34800 49.06600 21.13700
C  36.63700 48.44200 19.73100
C  37.36400 47.20700 20.18800
C  37.06300 47.11900 21.66800
C  35.39500 48.10200 18.90500
C  38.89300 47.15600 19.81400
C  39.79300 47.96300 20.76200
N  36.82000 46.85600 24.67000
C  37.29300 45.87000 23.88800
C  37.64000 44.73800 24.70200
C  37.36400 45.10900 26.01400
C  36.79500 46.41300 25.96700
C  38.30000 43.42600 24.29500
C  37.55400 44.71800 27.40100
O  38.07300 43.75300 27.98000
C  36.91800 45.94400 28.18000
C  35.73400 45.46800 29.03000
O  34.56100 45.62300 28.72900
O  36.17800 44.95200 30.20300
C  35.11600 44.47200 31.16400
H  34.43800 52.21800 26.51300
H  35.92500 50.87900 20.33200
H  37.77900 45.13000 21.98900
H  34.82500 48.43000 29.26800
H  35.64200 51.14200 28.62900
H  33.06800 49.78200 29.08500
H  32.88500 50.99800 27.94000
H  33.43900 51.44200 29.55300
H  37.08500 50.17000 29.90100
H  37.74300 48.66700 29.26900
H  37.62500 48.96500 31.69300
H  37.26100 47.40500 31.07000
H  32.87400 53.87800 24.71500
H  34.14400 54.84200 24.04800
H  34.30800 53.94800 25.56800
H  33.19600 54.78300 20.40600
H  34.34600 55.20400 21.81600
H  32.89600 54.23300 22.05900
H  37.26900 49.04700 19.08000
H  36.84300 46.32800 19.80700
H  35.26800 48.82500 18.09900
H  34.55200 47.97300 19.58300
H  35.48600 47.16800 18.35100
H  39.09500 47.58100 18.83100
H  39.21800 46.12300 19.94200
H  40.58100 48.47200 20.20700
H  40.18000 47.47600 21.65600
H  39.22900 48.76400 21.23900
H  38.48700 43.32300 23.22600
H  37.70700 42.65500 24.78800
H  39.27100 43.34200 24.78200
H  37.63500 46.24200 28.94500
H  34.98000 43.39200 31.21300
H  34.10500 44.87300 31.08400
H  35.47400 44.79100 32.14300

