158

Mg 46.98300 45.71100 43.83200
C  43.60300 44.74700 43.48000
C  47.82700 42.45300 42.57100
C  50.07600 46.62000 43.25800
C  45.86200 48.99600 44.07000
N  45.87500 43.91700 43.10000
C  44.49700 43.73900 43.20200
C  44.07500 42.26800 42.95500
C  45.46400 41.57800 42.75500
C  46.46300 42.73500 42.75500
C  45.69800 40.43200 43.81400
C  42.98600 41.92200 41.78700
C  43.20700 42.54700 40.39600
H  43.02600 41.64400 39.17100
N  48.76200 44.61300 43.20000
C  48.88900 43.34600 42.81400
C  50.26800 43.01300 42.57800
C  51.00200 44.22200 42.70000
C  49.95800 45.20500 43.06600
C  50.78900 41.63500 42.25400
C  52.49500 44.41900 42.44500
O  53.19400 43.45000 42.14900
C  53.10300 45.81300 42.62100
N  47.78500 47.50300 43.57100
C  49.12300 47.62600 43.45100
C  49.53600 49.11200 43.50100
C  48.08700 49.81200 43.46500
C  47.18800 48.73400 43.78600
C  50.28800 49.48800 44.79800
C  47.72600 50.41700 42.04000
C  48.01500 51.97500 41.90500
N  45.12200 46.74300 43.95600
C  44.81600 48.07600 44.06400
C  43.35300 48.22600 44.14700
C  42.86300 46.92900 44.00600
C  43.92200 46.10100 43.78600
C  42.48700 49.48300 44.14700
C  41.62100 46.17000 43.92000
O  40.44000 46.57200 43.85700
C  42.02600 44.70900 43.48200
C  41.49100 43.74200 44.51800
O  40.75300 42.74400 44.38400
O  41.88600 44.15400 45.72600
C  41.29800 43.47700 46.87200
H  48.00500 41.42400 42.25200
H  51.11300 46.93500 43.38900
H  45.49300 50.02300 44.10500
H  43.72400 41.83800 43.89300
H  45.41400 41.17600 41.74300
H  46.74400 40.36200 44.11000
H  45.54500 39.49100 43.28600
H  45.17500 40.46400 44.77000
H  41.98500 42.07200 42.19000
H  43.03400 40.83400 41.74600
H  44.23100 42.91800 40.43200
H  42.54200 43.40900 40.34700
H  51.45700 41.69400 41.39500
H  49.93200 40.98500 42.07700
H  51.31600 41.19800 43.10100
H  53.16600 46.08700 43.67400
H  52.57500 46.54400 42.01000
H  54.15200 45.71200 42.34000
H  50.12000 49.49700 42.66500
H  48.08900 50.61900 44.19700
H  50.71600 48.59900 45.26000
H  49.75000 50.09300 45.52700
H  51.12000 50.11200 44.47300
H  46.63700 50.36900 42.02700
H  48.21300 49.95600 41.18100
H  47.16200 52.64800 41.82000
H  48.66300 52.01800 41.03000
H  48.74300 52.25000 42.66900
H  42.18300 49.73100 43.13000
H  43.07400 50.29800 44.57100
H  41.65600 49.33200 44.83600
H  41.57500 44.56600 42.50000
H  41.57400 42.44200 46.66900
H  40.21000 43.41900 46.86100
H  41.58000 43.89800 47.83700
Mg 9.20400 48.44300 25.27500
C  7.07100 48.20800 28.00900
C  11.68300 49.27800 27.43000
C  11.23800 48.36200 22.68200
C  6.49300 47.96800 23.11900
N  9.29100 48.60300 27.57800
C  8.30000 48.56000 28.43900
C  8.75300 48.89000 29.85100
C  10.17700 49.63000 29.53800
C  10.44700 49.07100 28.09700
C  10.20600 51.14900 29.69100
C  8.76900 47.65200 30.77000
C  9.68400 47.61800 32.01800
H  9.08200 47.61800 33.47700
N  11.25100 48.75200 25.06700
C  12.11300 49.15200 26.06300
C  13.46600 49.27200 25.44500
C  13.31000 48.92700 24.04800
C  11.86900 48.72000 23.87100
C  14.67800 49.42300 26.29400
C  14.34300 48.66900 23.01400
O  14.23300 48.36600 21.83600
C  15.75400 48.63900 23.50900
N  8.84200 48.22900 23.12700
C  9.82100 48.12600 22.27400
C  9.52600 47.56800 20.85600
C  7.94700 47.52500 21.02600
C  7.71700 47.88800 22.51100
C  9.90700 48.41500 19.63500
C  7.25400 46.18800 20.66000
C  5.77200 46.17500 20.27200
N  7.25900 48.19700 25.44500
C  6.25000 48.02600 24.49000
C  5.01400 47.88800 25.19600
C  5.29800 47.88600 26.54300
C  6.67900 48.07400 26.65800
C  3.60600 47.71600 24.48500
C  4.63500 47.89700 27.85300
O  3.45600 47.79300 28.22400
C  5.80200 48.03900 28.87700
C  5.75000 46.76000 29.64600
O  6.35400 45.77000 29.24700
O  5.07000 46.89600 30.83200
C  5.25200 45.67900 31.71000
H  12.42800 49.77800 28.05200
H  11.93400 48.39700 21.84100
H  5.63300 47.76400 22.47700
H  8.02100 49.63400 30.16400
H  11.05200 49.17200 29.99900
H  9.22600 51.60800 29.82000
H  10.70600 51.58700 28.82800
H  10.75300 51.47900 30.57400
H  9.00600 46.77800 30.16400
H  7.76700 47.62800 31.20000
H  10.35300 48.47600 31.95500
H  10.21800 46.67200 31.92200
H  14.48500 49.40900 27.36600
H  15.17700 50.34300 25.99000
H  15.34700 48.58700 26.09300
H  16.02100 47.82600 24.18400
H  15.82400 49.62200 23.97500
H  16.44500 48.60000 22.66700
H  9.91900 46.56500 20.68900
H  7.52900 48.30100 20.38600
H  10.02300 49.42700 20.02200
H  9.12600 48.55600 18.88700
H  10.86200 48.05400 19.25300
H  7.26700 45.66100 21.61400
H  7.80900 45.78600 19.81200
H  5.13300 45.50000 20.84100
H  5.62700 46.06200 19.19800
H  5.29800 47.12900 20.50100
H  3.59400 47.03000 23.63800
H  3.56500 48.76800 24.20400
H  2.79200 47.36400 25.11800
H  5.61800 48.99400 29.36900
H  4.95900 45.94600 32.72500
H  6.28600 45.35600 31.83000
H  4.58800 44.85500 31.44700

