158

Mg 50.10600 35.52600 29.10200
C  47.45200 34.03300 31.08100
C  50.27800 37.94200 31.53500
C  51.74700 37.43300 27.02600
C  49.30300 33.23100 26.64500
N  48.94600 35.89900 30.95900
C  48.05100 35.13000 31.66400
C  47.87700 35.75000 33.05600
C  48.25600 37.22500 32.85400
C  49.26100 36.99000 31.75000
C  47.04700 38.08900 32.36800
C  48.64900 34.94000 34.10100
C  50.05200 35.37400 34.66800
H  50.12400 35.90100 36.05100
N  51.07500 37.35100 29.36000
C  51.11600 38.12000 30.46700
C  51.98000 39.26200 30.22400
C  52.35000 39.20400 28.84600
C  51.75600 37.97500 28.37000
C  51.97700 40.50700 31.15200
C  53.04200 40.22200 27.91700
O  53.02900 40.08600 26.71900
C  53.74900 41.45500 28.49800
N  50.50400 35.28300 27.08100
C  51.15100 36.30400 26.40100
C  51.34000 35.89300 24.93800
C  50.64900 34.50900 24.78400
C  50.19100 34.28800 26.21700
C  50.93500 36.91500 23.88300
C  51.34800 33.21800 24.15300
C  50.74200 32.73100 22.82900
N  48.75000 33.88100 28.90800
C  48.56000 33.03400 27.81500
C  47.61300 31.97800 28.19400
C  47.10000 32.37100 29.46600
C  47.80000 33.58200 29.79000
C  47.15000 30.87000 27.30100
C  46.12500 32.03500 30.48900
O  45.44000 30.99800 30.65600
C  46.28700 33.18400 31.52400
C  46.40600 32.49200 32.93200
O  46.98800 31.44100 33.23100
O  45.89800 33.31500 33.90500
C  45.78700 32.66500 35.25500
H  50.24800 38.62700 32.38500
H  52.23200 37.93100 26.18400
H  49.06700 32.47000 25.89800
H  46.89100 35.71300 33.52100
H  48.71900 37.74300 33.69300
H  46.21900 37.47300 32.01600
H  47.33200 38.71100 31.52000
H  46.65100 38.75500 33.13500
H  48.81400 33.94400 33.68900
H  48.08100 34.79900 35.02100
H  50.42300 36.22500 34.09600
H  50.74600 34.53400 34.70700
H  51.29000 41.31300 30.89300
H  52.98900 40.90900 31.11300
H  51.74200 40.19700 32.17100
H  54.27700 41.10800 29.38600
H  52.96200 42.16200 28.76300
H  54.38700 42.01300 27.81400
H  52.41600 35.71400 24.92400
H  49.76900 34.53700 24.14200
H  50.22900 37.69800 24.16100
H  50.52600 36.34300 23.05100
H  51.73900 37.52000 23.46400
H  51.23800 32.42500 24.89300
H  52.40400 33.40200 23.95600
H  50.08800 31.88200 23.02800
H  51.53200 32.57800 22.09500
H  50.01400 33.42400 22.40600
H  46.06500 30.78200 27.35600
H  47.67600 29.95000 27.55700
H  47.55500 31.14100 26.32600
H  45.39400 33.80800 31.50600
H  46.73500 32.50900 35.76800
H  45.23500 31.72900 35.33600
H  45.24000 33.20800 36.02600
Mg -13.20400 15.88200 41.52600
C  -10.06300 14.26300 41.22000
C  -11.89000 18.56000 39.77600
C  -16.33500 17.18700 41.12600
C  -14.52300 12.74400 42.37400
N  -11.20100 16.31500 40.67300
C  -10.06700 15.53100 40.61600
C  -8.89700 16.24300 39.89600
C  -9.57100 17.62400 39.46100
C  -11.00100 17.47800 39.98200
C  -8.87300 18.80100 40.11100
C  -8.19700 15.46200 38.64600
C  -6.67300 15.85300 38.56800
H  -6.19200 16.38900 37.29400
N  -13.98600 17.67100 40.76300
C  -13.22600 18.65500 40.14700
C  -14.05400 19.80400 39.98100
C  -15.41100 19.48800 40.29100
C  -15.29300 18.05000 40.77700
C  -13.45600 21.12200 39.45000
C  -16.59000 20.28500 40.00400
O  -16.60200 21.45600 39.51400
C  -17.98600 19.77000 40.22000
N  -15.13900 15.12000 41.67500
C  -16.26500 15.84800 41.60500
C  -17.52300 14.95500 41.81400
C  -16.98900 13.66000 42.29400
C  -15.44600 13.82300 42.11000
C  -18.67100 15.53800 42.75100
C  -17.53900 12.31800 41.59300
C  -18.15500 11.13500 42.47000
N  -12.41600 13.97300 42.03700
C  -13.08300 12.82900 42.31500
C  -12.17800 11.75400 42.56000
C  -10.98200 12.32800 42.02800
C  -11.18800 13.64400 41.72900
C  -12.42800 10.36300 43.00400
C  -9.54400 11.91500 41.76800
O  -8.93000 10.85900 42.10200
C  -8.95300 13.22000 41.23200
C  -7.78400 13.51500 42.10300
O  -7.88300 14.04200 43.19400
O  -6.61100 13.19100 41.49600
C  -5.46000 13.75500 42.22800
H  -11.57400 19.44300 39.21700
H  -17.39100 17.46300 41.08400
H  -14.91500 11.77700 42.69800
H  -8.24400 16.47200 40.73800
H  -9.57000 17.84300 38.39300
H  -9.03200 19.72300 39.55300
H  -7.81600 18.53800 40.15900
H  -9.24300 18.94800 41.12500
H  -8.55500 15.92900 37.72800
H  -8.25800 14.38200 38.51000
H  -6.19400 14.93300 38.90400
H  -6.45300 16.70900 39.20600
H  -13.13000 21.01300 38.41600
H  -12.60900 21.58500 39.95600
H  -14.22500 21.89400 39.45200
H  -18.26500 19.89000 41.26600
H  -18.12600 18.82000 39.70400
H  -18.65500 20.33900 39.57400
H  -18.05300 14.69800 40.89700
H  -17.06800 13.55400 43.37600
H  -19.64000 15.43700 42.26400
H  -18.53100 16.59200 42.99100
H  -18.69600 15.02800 43.71300
H  -16.74400 11.80800 41.04900
H  -18.39500 12.50300 40.94400
H  -17.98400 11.12000 43.54700
H  -17.61500 10.25600 42.11800
H  -19.21500 10.91800 42.34100
H  -11.52800 9.77100 43.16900
H  -13.10200 10.02200 42.21800
H  -13.01100 10.42800 43.92300
H  -8.50900 13.00000 40.26100
H  -5.14400 13.07600 43.02000
H  -5.69400 14.75400 42.59700
H  -4.72900 13.91600 41.43600

