158

Mg 53.94500 25.17300 44.27200
C  51.31200 27.57200 43.61200
C  51.86100 22.76700 43.06900
C  56.67900 23.24300 44.16200
C  55.97300 27.98000 45.20300
N  51.89100 25.25600 43.26400
C  51.00500 26.32400 43.09000
C  49.69800 25.85400 42.43600
C  49.85200 24.29300 42.61100
C  51.30500 24.04100 42.95100
C  48.87400 23.78900 43.74400
C  49.48500 26.22400 40.92100
C  50.75000 26.56000 40.09300
H  50.95200 25.64000 38.84400
N  54.25300 23.19200 43.65300
C  53.21800 22.33600 43.36000
C  53.79800 21.01700 43.17700
C  55.21700 21.12100 43.51100
C  55.47000 22.53400 43.84000
C  53.03900 19.77100 42.79500
C  56.19300 20.00300 43.54800
O  55.69100 18.84400 43.35500
C  57.60800 20.15300 43.89400
N  56.01100 25.59300 44.56600
C  56.94900 24.58300 44.43700
C  58.37400 25.10900 44.59900
C  58.10400 26.66600 44.68400
C  56.61100 26.78600 44.83400
C  59.27700 24.53600 45.75700
C  58.58300 27.52300 43.50100
C  59.28600 28.86600 43.83200
N  53.65100 27.33900 44.55700
C  54.56200 28.27400 45.07400
C  53.81300 29.52200 45.30900
C  52.60700 29.23000 44.74100
C  52.52000 27.92800 44.22500
C  54.44200 30.74200 45.80400
C  51.35100 29.79500 44.45600
O  51.04600 30.93100 44.70900
C  50.47600 28.77800 43.72000
C  50.10600 29.30000 42.35400
O  50.86600 29.28500 41.38600
O  48.75300 29.67500 42.35500
C  48.19000 30.11700 40.99600
H  51.31100 21.86400 42.79700
H  57.68500 22.82400 44.23400
H  56.54000 28.89300 45.39700
H  48.91500 26.25300 43.08100
H  49.80700 23.76300 41.66000
H  48.71900 24.51500 44.54200
H  49.34900 22.85600 44.04600
H  47.92200 23.62300 43.24000
H  48.87600 27.12700 40.87400
H  48.89300 25.50200 40.36000
H  51.72500 26.56300 40.58000
H  50.56600 27.59200 39.79300
H  52.17500 20.08300 42.20900
H  52.62400 19.33900 43.70600
H  53.62300 19.03000 42.24900
H  58.11000 19.28700 44.32600
H  57.80400 20.83100 44.72400
H  58.13000 20.57100 43.03300
H  58.94500 24.87200 43.70100
H  58.42300 27.08900 45.63600
H  58.64500 23.95400 46.42700
H  59.75400 25.27900 46.39600
H  60.07600 23.89400 45.38700
H  57.86600 27.60900 42.68400
H  59.36800 26.91400 43.05300
H  59.33500 29.42500 42.89700
H  60.27400 28.67200 44.25100
H  58.78200 29.43000 44.61700
H  55.09400 30.36900 46.59300
H  53.86200 31.63400 46.04200
H  54.99800 31.00800 44.90400
H  49.53200 28.62600 44.24500
H  48.44700 29.37700 40.23800
H  48.58400 31.10500 40.75700
H  47.10400 30.20400 41.04500
Mg -1.86800 33.90100 26.59000
C  -3.66700 32.58800 29.24500
C  -0.26900 35.92200 28.68500
C  -0.62400 35.37300 23.90800
C  -3.90100 31.79200 24.44100
N  -2.01300 34.23300 28.68100
C  -2.71100 33.55000 29.58100
C  -2.41400 34.03400 31.00100
C  -1.34400 35.14500 30.77600
C  -1.18000 35.17200 29.28700
C  -1.68800 36.50800 31.43400
C  -1.93900 32.95900 31.92300
C  -2.66700 32.75400 33.23200
H  -1.79000 32.33100 34.49100
N  -0.52900 35.35700 26.35600
C  0.06700 36.03300 27.40000
C  1.03200 36.92400 26.80900
C  0.92100 36.81900 25.37900
C  -0.08000 35.75600 25.16400
C  1.91000 37.87900 27.58300
C  1.65500 37.60800 24.35900
O  1.45500 37.50800 23.13800
C  2.71500 38.46100 24.80200
N  -2.27200 33.58700 24.40200
C  -1.60900 34.34200 23.53900
C  -1.96700 33.99900 22.10300
C  -2.76500 32.62000 22.30900
C  -3.01200 32.64000 23.78000
C  -2.72100 35.21900 21.32400
C  -2.03900 31.32000 21.88500
C  -1.50000 31.16900 20.43900
N  -3.39700 32.48000 26.78700
C  -4.08600 31.69800 25.85400
C  -4.96800 30.79300 26.54600
C  -4.88700 31.16000 27.92800
C  -3.92100 32.16700 27.93800
C  -5.85800 29.79000 25.90200
C  -5.40400 30.84900 29.21800
O  -6.19900 30.00100 29.62600
C  -4.57900 31.74800 30.17400
C  -5.67400 32.57400 30.84100
O  -6.03700 33.63300 30.48600
O  -6.03900 31.91800 32.02000
C  -7.14300 32.59800 32.76600
H  0.24800 36.49700 29.45600
H  -0.15000 35.73300 22.99200
H  -4.38900 31.10300 23.74900
H  -3.35500 34.47000 31.33600
H  -0.37900 34.70900 31.03600
H  -0.77100 36.91000 31.86500
H  -2.39900 36.37000 32.24800
H  -2.05200 37.22600 30.70000
H  -0.86400 33.02700 32.08700
H  -2.06300 32.07600 31.29700
H  -3.35600 31.94200 32.99800
H  -3.23400 33.66000 33.44400
H  1.64100 37.85100 28.63900
H  1.85300 38.92100 27.26800
H  2.90200 37.43600 27.49100
H  3.45300 37.92000 25.39600
H  2.25000 39.27500 25.35800
H  3.20300 39.02400 24.00700
H  -0.98400 33.83100 21.66200
H  -3.72500 32.65800 21.79400
H  -1.91700 35.52500 20.65400
H  -3.05000 35.98400 22.02700
H  -3.64900 34.86600 20.87400
H  -2.75400 30.52300 22.09000
H  -1.24600 31.13300 22.60900
H  -0.44100 31.42500 20.43000
H  -1.99600 31.84600 19.74300
H  -1.60100 30.09500 20.28800
H  -5.30700 28.85100 25.86000
H  -6.27000 30.08900 24.93900
H  -6.69100 29.60600 26.58100
H  -3.94200 31.13800 30.81400
H  -6.91400 33.63000 33.03100
H  -7.39600 32.00900 33.64700
H  -8.08300 32.67800 32.22000

