158

Mg 0.72700 7.75400 26.84600
C  1.54200 9.71100 29.66000
C  0.65100 5.05900 28.84500
C  0.46900 5.93100 24.09300
C  1.38300 10.58900 24.75700
N  1.04800 7.45700 29.01500
C  1.31700 8.35200 30.02800
C  1.22800 7.75200 31.44700
C  1.27600 6.18900 31.09400
C  0.99600 6.25300 29.50400
C  2.69500 5.51300 31.25300
C  -0.15600 8.27100 31.96400
C  -0.37200 8.60600 33.48000
H  0.67500 8.23300 34.51200
N  0.55000 5.86300 26.51300
C  0.51500 4.85800 27.46700
C  0.15200 3.55400 26.88000
C  0.22200 3.80600 25.49600
C  0.39600 5.21600 25.29100
C  -0.25600 2.32700 27.71000
C  -0.23100 2.84100 24.41700
O  -0.48100 3.11300 23.23700
C  -0.41300 1.34800 24.76500
N  0.77100 8.20900 24.74100
C  0.63900 7.27000 23.79400
C  0.76200 7.80600 22.37300
C  0.67600 9.36600 22.68200
C  0.98100 9.38200 24.16800
C  2.03900 7.36300 21.63000
C  -0.73000 9.95400 22.38100
C  -0.87100 11.44800 22.10800
N  1.32200 9.77500 27.12600
C  1.58000 10.80700 26.17700
C  1.94900 12.05300 26.85600
C  2.01600 11.65300 28.24200
C  1.54900 10.32400 28.34900
C  2.05100 13.48500 26.23000
C  2.18700 12.14400 29.66600
O  2.45200 13.26500 30.10100
C  1.84100 10.91900 30.54800
C  2.77200 10.84100 31.77100
O  3.86800 10.23400 31.75000
O  2.29200 11.48700 32.85800
C  3.26600 11.85300 33.92700
H  0.60800 4.21500 29.53600
H  0.62000 5.34100 23.18700
H  1.59400 11.39200 24.04600
H  2.11600 8.01200 32.02400
H  0.58100 5.57500 31.66700
H  2.73600 5.03300 32.23000
H  3.32800 6.39900 31.29200
H  3.00700 4.83700 30.45700
H  -0.83600 7.42600 31.86100
H  -0.52100 9.07600 31.32600
H  -1.32300 8.17600 33.79500
H  -0.34000 9.69500 33.49400
H  -0.96800 1.62500 27.27600
H  -0.79100 2.84200 28.50800
H  0.72300 1.92600 27.97400
H  0.40300 1.00600 25.40200
H  -0.36200 0.80000 23.82400
H  -1.39300 1.18500 25.21200
H  -0.08000 7.57900 21.71900
H  1.46100 9.87200 22.12100
H  2.47800 8.13500 20.99600
H  1.81700 6.52600 20.96800
H  2.75000 6.94100 22.34000
H  -1.39200 9.73400 23.21800
H  -1.08800 9.37900 21.52800
H  -0.88500 11.63800 21.03400
H  0.04300 11.79500 22.58900
H  -1.79500 11.90800 22.46000
H  1.94200 13.58800 25.15000
H  2.91900 14.00000 26.64100
H  1.16900 13.93700 26.68500
H  0.81100 11.12300 30.84200
H  4.32100 11.64000 33.75300
H  2.93400 11.48100 34.89600
H  3.26300 12.93800 34.02500
Mg 36.16000 48.46800 24.52500
C  36.30400 46.68400 27.53000
C  34.80100 51.08900 26.33600
C  35.57800 50.02600 21.71300
C  37.32400 45.68400 22.83600
N  35.65500 48.83800 26.74300
C  35.90100 47.99100 27.71800
C  35.65800 48.69500 29.08400
C  34.98300 50.06800 28.72000
C  35.07800 50.00700 27.17400
C  33.47600 50.29000 29.20100
C  36.96000 48.84700 29.93000
C  36.91800 48.37900 31.35500
H  35.58300 48.51800 32.08700
N  35.24100 50.23600 24.07000
C  34.78700 51.22300 24.91600
C  34.27700 52.34700 24.14900
C  34.46900 52.07000 22.77800
C  35.10700 50.70200 22.82800
C  33.81400 53.57700 24.80300
C  34.32100 53.05800 21.50600
O  34.71800 52.81200 20.37300
C  33.84000 54.51600 21.72700
N  36.35100 47.94800 22.56600
C  36.09800 48.76300 21.56400
C  36.37400 48.14300 20.20000
C  37.15800 46.84400 20.59200
C  36.98700 46.80700 22.13100
C  35.08600 47.89500 19.31100
C  38.63500 46.65300 20.09000
C  39.81000 46.98500 21.08600
N  36.87700 46.63900 25.03600
C  37.25900 45.60500 24.21800
C  37.64000 44.47800 25.05000
C  37.28300 44.86800 26.36900
C  36.76700 46.13700 26.28500
C  38.18900 43.16300 24.54600
C  37.15100 44.47200 27.75000
O  37.42900 43.39500 28.32900
C  36.54700 45.69700 28.55100
C  35.40300 45.18500 29.32300
O  34.20800 45.08700 29.02500
O  35.87600 44.97500 30.54700
C  34.98000 44.46600 31.57300
H  34.45900 51.97800 26.87000
H  35.50600 50.50000 20.73200
H  37.69400 44.75900 22.39000
H  34.98100 48.11700 29.71200
H  35.64400 50.88800 29.00100
H  33.22700 49.43700 29.83300
H  32.77900 50.29700 28.36300
H  33.32200 51.12700 29.88300
H  37.24800 49.89900 29.91800
H  37.76900 48.36000 29.38500
H  37.65000 48.89400 31.97800
H  37.17000 47.32000 31.41100
H  34.67300 54.24200 24.71100
H  33.45100 53.41100 25.81700
H  32.92500 53.90600 24.26600
H  32.84000 54.50000 22.16100
H  33.82500 54.84500 20.68800
H  34.53700 55.08400 22.34300
H  37.15100 48.79500 19.80000
H  36.56500 45.99900 20.24300
H  34.25700 48.50000 19.67800
H  34.64600 46.90400 19.42700
H  35.27600 48.11000 18.25900
H  38.78000 47.32700 19.24600
H  38.75000 45.68700 19.60000
H  40.28400 47.87900 20.68300
H  40.54900 46.18700 21.16200
H  39.55700 47.20100 22.12400
H  38.91800 43.30500 23.74800
H  37.33600 42.62100 24.13900
H  38.62500 42.65100 25.40400
H  37.28900 45.97600 29.29900
H  34.23800 45.24300 31.75900
H  35.45200 44.25100 32.53200
H  34.30300 43.69300 31.20900

