158

Mg 24.96600 2.01800 30.43700
C  27.39900 1.56900 32.99300
C  22.55500 2.08900 32.86200
C  22.66000 1.88600 28.05000
C  27.41900 1.26100 28.05400
N  24.99700 1.74900 32.67100
C  26.11000 1.76000 33.51800
C  25.63400 2.13500 34.98100
C  24.10500 2.09400 34.84600
C  23.83600 1.97800 33.37800
C  23.41000 0.97200 35.69100
C  26.32400 3.47900 35.34100
C  27.25800 3.54900 36.57200
H  26.62900 4.40100 37.74700
N  22.90800 1.93700 30.49000
C  22.07400 1.94800 31.55700
C  20.70600 1.97100 31.14300
C  20.69400 1.82400 29.73000
C  22.13200 1.85800 29.34300
C  19.61400 2.08800 32.18300
C  19.56600 1.67300 28.76200
O  19.69700 1.56600 27.56100
C  18.07900 1.77800 29.15500
N  25.10600 1.61300 28.32000
C  23.97500 1.76200 27.57000
C  24.27200 1.86900 26.14100
C  25.85000 1.55600 26.07000
C  26.17600 1.47800 27.51600
C  23.53900 0.95200 25.12300
C  26.63800 2.59000 25.28300
C  27.45100 2.15300 24.00900
N  26.97200 1.63200 30.47800
C  27.86200 1.26000 29.37700
C  29.15800 0.91500 29.99700
C  28.98700 1.11600 31.39600
C  27.71600 1.46400 31.59400
C  30.39100 0.51600 29.28700
C  29.81700 1.14800 32.58600
O  31.00300 1.02600 32.75400
C  28.70400 1.40000 33.72300
C  28.62500 0.39800 34.73000
O  28.30100 -0.75700 34.54600
O  28.98600 0.89800 35.96300
C  28.76600 0.08900 37.07400
H  21.75800 2.17800 33.60300
H  22.07300 1.94100 27.13100
H  28.31700 1.13200 27.44500
H  25.94900 1.36800 35.68800
H  23.61800 2.99800 35.21100
H  23.17700 0.17100 34.98900
H  22.56200 1.40400 36.22100
H  24.07600 0.60900 36.47400
H  25.53200 4.20200 35.53700
H  26.95900 3.86900 34.54600
H  28.19700 4.00100 36.25300
H  27.46900 2.56800 36.99700
H  19.83500 2.25400 33.23700
H  19.01900 1.18500 32.04900
H  19.02400 2.92900 31.82100
H  17.72900 0.93100 29.74500
H  17.40600 1.91300 28.30900
H  18.00600 2.62500 29.83700
H  24.17400 2.94900 26.02400
H  26.19200 0.57500 25.74000
H  22.47000 1.10300 25.27800
H  23.94000 -0.03100 25.37000
H  23.77600 1.24600 24.10000
H  27.23500 3.06300 26.06300
H  25.97400 3.33500 24.84500
H  27.01500 2.65300 23.14400
H  27.38900 1.07800 23.84300
H  28.50900 2.38500 24.13200
H  30.34600 0.59700 28.20100
H  30.67000 -0.51800 29.49300
H  31.11400 1.24200 29.66000
H  28.85700 2.35200 34.23200
H  29.71000 0.20900 37.60400
H  28.76100 -0.96600 36.79800
H  27.88800 0.33700 37.67000
Mg -1.55800 34.42400 27.53400
C  -3.58400 32.81000 30.10000
C  -0.30500 36.47100 30.06200
C  -0.06300 36.22000 25.08400
C  -3.32500 32.53200 25.19500
N  -1.89000 34.51400 29.84200
C  -2.71000 33.74300 30.63600
C  -2.65900 34.07500 32.15700
C  -1.61600 35.36800 32.10900
C  -1.22500 35.52800 30.56400
C  -2.14100 36.63200 32.78100
C  -2.17800 32.81400 33.01900
C  -2.94200 32.51500 34.31300
H  -2.07500 32.12800 35.48400
N  -0.19900 36.06600 27.55300
C  0.22500 36.69100 28.73500
C  1.15000 37.74500 28.41400
C  1.16700 37.79900 26.97400
C  0.27700 36.65200 26.43700
C  1.93800 38.56900 29.44700
C  1.91000 38.82700 26.08600
O  1.79900 38.84300 24.87700
C  2.88800 39.85300 26.67300
N  -1.72800 34.37100 25.45800
C  -0.90600 35.13900 24.64900
C  -1.28800 34.90700 23.15600
C  -1.93700 33.45300 23.21900
C  -2.40700 33.44800 24.68100
C  -2.24800 36.03200 22.67900
C  -0.96800 32.25200 23.02000
C  -0.85000 31.56400 21.63400
N  -3.09600 32.97600 27.60300
C  -3.67100 32.26600 26.48100
C  -4.53800 31.30600 26.98700
C  -4.56300 31.49900 28.37800
C  -3.63000 32.47000 28.70500
C  -5.41200 30.46500 26.06500
C  -5.14000 31.00600 29.68700
O  -5.99000 30.20700 29.90200
C  -4.51300 31.85300 30.80200
C  -5.59000 32.51800 31.60600
O  -6.11600 33.58500 31.28300
O  -5.84000 31.69200 32.71700
C  -6.71400 32.35700 33.79800
H  0.04900 37.12800 30.85900
H  0.48800 36.69700 24.27000
H  -3.52400 31.83300 24.37900
H  -3.64800 34.42000 32.46000
H  -0.69400 35.04400 32.59000
H  -1.53300 36.74200 33.67900
H  -3.20500 36.47100 32.95100
H  -1.99200 37.50500 32.14500
H  -1.13000 33.00700 33.24800
H  -2.24100 31.92600 32.39100
H  -3.48100 31.59700 34.07800
H  -3.53800 33.40900 34.49600
H  2.96500 38.54000 29.08400
H  1.94600 38.09000 30.42600
H  1.45400 39.54400 29.49300
H  2.42400 40.63100 27.28000
H  3.34200 40.33500 25.80700
H  3.75000 39.34800 27.10800
H  -0.41500 35.08300 22.52700
H  -2.87200 33.38000 22.66500
H  -2.02900 36.43600 21.69100
H  -2.18600 36.84300 23.40500
H  -3.21800 35.53700 22.64200
H  -1.02700 31.43200 23.73500
H  -0.03200 32.78200 23.19400
H  0.03900 31.95400 21.13900
H  -1.73500 31.74600 21.02500
H  -0.88100 30.47500 21.67700
H  -5.06700 29.43200 26.04400
H  -5.34900 30.87300 25.05600
H  -6.44100 30.54200 26.41700
H  -4.04400 31.07600 31.40500
H  -5.97800 32.52900 34.58300
H  -7.32000 31.51200 34.12400
H  -7.30300 33.26400 33.65400

