158

Mg 47.79400 15.28000 29.13800
C  45.96800 15.06300 32.01500
C  49.81100 17.71500 30.80700
C  49.45600 15.95900 26.21400
C  45.32500 13.42100 27.41900
N  47.74200 16.39000 31.07200
C  47.08600 15.81000 32.22900
C  47.70700 16.36200 33.53800
C  48.48200 17.53100 33.04800
C  48.72400 17.17200 31.51700
C  47.78700 19.01400 33.19400
C  48.42100 15.31900 34.38200
C  48.17900 15.36100 35.89900
H  47.86600 16.58400 36.67400
N  49.44700 16.53800 28.61200
C  50.15500 17.40800 29.46200
C  51.25200 18.02200 28.69700
C  51.13000 17.59100 27.33000
C  49.98400 16.63000 27.32300
C  52.14000 19.01300 29.31000
C  51.97900 17.96100 26.10800
O  51.84500 17.48000 25.03100
C  53.02300 19.00800 26.29700
N  47.43100 14.76700 27.08200
C  48.30700 15.14300 26.09700
C  47.82000 14.57700 24.77700
C  46.57500 13.73200 25.16300
C  46.40500 13.92400 26.64400
C  47.48500 15.71300 23.76000
C  46.68400 12.19400 24.86600
C  46.16600 11.86800 23.41700
N  45.94900 14.46300 29.51100
C  45.07300 13.72800 28.75300
C  43.93100 13.29200 29.57000
C  44.25600 13.81000 30.83800
C  45.47800 14.45300 30.76700
C  42.78600 12.41600 29.24400
C  43.79800 13.80000 32.23500
O  42.79200 13.26900 32.75100
C  44.88300 14.55500 32.97500
C  44.31700 15.67000 33.80400
O  44.04700 16.77300 33.44700
O  44.22600 15.28300 35.11100
C  43.86700 16.33900 36.05700
H  50.51400 18.35500 31.34400
H  50.04800 16.13400 25.31300
H  44.63700 12.71900 26.94300
H  46.87300 16.70300 34.15100
H  49.42400 17.61400 33.59100
H  48.24300 19.35800 34.12200
H  46.71800 18.96100 33.40000
H  48.00800 19.73300 32.40600
H  49.48900 15.52400 34.29900
H  48.35300 14.32000 33.95200
H  49.05000 14.90300 36.36700
H  47.28700 14.73300 35.90100
H  53.19400 18.76500 29.18400
H  51.92600 19.17900 30.36500
H  51.91900 20.00400 28.91200
H  52.62200 19.93400 26.71000
H  53.36100 19.16400 25.27300
H  53.83900 18.66200 26.93200
H  48.52900 13.91900 24.27500
H  45.74900 14.25000 24.67600
H  47.55600 16.66500 24.28600
H  46.47600 15.59100 23.36600
H  48.13500 15.74400 22.88600
H  46.18500 11.71500 25.70900
H  47.74300 11.96100 24.97800
H  45.37400 11.12000 23.46800
H  46.95500 11.39600 22.83100
H  45.81600 12.77700 22.92800
H  41.87000 12.71600 29.75400
H  43.06500 11.38100 29.44000
H  42.57900 12.43900 28.17400
H  45.26700 13.82400 33.68600
H  42.78400 16.46000 36.04100
H  44.22000 17.35300 35.86800
H  44.12400 16.12500 37.09400
Mg 49.41200 35.22100 27.70100
C  47.27500 33.64600 29.86100
C  49.40300 37.92300 29.73000
C  50.90000 36.93600 25.27200
C  48.79300 32.63400 25.32700
N  48.30400 35.78100 29.51700
C  47.77300 34.84800 30.37700
C  47.65400 35.35500 31.81400
C  48.13800 36.87100 31.63900
C  48.60600 36.90900 30.23800
C  47.04900 38.00100 32.02500
C  48.43700 34.57700 32.86300
C  47.84800 34.25700 34.20400
H  46.89800 35.27900 34.77800
N  50.11200 37.16600 27.47600
C  50.13600 38.06900 28.48900
C  50.76100 39.33100 28.02000
C  51.08600 39.10400 26.59000
C  50.69100 37.66700 26.38900
C  50.92200 40.53700 28.87900
C  51.71000 40.13100 25.58900
O  52.06400 39.86100 24.45700
C  51.81700 41.66100 25.80400
N  49.77000 34.84200 25.52400
C  50.48900 35.65300 24.91500
C  50.83500 35.01600 23.52400
C  50.30200 33.58000 23.55400
C  49.60500 33.64500 24.88900
C  50.40500 35.94000 22.41600
C  51.40200 32.43400 23.50500
C  51.13300 31.11400 22.80800
N  48.26800 33.46700 27.55000
C  48.13700 32.50400 26.61100
C  47.09500 31.50900 26.99100
C  46.74300 31.89600 28.29500
C  47.44800 33.12300 28.54800
C  46.62800 30.39500 26.18000
C  46.01400 31.50400 29.53000
O  45.29700 30.56400 29.84800
C  46.36000 32.59500 30.55700
C  46.92300 31.84000 31.66800
O  48.07000 31.37800 31.68300
O  45.86900 31.59000 32.55800
C  46.28500 30.65400 33.61300
H  49.54500 38.74200 30.43800
H  51.30200 37.54900 24.46300
H  48.56700 31.75000 24.72700
H  46.61000 35.47800 32.10400
H  49.05300 36.97100 32.22300
H  46.34300 37.63000 32.76800
H  46.74200 38.47800 31.09500
H  47.65600 38.74200 32.54600
H  49.33100 35.12500 33.16200
H  48.76700 33.63900 32.41700
H  48.67900 34.28500 34.91000
H  47.32900 33.29900 34.18200
H  51.33200 41.41200 28.37500
H  51.59000 40.35000 29.72000
H  49.95500 40.73100 29.34300
H  52.10200 42.23900 24.92400
H  52.61200 41.87400 26.51800
H  50.85000 41.90800 26.24200
H  51.92400 35.01000 23.50800
H  49.53300 33.48200 22.78800
H  50.01400 35.34200 21.59300
H  51.35300 36.31000 22.02600
H  49.81800 36.81800 22.68600
H  51.47800 32.21000 24.56900
H  52.30200 32.99800 23.25900
H  52.00800 30.91600 22.18900
H  50.19700 31.10200 22.24800
H  51.11700 30.37300 23.60700
H  47.01300 30.42000 25.16000
H  45.55100 30.51100 26.05700
H  46.76800 29.43200 26.67100
H  45.53500 33.18300 30.95800
H  47.25700 30.94000 34.01500
H  46.33700 29.59400 33.36300
H  45.57300 30.83200 34.41900

