158

Mg 24.11500 -4.64000 45.66700
C  26.16300 -2.25000 44.41000
C  21.55200 -3.40500 43.58700
C  22.39100 -7.41300 46.36200
C  26.94800 -5.96400 47.44900
N  23.88100 -3.03600 44.14300
C  24.85900 -2.13700 43.87400
C  24.31200 -1.04600 42.87400
C  22.74100 -1.26100 43.06100
C  22.71500 -2.66500 43.52100
C  22.11900 -0.13000 43.97000
C  24.88500 -1.34500 41.45900
C  24.53000 -0.29500 40.41700
H  23.92400 -0.77800 39.14500
N  22.23600 -5.31900 45.03100
C  21.37600 -4.72400 44.16000
C  20.20700 -5.55500 43.85100
C  20.37400 -6.72600 44.68100
C  21.70200 -6.53100 45.43700
C  19.12800 -5.10000 42.93000
C  19.61500 -8.01500 44.54400
O  18.71100 -8.09200 43.74200
C  19.71400 -9.20800 45.47300
N  24.59500 -6.46400 46.78200
C  23.72500 -7.49800 46.87000
C  24.32500 -8.71100 47.57800
C  25.71900 -8.17600 47.98300
C  25.77200 -6.73600 47.39900
C  23.47100 -9.19500 48.74300
C  26.86600 -9.00800 47.44000
C  27.83900 -9.48100 48.43400
N  26.19400 -4.16900 45.99400
C  27.22900 -4.72200 46.75900
C  28.44300 -3.92400 46.63100
C  28.01700 -2.90400 45.80300
C  26.68100 -3.17000 45.29100
C  29.71400 -4.14700 47.42400
C  28.40900 -1.66500 45.19600
O  29.43800 -0.99800 45.30000
C  27.28700 -1.32500 44.16700
C  26.99800 0.08800 44.27100
O  26.49300 0.62500 45.28100
O  27.31200 0.68400 43.07000
C  27.51400 2.12200 43.13500
H  20.61200 -2.99700 43.21100
H  21.97700 -8.40300 46.56500
H  27.82500 -6.38800 47.94300
H  24.49000 -0.02700 43.21600
H  22.31600 -1.22800 42.05700
H  21.15600 0.11900 43.52200
H  22.70000 0.78900 43.89100
H  21.96800 -0.40300 45.01400
H  24.34500 -2.24500 41.16500
H  25.95000 -1.55100 41.56400
H  25.43900 0.25300 40.16700
H  23.80700 0.34100 40.92900
H  18.40700 -4.37800 43.31500
H  18.67600 -5.95500 42.42900
H  19.68000 -4.58100 42.14600
H  19.82600 -8.92500 46.52000
H  20.54600 -9.63500 44.91300
H  18.86600 -9.89000 45.40900
H  24.46100 -9.60600 46.97100
H  25.75500 -7.98800 49.05600
H  24.12600 -9.16700 49.61400
H  23.12900 -10.22900 48.71900
H  22.57700 -8.61200 48.96600
H  27.48000 -8.46000 46.72600
H  26.40000 -9.83600 46.90500
H  27.79000 -10.55900 48.59000
H  27.69300 -8.95000 49.37400
H  28.79400 -9.20400 47.98800
H  29.54300 -4.11000 48.50000
H  30.38300 -3.31900 47.18800
H  30.25700 -5.07200 47.23400
H  27.73600 -1.65300 43.22900
H  26.53400 2.57600 43.28600
H  27.96500 2.43500 42.19400
H  28.10100 2.41400 44.00600
Mg 44.67300 5.95100 48.15000
C  42.60900 8.69400 47.73800
C  42.04800 3.89000 47.26200
C  46.75700 3.41400 48.18900
C  47.39200 8.21100 48.28400
N  42.59700 6.20200 47.57500
C  41.97900 7.45700 47.43500
C  40.59600 7.26400 46.86000
C  40.27700 5.74100 47.02600
C  41.73800 5.22200 47.35900
C  39.17700 5.39900 47.99300
C  40.56000 7.66800 45.27100
C  39.10600 7.65300 44.63500
H  38.92700 6.75500 43.47300
N  44.44400 3.95100 47.83100
C  43.32900 3.26800 47.39500
C  43.54900 1.88400 47.12500
C  44.92400 1.68900 47.38900
C  45.45300 2.99200 47.91200
C  42.53900 0.97600 46.53500
C  45.68800 0.41600 47.14000
O  45.18400 -0.55700 46.65600
C  47.07800 0.27600 47.63900
N  46.77600 5.80100 48.22800
C  47.44700 4.60700 48.28000
C  48.91100 4.74200 48.63600
C  49.13000 6.31600 48.50700
C  47.69400 6.83900 48.39800
C  49.21100 4.04800 50.00300
C  49.96000 6.70300 47.27100
C  51.47600 6.95500 47.49200
N  44.98800 8.07800 48.16000
C  46.13700 8.83000 48.18300
C  45.80600 10.24700 48.28600
C  44.39300 10.28400 48.14400
C  43.96200 8.85500 48.03500
C  46.75100 11.33600 48.25800
C  43.21500 11.12500 48.06300
O  43.13400 12.32000 48.02700
C  41.96000 10.13500 47.84800
C  41.13700 10.29200 49.03700
O  41.42900 10.11100 50.21400
O  39.99700 10.99800 48.65900
C  39.09600 11.31600 49.75300
H  41.23000 3.25000 46.92300
H  47.46600 2.60600 48.38200
H  48.21900 8.92100 48.35200
H  39.90900 7.84000 47.48100
H  39.93200 5.32100 46.08200
H  38.59300 4.61600 47.51000
H  38.55500 6.25700 48.25100
H  39.63000 4.94000 48.87200
H  41.19800 6.93600 44.77500
H  40.82000 8.71600 45.12400
H  38.79600 8.68200 44.45200
H  38.36200 7.26500 45.33000
H  43.06500 0.48400 45.71700
H  41.68600 1.53800 46.15300
H  42.02100 0.27800 47.19200
H  47.72200 0.73600 46.89000
H  47.22600 -0.80200 47.70000
H  47.19600 0.65600 48.65400
H  49.57300 4.19400 47.96400
H  49.47300 6.65900 49.48300
H  50.08700 3.40500 49.91500
H  48.37500 3.52100 50.46300
H  49.27800 4.83300 50.75700
H  49.60200 7.62200 46.80500
H  49.85300 5.92900 46.51200
H  52.10900 6.21000 47.01000
H  51.69100 6.98300 48.56100
H  51.67500 7.93900 47.06800
H  47.43900 11.07300 47.45400
H  47.23900 11.47400 49.22300
H  46.23500 12.26600 48.01900
H  41.55500 10.46100 46.89000
H  38.22700 11.87900 49.41100
H  39.62100 11.91700 50.49500
H  38.82200 10.44600 50.35000

