158

Mg 6.76900 53.81200 41.06300
C  6.15500 50.33500 41.19200
C  10.00400 53.09800 40.37700
C  7.14000 57.09100 40.29100
C  3.32400 54.32000 41.38100
N  7.87900 51.89600 40.69500
C  7.46600 50.60900 40.87600
C  8.64500 49.71100 40.70300
C  9.87900 50.59600 40.63100
C  9.24200 52.00200 40.59500
C  10.77600 50.43900 41.85600
C  8.69300 48.65100 39.58900
C  8.70400 49.11300 38.12200
H  7.53300 48.69000 37.17600
N  8.37000 54.91900 40.39000
C  9.62100 54.47200 40.14500
C  10.43800 55.52800 39.60200
C  9.68300 56.77400 39.61700
C  8.33300 56.33700 40.16500
C  11.79000 55.21800 39.09600
C  10.17400 58.11600 39.17700
O  11.24000 58.30600 38.60500
C  9.36000 59.44700 39.38800
N  5.32400 55.47100 40.51400
C  5.79900 56.74800 40.51700
C  4.61800 57.70600 40.66100
C  3.35900 56.80300 40.59600
C  4.04900 55.46100 40.83700
C  4.74600 58.42900 42.06900
C  2.56600 56.92500 39.27500
C  1.11300 57.38600 39.39000
N  5.07200 52.67900 41.53700
C  3.75500 52.99600 41.66000
C  2.96500 51.73900 41.89800
C  3.96400 50.70800 41.81200
C  5.18500 51.30100 41.48400
C  1.56600 51.68100 42.03400
C  4.04900 49.29100 41.84900
O  3.20600 48.49300 42.17700
C  5.44900 48.95000 41.32000
C  5.30200 48.14900 40.15200
O  4.79100 48.59500 39.11000
O  5.64300 46.82700 40.55000
C  5.64100 45.89300 39.42300
H  11.07100 52.92200 40.22300
H  7.15600 58.18300 40.28900
H  2.24000 54.44700 41.40600
H  8.60500 49.17600 41.65200
H  10.48900 50.49500 39.73300
H  10.53200 51.20500 42.59300
H  11.80200 50.71700 41.61600
H  10.80200 49.41900 42.23900
H  7.93700 47.88800 39.77600
H  9.62600 48.10000 39.70300
H  9.66400 48.96600 37.62700
H  8.52200 50.18500 38.20200
H  11.71300 54.84200 38.07600
H  12.20000 54.43200 39.73100
H  12.44100 56.08100 39.23100
H  8.52800 59.53800 38.69000
H  9.99500 60.32900 39.30600
H  9.02500 59.54500 40.42100
H  4.68200 58.44400 39.86200
H  2.73300 57.06800 41.44800
H  5.78600 58.42400 42.39300
H  4.12300 58.13900 42.91500
H  4.50700 59.48900 41.98000
H  2.64400 56.04700 38.63300
H  3.03200 57.72900 38.70400
H  0.49200 56.95000 38.60800
H  1.10200 58.47500 39.42000
H  0.72200 57.01800 40.33900
H  1.42500 51.29600 43.04400
H  1.13900 50.92900 41.37000
H  1.00900 52.61700 42.04900
H  5.98500 48.37600 42.07700
H  6.61900 45.64300 39.01100
H  4.98300 46.20600 38.61300
H  5.31000 44.91500 39.77200
Mg -11.39100 38.36900 41.89700
C  -9.27400 35.69000 40.63400
C  -9.37300 40.47000 40.03000
C  -13.92000 40.50500 41.70200
C  -13.62200 35.77100 43.08600
N  -9.55200 38.07700 40.49900
C  -8.86800 36.98000 40.17300
C  -7.61500 37.32400 39.35100
C  -7.48100 38.85300 39.55700
C  -8.92400 39.18900 40.04900
C  -6.35600 39.32400 40.51800
C  -7.78600 36.85100 37.79000
C  -6.88100 35.70000 37.38500
H  -5.59600 36.01000 36.68600
N  -11.49100 40.30700 41.31800
C  -10.52900 41.00200 40.66000
C  -10.85000 42.43000 40.76800
C  -12.21300 42.44600 41.09400
C  -12.64900 41.03500 41.38200
C  -9.87800 43.44800 40.24900
C  -13.07300 43.77400 41.13200
O  -12.53700 44.86200 40.95400
C  -14.54800 43.73800 41.44100
N  -13.48200 38.21400 42.36700
C  -14.36500 39.25700 42.28700
C  -15.73600 38.93500 42.99900
C  -15.56500 37.42200 43.33400
C  -14.07600 37.06100 42.90700
C  -15.98800 39.78500 44.21300
C  -16.73800 36.43000 42.81300
C  -17.28500 35.44900 43.85900
N  -11.46400 36.21000 41.96200
C  -12.40600 35.29200 42.54700
C  -11.87000 33.96800 42.46900
C  -10.66800 34.08000 41.74400
C  -10.47200 35.43000 41.43100
C  -12.55300 32.78400 43.12500
C  -9.60200 33.30500 41.06800
O  -9.35700 32.12700 41.12800
C  -8.68200 34.32200 40.37600
C  -7.21100 34.25900 40.77700
O  -6.73500 34.90800 41.69900
O  -6.52800 33.27800 40.06400
C  -5.09800 33.08200 40.50100
H  -8.67600 41.14100 39.52300
H  -14.80000 41.15100 41.71700
H  -14.32600 35.07500 43.54700
H  -6.77100 36.80200 39.80300
H  -7.31000 39.16900 38.52800
H  -6.63800 40.28800 40.94300
H  -5.39000 39.38800 40.01700
H  -6.29800 38.59500 41.32600
H  -7.64700 37.66000 37.07400
H  -8.82500 36.56300 37.62500
H  -7.38300 34.99600 36.72200
H  -6.66700 35.11300 38.27800
H  -10.20800 44.37500 40.71900
H  -9.90900 43.47300 39.16000
H  -8.91300 43.16200 40.66600
H  -15.02200 43.09300 40.70000
H  -15.03800 44.70200 41.30300
H  -14.82000 43.25400 42.37900
H  -16.58900 39.01400 42.32500
H  -15.54100 37.23600 44.40800
H  -15.06300 39.98900 44.75200
H  -16.66700 39.33600 44.93700
H  -16.54200 40.70700 44.04000
H  -16.21600 35.86000 42.04500
H  -17.51300 37.02500 42.33000
H  -18.37000 35.54300 43.91000
H  -16.75500 35.66600 44.78700
H  -17.13700 34.43500 43.48800
H  -13.48600 32.47800 42.65200
H  -12.76500 32.90200 44.18800
H  -11.90200 31.92400 42.96900
H  -8.79200 34.20600 39.29800
H  -4.61700 32.24600 39.99300
H  -5.11400 33.06500 41.59100
H  -4.52800 33.93500 40.13200

