158

Mg 1.66700 -1.49500 43.80400
C  5.06200 -0.79100 43.17000
C  0.70400 1.04600 41.83600
C  -1.36200 -2.95500 43.63500
C  2.84500 -4.59800 45.48600
N  2.80200 -0.05500 42.69700
C  4.15600 0.06300 42.57200
C  4.49500 1.28400 41.73600
C  3.09100 1.94400 41.36900
C  2.11200 0.92800 41.98700
C  3.02700 3.33000 42.05400
C  5.36700 1.11500 40.46500
C  6.38100 2.25900 40.01400
H  6.09200 3.09800 38.68400
N  -0.11500 -0.91400 43.06200
C  -0.36700 0.21400 42.30700
C  -1.73000 0.41900 42.17400
C  -2.33300 -0.71500 42.75300
C  -1.25000 -1.62000 43.18100
C  -2.23100 1.79000 41.68500
C  -3.80900 -0.86600 42.83200
O  -4.64500 -0.08700 42.28700
C  -4.48900 -1.95800 43.61200
N  0.84500 -3.54000 44.52800
C  -0.42500 -3.80500 44.24000
C  -0.81100 -5.13600 44.84300
C  0.52700 -5.75000 45.52000
C  1.51900 -4.63900 45.08500
C  -2.05600 -5.15900 45.72700
C  1.05400 -7.17200 45.18400
C  1.26400 -8.03800 46.47400
N  3.49800 -2.51000 44.28400
C  3.72800 -3.66000 44.93900
C  5.20500 -3.77300 45.05700
C  5.77000 -2.69700 44.44100
C  4.64300 -1.98600 43.96100
C  5.92600 -4.88600 45.72900
C  6.97300 -1.89500 44.16700
O  8.13100 -2.09800 44.46500
C  6.60300 -0.70400 43.24400
C  6.92700 0.53400 43.99600
O  6.47700 0.91500 45.10200
O  7.75500 1.31900 43.12000
C  8.24600 2.63500 43.66300
H  0.31400 1.86600 41.23000
H  -2.38700 -3.33200 43.63400
H  3.16000 -5.50600 46.00600
H  5.17400 1.84400 42.37900
H  2.89000 2.09800 40.30900
H  3.99300 3.58700 42.49000
H  2.22100 3.39500 42.78500
H  2.71500 4.00000 41.25300
H  4.75100 0.90000 39.59200
H  5.93200 0.19100 40.58600
H  7.34700 1.78500 39.84100
H  6.35300 2.93100 40.87200
H  -3.24800 1.71200 41.30200
H  -1.64800 2.06700 40.80700
H  -2.15200 2.51700 42.49400
H  -3.88800 -2.17100 44.49600
H  -4.44200 -2.81500 42.94000
H  -5.50700 -1.77100 43.95300
H  -0.90200 -5.73300 43.93500
H  0.54100 -5.62400 46.60300
H  -2.63600 -4.23800 45.66800
H  -1.80700 -5.43500 46.75100
H  -2.74900 -5.83800 45.22900
H  1.91300 -7.28400 44.52200
H  0.25600 -7.56200 44.55300
H  2.18400 -8.59100 46.28300
H  0.38300 -8.67400 46.56800
H  1.42000 -7.46700 47.38900
H  5.55300 -5.03800 46.74200
H  7.00600 -4.73900 45.72100
H  5.71900 -5.82400 45.21500
H  7.11700 -0.64400 42.28500
H  9.33200 2.66400 43.75900
H  7.91800 2.89300 44.67000
H  7.91900 3.51800 43.11500
Mg 36.38800 49.72000 24.54800
C  36.73100 47.87300 27.60000
C  35.43200 52.28500 26.35600
C  35.26400 50.98300 21.60400
C  37.35100 46.72500 22.82500
N  36.03300 50.02300 26.74600
C  36.34600 49.23300 27.78900
C  36.23300 49.92600 29.17900
C  35.89300 51.35500 28.73200
C  35.78600 51.23300 27.19500
C  34.54700 52.04300 29.38200
C  37.54800 49.87200 30.07100
C  37.32200 49.34600 31.53000
H  35.89200 49.38200 32.07700
N  35.64900 51.47000 24.04800
C  35.23700 52.43900 24.94000
C  34.70100 53.53800 24.23800
C  34.81500 53.23400 22.78400
C  35.23000 51.84300 22.79900
C  34.01500 54.73300 24.85700
C  34.54500 54.10900 21.62300
O  34.40700 53.69500 20.46300
C  34.56800 55.59900 21.86300
N  36.37900 48.99000 22.44900
C  35.78300 49.65800 21.42300
C  35.92800 48.95300 20.05200
C  36.78500 47.72900 20.55200
C  36.83000 47.82400 22.06100
C  34.57800 48.50800 19.50100
C  38.30000 47.75200 20.01400
C  38.72100 46.64000 19.00900
N  36.96800 47.72500 25.04900
C  37.35500 46.67500 24.25000
C  37.72300 45.49500 25.09500
C  37.49000 45.91000 26.38400
C  37.03200 47.27200 26.30000
C  38.32700 44.16300 24.70300
C  37.44600 45.47500 27.81600
O  37.58600 44.37500 28.31300
C  37.00800 46.79600 28.66600
C  35.89300 46.32600 29.43900
O  34.78400 46.07600 28.99800
O  36.40500 45.97100 30.65200
C  35.50400 45.16900 31.47100
H  35.19000 53.20800 26.88800
H  35.00400 51.45600 20.65500
H  37.62700 45.76100 22.39200
H  35.39800 49.35100 29.57800
H  36.78600 51.90600 29.02800
H  34.78800 53.02600 29.78900
H  34.16800 51.46700 30.22500
H  33.75400 52.28000 28.67300
H  37.94800 50.86400 30.27900
H  38.26400 49.19900 29.60000
H  38.02700 49.88400 32.16400
H  37.67700 48.31500 31.51500
H  33.04100 54.89300 24.39300
H  34.57300 55.66500 24.77200
H  33.86400 54.55500 25.92200
H  33.66600 55.93600 22.37400
H  34.60700 56.13900 20.91700
H  35.36000 55.89800 22.55000
H  36.51400 49.46200 19.28700
H  36.35500 46.79200 20.19900
H  33.80200 48.75100 20.22700
H  34.54600 47.44100 19.28100
H  34.29500 49.07500 18.61400
H  38.98000 47.71400 20.86500
H  38.44800 48.71200 19.52000
H  38.91100 47.22300 18.10800
H  38.05600 45.78400 18.89000
H  39.74200 46.40000 19.30600
H  37.59600 43.35600 24.75100
H  39.08200 43.87900 25.43600
H  38.58800 44.08900 23.64700
H  37.89000 47.07800 29.24100
H  35.12200 44.32400 30.89900
H  34.62100 45.76000 31.71200
H  36.10400 44.77000 32.28900

