158

Mg 46.81200 17.42300 28.44500
C  44.89300 17.06700 31.40600
C  49.00500 19.31300 30.32300
C  48.40300 17.92100 25.59300
C  44.07900 15.78400 26.81900
N  46.84400 18.22600 30.51800
C  46.08400 17.76800 31.58900
C  46.57600 18.18300 32.94500
C  47.71600 19.19600 32.55600
C  47.94200 18.84000 31.04100
C  47.30900 20.78100 32.60200
C  47.06500 16.95500 33.85700
C  46.66900 17.09400 35.34200
H  46.39200 18.46700 35.84100
N  48.51900 18.43300 28.03200
C  49.30300 19.16300 28.92100
C  50.30100 19.91800 28.19100
C  50.05600 19.55000 26.83000
C  48.99400 18.53200 26.76300
C  51.34500 20.71000 28.90500
C  50.79200 20.07900 25.70000
O  50.72400 19.58900 24.56900
C  51.56700 21.44100 25.77300
N  46.37400 16.85100 26.51800
C  47.20200 17.16300 25.50000
C  46.57200 16.65100 24.21700
C  45.31300 15.83600 24.62400
C  45.28800 16.12300 26.10900
C  46.35800 17.74600 23.10600
C  45.39600 14.34700 24.28600
C  44.78100 13.80900 22.97400
N  44.86600 16.59800 28.97000
C  43.88000 15.93000 28.21000
C  42.69200 15.53400 29.03200
C  43.08700 15.89400 30.28200
C  44.34800 16.63600 30.17900
C  41.35300 14.89300 28.63100
C  42.57500 15.92200 31.66700
O  41.56500 15.48800 32.11700
C  43.78200 16.70200 32.45800
C  43.04700 17.95200 32.95000
O  42.75800 18.94600 32.27900
O  42.76500 17.89000 34.28200
C  42.13900 19.06000 34.91600
H  49.75100 19.89900 30.86500
H  48.78400 18.13100 24.59100
H  43.17200 15.52200 26.26900
H  45.72900 18.63800 33.45800
H  48.68500 18.90300 32.96100
H  47.18100 21.09300 31.56600
H  48.16500 21.27600 33.06200
H  46.39200 20.80600 33.19000
H  48.15200 16.87700 33.86100
H  46.61600 16.00700 33.56100
H  47.27500 16.45600 35.98500
H  45.69300 16.63300 35.49500
H  52.29700 20.50200 28.41800
H  51.41500 20.27200 29.90100
H  51.06600 21.76400 28.90800
H  51.15900 22.09300 26.54600
H  51.64100 21.89000 24.78300
H  52.57700 21.27300 26.14800
H  47.33600 15.98700 23.81200
H  44.38600 16.24000 24.21800
H  46.80300 18.67700 23.45500
H  45.29000 17.89700 22.94800
H  46.87600 17.43600 22.19900
H  44.96400 13.76000 25.09600
H  46.36500 13.85300 24.21900
H  45.56000 13.67400 22.22300
H  44.08900 14.48100 22.46600
H  44.25900 12.89500 23.25700
H  41.14900 15.19700 27.60500
H  40.52900 15.13900 29.30100
H  41.34400 13.81400 28.47300
H  44.11900 16.23900 33.38500
H  41.29200 19.50600 34.39400
H  42.89900 19.80900 35.13900
H  41.67800 18.59600 35.78800
Mg 10.36200 46.41000 25.40800
C  8.23300 46.80800 28.11800
C  12.69400 48.37300 27.09700
C  12.24700 46.18000 22.71000
C  7.37900 45.67000 23.48100
N  10.39400 47.57100 27.27500
C  9.50800 47.37800 28.33200
C  10.01100 48.03900 29.64400
C  11.19200 48.93700 29.06200
C  11.46100 48.23200 27.75000
C  10.85700 50.38200 28.74200
C  10.48300 46.99700 30.62900
C  9.93900 47.14800 32.12500
H  9.93000 45.90000 33.10400
N  12.31300 47.05000 25.07000
C  13.10400 47.84400 25.84800
C  14.43700 48.01900 25.07100
C  14.27600 47.36900 23.81300
C  12.89900 46.86900 23.80100
C  15.58700 48.79500 25.67500
C  15.25700 47.21200 22.70500
O  15.06700 46.53100 21.66800
C  16.60800 47.86500 22.81900
N  9.92000 45.97400 23.41700
C  10.88800 45.81600 22.49200
C  10.24300 45.34300 21.06300
C  8.71200 45.21700 21.34600
C  8.64100 45.67300 22.86100
C  10.72600 46.22600 19.94800
C  8.17800 43.79200 21.02900
C  6.79300 43.60800 20.30300
N  8.23900 46.16300 25.67500
C  7.18400 45.84200 24.87800
C  5.96400 45.70500 25.60900
C  6.35500 46.05900 26.86400
C  7.73200 46.30500 26.89900
C  4.57700 45.43200 25.07100
C  5.85200 46.27500 28.23500
O  4.72400 46.20800 28.66800
C  7.03400 46.76300 29.08000
C  7.22600 45.93300 30.16700
O  7.88600 44.88800 30.14800
O  6.43500 46.19900 31.29800
C  6.41600 45.09600 32.30600
H  13.26400 49.14100 27.62500
H  12.90100 45.89200 21.88400
H  6.59200 45.23100 22.86500
H  9.20200 48.61800 30.08900
H  12.00000 48.93200 29.79400
H  9.76800 50.36000 28.69700
H  11.25100 50.49400 27.73200
H  11.32100 51.14100 29.37300
H  11.57000 47.05100 30.57900
H  10.17200 46.00800 30.29000
H  8.98200 47.66800 32.14000
H  10.67400 47.89100 32.43600
H  15.29200 49.33300 26.57500
H  15.90800 49.47600 24.88700
H  16.46200 48.20000 25.94000
H  17.09700 47.48800 23.71700
H  16.34900 48.91700 22.93800
H  17.19000 47.73700 21.90700
H  10.78100 44.42000 20.84800
H  8.20700 45.96300 20.73200
H  11.00300 47.23800 20.24300
H  10.06900 46.27000 19.07900
H  11.63200 45.82700 19.49300
H  8.07700 43.28300 21.98800
H  8.90400 43.40400 20.31400
H  6.88600 43.72700 19.22400
H  6.16800 44.43700 20.63400
H  6.35000 42.65400 20.58800
H  3.95300 46.31700 24.95000
H  4.09400 44.72500 25.74600
H  4.71300 44.86600 24.15000
H  6.76100 47.71100 29.54400
H  5.42000 44.65400 32.31300
H  6.44400 45.57100 33.28700
H  7.07200 44.23000 32.21900

