158

Mg 26.13000 51.09500 26.70500
C  23.75500 51.74100 29.25200
C  28.43700 50.42900 29.16800
C  28.44000 50.57100 24.34000
C  23.79800 52.08700 24.31500
N  26.05800 51.23300 28.92000
C  24.99400 51.49500 29.73500
C  25.39100 51.20600 31.18600
C  26.88900 51.00500 31.13700
C  27.18600 50.91500 29.61500
C  27.81000 51.91000 32.01400
C  24.63800 49.97200 31.70800
C  24.13900 50.01700 33.15900
H  24.77800 50.99600 34.23700
N  28.12600 50.48400 26.72600
C  28.92000 50.26200 27.82100
C  30.14900 49.65100 27.43500
C  30.16500 49.66800 26.04900
C  28.86400 50.27900 25.64700
C  31.20000 49.25700 28.46400
C  31.40800 49.30100 25.10500
O  31.34000 49.45900 23.89000
C  32.74600 48.81100 25.67300
N  26.20700 51.61500 24.65100
C  27.25200 51.20100 23.87900
C  26.95700 51.49600 22.36400
C  25.43000 51.88800 22.35200
C  25.08700 51.83300 23.86600
C  27.94500 52.37300 21.61000
C  24.50400 50.92700 21.45900
C  24.15000 49.48400 22.04500
N  24.16800 51.74300 26.74700
C  23.38400 52.09700 25.67200
C  22.05600 52.51700 26.21800
C  22.16800 52.46700 27.58100
C  23.47800 51.91500 27.86300
C  20.88500 53.06100 25.44700
C  21.55100 52.76700 28.83300
O  20.42800 53.24000 29.05300
C  22.51000 52.31700 29.90200
C  22.97500 53.57200 30.68100
O  23.73800 54.46200 30.27400
O  22.23300 53.57000 31.86300
C  22.21200 54.82800 32.68800
H  29.08000 50.20900 30.02400
H  29.06900 50.35600 23.47300
H  23.04700 52.38200 23.58000
H  25.17500 52.09200 31.78200
H  27.12700 50.02300 31.54400
H  27.21700 52.30100 32.84000
H  28.28100 52.64600 31.36200
H  28.67800 51.33400 32.33400
H  25.25500 49.07600 31.63300
H  23.77800 49.75300 31.07600
H  24.22100 49.02200 33.59600
H  23.09300 50.27100 32.98700
H  32.16200 49.65300 28.13900
H  31.30700 48.17200 28.48100
H  30.97200 49.63400 29.46100
H  32.58100 48.10200 26.48500
H  33.13200 49.72400 26.12500
H  33.37200 48.25800 24.97300
H  26.94900 50.55200 21.81900
H  25.39100 52.97300 22.25100
H  28.69700 52.57200 22.37300
H  27.66400 53.30700 21.12400
H  28.45200 51.75200 20.87100
H  25.03800 50.89500 20.50900
H  23.53400 51.39400 21.28800
H  24.59700 48.76400 21.36000
H  23.07200 49.32500 22.08300
H  24.53800 49.35600 23.05500
H  20.99000 54.14000 25.33500
H  20.01600 52.94700 26.09500
H  20.82400 52.62400 24.45100
H  22.02700 51.61900 30.58500
H  23.16700 54.86000 33.21200
H  21.29400 54.92400 33.26700
H  22.27200 55.74600 32.10300
Mg 9.14600 47.49500 25.34300
C  7.13300 47.43700 28.50400
C  11.74000 48.34300 27.19200
C  10.89300 47.51400 22.52000
C  6.11300 47.44500 23.55900
N  9.29300 47.85500 27.57500
C  8.41500 47.76400 28.71300
C  9.14000 48.08300 30.02500
C  10.48800 48.80300 29.44900
C  10.53300 48.25800 27.96300
C  10.46000 50.35900 29.46700
C  9.39000 46.82400 30.95900
C  9.07100 47.22800 32.44000
H  8.72700 46.16500 33.50200
N  11.11800 47.77600 24.92100
C  12.06700 48.12800 25.83400
C  13.35900 48.22800 25.12900
C  13.17100 47.87800 23.79800
C  11.69700 47.69700 23.71100
C  14.61700 48.58900 25.86500
C  14.12500 47.66600 22.60800
O  13.59800 47.47800 21.48200
C  15.59800 47.58500 22.84400
N  8.60200 47.65900 23.39900
C  9.52400 47.56000 22.35000
C  8.86200 47.61600 20.93500
C  7.37900 47.39900 21.24900
C  7.35300 47.46500 22.83500
C  9.16400 48.92200 20.14000
C  6.67300 46.12900 20.57600
C  5.24700 46.52600 20.08800
N  7.06100 47.47200 25.86800
C  5.99300 47.47300 25.00700
C  4.70400 47.42200 25.76500
C  5.15300 47.29300 27.15600
C  6.55900 47.34900 27.16100
C  3.31500 47.49300 25.25200
C  4.71300 47.15200 28.51400
O  3.63000 46.84100 28.96600
C  5.99500 47.23400 29.41800
C  6.04800 45.90300 30.22800
O  6.42400 44.83400 29.75500
O  5.63700 46.16500 31.46300
C  5.52800 45.04400 32.42200
H  12.57200 48.53400 27.87400
H  11.32800 47.27600 21.54800
H  5.13100 47.39200 23.08500
H  8.46100 48.75900 30.54400
H  11.37100 48.46600 29.99100
H  10.55500 50.74100 28.45000
H  11.23200 50.72000 30.14700
H  9.67100 50.90900 29.98000
H  10.35600 46.32000 30.98300
H  8.79100 45.91700 30.87200
H  8.27600 47.96800 32.53400
H  9.80900 47.98500 32.70700
H  15.29900 47.74200 25.79500
H  14.43200 48.70200 26.93300
H  14.98500 49.56000 25.53500
H  15.67500 48.50700 23.42000
H  16.09800 47.71500 21.88400
H  15.88000 46.72100 23.44500
H  9.33700 46.76500 20.44600
H  6.84300 48.29800 20.94500
H  9.92200 48.75700 19.37500
H  9.64900 49.63200 20.81100
H  8.26500 49.18900 19.58300
H  6.47700 45.35100 21.31300
H  7.10800 45.72600 19.66200
H  5.23500 46.22900 19.03900
H  5.07100 47.60100 20.12900
H  4.43200 45.97700 20.55900
H  3.08000 46.47600 24.93700
H  3.44400 48.27700 24.50500
H  2.74700 47.95000 26.06200
H  6.03000 48.03100 30.16100
H  5.84800 44.04700 32.11900
H  4.49000 45.01600 32.75400
H  6.11500 45.29700 33.30500

