158

Mg -2.77000 16.77800 26.69800
C  -3.18400 14.65200 29.46600
C  -3.08000 19.48400 28.81800
C  -2.35900 18.80000 24.01700
C  -2.67200 13.99700 24.53500
N  -2.97000 16.96900 28.91000
C  -3.13900 15.93100 29.82900
C  -3.23700 16.47300 31.22800
C  -3.26300 18.11800 30.95100
C  -3.06200 18.25400 29.46600
C  -4.60500 18.75200 31.37500
C  -2.21600 15.88100 32.22400
C  -1.71900 16.71200 33.32300
H  -1.36900 16.10000 34.64500
N  -2.84800 18.78900 26.46000
C  -2.94600 19.76500 27.44200
C  -2.81600 21.06900 26.88000
C  -2.59400 20.91000 25.48100
C  -2.64000 19.45400 25.22400
C  -2.78700 22.41200 27.64000
C  -2.18000 21.94400 24.39500
O  -1.97500 21.61900 23.23200
C  -1.80100 23.38400 24.85000
N  -2.40900 16.43900 24.63600
C  -2.30900 17.44900 23.79800
C  -2.15500 16.96400 22.31700
C  -2.16800 15.35200 22.48200
C  -2.38800 15.25200 23.98400
C  -3.38700 17.28900 21.44000
C  -0.84200 14.68700 22.01000
C  -0.98700 13.94100 20.66800
N  -2.95500 14.71800 26.93200
C  -2.94200 13.71500 25.92200
C  -3.19800 12.40000 26.59100
C  -3.24300 12.75100 28.01200
C  -3.05700 14.14200 28.18900
C  -3.44500 11.11700 25.99800
C  -3.48200 12.21800 29.33200
O  -3.63900 11.02900 29.68900
C  -3.40600 13.42700 30.34200
C  -2.26100 13.12400 31.25500
O  -1.09500 13.25400 30.88700
O  -2.58400 12.56900 32.51100
C  -1.44300 11.92300 33.19700
H  -3.02700 20.34200 29.49200
H  -2.21600 19.35600 23.08900
H  -2.54700 13.12400 23.89100
H  -4.23700 16.19300 31.56100
H  -2.36200 18.48200 31.44400
H  -4.39400 19.41200 32.21600
H  -5.30400 17.94300 31.58700
H  -5.06400 19.28500 30.54200
H  -1.34600 15.45300 31.72600
H  -2.71700 15.03700 32.69700
H  -2.38600 17.56000 33.48300
H  -0.77300 17.20200 33.08800
H  -3.03000 22.39400 28.70200
H  -3.46200 23.14000 27.18900
H  -1.77800 22.77100 27.44000
H  -2.68500 23.79000 25.34100
H  -1.58000 24.05100 24.01600
H  -0.88300 23.18800 25.40500
H  -1.29500 17.37900 21.79100
H  -2.94000 14.75300 21.99900
H  -4.22700 17.65100 22.03300
H  -3.83400 16.42100 20.95500
H  -3.03400 17.94900 20.64800
H  -0.36500 14.15300 22.83300
H  -0.13400 15.48600 21.78900
H  -1.97000 13.49100 20.52800
H  -0.27500 13.13500 20.84700
H  -0.58800 14.65900 19.95100
H  -3.63600 11.26800 24.93600
H  -4.29600 10.67700 26.51800
H  -2.55000 10.54700 26.24900
H  -4.31600 13.38300 30.94000
H  -1.66300 10.85900 33.28100
H  -1.43200 12.42100 34.16700
H  -0.48900 12.02400 32.68000
Mg -0.31900 6.82600 26.46200
C  0.58200 8.96700 29.16700
C  -0.13400 4.08000 28.41700
C  -0.29100 4.99800 23.55200
C  0.22600 9.78000 24.34700
N  0.16800 6.62100 28.52700
C  0.26400 7.63600 29.47200
C  0.18600 7.00800 30.87800
C  0.09300 5.52000 30.62000
C  -0.00800 5.38800 29.09000
C  1.25800 4.57600 31.06700
C  -1.00200 7.57500 31.74200
C  -0.90100 7.59300 33.30200
H  0.30900 7.06800 33.98100
N  -0.28100 4.83700 26.05500
C  -0.25200 3.83000 27.05200
C  -0.28000 2.55400 26.39700
C  -0.26400 2.78500 24.99600
C  -0.24500 4.26000 24.76700
C  -0.38100 1.27200 27.17100
C  -0.38500 1.75500 23.90000
O  -0.31000 2.10100 22.72100
C  -0.70300 0.34500 24.10200
N  -0.14000 7.32100 24.26600
C  -0.22700 6.37400 23.31200
C  -0.28000 6.97800 21.83600
C  -0.07300 8.47200 22.10000
C  0.05600 8.53600 23.68400
C  0.91700 6.48400 20.94500
C  -1.17700 9.47800 21.58400
C  -2.53800 9.50500 22.38900
N  0.23700 8.98000 26.66800
C  0.44000 10.00900 25.74900
C  0.81400 11.22100 26.44800
C  0.74900 10.83200 27.77400
C  0.42300 9.51400 27.87500
C  1.11200 12.49700 25.87700
C  1.09800 11.33900 29.11400
O  1.50400 12.42500 29.51100
C  0.84500 10.14400 30.07900
C  2.03000 9.90900 31.00100
O  3.05500 9.25500 30.73700
O  1.64600 10.62000 32.15600
C  2.62400 10.65700 33.20500
H  -0.28500 3.21800 29.07000
H  -0.24500 4.49700 22.58300
H  0.31700 10.63300 23.67100
H  1.14600 7.18900 31.36200
H  -0.79300 5.08500 31.08100
H  2.07300 5.09300 31.57200
H  1.69600 4.19100 30.14600
H  0.92200 3.72500 31.65900
H  -1.82200 6.97400 31.34800
H  -1.17300 8.57100 31.33400
H  -1.77900 7.14000 33.76200
H  -0.97100 8.66200 33.50700
H  -1.34000 0.83600 26.89200
H  -0.32500 1.32100 28.25800
H  0.33300 0.53900 26.79400
H  -1.65500 0.35600 24.63300
H  0.18300 -0.13900 24.51200
H  -0.91700 -0.23600 23.20600
H  -1.20600 6.54800 21.45500
H  0.86900 8.79400 21.65500
H  1.48100 7.29600 20.48600
H  0.50100 5.80500 20.20100
H  1.56200 5.98300 21.66700
H  -1.30900 9.21600 20.53400
H  -0.62200 10.41100 21.68700
H  -2.44300 10.20200 23.22100
H  -2.79800 8.53600 22.81500
H  -3.31200 9.87200 21.71500
H  0.26400 12.88300 25.31100
H  2.00200 12.32900 25.27100
H  1.53500 13.16400 26.62900
H  -0.04700 10.42300 30.64100
H  2.76600 11.67800 33.55700
H  3.59600 10.23900 32.94300
H  2.26900 10.04200 34.03200

