158

Mg 24.71400 -4.63300 46.18400
C  26.50500 -2.31900 44.21400
C  21.81000 -3.75300 44.33600
C  23.21100 -7.39800 47.30200
C  27.72200 -5.49300 47.60500
N  24.33200 -3.18600 44.46300
C  25.16000 -2.29200 43.87000
C  24.41000 -1.44500 42.84400
C  22.95300 -1.54500 43.42700
C  23.02000 -2.98300 44.12200
C  22.47500 -0.48500 44.47100
C  24.51400 -2.10600 41.50400
C  25.30700 -1.41600 40.42700
H  25.03300 -2.02400 38.99700
N  22.77700 -5.46200 45.86900
C  21.68100 -4.93800 45.14500
C  20.51600 -5.73500 45.31100
C  20.90900 -6.78500 46.19200
C  22.34400 -6.54000 46.50200
C  19.14000 -5.48200 44.64200
C  19.92000 -7.83000 46.82000
O  18.80900 -7.93900 46.42900
C  20.36100 -8.75800 47.90000
N  25.46400 -6.35600 47.20000
C  24.59800 -7.29900 47.55700
C  25.34900 -8.37300 48.37200
C  26.82200 -7.74900 48.53600
C  26.69500 -6.45500 47.76300
C  24.63900 -8.75500 49.66800
C  27.88600 -8.54800 47.69200
C  28.90700 -9.18600 48.54700
N  26.67200 -4.01100 46.11300
C  27.79100 -4.29300 46.86600
C  29.01400 -3.60300 46.38700
C  28.51300 -2.73900 45.36600
C  27.06600 -3.07600 45.23000
C  30.49700 -3.81300 46.91600
C  28.84900 -1.67700 44.41600
O  29.92600 -1.15700 44.11900
C  27.54400 -1.34900 43.66100
C  27.31700 0.11700 43.65100
O  26.79800 0.69100 44.57500
O  27.87200 0.61800 42.53500
C  27.70100 2.02500 42.20500
H  20.99700 -3.40600 43.69500
H  22.67400 -8.25200 47.72000
H  28.70300 -5.83800 47.93700
H  24.90700 -0.47600 42.86600
H  22.23200 -1.58500 42.61100
H  23.15600 0.36100 44.38000
H  22.51000 -0.80500 45.51200
H  21.46500 -0.09900 44.33000
H  23.49300 -2.26500 41.15800
H  24.91500 -3.11200 41.63000
H  26.38900 -1.50700 40.51500
H  25.14200 -0.33900 40.45600
H  18.90200 -4.42900 44.48800
H  18.25300 -5.91500 45.10400
H  19.07700 -5.95400 43.66200
H  21.04700 -9.55100 47.60000
H  19.47100 -9.29300 48.23200
H  20.65900 -8.13800 48.74500
H  25.33700 -9.26200 47.74100
H  27.15100 -7.58500 49.56200
H  23.69600 -8.25600 49.88900
H  25.24600 -8.45100 50.52100
H  24.50100 -9.83000 49.78000
H  28.41900 -8.04700 46.88500
H  27.52000 -9.47100 47.24000
H  28.61900 -10.20000 48.82400
H  28.99500 -8.53000 49.41400
H  29.82400 -9.28300 47.96700
H  30.78800 -3.15000 47.73100
H  31.21100 -3.64700 46.10900
H  30.53500 -4.86700 47.19400
H  27.76000 -1.52300 42.60600
H  26.92400 2.41400 42.86300
H  27.51000 2.25000 41.15600
H  28.62300 2.56800 42.41600
Mg -2.04100 34.13600 26.83200
C  -3.81300 32.37500 29.46700
C  -0.52200 36.06200 29.39700
C  -1.27500 36.43400 24.53500
C  -3.85700 32.28800 24.61100
N  -2.29400 34.29900 29.18900
C  -2.97500 33.42400 30.04200
C  -2.71900 33.75100 31.46300
C  -1.78500 35.01300 31.38100
C  -1.48600 35.12800 29.93600
C  -2.49900 36.36500 31.85800
C  -2.08700 32.44400 32.11200
C  -2.79200 31.80200 33.24100
H  -2.01900 31.72700 34.58400
N  -0.85700 35.86800 26.90700
C  -0.26100 36.41800 28.01800
C  0.57600 37.54600 27.53600
C  0.35200 37.61900 26.17200
C  -0.62000 36.64200 25.81200
C  1.50500 38.37100 28.46400
C  1.04800 38.50700 25.21100
O  0.99800 38.39900 23.96800
C  1.95500 39.60100 25.75400
N  -2.39900 34.31600 24.86600
C  -2.07900 35.43300 24.06300
C  -2.66500 35.22200 22.64000
C  -2.97600 33.68700 22.66200
C  -3.06900 33.36700 24.14000
C  -3.79100 36.17600 22.11600
C  -1.98700 32.74000 21.93300
C  -2.48500 32.08300 20.60500
N  -3.40500 32.51100 26.96700
C  -4.09600 31.87700 25.93600
C  -4.86200 30.74600 26.44800
C  -4.79000 30.93000 27.83700
C  -3.91400 32.01000 28.14700
C  -5.67100 29.73300 25.66100
C  -5.31700 30.41600 29.03300
O  -6.07900 29.46900 29.23600
C  -4.65900 31.29000 30.15800
C  -5.80500 31.89000 30.95100
O  -6.39600 32.95800 30.74300
O  -6.15600 31.07600 31.97000
C  -7.22400 31.41800 32.95800
H  0.03000 36.58600 30.18000
H  -1.16500 37.31200 23.89600
H  -4.37400 31.71000 23.84200
H  -3.64800 33.94100 32.00000
H  -0.89800 34.78300 31.97200
H  -3.51200 36.05700 32.11600
H  -2.48300 37.01300 30.98200
H  -2.07600 36.86800 32.72700
H  -1.13400 32.69900 32.57500
H  -1.81900 31.85400 31.23500
H  -3.01700 30.76900 32.97800
H  -3.76800 32.27400 33.35600
H  2.52600 38.28700 28.09100
H  1.36000 37.94400 29.45600
H  1.26600 39.43100 28.54200
H  1.39400 40.15800 26.50400
H  2.31800 40.18500 24.90800
H  2.86900 39.22300 26.21200
H  -1.81000 35.36600 21.98000
H  -4.01300 33.55900 22.35200
H  -4.28900 36.47200 23.03900
H  -4.49100 35.69100 21.43600
H  -3.31000 37.00700 21.60100
H  -1.75900 31.98100 22.68100
H  -1.04100 33.22000 21.68400
H  -1.66300 32.20300 19.90000
H  -3.45700 32.50200 20.34200
H  -2.66000 31.00800 20.63500
H  -5.77700 28.80000 26.21500
H  -5.33700 29.57200 24.63600
H  -6.67700 30.15400 25.64800
H  -4.09500 30.63100 30.81700
H  -6.78500 31.64000 33.93100
H  -7.77300 30.48400 33.08100
H  -7.83700 32.19300 32.49800

