158

Mg -0.14800 43.90100 26.13900
C  1.87100 44.04400 28.98400
C  -2.88700 43.04900 27.96200
C  -1.75300 43.33500 23.18100
C  2.81300 44.51000 24.22600
N  -0.45700 43.49300 28.21200
C  0.49200 43.57500 29.20000
C  -0.17600 43.46900 30.60600
C  -1.60300 43.01400 30.26800
C  -1.66600 43.17400 28.72400
C  -2.07300 41.56800 30.72100
C  -0.24200 44.70700 31.61900
C  0.30600 44.37700 32.97100
H  0.07600 42.97400 33.69300
N  -2.04800 43.32000 25.59500
C  -3.06600 43.09100 26.56900
C  -4.27600 42.88600 25.77300
C  -3.95100 42.80700 24.36800
C  -2.51300 43.08100 24.35100
C  -5.64100 42.73600 26.43400
C  -4.82200 42.48400 23.13500
O  -4.40400 42.23900 22.01200
C  -6.31900 42.42700 23.26500
N  0.51400 43.78300 24.01100
C  -0.42800 43.71100 23.02000
C  0.16200 43.80800 21.66700
C  1.63100 44.40500 21.99500
C  1.66800 44.23400 23.49500
C  0.15700 42.50200 20.80600
C  1.93400 45.82600 21.43700
C  1.41100 47.11900 22.11400
N  1.91400 44.25400 26.52500
C  3.00400 44.51400 25.66200
C  4.22700 44.69300 26.42500
C  3.80800 44.59600 27.77000
C  2.45000 44.28400 27.72700
C  5.60500 44.89800 25.97500
C  4.20400 44.58900 29.17100
O  5.29300 44.74400 29.60000
C  2.96500 44.33600 29.97800
C  3.31600 43.13900 30.81900
O  2.84800 41.98800 30.62600
O  4.22800 43.49400 31.89500
C  4.53400 42.41900 32.85600
H  -3.77100 42.73000 28.51900
H  -2.24700 43.27300 22.20800
H  3.62400 44.99000 23.67500
H  0.26400 42.64300 31.16500
H  -2.32200 43.75300 30.62000
H  -2.47600 41.06400 29.84200
H  -2.95400 41.50700 31.35900
H  -1.26900 41.00800 31.19800
H  -1.22300 45.16300 31.75500
H  0.41400 45.34000 31.02200
H  -0.09600 45.24000 33.50000
H  1.36600 44.60800 32.86200
H  -6.16500 43.68000 26.28300
H  -5.57600 42.77400 27.52200
H  -6.17500 41.86200 26.06200
H  -6.61500 41.60700 23.91900
H  -6.65600 42.09200 22.28400
H  -6.67600 43.42000 23.53600
H  -0.27500 44.70400 21.22600
H  2.50400 43.85300 21.64700
H  -0.54500 41.86400 21.34200
H  1.15400 42.06300 20.82300
H  0.03700 42.51100 19.72200
H  1.69900 45.92900 20.37700
H  3.02300 45.81800 21.40400
H  2.28900 47.59900 22.54600
H  0.65400 46.82300 22.84100
H  0.84000 47.81200 21.49600
H  5.93700 44.12400 25.28300
H  6.26300 45.16600 26.80100
H  5.81100 45.78800 25.38000
H  2.86300 45.12000 30.72900
H  3.72300 42.56500 33.57000
H  5.37600 42.80300 33.43200
H  4.55300 41.40600 32.45300
Mg -5.44900 25.81500 25.69000
C  -4.09500 27.00800 28.66600
C  -7.01900 23.32800 27.57000
C  -6.41800 24.36400 22.88200
C  -3.07600 27.71400 23.97300
N  -5.56200 25.26500 27.88800
C  -4.95000 25.93000 28.93600
C  -5.41200 25.39600 30.29400
C  -6.01100 23.94400 29.91300
C  -6.22800 24.15900 28.38000
C  -5.18400 22.74600 30.41200
C  -6.42300 26.23800 31.07000
C  -6.12300 26.59700 32.52300
H  -5.30600 25.54300 33.35500
N  -6.72000 24.17200 25.31200
C  -7.30400 23.32000 26.17500
C  -8.12300 22.34700 25.44500
C  -8.03600 22.69200 24.05900
C  -6.99300 23.79300 24.06300
C  -8.93600 21.20500 26.07200
C  -8.80900 22.16500 22.81000
O  -8.54700 22.50400 21.66500
C  -9.83200 21.18100 22.91600
N  -4.73200 25.87700 23.73500
C  -5.40300 25.27200 22.79600
C  -4.79000 25.63700 21.40300
C  -3.85700 26.81300 21.72600
C  -3.87100 26.87300 23.22000
C  -4.08600 24.40800 20.72100
C  -4.29700 28.23000 21.15800
C  -3.33400 28.98200 20.20700
N  -3.88800 27.15700 26.14300
C  -3.02400 27.82600 25.31400
C  -2.38900 28.82100 26.17600
C  -2.79400 28.56300 27.47200
C  -3.67300 27.52700 27.41400
C  -1.57000 29.98800 25.73300
C  -2.60100 28.92600 28.83800
O  -1.85100 29.75800 29.39000
C  -3.31400 27.85400 29.66100
C  -2.51700 27.09800 30.63300
O  -1.90500 26.05100 30.40300
O  -2.47900 27.82500 31.78700
C  -1.39200 27.52700 32.69100
H  -7.51300 22.53200 28.13000
H  -6.74600 23.85900 21.97100
H  -2.57000 28.43300 23.32600
H  -4.51900 25.19600 30.88700
H  -6.98700 23.77200 30.36700
H  -5.08500 21.97300 29.64900
H  -5.64300 22.27100 31.27900
H  -4.18200 23.05100 30.71400
H  -7.38900 25.73400 31.06300
H  -6.63200 27.17900 30.56200
H  -7.14800 26.67100 32.88600
H  -5.58300 27.53100 32.67600
H  -8.37600 20.72000 26.87200
H  -9.26800 20.38900 25.43100
H  -9.76100 21.74000 26.54300
H  -9.43600 20.18000 23.08900
H  -10.41200 21.16600 21.99300
H  -10.56100 21.35900 23.70700
H  -5.54500 25.92600 20.67200
H  -2.88000 26.54500 21.32300
H  -4.27400 23.51200 21.31300
H  -3.03700 24.47900 20.43200
H  -4.67300 24.23300 19.82000
H  -4.49200 28.88100 22.01100
H  -5.23700 28.07900 20.62800
H  -2.37900 28.47700 20.06100
H  -3.19900 30.00500 20.55700
H  -3.69500 28.90100 19.18200
H  -0.54300 29.63500 25.63900
H  -1.72000 30.85300 26.37900
H  -1.88900 30.21100 24.71500
H  -4.09400 28.37300 30.21900
H  -0.45500 27.43300 32.14200
H  -1.59100 26.65300 33.31100
H  -1.34100 28.39100 33.35300

