158

Mg 24.36900 -7.05000 47.94900
C  26.49000 -4.54800 46.83300
C  22.06800 -6.07100 45.48200
C  22.49100 -9.72000 48.74800
C  26.91600 -8.23100 50.04500
N  24.40200 -5.65300 46.13700
C  25.31900 -4.64300 46.03500
C  24.96500 -3.69000 44.95200
C  23.39700 -4.00500 44.62100
C  23.32900 -5.32300 45.38700
C  22.49500 -2.89000 45.07600
C  25.89600 -3.94600 43.76500
C  26.47600 -2.70500 43.16200
H  25.57800 -2.05700 42.08800
N  22.51600 -7.79200 47.18600
C  21.71500 -7.25700 46.19700
C  20.63300 -8.13700 45.93400
C  20.75200 -9.29200 46.74500
C  21.89100 -8.98000 47.67400
C  19.50200 -7.87100 44.90200
C  19.88100 -10.51900 46.81300
O  18.78900 -10.53600 46.21300
C  20.32200 -11.68500 47.58200
N  24.73800 -8.75100 49.10700
C  23.75300 -9.61000 49.40400
C  24.27000 -10.64800 50.48600
C  25.71200 -10.19600 50.81000
C  25.82300 -9.03300 49.95400
C  23.39300 -10.65400 51.74200
C  26.82200 -11.22200 50.50700
C  27.74200 -11.51000 51.72300
N  26.26200 -6.44400 48.45300
C  27.17600 -7.04100 49.27600
C  28.37900 -6.26500 49.19100
C  28.08700 -5.23900 48.27300
C  26.82900 -5.43400 47.79100
C  29.63300 -6.60000 49.98900
C  28.70600 -4.15300 47.61200
O  29.84800 -3.64700 47.72300
C  27.63100 -3.52200 46.75600
C  27.15500 -2.23600 47.08600
O  26.52300 -1.91900 48.08300
O  27.70600 -1.29000 46.18000
C  27.00300 -0.00600 46.29500
H  21.41700 -5.81200 44.64400
H  21.81300 -10.44500 49.20300
H  27.78900 -8.50900 50.64000
H  25.08600 -2.70000 45.38900
H  23.34600 -4.10200 43.53600
H  21.84700 -2.50000 44.29100
H  22.96800 -2.01300 45.51700
H  21.81600 -3.30500 45.82100
H  25.51600 -4.54700 42.94000
H  26.71200 -4.55100 44.16100
H  27.40000 -3.06300 42.70900
H  26.64500 -1.93500 43.91500
H  19.47700 -8.70000 44.19500
H  19.50400 -6.91800 44.37200
H  18.54000 -7.91200 45.41300
H  21.41000 -11.73500 47.61400
H  19.94300 -12.59500 47.11700
H  19.95100 -11.71800 48.60600
H  24.24900 -11.63400 50.02100
H  25.93600 -9.74800 51.77800
H  23.60000 -9.83400 52.43000
H  23.73900 -11.57600 52.20800
H  22.31700 -10.62000 51.56800
H  27.46300 -10.85500 49.70500
H  26.31200 -12.16400 50.30800
H  27.69900 -12.59700 51.79200
H  27.21500 -11.13600 52.60100
H  28.71900 -11.04200 51.59900
H  30.03100 -7.60000 49.81800
H  29.49000 -6.43200 51.05700
H  30.44300 -5.96100 49.63500
H  28.15300 -3.53000 45.79900
H  27.26200 0.58400 47.17500
H  25.91600 -0.03800 46.37300
H  27.31700 0.64600 45.48000
Mg 46.87700 15.05600 27.74900
C  44.90000 15.08500 30.72000
C  48.91800 17.41800 29.24300
C  48.47200 15.18300 25.01200
C  44.24700 13.16700 26.25600
N  46.82000 16.07600 29.74700
C  45.98100 15.94300 30.78300
C  46.52300 16.62900 32.00300
C  47.55200 17.69200 31.37400
C  47.79700 16.99700 30.01200
C  47.20200 19.16400 31.22300
C  47.28000 15.56400 32.93200
C  46.96900 15.63600 34.40000
H  48.17700 15.47800 35.40300
N  48.57900 16.04800 27.22400
C  49.28900 16.94100 27.95600
C  50.42200 17.42200 27.19500
C  50.37000 16.75500 25.92100
C  49.12800 15.97100 26.01200
C  51.41400 18.43500 27.72500
C  51.30600 16.80600 24.69700
O  51.11600 16.19200 23.62900
C  52.56900 17.68200 24.83400
N  46.26700 14.37700 25.78800
C  47.25500 14.50800 24.84600
C  46.93800 13.61100 23.62400
C  45.53800 12.96000 24.02900
C  45.31000 13.51500 25.41600
C  46.83100 14.48800 22.35800
C  45.45500 11.32700 23.96600
C  46.68400 10.57500 24.62500
N  45.02600 14.22100 28.26300
C  44.05800 13.57900 27.52400
C  42.93400 13.26800 28.38100
C  43.23700 13.85200 29.61600
C  44.49800 14.43600 29.52900
C  41.63600 12.76000 27.95200
C  42.61300 14.10100 30.96500
O  41.50300 13.89500 31.46600
C  43.82300 14.84000 31.71500
C  43.27400 16.16700 32.19600
O  43.02200 17.10300 31.50100
O  43.12500 16.13000 33.58500
C  42.67600 17.30200 34.36200
H  49.59600 18.14100 29.70300
H  49.14900 15.18900 24.15600
H  43.41500 12.64200 25.78400
H  45.70900 17.03500 32.60300
H  48.44500 17.74000 31.99700
H  46.99100 19.39700 30.17900
H  48.04400 19.76100 31.57200
H  46.27200 19.30400 31.77300
H  48.35000 15.63500 32.73400
H  46.95500 14.57000 32.62400
H  46.26000 14.86800 34.70900
H  46.48500 16.59500 34.58500
H  51.70500 19.12600 26.93400
H  52.28500 17.90100 28.10600
H  51.03000 19.01800 28.56300
H  53.12600 17.62700 23.89900
H  53.18200 17.29800 25.64900
H  52.26800 18.72900 24.85900
H  47.67500 12.80800 23.63400
H  44.79000 13.26800 23.29700
H  46.50900 15.51400 22.53600
H  46.04700 14.10400 21.70500
H  47.84100 14.55500 21.95300
H  45.49500 11.02700 22.91900
H  44.59200 10.89500 24.47200
H  47.27300 10.15200 23.81200
H  46.24700 9.77700 25.22600
H  47.23900 11.22400 25.30300
H  41.22300 13.19600 27.04300
H  40.98600 13.04300 28.78000
H  41.80600 11.69100 27.82500
H  44.16600 14.35700 32.63000
H  42.30700 18.17100 33.81800
H  43.47600 17.69100 34.99200
H  41.85900 17.01300 35.02300

