158

Mg 25.85100 0.52500 29.90300
C  27.95200 0.38600 32.65300
C  23.17300 0.99700 32.03400
C  23.95400 0.86700 27.09200
C  28.63000 -0.32300 27.85500
N  25.57200 0.68400 32.14100
C  26.66000 0.72700 33.03400
C  26.12300 0.84200 34.53000
C  24.62100 0.97400 34.29800
C  24.43000 0.91200 32.77100
C  23.58300 0.22500 35.16900
C  26.64400 2.15200 35.18900
C  25.78000 2.77100 36.29800
H  26.54200 3.31700 37.58800
N  23.85000 0.81900 29.60900
C  22.92200 0.97000 30.63600
C  21.63000 1.15500 29.96800
C  21.84700 1.06000 28.55100
C  23.26600 0.90400 28.37800
C  20.35000 1.49700 30.75300
C  20.91100 1.15300 27.39700
O  21.22600 0.99500 26.24200
C  19.50000 1.40800 27.68400
N  26.27600 0.43400 27.79900
C  25.32900 0.71500 26.84500
C  25.90300 0.60500 25.48700
C  27.47400 0.33400 25.71300
C  27.46000 0.01200 27.20400
C  25.13300 -0.43300 24.59100
C  28.33800 1.53100 25.23100
C  29.21100 1.28400 24.03800
N  27.85400 0.07100 30.14200
C  28.81200 -0.41900 29.29000
C  30.06700 -0.67100 30.03600
C  29.79600 -0.23800 31.32500
C  28.40800 0.09000 31.37400
C  31.35800 -1.29500 29.68300
C  30.32800 -0.10800 32.65900
O  31.46700 -0.38400 33.01800
C  29.16600 0.40100 33.58200
C  29.07700 -0.56300 34.74100
O  28.91100 -1.76800 34.65200
O  29.19000 0.07200 35.98500
C  28.90300 -0.84900 37.15300
H  22.36000 1.04600 32.76100
H  23.38000 0.89500 26.16200
H  29.50300 -0.43100 27.20800
H  26.29700 -0.03700 35.15000
H  24.30300 1.99900 34.48600
H  24.09100 -0.13800 36.06200
H  23.16300 -0.55200 34.53000
H  22.89600 0.96800 35.57400
H  26.77100 2.91000 34.41600
H  27.62600 1.94300 35.61200
H  24.93900 2.14900 36.60000
H  25.41400 3.70800 35.87800
H  19.96100 2.47100 30.45600
H  20.44300 1.43900 31.83700
H  19.56200 0.85300 30.36200
H  18.93000 0.56100 28.06500
H  19.05300 1.66900 26.72500
H  19.43500 2.26400 28.35600
H  25.78200 1.49400 24.86600
H  27.86400 -0.60000 25.30800
H  25.74200 -1.32900 24.46900
H  24.89900 -0.06000 23.59400
H  24.19500 -0.71300 25.07000
H  28.95400 2.00300 25.99800
H  27.63500 2.31300 24.94400
H  30.19400 1.66400 24.31700
H  28.89000 1.99200 23.27400
H  29.26200 0.23400 23.75200
H  31.31000 -2.19700 29.07300
H  31.97000 -1.49200 30.56300
H  31.84100 -0.51700 29.09200
H  29.48700 1.38600 33.91900
H  29.31200 -0.37100 38.04400
H  29.40900 -1.81200 37.22100
H  27.83100 -1.00900 37.26500
Mg 16.63600 52.07400 26.71000
C  18.61500 50.55400 28.99800
C  14.46300 53.10600 29.23700
C  14.63300 53.61400 24.39200
C  18.70900 51.04600 24.13900
N  16.57300 51.79100 28.89200
C  17.55600 51.15400 29.57800
C  17.24100 51.27900 31.04500
C  15.74300 51.85000 31.09400
C  15.57700 52.28400 29.63400
C  14.64000 50.83100 31.44100
C  18.40200 51.99900 31.73400
C  18.11000 52.53400 33.13600
H  17.35100 51.61200 34.10500
N  14.77700 53.17600 26.83800
C  14.08900 53.44700 27.93100
C  12.94900 54.34700 27.54900
C  12.94700 54.43600 26.16500
C  14.16400 53.73000 25.72500
C  12.09900 54.93300 28.70800
C  11.89700 55.22200 25.28800
O  11.97100 55.35600 24.04900
C  10.82600 56.05700 25.90100
N  16.62000 52.25600 24.59200
C  15.80700 53.09900 23.86200
C  16.07600 53.10700 22.34200
C  17.48100 52.42400 22.28200
C  17.61900 51.81000 23.70900
C  15.11300 52.46900 21.36100
C  18.65300 53.45300 22.10900
C  19.59800 53.21400 20.95800
N  18.35400 50.93700 26.53900
C  19.07100 50.62300 25.41500
C  20.24900 49.87200 25.86300
C  20.07100 49.75200 27.26200
C  18.95200 50.52300 27.65200
C  21.36900 49.30100 24.90900
C  20.58500 49.14800 28.51100
O  21.52500 48.40000 28.74200
C  19.69500 49.74600 29.68300
C  19.17600 48.70200 30.68200
O  18.29200 47.93800 30.49100
O  20.09500 48.74700 31.70600
C  19.71500 47.84600 32.76600
H  13.95900 53.36200 30.17100
H  14.00600 54.12300 23.65700
H  19.52900 50.80600 23.45800
H  17.22900 50.24900 31.40200
H  15.59000 52.83700 31.53000
H  15.02900 50.02300 32.06000
H  14.22500 50.38800 30.53600
H  13.81200 51.33600 31.93900
H  18.80000 52.83900 31.16300
H  19.19800 51.27000 31.88700
H  17.60500 53.49100 33.00100
H  19.04600 52.66800 33.67700
H  11.16400 54.38100 28.80100
H  11.85600 55.97100 28.47900
H  12.64900 54.90800 29.64900
H  10.09600 56.48400 25.21300
H  11.39500 56.83800 26.40500
H  10.38300 55.37300 26.62500
H  16.09000 54.15500 22.04300
H  17.37400 51.59800 21.57900
H  14.43000 51.81500 21.90200
H  15.61800 51.85800 20.61300
H  14.70200 53.34100 20.85200
H  19.25000 53.34800 23.01500
H  18.41600 54.51000 21.98700
H  19.46800 53.98300 20.19700
H  19.34400 52.31900 20.39000
H  20.61900 53.18200 21.33900
H  22.18900 49.87900 25.33300
H  21.34200 49.65400 23.87800
H  21.55300 48.22700 24.94800
H  20.35900 50.46100 30.16800
H  18.65300 47.95800 32.98600
H  20.25000 48.20200 33.64700
H  19.77800 46.79100 32.49800

