158

Mg 42.88200 42.43800 26.33800
C  42.10900 44.65400 28.87000
C  44.17000 40.25500 28.78300
C  44.19300 40.36900 23.94300
C  42.20100 44.85800 23.93800
N  42.97600 42.40500 28.58400
C  42.52800 43.40800 29.39900
C  42.56700 43.02200 30.90600
C  43.51900 41.77500 30.82300
C  43.50900 41.38600 29.32500
C  44.96100 42.04900 31.31400
C  41.15200 42.86900 31.57100
C  41.07400 42.42900 33.07900
H  40.95300 43.47300 34.22300
N  43.83400 40.45900 26.39600
C  44.24000 39.74200 27.48300
C  44.83900 38.54900 27.02800
C  44.71100 38.50300 25.63400
C  44.20100 39.81100 25.26400
C  45.30300 37.44000 28.06100
C  44.98200 37.40700 24.60500
O  44.58500 37.46900 23.42800
C  45.70500 36.17500 25.17000
N  43.34500 42.59200 24.27900
C  43.68700 41.55400 23.46900
C  43.49900 41.92600 21.94000
C  42.73200 43.23800 22.02000
C  42.80400 43.60900 23.53200
C  44.81700 41.89100 21.13200
C  41.27000 43.17900 21.55100
C  40.24000 42.23300 22.19300
N  42.38700 44.39100 26.29500
C  42.09700 45.28300 25.29800
C  41.58600 46.49600 25.94200
C  41.64200 46.34000 27.33800
C  42.09700 45.02200 27.48600
C  41.03900 47.71400 25.24200
C  41.32100 46.91000 28.61300
O  40.96000 48.01400 28.92900
C  41.71300 45.87900 29.68100
C  42.73900 46.49100 30.51500
O  43.90500 46.68700 30.27100
O  42.10700 46.67800 31.72500
C  42.97200 47.21100 32.82500
H  44.61300 39.64800 29.57500
H  44.48000 39.87400 23.01300
H  41.90900 45.49500 23.10000
H  43.05500 43.74900 31.55500
H  43.09000 41.01500 31.47600
H  45.18300 41.33300 32.10500
H  45.03900 43.05600 31.72400
H  45.69400 41.92100 30.51700
H  40.57200 42.07200 31.10500
H  40.54600 43.76500 31.43700
H  41.99600 41.92200 33.36600
H  40.31300 41.65700 33.19100
H  44.65100 36.57200 27.96300
H  45.31100 37.73000 29.11200
H  46.31300 37.19700 27.73000
H  46.55200 36.42400 25.81000
H  46.14300 35.55100 24.39200
H  44.90400 35.61000 25.64800
H  42.95400 41.08700 21.51000
H  43.24200 44.04100 21.48800
H  44.50100 41.90300 20.08900
H  45.40600 41.03600 21.46300
H  45.41000 42.78100 21.34300
H  41.18300 43.11500 20.46600
H  40.87200 44.19300 21.57900
H  40.69200 41.45900 22.81300
H  39.68000 41.65900 21.45600
H  39.53000 42.82300 22.77300
H  40.38000 48.23200 25.93900
H  40.49200 47.33200 24.37900
H  41.79300 48.38100 24.82400
H  40.78400 45.90900 30.25000
H  43.72500 47.92800 32.49700
H  43.34800 46.31000 33.31000
H  42.31100 47.71900 33.52700
Mg -12.14700 37.77800 42.22400
C  -10.14300 34.89500 41.33900
C  -9.90700 39.61700 40.49200
C  -14.26300 40.22100 42.59600
C  -14.57600 35.50400 43.37100
N  -10.30300 37.20800 40.98400
C  -9.58700 36.06400 40.90900
C  -8.38600 36.22200 39.98300
C  -8.20300 37.78500 40.11100
C  -9.56300 38.24500 40.61800
C  -7.02300 38.18700 41.03500
C  -8.64200 35.60100 38.57900
C  -7.41500 35.20800 37.80300
H  -6.92600 36.05200 36.65300
N  -12.11700 39.67900 41.60800
C  -11.05800 40.30100 40.94300
C  -11.25300 41.76300 40.95400
C  -12.53700 41.96000 41.62500
C  -13.01800 40.59300 41.95700
C  -10.34800 42.78300 40.38000
C  -13.21200 43.31100 41.66500
O  -12.67400 44.31800 41.19700
C  -14.57900 43.47400 42.12100
N  -14.11000 37.92800 43.10300
C  -14.83600 39.01200 42.99400
C  -16.29100 38.91800 43.48400
C  -16.34000 37.40700 43.77100
C  -14.95600 36.86900 43.36300
C  -16.63400 40.04600 44.59400
C  -17.51100 36.66600 43.03900
C  -18.46200 35.79500 43.98200
N  -12.38600 35.56400 42.44200
C  -13.39100 34.84400 42.99000
C  -13.01400 33.41300 43.00700
C  -11.79400 33.34100 42.32300
C  -11.47600 34.70500 41.94700
C  -13.57400 32.24800 43.90300
C  -10.66800 32.45000 41.90900
O  -10.55000 31.24500 41.97900
C  -9.56500 33.40500 41.16900
C  -8.24700 33.28600 41.87100
O  -7.24700 32.98300 41.30600
O  -8.34500 33.44600 43.25600
C  -7.14100 33.08600 44.11000
H  -9.09400 40.28000 40.19000
H  -14.87000 41.10400 42.80400
H  -15.32000 34.77500 43.69800
H  -7.50300 35.77000 40.43400
H  -8.00600 38.14000 39.09900
H  -7.21500 38.93900 41.80000
H  -6.36900 38.70300 40.33200
H  -6.55100 37.30500 41.46800
H  -9.09300 36.40800 38.00100
H  -9.20500 34.66900 38.61500
H  -7.51000 34.18900 37.42600
H  -6.52300 35.20100 38.43000
H  -10.73700 43.27700 39.49000
H  -9.42400 42.29400 40.07000
H  -10.18600 43.57300 41.11400
H  -14.93800 44.46900 41.85800
H  -14.50200 43.27900 43.19100
H  -15.13100 42.71600 41.56600
H  -16.95500 39.07100 42.63300
H  -16.43500 37.31800 44.85300
H  -15.64000 40.45000 44.78400
H  -17.09200 39.53900 45.44400
H  -17.28900 40.83500 44.22400
H  -17.14400 35.95100 42.30300
H  -18.13000 37.38400 42.50000
H  -19.25900 36.33300 44.49500
H  -17.80100 35.38600 44.74600
H  -18.97000 34.97000 43.48300
H  -14.50500 32.58700 44.35800
H  -12.67500 31.95700 44.44500
H  -13.81600 31.39900 43.26400
H  -9.46800 32.99400 40.16400
H  -6.79400 32.19600 43.58500
H  -7.33500 32.91800 45.16900
H  -6.50200 33.96800 44.09500

