158

Mg 16.67700 -2.31200 28.89000
C  15.70200 -0.14400 31.48000
C  18.97600 -3.69900 31.00100
C  17.75800 -4.02000 26.26300
C  14.59700 -0.42600 26.64700
N  17.17600 -1.98700 31.05200
C  16.55100 -1.14800 31.92700
C  16.97400 -1.36800 33.32500
C  18.05300 -2.50200 33.19500
C  18.18300 -2.70700 31.65500
C  19.38900 -2.27700 33.96400
C  15.82900 -1.81800 34.36200
C  15.69500 -1.17200 35.72300
H  17.04000 -0.65800 36.24000
N  18.13000 -3.69600 28.67600
C  19.01300 -4.17300 29.61500
C  19.81500 -5.24000 29.06100
C  19.52600 -5.23600 27.68300
C  18.42200 -4.35000 27.46200
C  20.74100 -6.10000 29.91200
C  20.11400 -6.18000 26.58800
O  19.73800 -6.15200 25.41100
C  21.07500 -7.25300 26.98100
N  16.18200 -2.37600 26.79400
C  16.75800 -3.14200 25.91900
C  16.28000 -2.93600 24.49400
C  15.04600 -2.05600 24.73400
C  15.32000 -1.53100 26.15600
C  17.46300 -2.24500 23.63900
C  13.70100 -2.73600 24.63200
C  12.96500 -2.47300 23.25300
N  15.38000 -0.62700 28.98400
C  14.69800 0.03800 27.95500
C  13.91400 1.09800 28.54200
C  14.32900 1.09000 29.93500
C  15.21400 0.05800 30.14300
C  12.93400 2.04300 27.93700
C  14.20400 1.75000 31.20600
O  13.59800 2.73700 31.57100
C  14.93500 0.90700 32.23800
C  15.69100 1.77600 33.26700
O  16.70100 2.42000 33.04500
O  14.91200 1.91400 34.40800
C  15.23400 3.01300 35.25600
H  19.61600 -4.18900 31.73700
H  18.05700 -4.68500 25.45000
H  13.95400 0.00700 25.87800
H  17.45900 -0.46300 33.68800
H  17.64900 -3.42900 33.60200
H  20.14000 -1.93900 33.25100
H  19.58000 -3.20800 34.49900
H  19.38700 -1.53100 34.75900
H  15.94600 -2.89000 34.52300
H  14.87400 -1.76600 33.84100
H  15.44100 -1.95000 36.44400
H  14.96800 -0.36400 35.64300
H  20.87100 -5.64100 30.89200
H  21.69100 -6.26600 29.40500
H  20.29200 -7.06700 30.13900
H  20.63700 -7.68300 27.88200
H  22.07400 -6.90300 27.24200
H  21.15600 -7.96600 26.16100
H  15.96400 -3.83400 23.96200
H  15.05700 -1.26500 23.98400
H  17.25900 -1.17500 23.60400
H  17.28400 -2.68200 22.65600
H  18.42000 -2.55500 24.05800
H  12.99700 -2.47000 25.42000
H  13.87300 -3.81000 24.69800
H  12.21300 -1.69000 23.34600
H  12.47800 -3.37300 22.87700
H  13.55500 -2.15800 22.39300
H  13.30500 2.50400 27.02200
H  12.61800 2.73600 28.71700
H  12.09800 1.42500 27.61100
H  14.32400 0.24500 32.85100
H  15.73700 3.77400 34.66000
H  15.89500 2.59800 36.01600
H  14.32400 3.43200 35.68600
Mg 24.84700 1.25000 30.33200
C  27.01700 1.24400 33.03000
C  22.22200 0.91700 32.56300
C  22.87100 0.87900 27.78600
C  27.70500 0.92000 28.19500
N  24.70600 1.11500 32.53200
C  25.66700 1.26300 33.47700
C  25.19500 1.37800 34.90000
C  23.66800 0.93300 34.72600
C  23.50600 0.92300 33.20300
C  23.21700 -0.43400 35.40100
C  25.35800 2.78300 35.48300
C  26.32000 2.77800 36.71000
H  26.01500 3.66900 37.88000
N  22.85700 0.93200 30.19400
C  21.93800 0.89800 31.20300
C  20.61500 0.80200 30.59500
C  20.72100 0.73400 29.19100
C  22.22600 0.88800 29.03200
C  19.34300 0.74500 31.44100
C  19.72800 0.64000 28.09100
O  20.00700 0.66700 26.90300
C  18.27000 0.39500 28.44700
N  25.27700 0.85500 28.25800
C  24.25200 0.90100 27.33500
C  24.67500 1.10000 25.88500
C  26.25300 1.07800 26.09500
C  26.45200 0.95300 27.59500
C  24.14900 0.04300 24.84400
C  27.15900 2.13000 25.40700
C  28.40700 1.72700 24.72000
N  27.02700 1.03300 30.50400
C  28.00000 0.90200 29.60400
C  29.29400 0.80500 30.23100
C  28.95000 1.07500 31.57900
C  27.57200 1.13300 31.67300
C  30.62300 0.52600 29.51700
C  29.42000 1.17700 32.96800
O  30.53200 1.10300 33.42400
C  28.19700 1.44000 33.88600
C  28.33400 0.53900 35.04500
O  28.16200 -0.62100 35.02600
O  28.79700 1.25400 36.08500
C  29.20700 0.63100 37.30900
H  21.38000 0.79900 33.24900
H  22.27700 0.63200 26.90400
H  28.62300 0.94600 27.60400
H  25.72400 0.66000 35.52700
H  22.92200 1.62700 35.11100
H  22.32600 -0.27100 36.00700
H  23.92100 -0.85700 36.11700
H  22.98300 -1.20000 34.66100
H  24.42400 3.27500 35.75500
H  25.93900 3.36100 34.76400
H  27.24400 3.21000 36.32400
H  26.53300 1.74800 36.99800
H  19.11300 -0.29600 31.66500
H  18.44100 1.13600 30.96900
H  19.46000 1.31600 32.36200
H  17.64600 0.21600 27.57100
H  17.89300 1.29200 28.93800
H  18.07300 -0.41500 29.14900
H  24.37900 2.12400 25.66000
H  26.63200 0.10900 25.76900
H  23.66800 -0.80200 25.33600
H  24.86300 -0.49700 24.22300
H  23.48300 0.48400 24.10300
H  27.44800 2.86200 26.16000
H  26.47800 2.65000 24.73400
H  28.29600 0.64700 24.62600
H  29.34700 1.83900 25.26000
H  28.47100 2.38000 23.85000
H  30.53600 0.68600 28.44200
H  30.85000 -0.51700 29.73500
H  31.32200 1.30100 29.83100
H  28.27700 2.51700 34.03500
H  28.39300 0.69600 38.03100
H  30.03000 1.23200 37.69600
H  29.59100 -0.37400 37.13200

