158

Mg 24.97900 0.90300 29.66700
C  27.17400 0.54700 32.35000
C  22.38200 1.13400 31.87400
C  22.91800 1.08300 26.89100
C  27.68700 0.31400 27.48600
N  24.89300 0.88300 31.84000
C  25.86100 0.82600 32.76800
C  25.34700 1.09200 34.21600
C  23.78300 0.83900 34.01700
C  23.62800 0.96700 32.45800
C  23.22400 -0.47300 34.65100
C  25.73500 2.47900 34.80700
C  25.05900 2.73800 36.16800
H  25.92300 2.83300 37.47500
N  23.00700 1.04800 29.47000
C  22.07000 1.13500 30.48700
C  20.77700 1.19800 29.86200
C  20.93300 1.13900 28.44200
C  22.34800 1.11900 28.20200
C  19.53700 1.13000 30.74800
C  19.78700 0.97900 27.36600
O  19.99300 0.88000 26.13900
C  18.38300 1.14000 27.80400
N  25.26400 1.00100 27.53600
C  24.26100 1.11900 26.54800
C  24.90600 1.19700 25.13000
C  26.35800 0.77700 25.41200
C  26.48900 0.67400 26.90100
C  24.13800 0.20000 24.13600
C  27.38800 1.79900 24.82500
C  28.31300 1.27000 23.75000
N  26.93900 0.40900 29.83100
C  27.93600 0.20800 28.88000
C  29.21600 -0.13500 29.54700
C  28.96100 0.02300 30.94900
C  27.55000 0.42300 31.00800
C  30.53100 -0.41400 28.81500
C  29.52500 0.00800 32.30000
O  30.67000 -0.17100 32.67800
C  28.40400 0.42200 33.22300
C  28.41000 -0.55300 34.44400
O  27.78800 -1.61800 34.46400
O  29.26600 -0.05100 35.38100
C  29.49200 -0.99500 36.44700
H  21.55200 1.16300 32.58300
H  22.23600 1.28700 26.06300
H  28.39300 0.03900 26.70000
H  25.76100 0.23400 34.74500
H  23.16000 1.67200 34.34100
H  23.27000 -1.24900 33.88700
H  22.16900 -0.32300 34.87800
H  23.82800 -0.74500 35.51700
H  25.68600 3.31000 34.10300
H  26.79300 2.38500 35.05000
H  24.44200 1.85700 36.34500
H  24.47100 3.63300 35.96600
H  19.79800 0.33000 31.44000
H  18.60700 0.71100 30.36200
H  19.32900 2.00500 31.36400
H  18.10600 0.16800 28.21300
H  17.78900 1.31800 26.90800
H  18.24500 1.97700 28.48700
H  24.89600 2.26100 24.89400
H  26.62700 -0.21100 25.03800
H  24.83000 -0.26000 23.43100
H  23.46200 0.78000 23.50700
H  23.58500 -0.61100 24.61000
H  28.00000 2.11400 25.67000
H  27.05800 2.76200 24.43600
H  29.29400 1.26400 24.22600
H  28.30800 1.92400 22.87800
H  28.07600 0.25400 23.43400
H  31.14600 0.43900 29.10200
H  30.34100 -0.41300 27.74100
H  30.94100 -1.32300 29.25400
H  28.66600 1.36400 33.70300
H  29.21000 -2.02600 36.23300
H  28.90700 -0.74600 37.33200
H  30.53500 -0.80800 36.70600
Mg 44.02700 4.31100 47.10500
C  42.17100 7.23000 46.93800
C  41.05000 2.45700 46.87500
C  45.84900 1.42400 47.18400
C  46.93600 6.15200 46.97400
N  41.90300 4.82200 46.79100
C  41.31800 6.11200 46.89800
C  39.79000 6.07000 46.78500
C  39.54400 4.53300 46.88200
C  40.92400 3.88200 46.93900
C  38.62100 4.02600 48.00600
C  38.95900 6.57200 45.58500
C  39.67800 6.33800 44.25900
H  39.88600 7.57900 43.42200
N  43.55300 2.20600 47.09000
C  42.23700 1.69000 47.02600
C  42.31200 0.24100 47.05000
C  43.68700 -0.09900 47.17600
C  44.47600 1.17000 47.13800
C  41.10600 -0.65900 46.99700
C  44.23100 -1.50300 47.45600
O  43.46400 -2.48400 47.55300
C  45.67600 -1.77800 47.47700
N  46.17400 3.82500 46.71200
C  46.65700 2.58700 47.04000
C  48.15100 2.63800 47.17000
C  48.52000 4.18400 47.16200
C  47.20000 4.79600 46.84600
C  48.69800 1.93200 48.39500
C  49.71500 4.63100 46.22700
C  51.02300 5.06100 46.95300
N  44.51300 6.20000 47.05600
C  45.70300 6.84300 47.05400
C  45.48300 8.25800 47.13100
C  44.12500 8.42100 47.19000
C  43.60100 7.19200 47.07500
C  46.56700 9.33800 47.09900
C  43.00500 9.46600 47.18100
O  43.01200 10.67800 47.33800
C  41.70600 8.63000 47.14700
C  41.06600 8.87800 48.46100
O  41.57400 8.67000 49.57500
O  39.80100 9.48200 48.33700
C  38.92200 9.56400 49.53200
H  40.18600 1.86900 46.56100
H  46.45100 0.62100 47.61400
H  47.86200 6.73000 46.99600
H  39.37400 6.52000 47.68700
H  39.06900 4.18000 45.96600
H  38.67800 4.80500 48.76700
H  39.00400 3.12000 48.47400
H  37.58000 3.91500 47.70100
H  38.97200 7.64200 45.79100
H  37.93100 6.20900 45.58300
H  39.03300 5.67300 43.68300
H  40.68000 5.91200 44.30700
H  41.01200 -1.07200 45.99300
H  40.18100 -0.13900 47.24800
H  41.21900 -1.42100 47.76800
H  46.15800 -1.37800 48.36900
H  46.09200 -1.41400 46.53700
H  46.01700 -2.81300 47.48200
H  48.52900 2.20900 46.24200
H  48.79700 4.38600 48.19700
H  49.03200 0.90900 48.22300
H  47.97500 1.92100 49.21100
H  49.58900 2.45800 48.73700
H  49.37100 5.42200 45.56000
H  50.09300 3.84700 45.57100
H  51.21300 6.10100 46.68700
H  51.91300 4.56300 46.56900
H  50.88900 4.91700 48.02500
H  47.19600 9.22100 46.21700
H  47.11900 9.21500 48.03100
H  46.04100 10.28000 46.94300
H  41.04400 9.03100 46.37900
H  39.20400 9.00000 50.42200
H  37.93900 9.24700 49.18200
H  38.79300 10.61900 49.77100

