158

Mg 35.65000 2.33700 29.09600
C  33.48600 3.11600 31.68100
C  38.30200 2.49600 31.32500
C  37.77800 2.23100 26.39300
C  32.94500 2.73300 26.80300
N  35.84600 2.73400 31.23600
C  34.79800 2.80500 32.09100
C  35.24100 2.93600 33.48400
C  36.83000 2.94400 33.43600
C  37.03900 2.73900 31.86700
C  37.53100 4.23000 34.03400
C  34.63900 1.74400 34.36800
C  34.48800 2.08900 35.87900
H  34.90600 3.49600 36.46700
N  37.71700 2.25500 28.94300
C  38.64100 2.35900 29.98400
C  39.94800 2.18100 29.44600
C  39.83900 2.08300 28.01300
C  38.39300 2.23700 27.69600
C  41.19000 2.12900 30.30300
C  41.01300 1.94300 27.05200
O  40.81900 1.98300 25.79100
C  42.36000 1.62900 27.50700
N  35.43200 2.37400 27.00800
C  36.40600 2.37300 26.09000
C  35.94100 2.64100 24.65700
C  34.41800 2.38300 24.74200
C  34.19400 2.44200 26.25200
C  36.27100 4.08800 24.07400
C  33.89900 1.10200 24.06300
C  33.24400 1.39700 22.73000
N  33.58700 2.81400 29.15500
C  32.60500 2.96100 28.14500
C  31.39200 3.56800 28.72900
C  31.70000 3.58200 30.13600
C  33.03100 3.15900 30.32500
C  30.11300 3.90600 28.00900
C  31.13500 3.86100 31.52900
O  29.98200 3.96500 31.90700
C  32.28400 3.60800 32.53500
C  32.48000 4.83000 33.27700
O  33.16400 5.83600 33.01500
O  31.67900 4.66700 34.47200
C  31.45600 5.89300 35.27800
H  39.15800 2.35100 31.98800
H  38.49800 2.16400 25.57500
H  32.02800 2.83400 26.22000
H  34.94500 3.87500 33.95200
H  37.21300 2.04900 33.92600
H  38.24800 3.91900 34.79400
H  36.76900 4.93400 34.37000
H  38.17000 4.69000 33.28000
H  35.36700 0.93700 34.27900
H  33.69900 1.42800 33.91600
H  35.05200 1.30500 36.38600
H  33.46300 1.90400 36.20000
H  41.93700 2.84300 29.95500
H  41.52200 1.09200 30.35100
H  41.13600 2.40700 31.35600
H  42.65200 2.45500 28.15600
H  42.91800 1.49100 26.58100
H  42.33700 0.67400 28.03100
H  36.35900 1.88500 23.99200
H  33.82000 3.22100 24.38600
H  36.67400 4.00900 23.06400
H  36.96800 4.49300 24.80800
H  35.40900 4.74200 23.93900
H  33.21700 0.57300 24.72800
H  34.68400 0.36600 23.88900
H  32.17700 1.36900 22.95200
H  33.42000 0.56100 22.05300
H  33.70000 2.31800 22.36600
H  29.65100 2.98700 27.64600
H  30.37300 4.65000 27.25600
H  29.36100 4.30300 28.69000
H  32.02600 2.89200 33.31600
H  31.38900 6.84400 34.75000
H  32.12300 5.89700 36.14000
H  30.48200 5.78900 35.75400
Mg -12.04600 16.48100 41.16900
C  -8.75700 15.19700 40.61200
C  -10.95400 19.47900 39.74300
C  -15.22300 17.48900 41.10500
C  -13.02400 13.27100 42.17600
N  -10.05500 17.16100 39.96900
C  -8.89900 16.55400 40.09400
C  -7.81100 17.40000 39.27600
C  -8.53300 18.81700 39.20500
C  -9.95400 18.49000 39.63200
C  -7.89200 19.99000 40.02000
C  -7.36100 16.69600 37.95300
C  -5.86700 16.51300 37.78300
H  -5.25000 17.06100 36.51700
N  -12.95000 18.30200 40.58200
C  -12.32000 19.43100 40.11100
C  -13.37100 20.44600 39.93100
C  -14.61700 19.89900 40.41300
C  -14.31300 18.51800 40.69600
C  -13.05400 21.76800 39.34900
C  -15.98100 20.57500 40.53000
O  -15.99600 21.81400 40.36000
C  -17.34400 19.93200 40.76300
N  -13.85500 15.48800 41.61800
C  -14.97800 16.16600 41.60000
C  -16.17200 15.27800 42.03600
C  -15.50100 13.93500 42.39400
C  -14.06100 14.20400 41.99200
C  -17.14200 15.86800 43.10800
C  -16.07900 12.71700 41.54400
C  -16.17900 11.39500 42.34800
N  -11.15600 14.58000 41.41500
C  -11.68600 13.41000 41.87900
C  -10.63800 12.45000 42.02200
C  -9.43500 13.06500 41.59100
C  -9.83600 14.40600 41.22900
C  -10.80800 11.01800 42.57300
C  -7.95900 12.99300 41.30700
O  -7.18700 12.06100 41.62600
C  -7.58300 14.30800 40.57600
C  -6.36300 14.88300 41.13300
O  -6.38800 15.65700 42.08600
O  -5.25400 14.42100 40.43700
C  -4.03600 14.67400 41.19500
H  -10.69200 20.48400 39.40600
H  -16.28000 17.74800 41.20100
H  -13.22600 12.32700 42.68600
H  -6.95300 17.66300 39.89300
H  -8.72000 19.06600 38.16100
H  -6.98700 19.78900 40.59300
H  -8.61600 20.26900 40.78600
H  -7.63800 20.88800 39.45700
H  -7.82700 17.31200 37.18300
H  -7.75400 15.68200 37.88700
H  -5.82800 15.42700 37.86800
H  -5.39400 16.99700 38.63700
H  -13.91900 22.20800 38.85300
H  -12.23800 21.76900 38.62600
H  -12.78200 22.34500 40.23300
H  -18.17900 20.61300 40.59900
H  -17.47400 19.52700 41.76700
H  -17.44700 19.15300 40.00800
H  -16.78300 15.26100 41.13300
H  -15.64000 13.69200 43.44800
H  -18.02000 16.08200 42.49800
H  -16.74600 16.79300 43.52600
H  -17.47500 15.08600 43.79100
H  -15.57100 12.58100 40.59000
H  -17.11700 12.98300 41.34400
H  -15.46000 10.65100 42.00600
H  -17.15700 10.94500 42.17600
H  -15.92400 11.48800 43.40400
H  -11.74700 11.03100 43.12600
H  -9.93500 10.70400 43.14600
H  -10.85600 10.45700 41.64000
H  -7.41000 14.08000 39.52400
H  -4.25000 14.22300 42.16400
H  -3.89100 15.74300 41.35500
H  -3.18600 14.17600 40.72900

