158

Mg 27.03900 49.32700 26.11900
C  25.01900 50.52300 28.78700
C  29.28800 48.16800 28.41600
C  28.93700 48.44400 23.53600
C  24.78300 50.82600 23.87900
N  27.11000 49.33600 28.41500
C  26.14200 49.77100 29.24400
C  26.52600 49.52500 30.71800
C  27.97300 48.84500 30.57800
C  28.16000 48.74300 29.04300
C  29.14400 49.57300 31.27900
C  25.31400 48.75600 31.49200
C  25.00100 49.03400 33.00200
H  25.96800 49.73000 33.99000
N  28.86300 48.44200 26.01300
C  29.66200 47.99600 27.02300
C  30.88200 47.48300 26.47100
C  30.84700 47.65100 25.07100
C  29.49100 48.19500 24.80200
C  31.98500 46.89700 27.44500
C  31.92400 47.26900 24.07800
O  31.74100 47.41200 22.84800
C  33.31300 46.70800 24.55800
N  27.04200 49.81200 24.00700
C  27.82900 49.18700 23.14200
C  27.41400 49.33100 21.66400
C  26.17400 50.21700 21.75500
C  25.96200 50.24200 23.29700
C  28.52000 49.98500 20.74400
C  25.02200 49.65400 20.86000
C  23.95800 48.81800 21.59600
N  25.26600 50.34800 26.16000
C  24.49100 51.03700 25.21900
C  23.35500 51.74300 25.86700
C  23.64700 51.60200 27.22000
C  24.77000 50.72400 27.36200
C  22.35000 52.44000 25.15200
C  23.14000 52.05500 28.56100
O  22.23500 52.79400 28.83900
C  23.93500 51.19600 29.60100
C  24.26100 52.08900 30.70300
O  25.22800 52.84800 30.64300
O  23.25200 52.15000 31.66700
C  23.43400 53.03500 32.80200
H  29.94900 47.79500 29.20100
H  29.42400 47.93500 22.70100
H  23.97500 51.21200 23.25400
H  26.74200 50.52500 31.09300
H  27.88400 47.83800 30.98600
H  29.91500 49.92400 30.59400
H  29.64700 48.96400 32.03100
H  28.70100 50.40800 31.82200
H  25.38800 47.69200 31.27100
H  24.42400 49.02500 30.92300
H  24.68700 48.10900 33.48600
H  24.13500 49.68800 32.90600
H  31.58500 46.65500 28.43000
H  32.73500 47.68700 27.48700
H  32.32700 45.97400 26.97900
H  33.23800 45.65100 24.81400
H  33.60600 47.30600 25.42100
H  34.02000 46.70300 23.72800
H  27.22600 48.32600 21.28700
H  26.43300 51.22800 21.44200
H  29.34700 50.48200 21.25000
H  28.08700 50.67400 20.01900
H  28.76200 49.13600 20.10500
H  25.37700 49.07600 20.00700
H  24.55400 50.54400 20.44100
H  23.03100 49.37900 21.71900
H  24.17700 48.52400 22.62200
H  23.77500 47.86300 21.10300
H  22.50700 53.47300 25.46300
H  21.34200 52.10900 25.40300
H  22.47300 52.27600 24.08100
H  23.27500 50.43200 30.01000
H  24.40100 53.03500 33.30600
H  22.63900 52.82500 33.51700
H  23.16800 54.07100 32.59300
Mg 17.37000 51.43600 26.30000
C  19.44300 49.85200 28.92400
C  15.40900 52.55800 28.70500
C  15.57800 52.57500 23.81900
C  19.61800 49.75800 23.94900
N  17.47000 51.26700 28.63400
C  18.42300 50.68400 29.46200
C  18.15000 50.98100 30.93900
C  16.68200 51.45300 30.82400
C  16.47400 51.83000 29.30600
C  15.63400 50.48000 31.31800
C  19.20800 51.97900 31.73600
C  19.43900 51.69800 33.25400
H  18.42300 50.87000 34.06300
N  15.87900 52.53500 26.25100
C  15.16400 52.99400 27.34000
C  14.12600 53.90900 26.87800
C  14.20400 54.05600 25.50500
C  15.26700 53.06700 25.09900
C  13.14400 54.53800 27.82800
C  13.39400 54.83700 24.46200
O  13.57000 54.70700 23.26000
C  12.35100 55.74400 24.96600
N  17.54300 51.13400 24.14400
C  16.54900 51.67200 23.39800
C  16.84200 51.42000 21.88900
C  18.26100 50.58300 21.87100
C  18.57400 50.55500 23.40200
C  15.74600 50.76500 21.07100
C  19.49800 51.27600 21.14100
C  20.21200 50.49500 19.99700
N  18.96100 49.88700 26.39200
C  19.84400 49.50200 25.32900
C  20.95800 48.83100 25.89500
C  20.82000 48.89300 27.30300
C  19.61700 49.63300 27.55300
C  22.10200 48.19600 25.03500
C  21.55500 48.62900 28.51800
O  22.53200 47.95100 28.75300
C  20.58100 49.28500 29.63800
C  20.36400 48.22600 30.69200
O  19.49000 47.35600 30.62700
O  21.27600 48.41300 31.67600
C  20.85800 48.02400 33.02900
H  14.86700 53.05200 29.51400
H  15.01100 53.08100 23.03500
H  20.31600 49.46500 23.16200
H  18.09900 49.99400 31.39700
H  16.57200 52.37100 31.40200
H  14.82400 50.94900 31.87700
H  16.10300 49.86200 32.08300
H  15.17500 49.90700 30.51300
H  18.85300 53.00900 31.69900
H  20.21000 51.94200 31.30900
H  19.48500 52.66700 33.75200
H  20.38200 51.15500 33.32100
H  12.18100 54.64700 27.33000
H  13.42800 55.44800 28.35600
H  12.88600 53.83500 28.62000
H  11.42100 55.21800 25.18100
H  12.16200 56.41000 24.12400
H  12.64900 56.26700 25.87400
H  16.92900 52.44000 21.51300
H  18.09100 49.55100 21.56600
H  15.36300 51.46700 20.33100
H  14.94000 50.32200 21.65600
H  16.20700 50.05000 20.38900
H  20.17800 51.85400 21.76600
H  19.06100 52.08800 20.55900
H  21.29800 50.43200 20.06800
H  20.08400 50.89000 18.99000
H  19.73100 49.52100 19.91700
H  23.07400 48.66600 25.18600
H  21.78100 47.97600 24.01700
H  22.17000 47.17100 25.40000
H  21.00300 50.19800 30.05900
H  19.82500 48.27100 33.27200
H  21.49900 48.46600 33.79100
H  20.92000 46.93600 33.07700

