158

Mg 46.45500 16.68200 28.32300
C  44.35900 15.99300 30.93000
C  48.61000 18.35900 30.44200
C  48.41400 17.40100 25.84400
C  44.25200 14.92200 26.14400
N  46.50900 17.12600 30.42400
C  45.56500 16.56100 31.34100
C  46.00300 16.85900 32.77200
C  47.38800 17.59000 32.55600
C  47.52000 17.74700 31.07000
C  47.56000 18.93200 33.27300
C  46.01300 15.64000 33.78700
C  45.41000 15.94800 35.13400
H  45.23800 17.42900 35.60200
N  48.28700 17.72800 28.15900
C  49.03000 18.37000 29.08800
C  50.19800 18.96300 28.56900
C  50.29500 18.58900 27.19700
C  48.95400 17.90000 26.98900
C  51.22000 19.85200 29.39900
C  51.44200 18.70500 26.19500
O  51.31200 18.30000 25.03400
C  52.72300 19.32200 26.56100
N  46.39000 16.16700 26.27000
C  47.25900 16.73200 25.45900
C  46.99800 16.31400 23.95500
C  45.70000 15.41000 24.01500
C  45.38500 15.50300 25.54200
C  46.77800 17.63200 23.08900
C  45.89500 13.85900 23.63000
C  45.07700 13.29700 22.42600
N  44.66200 15.66800 28.46500
C  43.83100 15.10700 27.49000
C  42.52300 14.73300 28.08000
C  42.71700 15.02700 29.43800
C  43.96600 15.59700 29.63600
C  41.28000 14.25100 27.37700
C  42.13900 15.03000 30.74100
O  40.97400 14.68100 31.03100
C  43.19900 15.52800 31.75300
C  42.53000 16.60900 32.60600
O  42.17900 17.71800 32.29500
O  42.33800 16.09100 33.82900
C  41.48800 16.93700 34.62700
H  49.38000 18.67300 31.15000
H  49.13100 17.66600 25.06500
H  43.49000 14.64600 25.41200
H  45.30500 17.59300 33.17500
H  48.17300 16.87300 32.79500
H  47.66900 19.77100 32.58600
H  48.46700 18.84600 33.87100
H  46.64600 19.07000 33.85100
H  47.03700 15.30600 33.95100
H  45.53600 14.78800 33.30400
H  46.07300 15.55000 35.90300
H  44.44800 15.44200 35.22200
H  50.80400 20.85300 29.51300
H  52.20800 19.92000 28.94500
H  51.39900 19.30500 30.32500
H  53.36300 19.31600 25.67900
H  53.06700 18.70100 27.38800
H  52.52700 20.36200 26.82400
H  47.82100 15.73000 23.54300
H  44.79700 15.68200 23.46900
H  45.72100 17.75000 22.85400
H  47.41000 17.37900 22.23700
H  47.14000 18.47300 23.67900
H  45.71500 13.13900 24.42900
H  46.96500 13.69700 23.50000
H  44.02500 13.48600 22.63900
H  45.25700 12.24600 22.20100
H  45.37100 13.89400 21.56200
H  41.22100 13.16400 27.43800
H  41.24700 14.58200 26.33900
H  40.35700 14.67700 27.77000
H  43.49400 14.64700 32.32200
H  40.55900 16.95300 34.05800
H  41.89000 17.90600 34.92300
H  41.24200 16.42700 35.55900
Mg 42.38600 41.52000 26.08100
C  41.49500 43.79200 28.66000
C  43.17000 39.24500 28.57100
C  43.61900 39.48200 23.75700
C  41.61800 43.95500 23.76400
N  42.48200 41.54500 28.32800
C  41.95600 42.54100 29.15500
C  41.96800 42.15300 30.66600
C  42.56100 40.73500 30.60700
C  42.77900 40.47200 29.13200
C  43.78700 40.55800 31.56400
C  40.54300 42.33700 31.42100
C  40.47900 41.57400 32.77000
H  39.68800 42.21200 33.97300
N  43.15400 39.56300 26.11100
C  43.27300 38.74800 27.23900
C  43.65400 37.42100 26.83300
C  43.75700 37.46900 25.36100
C  43.54800 38.88500 24.97700
C  43.97100 36.25400 27.87400
C  44.16900 36.31400 24.40200
O  44.69800 36.61300 23.33600
C  44.03700 34.88900 24.92300
N  42.85100 41.76400 24.15400
C  43.28900 40.76400 23.32000
C  43.18600 41.05300 21.79400
C  42.24700 42.32300 21.84700
C  42.27100 42.76100 23.32700
C  44.58500 41.27300 21.16200
C  40.79600 42.02500 21.31700
C  40.12400 40.69300 21.73300
N  41.81700 43.53600 26.10800
C  41.56500 44.35700 25.09400
C  41.09200 45.61600 25.58300
C  41.08800 45.45600 26.96800
C  41.45800 44.13500 27.26500
C  40.69900 46.86600 24.86500
C  40.78600 46.04500 28.22100
O  40.44400 47.16900 28.41400
C  41.00500 45.04900 29.37600
C  42.14600 45.60600 30.28100
O  43.31300 45.70700 29.97000
O  41.68700 45.74300 31.50900
C  42.62200 46.00100 32.62900
H  43.24200 38.54900 29.41000
H  43.89500 38.70000 23.04700
H  41.12100 44.56800 23.00900
H  42.59000 42.85000 31.22700
H  41.78400 40.02700 30.89700
H  44.69900 40.41700 30.98500
H  43.68900 39.64800 32.15700
H  43.99000 41.33100 32.30500
H  39.70300 42.10000 30.76800
H  40.43900 43.41500 31.54200
H  41.46900 41.44000 33.20500
H  40.05300 40.60100 32.52400
H  45.01600 36.01500 27.67700
H  43.40100 35.32600 27.83300
H  43.92200 36.55300 28.92100
H  44.85000 34.74000 25.63300
H  44.04500 34.24800 24.04200
H  43.08800 34.71600 25.43000
H  42.70500 40.34300 21.12200
H  42.73700 43.00100 21.14700
H  44.80500 42.31500 20.92800
H  44.67600 40.70500 20.23600
H  45.28900 40.89900 21.90500
H  40.92900 42.08900 20.23700
H  40.04400 42.77700 21.55700
H  39.93000 40.07000 20.86000
H  39.14800 40.94300 22.14800
H  40.65000 39.99900 22.38900
H  39.89100 47.25700 25.48300
H  40.45400 46.73000 23.81200
H  41.60600 47.45600 24.99100
H  40.04000 44.82400 29.83100
H  42.08900 46.56000 33.39800
H  43.40400 46.65700 32.24700
H  43.00900 45.04600 32.98600

