158

Mg 1.64000 -2.18900 43.04100
C  5.00300 -2.47200 42.40500
C  1.62100 0.82900 41.25500
C  -1.67000 -2.48600 42.74800
C  1.72500 -5.68200 44.13200
N  3.14400 -1.03000 41.86800
C  4.45200 -1.35100 41.76100
C  5.23900 -0.27600 41.01600
C  4.17200 0.84200 40.75600
C  2.89600 0.23300 41.32000
C  4.62000 2.18700 41.39100
C  5.89800 -0.75000 39.73400
C  7.02900 0.19900 39.21800
H  6.72100 1.01000 37.94800
N  0.14800 -0.97100 42.23900
C  0.39100 0.33300 41.68500
C  -0.91800 0.97300 41.45400
C  -1.84300 -0.03100 41.62800
C  -1.18500 -1.16800 42.26100
C  -1.00800 2.32300 40.79600
C  -3.30400 0.03300 41.31000
O  -3.82900 1.02500 40.75000
C  -4.10800 -1.12900 41.45200
N  0.26200 -3.98300 43.29800
C  -1.05700 -3.67300 43.28500
C  -1.95700 -4.85000 43.73500
C  -0.85800 -5.94200 44.09700
C  0.49500 -5.14900 43.88600
C  -2.93900 -4.53500 44.89100
C  -0.93100 -7.29400 43.38700
C  -0.69300 -8.50700 44.29000
N  3.10600 -3.70300 43.41400
C  3.03100 -5.03400 43.89100
C  4.35200 -5.56600 43.95500
C  5.21400 -4.56400 43.54800
C  4.35200 -3.47100 43.09700
C  4.60200 -7.07300 44.28600
C  6.55300 -4.22300 43.31200
O  7.54700 -4.80100 43.56000
C  6.48800 -2.83300 42.54100
C  7.37700 -1.81800 43.22100
O  7.07100 -1.02200 44.10700
O  8.61100 -1.85300 42.64800
C  9.63400 -0.89600 43.08200
H  1.58600 1.81900 40.79700
H  -2.74600 -2.53800 42.92700
H  1.79800 -6.72900 44.43600
H  5.97500 0.11100 41.72100
H  3.98900 1.08500 39.71000
H  3.97200 2.29800 42.26000
H  4.61700 3.00800 40.67500
H  5.61700 2.22900 41.82900
H  5.19600 -0.85700 38.90800
H  6.28800 -1.75500 39.89600
H  7.95600 -0.36600 39.12900
H  7.13700 0.97700 39.97500
H  -0.71600 2.31000 39.74600
H  -0.48300 3.07400 41.38700
H  -2.04400 2.65700 40.73900
H  -5.00500 -0.87900 40.88600
H  -4.44400 -1.29300 42.47600
H  -3.57500 -1.96000 40.99100
H  -2.53600 -5.15900 42.86500
H  -0.78400 -6.12600 45.16900
H  -2.64500 -5.04500 45.80800
H  -3.97200 -4.81600 44.68800
H  -2.89400 -3.45800 45.05200
H  -0.24500 -7.34700 42.54100
H  -1.97200 -7.41200 43.08600
H  -1.41300 -9.29700 44.07700
H  -0.70500 -8.22200 45.34200
H  0.33500 -8.78400 44.05600
H  5.43800 -7.37600 43.65600
H  3.72700 -7.68800 44.07000
H  4.99200 -7.17400 45.29900
H  6.94800 -3.07600 41.58300
H  9.69900 -0.60300 44.13000
H  9.37100 0.00200 42.52300
H  10.60300 -1.26000 42.74200
Mg 46.37800 24.48600 28.44300
C  46.72300 26.86500 31.15900
C  46.04200 22.11000 30.98600
C  46.24100 22.32400 26.04300
C  47.57500 26.92700 26.24800
N  46.16900 24.49200 30.80800
C  46.51100 25.57100 31.66400
C  46.46900 25.10500 33.16100
C  46.18400 23.54800 32.99200
C  46.22900 23.36600 31.47400
C  47.19000 22.66400 33.90100
C  45.45500 25.86600 34.02900
C  45.01000 25.19900 35.37500
H  45.80700 25.62900 36.59900
N  46.08600 22.51500 28.47300
C  45.93700 21.73300 29.61100
C  45.74100 20.33900 29.15600
C  45.70900 20.40100 27.69800
C  45.97400 21.80000 27.35800
C  45.66200 19.16100 30.10900
C  45.43100 19.25100 26.76100
O  45.58300 19.34900 25.58400
C  44.99800 18.01400 27.30900
N  46.79000 24.70100 26.39200
C  46.64100 23.61100 25.58800
C  47.03700 23.91000 24.21500
C  47.54000 25.42300 24.24600
C  47.32900 25.72700 25.70400
C  48.04500 22.89900 23.55400
C  46.84100 26.43600 23.30300
C  45.34300 26.79800 23.64100
N  46.93900 26.43000 28.55800
C  47.38500 27.26300 27.61900
C  47.58400 28.58400 28.13100
C  47.34900 28.43100 29.53500
C  46.95700 27.11000 29.75600
C  48.01400 29.84500 27.33000
C  47.41400 29.16100 30.79000
O  47.66500 30.32900 31.06300
C  46.92900 28.20700 31.93000
C  48.06400 27.95200 32.85400
O  49.01300 27.23900 32.59900
O  47.87000 28.70500 33.99900
C  48.92600 28.61700 35.03500
H  46.07700 21.32100 31.74100
H  46.18000 21.55500 25.27100
H  48.06800 27.62300 25.56600
H  47.42000 25.30100 33.65800
H  45.18100 23.35000 33.37000
H  47.95100 23.20200 34.46500
H  47.77300 21.92500 33.35100
H  46.52300 22.17100 34.60900
H  44.61900 26.22100 33.42700
H  45.95100 26.75800 34.40900
H  45.31000 24.15300 35.32400
H  43.94700 25.31600 35.58700
H  45.87800 18.24500 29.56000
H  44.65700 19.10200 30.52700
H  46.41200 19.36700 30.87300
H  45.88800 17.51700 27.69700
H  44.65800 17.42600 26.45700
H  44.20500 18.20400 28.03300
H  46.12500 23.90500 23.61900
H  48.60700 25.56500 24.07800
H  48.72600 23.27600 22.79100
H  47.55000 22.09700 23.00700
H  48.73400 22.46600 24.27800
H  46.82200 26.06200 22.28000
H  47.43000 27.34600 23.42200
H  45.30400 27.87300 23.81400
H  45.02000 26.14300 24.45000
H  44.66600 26.61200 22.80800
H  47.57200 30.68600 27.86300
H  47.54700 29.76300 26.34800
H  49.10200 29.87200 27.28700
H  46.08300 28.60400 32.49100
H  48.59800 29.36700 35.75400
H  49.89300 28.82600 34.57700
H  49.12100 27.61600 35.42100

