158

Mg 45.71300 4.96800 47.11500
C  43.64100 7.72300 46.66300
C  43.07800 2.90100 46.35200
C  47.98600 2.35000 46.95500
C  48.45800 7.16800 47.34000
N  43.75600 5.30600 46.33700
C  43.09100 6.51800 46.29900
C  41.58800 6.28600 45.80900
C  41.32900 4.79300 46.06600
C  42.81700 4.25400 46.34000
C  40.34400 4.55500 47.20300
C  41.33400 6.74900 44.34200
C  39.84200 7.21200 43.96900
H  39.53800 7.72900 42.57100
N  45.48200 2.90000 46.77500
C  44.31800 2.19700 46.59100
C  44.55500 0.78300 46.38700
C  45.98700 0.59000 46.48200
C  46.62500 1.97000 46.72100
C  43.53400 -0.27000 45.98600
C  46.70800 -0.66700 46.17900
O  46.20700 -1.75100 46.21700
C  48.15200 -0.69300 45.73300
N  47.94000 4.76400 47.24100
C  48.55900 3.56500 47.24200
C  50.07000 3.70100 47.32600
C  50.17600 5.32000 47.33400
C  48.77600 5.79600 47.35400
C  50.65000 2.94800 48.51600
C  50.87500 5.94300 46.10800
C  52.18900 6.73200 46.35200
N  46.01400 7.00700 47.11200
C  47.13200 7.74600 47.31100
C  46.84400 9.15000 47.29100
C  45.40800 9.18800 47.11600
C  45.02600 7.85900 46.97100
C  47.78200 10.32900 47.42000
C  44.24200 10.04900 46.93600
O  44.16100 11.23300 47.10100
C  43.08600 9.19300 46.55000
C  41.99600 9.29800 47.59800
O  41.94400 8.66200 48.66400
O  41.01200 10.18700 47.13700
C  39.90500 10.59900 48.04700
H  42.14400 2.37500 46.14600
H  48.66300 1.50200 46.83700
H  49.20900 7.95100 47.21400
H  41.06200 6.94800 46.49600
H  40.82000 4.25400 45.26800
H  39.62600 5.37600 47.20900
H  40.75500 4.44600 48.20600
H  39.75100 3.69500 46.89100
H  41.63500 5.90700 43.71800
H  41.95900 7.63300 44.21700
H  39.68500 8.10200 44.57800
H  39.10200 6.46100 44.24500
H  43.58600 -1.22500 46.50900
H  43.53300 -0.38400 44.90200
H  42.55500 0.17000 46.17700
H  48.34800 -1.61300 45.18200
H  48.60500 -0.59600 46.72000
H  48.50100 0.17300 45.17100
H  50.62300 3.27700 46.48700
H  50.62700 5.53700 48.30300
H  49.88800 2.51200 49.16100
H  51.41600 3.45000 49.10600
H  51.21100 2.10100 48.12000
H  50.22000 6.70500 45.68500
H  50.99600 5.20700 45.31400
H  52.31700 6.62000 47.42900
H  52.05200 7.80300 46.20200
H  53.02900 6.37700 45.75400
H  47.34100 11.26900 47.08700
H  48.66100 10.24800 46.78100
H  48.16500 10.25700 48.43800
H  42.60800 9.26000 45.57300
H  38.98000 10.11100 47.74100
H  39.72300 11.65900 47.87300
H  40.14300 10.38700 49.08900
Mg 9.72700 47.45400 26.26500
C  7.70800 48.08000 29.02700
C  12.50200 48.18900 28.07200
C  11.37800 47.13300 23.40000
C  6.67400 46.87700 24.43700
N  10.01000 48.09100 28.33900
C  9.07000 48.11600 29.29400
C  9.83500 48.22600 30.70500
C  11.25700 48.75200 30.26300
C  11.26900 48.23900 28.81000
C  11.44200 50.32800 30.25000
C  9.89900 46.80900 31.41100
C  10.46400 46.88400 32.79600
H  9.72100 46.29100 34.06900
N  11.69100 47.84000 25.77000
C  12.72400 48.09600 26.73000
C  13.98600 47.96100 26.04200
C  13.69800 47.62100 24.67300
C  12.19700 47.51000 24.53200
C  15.31000 48.19500 26.79100
C  14.67600 47.48300 23.53400
O  14.28800 47.14800 22.44300
C  16.14600 47.50600 23.69400
N  9.11400 47.07300 24.26300
C  10.04800 46.85300 23.32700
C  9.49400 46.27200 22.05300
C  7.96200 46.10100 22.39500
C  7.87200 46.77900 23.76800
C  9.73400 47.04000 20.67800
C  7.43300 44.65300 22.44200
C  8.22500 43.67800 23.33700
N  7.59500 47.67100 26.55300
C  6.50500 47.37000 25.74600
C  5.32100 47.48500 26.53700
C  5.71800 47.81300 27.87100
C  7.10100 47.89900 27.76200
C  3.98900 47.31200 26.06300
C  5.26400 48.02400 29.23500
O  4.12000 48.04000 29.70200
C  6.54100 48.20800 30.02300
C  6.45500 47.10600 30.99400
O  6.27200 45.89600 30.72700
O  6.05600 47.68500 32.14200
C  5.42700 46.76800 33.15300
H  13.37600 48.16900 28.72500
H  11.99300 46.81900 22.55500
H  5.77000 46.63400 23.87400
H  9.40900 48.94600 31.40500
H  12.00900 48.23300 30.85700
H  11.42200 50.53300 29.18000
H  12.49900 50.36800 30.51500
H  10.79500 51.02100 30.78600
H  10.52500 46.13700 30.82500
H  8.91200 46.37300 31.25700
H  10.66800 47.94700 32.93000
H  11.34300 46.24000 32.75600
H  15.71000 49.11300 26.36000
H  16.01300 47.39600 26.55700
H  15.20600 48.31600 27.86900
H  16.67800 47.63200 22.75100
H  16.22600 46.45800 23.98000
H  16.52900 48.20000 24.44200
H  9.80000 45.23600 21.90800
H  7.41300 46.70600 21.67300
H  9.48500 48.09200 20.82100
H  9.02500 46.60700 19.97300
H  10.73500 46.83500 20.29900
H  7.54400 44.16600 21.47300
H  6.38600 44.54000 22.72000
H  9.05700 44.10500 23.89800
H  8.61000 42.82400 22.78000
H  7.61900 43.26600 24.14300
H  3.91400 46.43600 25.41900
H  3.73400 48.24900 25.56800
H  3.28100 47.20800 26.88500
H  6.53700 49.21300 30.44400
H  5.93000 45.80100 33.17300
H  4.35900 46.60600 33.01200
H  5.68300 47.40700 33.99800

