158

Mg 43.71000 4.40100 47.42400
C  41.58200 7.08200 46.90600
C  41.00900 2.20300 47.11700
C  45.85600 1.80200 47.24300
C  46.44900 6.58700 47.26400
N  41.55600 4.64600 46.88800
C  40.85900 5.87100 46.72400
C  39.36000 5.56500 46.34800
C  39.30500 4.02100 46.53900
C  40.69800 3.58400 46.77400
C  38.25300 3.57600 47.66200
C  39.07700 5.98900 44.87600
C  37.85300 6.89100 44.59500
H  37.21200 6.64100 43.21000
N  43.43400 2.37000 47.27600
C  42.26000 1.65900 47.34400
C  42.50400 0.24500 47.20600
C  43.89100 0.09900 47.21100
C  44.47200 1.48000 47.19200
C  41.41500 -0.69600 47.20100
C  44.63000 -1.19600 47.03600
O  44.07300 -2.26700 46.76100
C  46.11800 -1.36200 47.14600
N  45.79100 4.19300 47.25600
C  46.44000 3.03700 47.30000
C  47.94100 3.16100 47.56600
C  48.15200 4.68500 47.51000
C  46.75200 5.19700 47.29400
C  48.71800 2.36500 48.72100
C  49.20500 5.13900 46.37800
C  50.68100 5.28500 46.73000
N  43.94000 6.42700 47.25200
C  45.10700 7.13800 47.16200
C  44.75300 8.51900 47.06400
C  43.36600 8.56600 47.02700
C  42.94400 7.24900 47.07900
C  45.72800 9.67800 46.83400
C  42.23000 9.43000 46.88800
O  42.19500 10.62900 46.89600
C  41.00500 8.49300 46.82000
C  40.07800 9.06000 47.88100
O  40.00800 8.66800 49.04200
O  39.16700 9.94600 47.27800
C  38.14600 10.62200 48.08300
H  40.16700 1.55800 46.85900
H  46.55000 0.96900 47.36800
H  47.17800 7.40000 47.23700
H  38.79500 6.15800 47.06600
H  38.86700 3.56900 45.64900
H  37.55000 4.37500 47.89600
H  38.85300 3.34000 48.54000
H  37.79400 2.67800 47.24800
H  39.10200 5.13300 44.20300
H  39.90100 6.66100 44.63800
H  38.06900 7.95900 44.64000
H  37.12900 6.67700 45.38000
H  41.72300 -1.64400 46.76000
H  40.55600 -0.41400 46.59300
H  41.12100 -0.78900 48.24700
H  46.51600 -0.82000 46.28800
H  46.43400 -2.39900 47.26100
H  46.38100 -0.95400 48.12200
H  48.42800 2.81800 46.65300
H  48.49000 5.02500 48.48800
H  49.34600 1.62300 48.22800
H  48.05900 1.92100 49.46700
H  49.48600 3.03200 49.11300
H  48.95400 6.16400 46.10700
H  49.11100 4.45000 45.53900
H  50.97900 4.27500 47.01100
H  50.80300 5.83300 47.66400
H  51.25300 5.76800 45.93800
H  45.09000 10.54500 47.00300
H  46.08000 9.76200 45.80600
H  46.50800 9.82200 47.58200
H  40.64700 8.59000 45.79500
H  37.82400 9.95500 48.88300
H  37.24500 10.65400 47.47100
H  38.59700 11.55500 48.41900
Mg 26.94000 49.89000 26.69300
C  24.63900 51.26400 29.03100
C  29.01500 48.96800 29.31500
C  29.23400 48.91400 24.48600
C  25.10300 51.56700 24.14100
N  26.78900 50.08400 28.83700
C  25.73900 50.60700 29.59600
C  25.97800 50.32000 31.12500
C  27.51600 49.88100 31.12900
C  27.78700 49.63200 29.65500
C  28.47600 50.96100 31.80300
C  24.93100 49.26500 31.60600
C  24.52300 49.22300 33.08300
H  25.28700 49.97000 34.23500
N  28.88000 49.07500 26.86800
C  29.55600 48.76900 28.03600
C  30.81500 48.11800 27.60400
C  30.96500 48.27800 26.19100
C  29.65000 48.78900 25.76500
C  31.79300 47.41400 28.58800
C  32.13800 48.01000 25.17600
O  32.14400 48.29100 24.01200
C  33.37100 47.27800 25.82500
N  27.13800 50.20800 24.69200
C  28.02400 49.43000 23.96500
C  27.61100 49.32200 22.43800
C  26.48700 50.47500 22.40200
C  26.19500 50.73300 23.84000
C  28.63200 49.55200 21.36100
C  25.24200 50.02300 21.53900
C  24.60900 51.10900 20.68700
N  25.21100 51.20000 26.53700
C  24.61500 51.70000 25.48000
C  23.51000 52.54600 25.91500
C  23.46400 52.39000 27.32500
C  24.50100 51.53500 27.64700
C  22.67500 53.46700 25.08700
C  22.80900 52.74100 28.59500
O  21.80700 53.38400 28.73200
C  23.45300 51.87900 29.69800
C  23.86400 52.85100 30.77800
O  24.71000 53.73600 30.71900
O  23.14700 52.52000 31.95400
C  23.53500 53.41900 33.14100
H  29.57100 48.52500 30.14400
H  29.89900 48.42100 23.77300
H  24.73200 52.22500 23.35300
H  25.82900 51.26500 31.64700
H  27.76000 48.91100 31.56300
H  27.93800 51.87100 32.06700
H  29.24500 51.15200 31.05400
H  28.87700 50.50300 32.70700
H  25.24600 48.24600 31.38200
H  24.01000 49.35600 31.03000
H  24.65000 48.17000 33.33400
H  23.46500 49.48300 33.10600
H  31.61500 46.34600 28.46400
H  31.51000 47.47600 29.63900
H  32.81400 47.78200 28.48400
H  33.72900 47.97000 26.58700
H  34.17100 47.23000 25.08600
H  33.10300 46.33800 26.30600
H  27.12100 48.38800 22.16700
H  26.87000 51.41400 22.00300
H  29.54200 49.81200 21.90200
H  28.43000 50.31200 20.60700
H  28.78000 48.57700 20.89600
H  24.52900 49.50800 22.18400
H  25.54800 49.24700 20.83800
H  23.57200 51.20600 21.00800
H  24.64000 50.89400 19.61900
H  25.12300 52.05000 20.88400
H  22.04300 52.89300 24.40900
H  23.32400 54.16900 24.56300
H  22.05800 54.08400 25.74000
H  22.80400 51.15100 30.18500
H  23.28500 54.42200 32.79700
H  24.50100 53.16400 33.57800
H  22.77000 53.45100 33.91700

