158

Mg -11.63400 38.31000 41.46700
C  -9.39200 35.69600 40.65900
C  -9.66600 40.49500 39.72400
C  -14.10300 40.52000 41.73600
C  -13.88300 35.77000 42.73800
N  -9.73200 38.10300 40.38500
C  -9.04000 36.92700 40.09000
C  -7.81700 37.24800 39.19800
C  -7.87500 38.81500 39.01900
C  -9.08000 39.20600 39.83900
C  -6.57300 39.56500 39.33500
C  -7.98600 36.49300 37.83500
C  -7.00300 35.33100 37.59500
H  -6.16900 35.33100 36.30100
N  -11.90800 40.14900 40.79200
C  -10.89200 40.94200 40.14900
C  -11.25600 42.35100 40.17100
C  -12.62200 42.35700 40.70500
C  -12.93700 40.98800 41.06500
C  -10.34000 43.51400 39.52500
C  -13.41700 43.61800 40.72400
O  -12.89300 44.66600 40.38900
C  -14.87800 43.73400 41.31100
N  -13.74800 38.07900 42.01200
C  -14.45300 39.24100 42.18500
C  -15.87700 38.89700 42.71400
C  -15.81800 37.36100 42.80600
C  -14.37700 37.07500 42.56300
C  -16.09600 39.59500 44.09900
C  -16.78600 36.52900 41.92000
C  -18.02300 36.01100 42.64900
N  -11.59300 36.26700 41.83800
C  -12.52900 35.39500 42.41500
C  -11.86600 34.08600 42.63600
C  -10.59500 34.13200 41.92600
C  -10.58100 35.45500 41.39600
C  -12.39100 32.81500 43.29200
C  -9.41600 33.42700 41.54000
O  -9.02500 32.27900 41.77600
C  -8.62400 34.40400 40.65300
C  -7.19100 34.48800 41.21000
O  -6.34100 33.62800 41.10400
O  -7.04100 35.70600 41.96100
C  -5.63400 35.89500 42.56300
H  -8.97700 41.18000 39.22700
H  -14.84500 41.31300 41.84500
H  -14.49000 34.93800 43.10000
H  -6.82400 37.03300 39.59300
H  -8.05800 39.10700 37.98500
H  -6.41400 39.71700 40.40300
H  -6.61700 40.54700 38.86400
H  -5.73900 38.93200 39.03300
H  -7.79900 37.23700 37.06100
H  -8.98600 36.06000 37.80600
H  -7.41500 34.32200 37.55300
H  -6.31100 35.16400 38.42000
H  -10.66000 43.90500 38.55900
H  -9.30100 43.22000 39.67200
H  -10.48900 44.43800 40.08400
H  -15.54600 43.22900 40.61300
H  -15.15400 44.78700 41.36800
H  -14.92300 43.33600 42.32500
H  -16.65800 39.32100 42.08300
H  -16.03100 37.27400 43.87100
H  -16.49300 40.57800 43.84600
H  -15.11700 39.68200 44.56900
H  -16.71900 39.15000 44.87500
H  -16.26200 35.65400 41.53600
H  -17.26100 37.17600 41.18200
H  -17.97100 34.93800 42.83200
H  -18.91200 36.31600 42.09700
H  -18.08900 36.49200 43.62400
H  -11.99700 32.76500 44.30700
H  -12.11400 31.96000 42.67500
H  -13.46800 32.96800 43.35100
H  -8.64500 34.03800 39.62600
H  -4.99000 35.86400 41.68400
H  -5.25200 35.15400 43.26600
H  -5.54800 36.84700 43.08700
Mg -1.37800 34.69900 27.24100
C  -3.10300 32.58500 29.54300
C  0.06100 36.25900 29.91600
C  -0.13400 36.77800 25.09700
C  -3.08700 33.00600 24.66600
N  -1.45100 34.42900 29.45100
C  -2.29600 33.54500 30.14100
C  -2.02600 33.73100 31.67600
C  -1.38400 35.12800 31.73600
C  -0.88700 35.29800 30.31200
C  -2.33300 36.23800 32.25700
C  -1.21900 32.58900 32.43700
C  -2.02400 31.74200 33.48200
H  -1.33100 31.61600 34.87400
N  -0.15800 36.26000 27.48300
C  0.40500 36.80500 28.63300
C  1.35000 37.77100 28.31300
C  1.30300 37.93000 26.88800
C  0.23600 36.99600 26.42100
C  2.12300 38.53500 29.39600
C  2.14900 38.88400 25.95000
O  2.07900 39.02300 24.72000
C  3.24800 39.65300 26.64500
N  -1.62200 34.93000 25.20500
C  -0.94600 35.89500 24.50700
C  -1.14300 35.80500 23.00000
C  -2.20400 34.60500 22.87600
C  -2.28300 34.10200 24.35600
C  -1.41700 37.14800 22.32400
C  -1.70800 33.41300 21.95000
C  -2.65600 33.13800 20.77200
N  -2.83400 33.18000 27.08800
C  -3.38400 32.55800 25.96200
C  -4.12500 31.35100 26.39100
C  -4.05200 31.33500 27.80700
C  -3.28700 32.52900 28.17000
C  -4.72900 30.36800 25.49200
C  -4.45600 30.64200 28.95400
O  -5.17000 29.66200 29.05300
C  -3.83700 31.44700 30.17100
C  -4.93900 31.87500 31.06300
O  -5.52800 32.97300 31.01500
O  -5.27500 30.96600 32.00800
C  -6.30000 31.31800 33.02200
H  0.60900 36.62500 30.78700
H  0.38800 37.37000 24.34200
H  -3.63400 32.46300 23.89300
H  -3.02300 33.67500 32.11400
H  -0.47000 35.28900 32.30800
H  -3.22100 36.24000 31.62400
H  -1.82200 37.20100 32.25000
H  -2.67000 36.00100 33.26600
H  -0.28800 32.92900 32.89100
H  -0.91800 31.81200 31.73400
H  -2.28700 30.72100 33.20300
H  -2.96900 32.23800 33.70600
H  1.62000 39.48700 29.56700
H  3.18700 38.69200 29.22200
H  1.97000 37.97600 30.31900
H  4.01700 39.19300 27.26600
H  2.76600 40.42200 27.24800
H  3.71500 40.30800 25.90900
H  -0.22400 35.42900 22.55000
H  -3.19200 34.93100 22.55100
H  -1.75000 37.82000 23.11500
H  -2.25500 37.12100 21.62800
H  -0.46000 37.49800 21.93800
H  -1.53100 32.46200 22.45100
H  -0.72100 33.72800 21.61100
H  -2.07900 33.51100 19.92500
H  -3.58300 33.70200 20.87000
H  -2.73000 32.07300 20.55600
H  -5.65200 30.69600 25.01400
H  -4.77600 29.34300 25.86100
H  -3.93100 30.30500 24.75200
H  -3.15900 30.79900 30.72600
H  -5.93300 32.11200 33.67100
H  -6.47800 30.46400 33.67600
H  -7.30600 31.58000 32.69500

