158

Mg 44.40700 4.48300 46.78800
C  42.27700 7.21800 46.28800
C  41.83300 2.39500 46.21400
C  46.68300 1.97600 46.79000
C  47.11500 6.81000 46.39800
N  42.33900 4.79500 46.26200
C  41.66600 5.98200 46.13400
C  40.13900 5.71400 46.01900
C  40.01800 4.15000 46.14800
C  41.50300 3.77100 46.27100
C  39.22500 3.63800 47.39600
C  39.37900 6.26200 44.80900
C  40.04400 6.13700 43.44200
H  40.68200 7.31900 42.67500
N  44.31700 2.39700 46.69600
C  43.11000 1.70000 46.41200
C  43.38400 0.31900 46.40600
C  44.77100 0.16200 46.53500
C  45.34200 1.55000 46.70500
C  42.27000 -0.66300 46.13900
C  45.57000 -1.15200 46.57000
O  44.98500 -2.26700 46.31000
C  46.99900 -1.23200 46.97800
N  46.62200 4.39900 46.78100
C  47.26100 3.25000 46.78300
C  48.75600 3.42400 46.55500
C  48.79000 4.96000 46.18100
C  47.41800 5.43000 46.37700
C  49.69800 3.00900 47.67100
C  49.40400 5.20900 44.76600
C  50.91600 5.48500 44.80300
N  44.68600 6.58700 46.49300
C  45.81100 7.34100 46.38500
C  45.47700 8.72400 46.14600
C  44.09400 8.74800 46.25200
C  43.63200 7.38300 46.46100
C  46.32300 9.84800 46.01200
C  42.92400 9.64700 46.42300
O  42.83400 10.89700 46.51700
C  41.71300 8.60300 46.31200
C  40.87600 8.92200 47.41600
O  41.00800 8.38200 48.50600
O  39.95200 9.77000 47.07800
C  39.06100 10.12000 48.19800
H  40.91900 1.80800 46.10500
H  47.53200 1.29200 46.85100
H  47.95300 7.47700 46.18500
H  39.74600 6.17500 46.92500
H  39.64300 3.65700 45.25100
H  38.40100 4.34000 47.52800
H  39.92400 3.55400 48.22800
H  38.82000 2.64900 47.18000
H  39.25300 7.32400 45.02100
H  38.42900 5.74500 44.68000
H  39.28900 5.80200 42.73100
H  40.76900 5.32600 43.50200
H  41.98400 -0.68800 45.08700
H  41.30800 -0.30200 46.50300
H  42.50400 -1.65900 46.51700
H  47.13500 -2.19400 47.47200
H  47.14300 -0.51200 47.78300
H  47.65900 -0.91400 46.17100
H  49.08800 2.88600 45.66700
H  49.36900 5.55500 46.88800
H  50.25400 2.11800 47.38100
H  49.09700 2.67700 48.51700
H  50.43400 3.73600 48.01500
H  48.89400 6.04600 44.28800
H  49.20400 4.39100 44.07400
H  51.43400 5.00700 45.63400
H  50.98400 6.56200 44.95800
H  51.44300 5.28300 43.87000
H  47.30100 9.40400 45.82700
H  46.30800 10.48600 46.89600
H  45.97300 10.59100 45.29500
H  41.26400 8.84200 45.34800
H  38.46900 9.25900 48.50900
H  38.29900 10.81400 47.84400
H  39.51200 10.60900 49.06100
Mg 48.33100 35.29400 27.68800
C  46.10700 33.57700 29.81500
C  48.62800 37.79200 30.10400
C  50.20700 36.94300 25.52300
C  47.97900 32.50800 25.42200
N  47.35500 35.68500 29.71900
C  46.68300 34.71300 30.47300
C  46.84200 35.05800 31.97400
C  47.25600 36.58100 31.92900
C  47.81300 36.74600 30.48700
C  46.08100 37.55800 32.30500
C  47.90600 34.16900 32.59200
C  47.97900 34.08700 34.09000
H  47.07200 34.94800 34.94100
N  49.23600 37.14200 27.77600
C  49.27900 38.05100 28.86500
C  50.16300 39.11000 28.46800
C  50.59400 38.91100 27.10900
C  49.95700 37.62900 26.77400
C  50.39600 40.30700 29.39700
C  51.36100 39.78300 26.25100
O  51.60000 39.49400 25.06800
C  51.78700 41.15200 26.72000
N  48.76300 34.91500 25.58600
C  49.75000 35.72100 25.05800
C  50.19700 35.12500 23.71600
C  49.70000 33.61600 23.81100
C  48.70900 33.64800 24.98200
C  49.68200 35.86400 22.45200
C  50.80700 32.60300 24.12600
C  51.57600 32.14300 22.87600
N  47.28200 33.43300 27.55700
C  47.19000 32.46900 26.56800
C  46.17800 31.53100 26.92300
C  45.67300 31.85200 28.18000
C  46.38000 33.05500 28.48500
C  45.84400 30.24700 26.13100
C  44.78900 31.49200 29.26500
O  43.96100 30.61800 29.42200
C  45.11600 32.52900 30.39700
C  45.56700 31.89800 31.65400
O  46.54500 31.18400 31.73500
O  44.70400 32.23900 32.65200
C  45.07600 31.72500 33.96200
H  48.62100 38.50700 30.93100
H  51.08800 37.34000 25.01500
H  47.99300 31.64600 24.75100
H  45.89200 34.77900 32.42900
H  48.01100 36.78800 32.68700
H  45.20700 36.94800 32.53200
H  45.69300 38.03300 31.40300
H  46.31700 38.27100 33.09500
H  48.90800 34.37600 32.21400
H  47.77000 33.16100 32.20100
H  48.99000 34.39900 34.35500
H  47.96500 33.00500 34.22300
H  49.84600 40.21600 30.33400
H  50.05000 41.19600 28.87000
H  51.45300 40.35700 29.65800
H  50.86200 41.72000 26.81000
H  52.54900 41.68200 26.14800
H  52.14600 40.94700 27.72800
H  51.28400 35.14500 23.78700
H  49.27000 33.31600 22.85500
H  49.21200 35.16300 21.76100
H  50.47600 36.37700 21.91000
H  48.96700 36.64600 22.71000
H  50.50600 31.66700 24.59700
H  51.52400 33.18400 24.70600
H  52.63700 32.34400 23.02400
H  51.16900 32.58900 21.96900
H  51.54600 31.05500 22.81700
H  45.14500 29.68500 26.75000
H  46.68300 29.58300 25.92500
H  45.38600 30.35000 25.14700
H  44.21600 33.05200 30.72000
H  44.60000 30.78300 34.23400
H  44.79000 32.47400 34.69900
H  46.14000 31.59400 34.16200

