158

Mg 49.56400 46.52200 42.55500
C  46.19600 47.02800 41.63000
C  49.29200 43.37400 41.36800
C  52.91000 46.14000 42.98200
C  49.75300 49.82400 43.60900
N  47.89100 45.38300 41.50300
C  46.61600 45.73400 41.29600
C  45.78600 44.62000 40.69000
C  46.70700 43.40500 40.97500
C  48.06900 44.05600 41.31000
C  46.07900 42.38600 41.96300
C  45.51300 44.99100 39.21700
C  44.31000 44.29700 38.59600
H  44.47200 43.68300 37.22100
N  50.94300 44.93800 42.15100
C  50.64800 43.72800 41.63900
C  51.83900 42.89400 41.58000
C  52.89700 43.69000 42.08500
C  52.28000 45.00400 42.44100
C  51.93600 41.53100 40.96300
C  54.28000 43.17200 42.25000
O  54.55900 41.99300 42.09500
C  55.38500 44.07100 42.81900
N  51.12700 47.80300 43.28900
C  52.43200 47.43900 43.36100
C  53.33700 48.55900 43.81300
C  52.30800 49.71300 44.04100
C  50.97000 49.06300 43.65700
C  54.16800 48.26400 45.14600
C  52.70900 51.05600 43.43000
C  52.85200 52.10100 44.50100
N  48.28000 48.05900 42.70500
C  48.50200 49.32400 43.19600
C  47.28800 50.14200 43.09800
C  46.34600 49.18700 42.53700
C  46.98400 48.00500 42.21500
C  47.17400 51.56500 43.43400
C  44.97100 49.03800 42.18000
O  44.04900 49.86700 42.39400
C  44.82800 47.66200 41.49800
C  43.72100 46.93000 42.17800
O  43.64700 46.65200 43.37200
O  42.82700 46.62100 41.21200
C  41.57100 45.95200 41.69400
H  49.24800 42.32700 41.05800
H  53.99600 46.17300 43.09200
H  49.76400 50.89000 43.84600
H  44.84500 44.44700 41.21200
H  46.78900 42.82400 40.05600
H  44.99700 42.28700 41.87900
H  46.28900 42.77500 42.96000
H  46.53000 41.42500 41.71400
H  46.28100 44.84000 38.45800
H  45.36100 46.06900 39.15200
H  43.40300 44.89300 38.70100
H  44.12300 43.41600 39.21100
H  52.78700 41.41700 40.29100
H  51.02200 41.22700 40.45300
H  52.05600 40.73000 41.69200
H  56.21200 43.40700 43.07000
H  54.87200 44.34000 43.74200
H  55.44300 44.80600 42.01600
H  54.03800 48.65800 42.98400
H  52.22700 49.78700 45.12500
H  55.11600 48.78700 45.02300
H  54.45300 47.22400 45.31000
H  53.77300 48.64800 46.08700
H  52.11500 51.46300 42.61200
H  53.72600 50.97900 43.04800
H  53.89800 52.40600 44.53700
H  52.69100 51.82600 45.54300
H  52.19300 52.91300 44.19100
H  47.59100 52.08800 42.57300
H  47.73500 51.72700 44.35400
H  46.16200 51.84600 43.72600
H  44.58300 47.91700 40.46700
H  41.76100 44.98700 42.16600
H  40.96200 45.73400 40.81700
H  40.86300 46.58300 42.23000
Mg -1.46700 34.81900 27.29000
C  -3.15500 33.04200 29.82700
C  0.14300 36.62500 29.82800
C  -0.15000 36.74100 25.00000
C  -3.18800 33.03900 24.92900
N  -1.56600 34.91500 29.59700
C  -2.34400 34.05800 30.42700
C  -2.11700 34.42400 31.91500
C  -1.15400 35.69100 31.85900
C  -0.85100 35.83000 30.28400
C  -1.69800 36.93200 32.43800
C  -1.47000 33.10400 32.63900
C  -2.24700 32.47700 33.86100
H  -1.55000 32.54200 35.17500
N  -0.20700 36.54600 27.35000
C  0.40100 37.04200 28.48200
C  1.45000 37.98500 28.11400
C  1.42000 38.02800 26.67300
C  0.33100 37.09300 26.28700
C  2.25500 38.83600 29.05400
C  2.28400 38.80600 25.63500
O  1.98900 38.85600 24.44400
C  3.44900 39.50500 26.19100
N  -1.63400 34.87300 25.27800
C  -1.05700 35.82300 24.48600
C  -1.31400 35.73700 22.94100
C  -2.12800 34.40400 22.98500
C  -2.44900 34.11800 24.44700
C  -2.05300 36.92300 22.33900
C  -1.38800 33.18800 22.32700
C  -0.37800 32.39500 23.19700
N  -2.85000 33.34400 27.29400
C  -3.43100 32.68000 26.26900
C  -4.40600 31.72700 26.70300
C  -4.25500 31.82500 28.13900
C  -3.31200 32.83100 28.41900
C  -5.21800 30.81900 25.94600
C  -4.67300 31.16900 29.41400
O  -5.39300 30.21200 29.59900
C  -4.02400 31.95800 30.49500
C  -5.19100 32.51200 31.31300
O  -5.95300 33.48600 30.95400
O  -5.17600 31.88400 32.53000
C  -6.18100 32.15600 33.53400
H  0.67000 37.05500 30.68200
H  0.26600 37.43500 24.26600
H  -3.53100 32.50700 24.03900
H  -3.15700 34.63600 32.16200
H  -0.27800 35.40300 32.43900
H  -2.17600 36.73300 33.39800
H  -2.34400 37.45600 31.73300
H  -0.83700 37.54900 32.69700
H  -0.41000 33.16800 32.88100
H  -1.50200 32.32900 31.87300
H  -2.30000 31.40400 33.67700
H  -3.18400 33.02200 33.97500
H  3.29000 38.51300 29.16400
H  1.74100 38.72000 30.00800
H  2.21200 39.86400 28.69600
H  4.13100 38.78300 26.64000
H  3.19500 40.27100 26.92400
H  3.95700 40.05300 25.39800
H  -0.39200 35.51200 22.40300
H  -3.06700 34.59100 22.46500
H  -1.71800 37.83300 22.83700
H  -3.11900 36.70300 22.30500
H  -1.64200 36.96800 21.33100
H  -0.85000 33.59900 21.47200
H  -2.06900 32.46700 21.87400
H  -0.38500 32.79400 24.21100
H  0.56700 32.59600 22.69300
H  -0.57800 31.32400 23.25000
H  -5.39700 31.17500 24.93100
H  -6.09400 30.97100 26.57600
H  -4.73300 29.84500 26.00800
H  -3.47500 31.28900 31.15600
H  -7.02200 32.75000 33.17600
H  -5.73200 32.70000 34.36500
H  -6.54200 31.21000 33.93600

