158

Mg 47.15200 16.22700 28.51800
C  45.15900 15.88600 31.34700
C  49.55100 17.89900 30.41700
C  48.94600 16.87500 25.62900
C  44.41900 15.17800 26.62700
N  47.29200 16.74800 30.61500
C  46.38100 16.47400 31.59000
C  46.86600 16.99500 32.93800
C  48.10900 17.78100 32.57300
C  48.39100 17.47500 31.11000
C  48.11100 19.34500 32.84900
C  47.06400 15.76600 33.97400
C  46.34500 15.96900 35.34900
H  46.63400 17.29200 36.18200
N  49.10100 17.09400 28.10700
C  49.92600 17.68300 29.01700
C  51.23700 17.83700 28.39100
C  51.08800 17.61400 27.01700
C  49.65400 17.13800 26.83700
C  52.45500 18.36600 29.24600
C  52.12600 17.78600 25.86400
O  51.93800 17.36200 24.75500
C  53.44600 18.63000 26.09300
N  46.79200 16.06400 26.43300
C  47.64600 16.33400 25.40000
C  46.99500 16.00500 24.00700
C  45.64800 15.27100 24.46800
C  45.56200 15.57300 25.89200
C  46.91200 17.30400 23.18600
C  45.74400 13.71700 24.32100
C  45.55800 13.18600 22.86200
N  45.17300 15.70500 28.86900
C  44.14900 15.25600 28.00700
C  42.92700 14.88500 28.74300
C  43.32100 15.12400 30.05200
C  44.66700 15.55900 30.11500
C  41.63100 14.41300 28.26200
C  42.79400 15.05500 31.36000
O  41.68300 14.83800 31.78600
C  44.05900 15.58000 32.30000
C  43.56900 16.84600 32.95100
O  43.58700 18.00200 32.53900
O  42.94200 16.55100 34.09700
C  42.09400 17.52600 34.84800
H  50.22200 18.40200 31.11600
H  49.40300 17.05500 24.65300
H  43.61300 14.79200 26.00000
H  46.15500 17.70300 33.36400
H  48.99600 17.43800 33.10700
H  48.77700 19.49600 33.69900
H  47.10000 19.64700 33.12500
H  48.49000 19.81300 31.94100
H  48.13500 15.82800 34.16500
H  46.88500 14.75800 33.60000
H  46.53500 15.11600 36.00100
H  45.26200 15.90600 35.24700
H  53.14100 19.00300 28.68800
H  53.07800 17.47800 29.34800
H  52.23100 18.70800 30.25600
H  54.05700 17.95000 26.68600
H  53.24200 19.54800 26.64400
H  53.83000 18.87300 25.10300
H  47.70700 15.29000 23.59400
H  44.83900 15.74400 23.91100
H  45.91000 17.53800 22.82600
H  47.71800 17.25900 22.45400
H  47.15900 18.13200 23.85000
H  44.98800 13.23200 24.93900
H  46.66800 13.30800 24.72800
H  46.42100 12.59100 22.56400
H  45.49400 14.03800 22.18400
H  44.69900 12.53100 22.71900
H  41.44200 14.98100 27.35200
H  40.87600 14.73900 28.97700
H  41.71000 13.33200 28.14200
H  44.29900 14.85400 33.07700
H  41.85200 18.47500 34.37000
H  42.57700 17.79700 35.78600
H  41.24300 16.89300 35.09800
Mg -9.71400 39.55000 41.29200
C  -8.88000 36.20500 40.16000
C  -6.84200 40.58900 39.84900
C  -10.98400 42.76200 41.31300
C  -12.92900 38.30400 41.88300
N  -8.05600 38.44900 40.18600
C  -7.92300 37.18200 39.84400
C  -6.61200 36.95600 39.11800
C  -5.86500 38.20700 39.36900
C  -6.97700 39.17100 39.79000
C  -4.70600 37.99300 40.36400
C  -6.92800 36.66700 37.60000
C  -6.22600 35.49200 36.89500
H  -5.37100 35.85600 35.69200
N  -8.94300 41.39800 40.83200
C  -7.67400 41.66500 40.30500
C  -7.44800 43.05400 40.16500
C  -8.64700 43.64900 40.49500
C  -9.61900 42.61000 40.90900
C  -6.09600 43.61900 39.75700
C  -8.90700 45.13500 40.40000
O  -7.99400 45.90900 40.17200
C  -10.21000 45.87300 40.75200
N  -11.72000 40.41900 41.49200
C  -11.92900 41.74500 41.52400
C  -13.41300 42.07400 41.78200
C  -14.05900 40.67000 41.97400
C  -12.87400 39.72600 41.77600
C  -13.65900 43.06900 42.93600
C  -15.30100 40.22100 41.10200
C  -16.53100 39.73200 41.82400
N  -10.65300 37.64900 41.36500
C  -11.95000 37.33900 41.64600
C  -12.11700 35.89300 41.56000
C  -10.92200 35.42000 40.94700
C  -10.11400 36.52800 40.79600
C  -13.22000 35.06100 42.00100
C  -10.22800 34.24200 40.48900
O  -10.50000 33.08600 40.63200
C  -8.89900 34.69800 39.86900
C  -7.72200 33.84500 40.43900
O  -7.36100 33.78500 41.62500
O  -6.97900 33.43200 39.44100
C  -5.63900 32.91900 39.63700
H  -5.86400 40.93300 39.50600
H  -11.39200 43.77400 41.34800
H  -13.90000 37.87900 42.14500
H  -6.25700 36.03400 39.58000
H  -5.48500 38.62600 38.43700
H  -5.13500 37.49400 41.23300
H  -4.26600 38.95600 40.62300
H  -3.98200 37.27500 39.97900
H  -6.70200 37.62600 37.13500
H  -8.00500 36.57200 37.46100
H  -6.99600 34.80500 36.54600
H  -5.48400 35.10900 37.59600
H  -6.19400 44.40600 39.01000
H  -5.48400 42.95600 39.14600
H  -5.45700 43.97600 40.56500
H  -10.33000 45.78700 41.83200
H  -11.10000 45.51400 40.23500
H  -10.19200 46.89600 40.37600
H  -13.83100 42.36100 40.81700
H  -14.39700 40.56300 43.00400
H  -14.21400 43.95500 42.62600
H  -12.71200 43.34000 43.40300
H  -14.20000 42.52400 43.70900
H  -14.87000 39.41400 40.50900
H  -15.52800 40.91100 40.28900
H  -16.62900 38.64700 41.84500
H  -17.34600 40.08900 41.19400
H  -16.78400 40.07800 42.82600
H  -13.61000 35.36500 42.97300
H  -12.86900 34.03000 41.96300
H  -14.01900 35.24700 41.28300
H  -8.84100 34.44000 38.81100
H  -5.11400 32.86700 38.68300
H  -5.65700 31.91900 40.07100
H  -5.12100 33.56800 40.34200

