158

Mg 9.07100 4.00100 27.93400
C  10.04200 2.26800 30.88900
C  7.48100 6.37800 29.99500
C  7.48900 5.20700 25.17900
C  10.28300 1.20700 25.99600
N  8.81000 4.29000 30.19500
C  9.34400 3.44900 31.16400
C  9.07200 4.04000 32.59500
C  8.05300 5.15800 32.29800
C  8.17000 5.30700 30.69300
C  6.65900 4.98200 32.88600
C  10.35900 4.44800 33.42000
C  10.08100 4.66900 34.87100
H  10.61100 3.65200 35.93800
N  7.87000 5.72800 27.58900
C  7.36100 6.55300 28.55800
C  6.54900 7.57800 27.86900
C  6.48900 7.24500 26.50300
C  7.30900 5.98600 26.36200
C  5.86700 8.72600 28.57100
C  5.85400 8.06400 25.35500
O  5.91400 7.65100 24.20100
C  5.16200 9.35200 25.65600
N  8.91400 3.27400 25.84800
C  8.25700 4.01100 24.97600
C  8.41500 3.42000 23.56500
C  9.49500 2.33300 23.76500
C  9.51200 2.19800 25.30300
C  7.04900 2.85100 23.01100
C  10.95000 2.70400 23.22200
C  11.62200 1.58000 22.49400
N  10.10300 2.24000 28.27400
C  10.52500 1.26100 27.40000
C  11.31000 0.30800 28.24000
C  11.11400 0.63300 29.58600
C  10.36900 1.83300 29.55800
C  12.15800 -0.84300 27.76300
C  11.50300 0.31100 30.98600
O  12.16300 -0.59700 31.46300
C  10.77700 1.32000 31.85100
C  10.07100 0.49500 32.77900
O  8.95100 0.07000 32.58300
O  10.76200 0.49800 34.01200
C  9.94200 -0.11400 35.12600
H  6.92400 7.04000 30.66200
H  6.88700 5.58100 24.34800
H  10.74400 0.32200 25.55100
H  8.46800 3.23000 33.00500
H  8.36600 6.08000 32.78600
H  6.50300 5.89500 33.46100
H  6.46200 4.13500 33.54200
H  5.84900 4.89400 32.16200
H  10.64500 5.40900 32.99100
H  11.20400 3.76000 33.43700
H  9.01100 4.74300 35.06600
H  10.52600 5.61600 35.17600
H  6.33700 9.70500 28.66500
H  5.91700 8.58400 29.65100
H  4.84900 8.70900 28.18100
H  5.77800 10.00600 26.27300
H  4.34600 8.94300 26.25100
H  4.80700 9.93600 24.80700
H  8.84900 4.17600 22.91100
H  9.06700 1.38400 23.44200
H  7.14500 1.79900 22.74100
H  6.75000 3.41900 22.13000
H  6.24700 2.97800 23.73800
H  11.50500 3.09800 24.07400
H  10.80600 3.50300 22.49400
H  11.58800 1.74200 21.41600
H  11.21500 0.59600 22.72800
H  12.67800 1.41300 22.70900
H  12.71300 -0.61500 26.85300
H  11.46800 -1.68000 27.65500
H  12.82900 -1.14000 28.56900
H  11.56900 1.84400 32.38600
H  9.85300 -1.17400 34.88800
H  8.90200 0.20400 35.19100
H  10.48400 -0.04600 36.06900
Mg 25.37400 50.36500 26.73400
C  23.19800 51.49700 29.23100
C  27.66000 49.65400 29.23400
C  27.61600 49.88900 24.27000
C  23.30400 52.00900 24.44300
N  25.36000 50.47600 28.97300
C  24.33100 50.93200 29.80200
C  24.68100 50.73100 31.28800
C  26.15700 50.43300 31.21900
C  26.47200 50.24000 29.72900
C  27.12700 51.48500 31.89900
C  23.74600 49.64200 31.95200
C  23.06500 50.03200 33.24900
H  23.83800 50.95900 34.18700
N  27.31700 49.87800 26.78900
C  28.07600 49.48300 27.90100
C  29.26600 48.81900 27.44700
C  29.30000 48.87700 26.01700
C  28.04700 49.57000 25.61300
C  30.30200 48.14800 28.29700
C  30.30400 48.31700 25.05100
O  30.11900 48.44400 23.80800
C  31.55900 47.64500 25.56900
N  25.54800 50.99400 24.58400
C  26.56800 50.55500 23.78200
C  26.25800 50.94400 22.33300
C  24.83300 51.56800 22.43500
C  24.50300 51.48300 23.89700
C  27.25400 51.99900 21.68700
C  23.78300 50.96400 21.43900
C  23.26800 49.53400 21.70500
N  23.54600 51.33100 26.73700
C  22.80500 51.89700 25.73000
C  21.53900 52.41500 26.22400
C  21.70200 52.28800 27.60300
C  22.95400 51.64200 27.88700
C  20.44900 53.02400 25.36100
C  21.06800 52.58700 28.87100
O  19.94800 53.00800 29.11600
C  22.06800 52.10800 30.00200
C  22.40800 53.25400 30.84100
O  23.42900 53.94100 30.76500
O  21.35000 53.35700 31.74500
C  21.38000 54.49200 32.62900
H  28.39400 49.42200 30.00800
H  28.31100 49.58300 23.48600
H  22.76000 52.58500 23.69100
H  24.59300 51.70200 31.77500
H  26.26500 49.42800 31.62700
H  27.28200 51.10700 32.90900
H  26.65900 52.46600 31.98700
H  28.04600 51.54400 31.31600
H  24.15400 48.63400 32.01700
H  22.96000 49.52300 31.20600
H  22.79800 49.05000 33.64200
H  22.09000 50.42100 32.95700
H  29.99800 48.25300 29.33900
H  31.22200 48.73000 28.25600
H  30.33600 47.06600 28.16900
H  32.22000 47.27200 24.78700
H  31.25200 46.76200 26.12900
H  32.06300 48.38900 26.18600
H  26.38700 50.02700 21.75700
H  24.81900 52.64600 22.27800
H  26.86200 53.00700 21.82400
H  27.42500 51.73500 20.64300
H  28.23300 51.94900 22.16300
H  24.26400 51.12300 20.47400
H  22.90900 51.61100 21.51900
H  23.26000 48.88300 20.83100
H  22.30700 49.55500 22.21800
H  23.94800 49.07700 22.42500
H  20.68100 52.81800 24.31600
H  20.27000 54.08200 25.54900
H  19.52700 52.47900 25.56300
H  21.61300 51.34900 30.63900
H  21.63200 55.26100 31.89800
H  22.03700 54.34800 33.48700
H  20.39000 54.75100 33.00300

