158

Mg 25.13400 1.43200 29.51200
C  27.30000 1.12800 32.49100
C  22.53500 1.48500 31.66900
C  23.40100 1.91700 26.81100
C  28.17000 1.13600 27.61800
N  24.98800 1.13300 31.89600
C  25.97500 1.31700 32.83300
C  25.30700 1.29500 34.31000
C  23.78900 1.22800 33.98000
C  23.76300 1.33600 32.43900
C  22.92400 0.00400 34.49400
C  25.77200 2.50200 35.18000
C  26.01600 2.24100 36.64200
H  25.94700 3.48700 37.58200
N  23.25000 1.65200 29.29600
C  22.23200 1.67800 30.24800
C  20.92900 1.73500 29.58800
C  21.21100 1.92700 28.19800
C  22.67000 1.82000 28.03400
C  19.61000 1.63200 30.31500
C  20.19900 2.04100 26.99400
O  20.61700 2.01900 25.87300
C  18.65300 2.14300 27.31200
N  25.73600 1.39000 27.46000
C  24.77300 1.60500 26.52600
C  25.39600 1.73500 25.08400
C  26.91900 1.79100 25.43000
C  26.95800 1.43300 26.94800
C  24.80100 0.60300 24.23000
C  27.66900 3.11100 25.25100
C  26.95800 4.27200 25.94700
N  27.20200 1.07800 29.93000
C  28.27800 0.92900 29.00700
C  29.56200 0.63200 29.68100
C  29.14000 0.69800 31.07400
C  27.74700 0.98100 31.18000
C  30.89800 0.40900 29.14200
C  29.71100 0.76400 32.41300
O  30.89100 0.49100 32.77700
C  28.52500 1.09500 33.42300
C  28.52400 -0.03300 34.31100
O  28.10400 -1.15200 34.13600
O  29.08500 0.35400 35.47700
C  29.17300 -0.61700 36.57000
H  21.68700 1.44300 32.35600
H  22.78800 1.99400 25.91000
H  29.06900 1.17600 27.00000
H  25.68000 0.36400 34.73600
H  23.29000 2.12700 34.34000
H  21.97700 0.53200 34.60900
H  23.22400 -0.49300 35.41600
H  22.75500 -0.70300 33.68200
H  25.11700 3.37300 35.20200
H  26.66300 2.87200 34.67200
H  27.03500 1.85500 36.67300
H  25.30200 1.53900 37.07000
H  18.92300 2.39300 29.94500
H  19.55400 1.59800 31.40300
H  19.15500 0.73700 29.88900
H  18.36500 3.06300 27.82100
H  18.23100 1.33000 27.90300
H  18.21800 2.02300 26.32000
H  24.95100 2.66700 24.73800
H  27.48100 1.03600 24.87900
H  24.33500 -0.16300 24.85000
H  25.63900 0.15000 23.70100
H  24.08700 1.06200 23.54500
H  27.64800 3.32600 24.18200
H  28.70300 3.03700 25.58700
H  26.19100 3.90200 26.62700
H  26.52100 4.92500 25.19100
H  27.69100 4.81900 26.53900
H  31.64000 1.18500 29.33300
H  30.74500 0.39800 28.06300
H  31.31200 -0.56800 29.39100
H  28.57600 2.00300 34.02400
H  28.35400 -0.37500 37.24800
H  30.14400 -0.45100 37.03600
H  29.17300 -1.65300 36.22900
Mg -11.31300 38.60500 42.24600
C  -9.61400 35.70800 41.56200
C  -8.93000 40.49200 40.96100
C  -13.36000 41.30900 42.89000
C  -14.30000 36.51500 43.03300
N  -9.61500 38.09700 41.29400
C  -9.00600 36.85200 41.18500
C  -7.65700 36.94200 40.44000
C  -7.37700 38.46800 40.46500
C  -8.74300 39.07000 40.94800
C  -6.27800 38.96700 41.47400
C  -7.65000 36.34000 39.00700
C  -6.35800 35.59100 38.52500
H  -5.58100 36.16800 37.28800
N  -11.16500 40.64500 41.95200
C  -10.04600 41.18900 41.41200
C  -10.24800 42.64400 41.47100
C  -11.48600 42.92400 42.09500
C  -12.10700 41.60400 42.39300
C  -9.25600 43.55100 40.77900
C  -12.11000 44.34700 42.37500
O  -11.64700 45.33200 41.77000
C  -13.31100 44.55300 43.40800
N  -13.55700 38.82600 42.60300
C  -14.03000 40.08100 42.96700
C  -15.49400 39.99300 43.46500
C  -15.83100 38.50300 43.46200
C  -14.50000 37.85700 42.98900
C  -15.79900 40.72300 44.76800
C  -17.10400 38.14100 42.71800
C  -17.84300 36.88900 43.35500
N  -11.82200 36.50100 42.36200
C  -13.04500 35.88600 42.58800
C  -12.78000 34.40800 42.51400
C  -11.42400 34.28100 42.15600
C  -10.92100 35.61600 42.06500
C  -13.85300 33.39300 42.81500
C  -10.32300 33.37400 41.82200
O  -10.21500 32.16400 41.70200
C  -9.08000 34.34700 41.70000
C  -8.26100 34.12400 42.89700
O  -8.08200 34.93800 43.81000
O  -7.61300 32.89500 42.73900
C  -6.62000 32.53800 43.77100
H  -8.14000 41.08900 40.50000
H  -14.04800 42.14600 43.02900
H  -15.10800 35.81300 43.25300
H  -6.93700 36.39100 41.04500
H  -7.26000 38.94600 39.49200
H  -5.56000 39.62700 40.98800
H  -5.71400 38.12200 41.87000
H  -6.72700 39.57500 42.25900
H  -7.89000 37.09600 38.25900
H  -8.58200 35.80300 38.83100
H  -6.60200 34.54600 38.33300
H  -5.65100 35.74600 39.34000
H  -9.50900 43.55200 39.71900
H  -8.23400 43.19500 40.90900
H  -9.32400 44.57700 41.14000
H  -13.21100 45.47200 43.98500
H  -13.30800 43.74800 44.14200
H  -14.28600 44.68300 42.93900
H  -16.14700 40.37100 42.67800
H  -15.74600 38.24000 44.51600
H  -16.83100 40.65000 45.11100
H  -15.56100 41.78100 44.66400
H  -15.01000 40.46600 45.47400
H  -16.85700 37.86700 41.69200
H  -17.92200 38.85800 42.78200
H  -18.21400 36.15100 42.64500
H  -18.70000 37.18400 43.96000
H  -17.18200 36.42600 44.08800
H  -14.89000 33.72200 42.75900
H  -13.69600 33.01300 43.82500
H  -13.64100 32.52200 42.19400
H  -8.52900 34.07100 40.80100
H  -5.87200 31.93600 43.25600
H  -7.12400 32.03600 44.59800
H  -6.02600 33.34900 44.19300

