158

Mg 9.25000 47.13500 27.11200
C  7.27500 47.25200 30.13300
C  12.05500 47.68900 28.91900
C  10.87600 47.74300 24.24600
C  6.14700 47.29500 25.36800
N  9.64000 47.30400 29.28200
C  8.69600 47.26000 30.28300
C  9.40000 47.37700 31.70700
C  10.84300 47.81100 31.28200
C  10.91600 47.56000 29.69400
C  11.15100 49.30500 31.70400
C  9.24800 46.05700 32.57200
C  9.94900 46.09700 33.98100
H  9.17600 45.53500 35.18200
N  11.28800 47.39700 26.63000
C  12.36300 47.51400 27.54700
C  13.59300 47.63800 26.81100
C  13.24400 47.71600 25.46000
C  11.74300 47.65200 25.40000
C  14.98900 47.77000 27.60700
C  14.15000 47.93500 24.28400
O  13.79300 48.00400 23.10100
C  15.59700 48.05500 24.48400
N  8.53800 47.65200 25.10900
C  9.43800 47.80700 24.13500
C  8.77900 47.93600 22.79300
C  7.28000 47.57100 23.07200
C  7.29800 47.48800 24.59900
C  8.89800 49.39000 22.16700
C  6.72900 46.17100 22.59200
C  6.44000 46.07300 21.08300
N  7.15100 47.08800 27.56700
C  6.02200 47.17300 26.76000
C  4.77800 47.25600 27.50500
C  5.24200 47.23600 28.85400
C  6.62600 47.22400 28.84500
C  3.43200 47.43200 26.89800
C  4.71900 47.37600 30.11000
O  3.63000 47.54700 30.59000
C  6.07800 47.29300 31.11500
C  5.95900 45.96400 31.84600
O  6.33400 44.90900 31.47900
O  5.49700 46.25800 33.08100
C  5.19100 45.13300 33.99700
H  12.90300 47.67200 29.60700
H  11.32800 47.94500 23.27300
H  5.23300 47.17600 24.78200
H  8.82700 48.08400 32.30600
H  11.51100 47.10800 31.78000
H  12.23900 49.34200 31.76700
H  10.72700 49.61500 32.65900
H  10.81000 49.95000 30.89400
H  9.81800 45.22500 32.15900
H  8.21900 45.71600 32.69500
H  10.23300 47.14700 34.03700
H  10.82800 45.45700 33.90300
H  14.83500 47.87200 28.68200
H  15.43700 48.71300 27.29600
H  15.70200 46.95400 27.48700
H  15.84700 48.83900 25.20000
H  16.08200 48.33700 23.55000
H  15.99500 47.08500 24.78200
H  9.20400 47.23500 22.07500
H  6.61800 48.30500 22.61100
H  9.68100 49.96600 22.66000
H  7.98300 49.98200 22.19800
H  9.14600 49.36700 21.10600
H  5.75300 45.94700 23.02100
H  7.39900 45.36700 22.89700
H  6.59100 47.02700 20.57800
H  5.41600 45.69900 21.08800
H  7.10600 45.35100 20.61100
H  3.30100 46.78600 26.03000
H  3.21500 48.43000 26.51600
H  2.71500 47.12700 27.66100
H  6.13200 47.99600 31.94700
H  5.90300 44.34800 34.25200
H  4.22700 44.65700 33.81900
H  5.14000 45.67600 34.94100
Mg -5.89000 24.86600 26.24000
C  -4.37600 26.57000 28.98400
C  -7.14100 22.64600 28.70500
C  -7.44200 23.42400 23.84900
C  -4.10700 27.02200 24.00800
N  -5.81400 24.63800 28.58300
C  -5.27100 25.57800 29.43200
C  -5.51400 25.19600 30.93300
C  -6.16200 23.70200 30.80500
C  -6.46100 23.63800 29.27500
C  -5.22700 22.56400 31.14800
C  -6.15300 26.28400 31.82100
C  -7.25600 25.79100 32.77100
H  -6.91800 24.81600 33.98800
N  -7.09800 23.21900 26.24200
C  -7.47500 22.42600 27.32400
C  -8.25100 21.33000 26.84200
C  -8.51200 21.58900 25.45400
C  -7.63500 22.75700 25.09600
C  -8.78300 20.20400 27.78700
C  -9.41800 20.90700 24.56500
O  -9.54300 21.11500 23.37000
C  -10.33600 19.77400 25.16200
N  -5.76500 25.16600 24.22200
C  -6.53100 24.40600 23.42300
C  -6.39700 24.96700 21.95300
C  -5.60900 26.28500 22.07300
C  -5.10700 26.14000 23.51300
C  -5.86800 23.92800 20.91900
C  -6.52400 27.56000 21.91800
C  -6.96500 27.95700 20.51100
N  -4.49000 26.46600 26.42200
C  -3.83900 27.17200 25.41000
C  -2.88300 27.98400 26.02500
C  -3.04900 27.86500 27.41600
C  -4.01200 26.85900 27.62200
C  -2.02300 28.97900 25.38600
C  -2.62800 28.37700 28.69100
O  -1.85500 29.32200 28.90600
C  -3.48500 27.56000 29.76600
C  -2.52900 26.82600 30.71500
O  -2.00100 25.80600 30.33600
O  -2.47600 27.45400 31.95800
C  -1.95400 26.62500 33.04700
H  -7.53200 21.93500 29.43600
H  -8.04100 22.94800 23.07000
H  -3.66400 27.81800 23.40500
H  -4.51300 25.06600 31.34400
H  -7.12700 23.53400 31.28200
H  -4.36100 22.78000 31.77300
H  -4.95000 21.94100 30.29800
H  -5.85000 21.93100 31.78000
H  -6.64700 27.03500 31.20400
H  -5.40700 26.83400 32.39500
H  -8.06500 25.34700 32.19300
H  -7.65300 26.69300 33.23700
H  -9.76400 20.52200 28.13700
H  -8.14200 20.24600 28.66800
H  -8.72400 19.23500 27.29000
H  -9.65900 18.92100 25.21000
H  -11.11800 19.75200 24.40200
H  -10.72800 20.10000 26.12500
H  -7.37900 25.28700 21.60500
H  -4.73400 26.49500 21.45700
H  -4.77800 23.94800 20.89900
H  -6.33600 24.01600 19.93800
H  -6.11100 22.92200 21.25900
H  -5.92800 28.41300 22.24100
H  -7.42700 27.46900 22.52000
H  -8.01400 27.72200 20.33500
H  -6.37600 27.50600 19.71200
H  -6.90800 29.04300 20.43200
H  -2.60400 29.72600 24.84400
H  -1.38300 28.35800 24.75900
H  -1.21800 29.45600 25.94500
H  -4.07800 28.33200 30.25600
H  -2.01100 25.54100 32.95200
H  -2.53500 26.83300 33.94600
H  -0.91000 26.85800 33.25400

