158

Mg 47.47400 25.30300 28.19900
C  48.64700 27.69700 30.59400
C  46.24600 23.45700 30.79000
C  47.21800 22.77300 26.06500
C  49.57400 26.96500 25.87200
N  47.55000 25.52800 30.40800
C  47.75300 26.71500 31.13000
C  47.33700 26.61900 32.64400
C  46.83600 25.08900 32.74500
C  46.90400 24.65100 31.23200
C  47.76600 24.06400 33.51700
C  46.41300 27.68600 33.28300
C  46.78700 28.09600 34.73900
H  45.81400 28.45500 35.79200
N  46.70000 23.39900 28.38700
C  46.20900 22.80500 29.49900
C  45.64400 21.50300 29.22900
C  45.83800 21.28300 27.80000
C  46.59700 22.48100 27.31900
C  45.14600 20.49600 30.26600
C  45.43100 20.02700 26.93300
O  45.55300 19.96800 25.68000
C  44.61500 19.02900 27.62300
N  48.17900 24.93500 26.26700
C  47.88100 23.88300 25.54200
C  48.41100 23.96400 24.15100
C  48.86200 25.42200 24.00000
C  48.81000 25.79500 25.46500
C  49.49100 22.86900 23.81900
C  48.03000 26.40500 23.10400
C  48.54900 26.44500 21.70500
N  48.83000 27.09300 28.10800
C  49.51600 27.63200 27.10800
C  50.32600 28.76600 27.62500
C  49.99400 28.86600 29.00400
C  49.06900 27.80100 29.25000
C  51.33700 29.58700 26.75300
C  50.21100 29.54900 30.23700
O  50.74800 30.62600 30.42300
C  49.29800 28.87000 31.30800
C  50.18900 28.39100 32.44700
O  50.95700 27.41500 32.43800
O  49.98400 29.20600 33.52900
C  50.71800 28.85000 34.74500
H  45.52300 22.99300 31.46400
H  47.06700 21.92500 25.39400
H  49.98500 27.55100 25.04700
H  48.25100 26.64900 33.23700
H  45.80100 24.99800 33.07500
H  48.50000 24.60000 34.11900
H  48.26900 23.33500 32.88300
H  47.12200 23.57300 34.24700
H  45.38900 27.31300 33.31700
H  46.30400 28.59100 32.68600
H  47.58300 28.84000 34.69700
H  47.22800 27.23500 35.24000
H  44.22700 19.97600 29.99700
H  45.06100 20.92700 31.26300
H  45.86800 19.68100 30.22400
H  45.22700 18.78100 28.49000
H  44.45300 18.14900 27.00200
H  43.69100 19.58900 27.77100
H  47.52300 23.66300 23.59600
H  49.92100 25.38200 23.74100
H  50.41400 23.35700 23.50600
H  49.09200 22.14600 23.10800
H  49.68000 22.27200 24.71100
H  47.86800 27.37900 23.56600
H  47.04000 25.95100 23.14300
H  48.71000 27.51900 21.61100
H  47.74800 26.08300 21.06100
H  49.47700 25.92400 21.47300
H  50.81700 30.23100 26.04300
H  52.06300 28.88000 26.35100
H  51.86700 30.21100 27.47300
H  48.58900 29.59200 31.71300
H  51.72700 28.48200 34.55800
H  50.19900 28.13500 35.38300
H  50.78900 29.75800 35.34400
Mg -1.14100 34.00800 27.25400
C  -3.04800 32.39500 29.63300
C  0.29500 35.94900 29.74000
C  0.17100 36.02600 24.83500
C  -2.97800 32.32600 24.74300
N  -1.49300 34.25100 29.40700
C  -2.22100 33.36100 30.11800
C  -1.95800 33.64300 31.62300
C  -0.98900 34.79300 31.64900
C  -0.70600 35.04300 30.18800
C  -1.38400 36.07400 32.44200
C  -1.37100 32.28300 32.32800
C  -2.03700 31.86900 33.58900
H  -1.26600 32.15000 34.89500
N  0.09700 35.76000 27.28600
C  0.62600 36.36700 28.42200
C  1.37200 37.50700 28.00700
C  1.34200 37.57500 26.58600
C  0.47300 36.48800 26.14500
C  2.04000 38.36400 29.05600
C  2.05500 38.52500 25.65600
O  2.00600 38.31200 24.46100
C  2.62100 39.81500 26.16000
N  -1.42900 34.16600 25.07200
C  -0.62400 34.98200 24.34400
C  -0.88100 34.83100 22.83300
C  -1.72500 33.58800 22.88200
C  -2.18400 33.35300 24.31600
C  -1.59400 36.08900 22.22700
C  -1.10800 32.34400 22.15300
C  0.02800 31.58800 22.91100
N  -2.75500 32.74300 27.08900
C  -3.24800 32.02300 26.03600
C  -4.20000 31.01600 26.53100
C  -4.16100 31.13800 27.94900
C  -3.18900 32.13900 28.23700
C  -5.06200 30.01900 25.78000
C  -4.68200 30.62800 29.16500
O  -5.55900 29.84700 29.34900
C  -3.89900 31.40800 30.31400
C  -4.98700 32.09500 31.15300
O  -5.62200 33.12300 30.85600
O  -5.24200 31.38300 32.32400
C  -6.32500 31.94200 33.18900
H  0.79900 36.45000 30.56900
H  0.71700 36.58900 24.07500
H  -3.34800 31.54600 24.07500
H  -2.91900 33.85900 32.09100
H  -0.06000 34.43500 32.09300
H  -1.24000 37.00400 31.89300
H  -0.72700 35.96600 33.30500
H  -2.43700 36.00800 32.71700
H  -0.30200 32.42000 32.49300
H  -1.42100 31.45100 31.62500
H  -2.26000 30.80200 33.57000
H  -2.99900 32.38100 33.58400
H  3.07200 38.43000 28.71200
H  1.94100 37.96800 30.06600
H  1.57400 39.34900 29.10400
H  2.95900 40.38000 25.29100
H  3.54500 39.61500 26.70200
H  1.95600 40.27400 26.89100
H  0.10300 34.66400 22.39600
H  -2.62600 33.77300 22.29700
H  -1.43600 36.96300 22.85900
H  -2.67300 36.10000 22.07600
H  -1.05800 36.24500 21.29100
H  -0.61200 32.64300 21.22900
H  -1.88400 31.63700 21.85700
H  -0.38200 30.65200 23.29200
H  0.54200 32.21300 23.64200
H  0.77600 31.23900 22.19900
H  -5.09200 30.15700 24.69900
H  -6.07200 30.21700 26.13800
H  -4.65100 29.04500 26.04700
H  -3.36300 30.69500 30.94000
H  -7.09600 32.32900 32.52300
H  -5.90900 32.69500 33.85900
H  -6.84700 31.17700 33.76300

