158

Mg 47.18400 16.71900 28.24600
C  45.27500 16.40600 31.27200
C  49.74000 18.09700 30.08600
C  48.74500 17.24600 25.33600
C  44.33000 15.50200 26.54100
N  47.36300 17.38000 30.46200
C  46.53900 17.00100 31.54400
C  47.12400 17.50000 32.89600
C  48.51400 18.11200 32.42600
C  48.56100 17.86700 30.87900
C  48.93400 19.64500 32.71000
C  47.23600 16.41200 33.97800
C  47.04600 16.72900 35.38100
H  46.92500 18.24300 35.60900
N  48.99700 17.52900 27.75500
C  49.96000 17.97700 28.65900
C  51.18900 18.31300 27.91100
C  50.82500 18.25700 26.53400
C  49.44900 17.57500 26.47300
C  52.44100 18.74200 28.63000
C  51.63400 18.66500 25.28000
O  51.25400 18.45000 24.12000
C  52.98600 19.21300 25.48500
N  46.71100 16.12300 26.22800
C  47.47200 16.71000 25.20900
C  46.71500 16.37800 23.91400
C  45.59700 15.40300 24.27900
C  45.48800 15.70500 25.71700
C  46.31300 17.66900 23.07800
C  45.95900 13.82200 24.16900
C  44.80300 12.97900 23.58500
N  45.20700 16.20500 28.75400
C  44.17700 15.75400 27.90300
C  42.93600 15.51900 28.66100
C  43.39100 15.65600 30.03400
C  44.70000 16.11200 30.01200
C  41.57400 15.14800 28.19400
C  42.95700 15.56100 31.44200
O  41.91900 15.18600 31.87900
C  44.12500 16.10300 32.26700
C  43.67900 17.33100 33.00200
O  43.54400 18.46400 32.54600
O  43.39100 16.92100 34.26500
C  42.73800 17.97100 35.02300
H  50.58500 18.45500 30.67800
H  49.25400 17.31800 24.37300
H  43.45600 15.17600 25.97200
H  46.49200 18.34200 33.18000
H  49.31500 17.46300 32.78000
H  48.12600 20.09100 33.28900
H  48.96400 20.26400 31.81300
H  49.90400 19.64600 33.20700
H  48.21100 15.93700 33.86500
H  46.55100 15.59600 33.74900
H  47.91300 16.39500 35.95100
H  46.12800 16.29700 35.78000
H  53.30700 18.34600 28.09900
H  52.53700 18.24200 29.59400
H  52.67900 19.77900 28.86200
H  53.37300 19.57000 24.53100
H  53.55900 18.40100 25.93300
H  52.95200 20.05700 26.17400
H  47.43500 15.93700 23.22400
H  44.67900 15.62400 23.73500
H  45.24200 17.84800 23.16800
H  46.70600 17.66100 22.06100
H  46.79000 18.48200 23.62500
H  46.19300 13.30400 25.10000
H  46.82200 13.67600 23.51900
H  43.90300 13.59100 23.52200
H  44.59000 12.07100 24.14900
H  45.14900 12.64100 22.60800
H  40.86900 15.71200 28.80500
H  41.50500 14.07300 28.36000
H  41.35600 15.46600 27.17400
H  44.29100 15.29300 32.97700
H  41.84700 18.41800 34.58300
H  43.39500 18.79000 35.31400
H  42.27600 17.64100 35.95300
Mg 36.30000 49.33300 25.20400
C  36.56500 47.60600 28.28200
C  34.92900 51.79700 26.72500
C  35.92000 50.66000 22.22000
C  37.43800 46.36600 23.60100
N  35.63000 49.56800 27.29300
C  35.87000 48.85800 28.37700
C  35.60300 49.63500 29.68600
C  34.79600 50.82600 29.05700
C  35.14500 50.78200 27.63900
C  33.24900 50.83100 29.23300
C  36.86600 50.04300 30.54000
C  36.83900 49.84700 32.09900
H  35.54800 49.97400 32.90000
N  35.55200 51.07700 24.53900
C  34.96900 51.98400 25.36800
C  34.48700 53.14000 24.60200
C  35.00900 52.89100 23.27000
C  35.53000 51.45900 23.26000
C  33.81000 54.40800 25.16100
C  34.97700 53.76100 22.07500
O  35.40300 53.35400 20.98800
C  34.52600 55.25300 22.20700
N  36.61000 48.59200 23.12300
C  36.31900 49.33600 22.09000
C  36.55000 48.60100 20.80400
C  37.21800 47.23500 21.21600
C  36.98300 47.36700 22.71600
C  35.36900 48.46400 19.79500
C  38.68500 47.07300 20.93500
C  39.05200 47.23900 19.43500
N  36.84000 47.38500 25.78500
C  37.33100 46.32800 25.02500
C  37.63700 45.15500 25.89300
C  37.35700 45.65000 27.18900
C  36.79400 46.96200 27.05700
C  38.25800 43.81300 25.49100
C  37.35300 45.30300 28.50800
O  37.58300 44.25100 29.06800
C  36.85400 46.52400 29.32300
C  35.67000 46.04900 30.01500
O  34.64100 45.90700 29.42100
O  35.71800 46.17700 31.34600
C  34.48400 46.11300 32.14800
H  34.52400 52.65000 27.27300
H  35.70700 51.14500 21.26500
H  37.81800 45.40800 23.24100
H  34.95000 48.97600 30.25800
H  35.12500 51.74300 29.54700
H  32.98200 50.06100 29.95600
H  32.63700 50.99700 28.34600
H  32.98700 51.73000 29.79200
H  37.22600 51.05800 30.37000
H  37.66400 49.39400 30.17800
H  37.60400 50.52700 32.47500
H  37.20500 48.82500 32.19200
H  33.59900 54.32500 26.22700
H  32.77600 54.57300 24.85600
H  34.47700 55.26400 25.06600
H  34.56200 55.88800 21.32200
H  35.25200 55.69600 22.88900
H  33.52800 55.29500 22.64200
H  37.33500 49.14700 20.28200
H  36.70400 46.37700 20.78300
H  34.58800 49.11200 20.19500
H  35.05400 47.43400 19.96000
H  35.47200 48.77000 18.75400
H  39.13500 46.15300 21.30700
H  39.01900 47.89500 21.56700
H  38.16200 46.95700 18.87200
H  39.88400 46.56900 19.22200
H  39.51300 48.18000 19.13500
H  38.65600 43.84500 24.47700
H  37.52200 43.02400 25.64900
H  39.08400 43.68800 26.19100
H  37.60200 46.78300 30.07200
H  34.20800 45.07200 32.31300
H  33.65800 46.74100 31.81500
H  34.79800 46.48500 33.12400

