158

Mg 0.73400 7.51300 25.34100
C  1.43000 9.58500 28.16800
C  1.44600 4.79200 27.28700
C  0.08600 5.76000 22.81000
C  0.88400 10.45200 23.42700
N  1.43500 7.22000 27.52100
C  1.40100 8.13800 28.55600
C  1.49400 7.48600 29.94500
C  1.69200 5.96500 29.58100
C  1.60700 6.00300 28.04800
C  3.02700 5.34200 30.10600
C  0.32100 7.78800 30.91500
C  0.58400 8.09400 32.44900
H  1.63200 7.19200 33.06000
N  0.72800 5.52500 25.06400
C  1.04600 4.53300 25.98300
C  0.71400 3.22000 25.39300
C  0.34200 3.58200 24.03500
C  0.37800 4.98000 23.92400
C  0.97600 1.94800 26.17300
C  -0.04700 2.66400 22.87400
O  -0.44600 2.94700 21.73600
C  0.09900 1.20300 23.09100
N  0.63200 8.06100 23.29400
C  0.24700 7.07100 22.46400
C  -0.38000 7.70900 21.15300
C  0.00800 9.21600 21.25900
C  0.54400 9.31900 22.69700
C  -0.10800 6.99400 19.75200
C  -1.24700 10.23800 21.06700
C  -0.98400 11.38000 20.12700
N  1.15000 9.52400 25.68200
C  1.18500 10.61100 24.76200
C  1.59300 11.81400 25.48400
C  1.63800 11.44700 26.82200
C  1.35000 10.09000 26.86900
C  1.72000 13.20500 24.90400
C  1.73600 11.99100 28.16200
O  2.10300 13.09100 28.55400
C  1.67400 10.74700 29.13800
C  2.91100 10.67900 29.85000
O  3.99000 10.38400 29.40000
O  2.71100 10.95100 31.20500
C  3.84900 10.72400 32.08200
H  1.49300 3.84400 27.82700
H  -0.27200 5.20900 21.93800
H  0.87500 11.39600 22.87900
H  2.42900 7.91300 30.30700
H  0.82200 5.37300 29.86500
H  2.86400 4.42100 30.66700
H  3.60900 6.05700 30.68800
H  3.73500 5.02200 29.34200
H  -0.26400 6.86900 30.93300
H  -0.30900 8.61300 30.58300
H  -0.27400 7.91500 33.09700
H  0.88600 9.13500 32.56700
H  0.11300 1.29500 26.04800
H  1.05100 2.07400 27.25300
H  1.85600 1.41400 25.81400
H  -0.50200 0.85100 23.92900
H  1.13600 0.96000 23.32400
H  -0.32100 0.66500 22.24100
H  -1.44000 7.56400 21.36500
H  0.80300 9.44800 20.55000
H  0.80400 6.42600 19.93000
H  0.07900 7.78900 19.03000
H  -0.93500 6.31700 19.53400
H  -1.62100 10.63100 22.01200
H  -2.11900 9.84100 20.54700
H  -1.44000 11.25100 19.14600
H  0.09800 11.51400 20.14500
H  -1.53200 12.22900 20.53500
H  0.86800 13.57800 24.33600
H  2.66600 13.16900 24.36300
H  1.92600 13.80200 25.79200
H  0.84300 10.88600 29.83000
H  3.50300 10.23700 32.99400
H  4.25700 11.67800 32.41400
H  4.66200 10.19200 31.58700
Mg -5.52700 24.83900 25.53400
C  -3.90000 26.20400 28.39100
C  -7.25700 22.68900 27.81300
C  -6.98600 23.48000 22.85800
C  -3.44000 26.80000 23.49400
N  -5.41900 24.34000 27.76900
C  -4.84700 25.21000 28.66300
C  -5.22700 24.79800 30.10300
C  -5.99700 23.41500 29.93100
C  -6.25800 23.47300 28.41500
C  -5.24600 22.05200 30.36600
C  -6.17900 25.91900 30.68400
C  -6.20000 26.14100 32.19100
H  -5.38900 25.11700 33.00000
N  -7.02400 23.37400 25.41700
C  -7.70800 22.71400 26.41600
C  -8.83900 21.93600 25.76600
C  -8.72900 22.18600 24.39100
C  -7.61000 23.03900 24.15400
C  -9.83400 21.15300 26.59300
C  -9.75200 21.57300 23.29100
O  -9.56100 21.83100 22.11200
C  -10.92000 20.76800 23.62200
N  -5.32500 25.06400 23.51000
C  -5.93200 24.27900 22.53600
C  -5.28000 24.39200 21.19200
C  -4.22200 25.54800 21.36700
C  -4.30800 25.85700 22.91300
C  -4.87700 23.03700 20.56500
C  -4.45700 26.80000 20.43200
C  -3.99800 26.62100 19.00200
N  -3.95000 26.19600 25.76300
C  -3.23700 26.96200 24.87200
C  -2.36900 27.88000 25.62400
C  -2.64500 27.63300 27.00100
C  -3.56700 26.63400 27.05800
C  -1.39300 28.90400 24.98700
C  -2.26300 28.10300 28.29300
O  -1.44400 28.99500 28.65500
C  -3.04200 27.09800 29.32800
C  -2.08300 26.36600 30.17800
O  -1.43400 25.41700 29.83800
O  -1.99800 26.89600 31.44100
C  -1.23900 26.10800 32.33700
H  -7.96600 22.14700 28.44200
H  -7.47900 23.09200 21.96400
H  -2.76100 27.35900 22.84700
H  -4.34900 24.54000 30.69500
H  -6.96700 23.42300 30.42900
H  -6.01600 21.39200 30.76400
H  -4.48000 22.25400 31.11400
H  -4.75500 21.57600 29.51600
H  -7.22600 25.74000 30.44000
H  -5.83400 26.89100 30.33200
H  -7.18000 26.22800 32.66000
H  -5.67900 27.08200 32.37300
H  -10.84100 21.10600 26.17800
H  -9.88100 21.72600 27.51900
H  -9.46300 20.15400 26.82300
H  -11.54000 20.54800 22.75300
H  -11.59900 21.39300 24.20100
H  -10.59600 19.84400 24.10200
H  -6.09300 24.72300 20.54700
H  -3.22200 25.17900 21.13600
H  -5.58400 22.26200 20.86300
H  -3.85500 22.73400 20.78900
H  -4.91700 23.03700 19.47600
H  -3.83200 27.58200 20.86300
H  -5.50500 27.09900 20.45600
H  -3.05300 27.16400 18.98300
H  -4.59100 27.10600 18.22700
H  -3.82500 25.56700 18.78500
H  -1.96800 29.46800 24.25300
H  -0.45000 28.59800 24.53300
H  -1.08700 29.67500 25.69500
H  -3.67600 27.68400 29.99300
H  -0.19300 26.03100 32.04100
H  -1.68800 25.12200 32.21600
H  -1.38600 26.21400 33.41200

