158

Mg 2.74600 -2.41900 45.53200
C  5.81100 -1.02600 44.64900
C  1.26200 -0.04200 43.27800
C  -0.10000 -3.91700 45.60300
C  4.45200 -5.18600 46.79900
N  3.44000 -0.82600 44.05900
C  4.75200 -0.37700 43.97200
C  4.90700 0.80200 43.01300
C  3.42000 1.13100 42.67200
C  2.63600 0.06300 43.36300
C  2.94300 2.50700 43.13000
C  5.76600 0.49000 41.73700
C  7.07300 1.36000 41.59000
H  7.57800 1.59300 40.14000
N  0.76700 -1.90000 44.77100
C  0.40600 -0.93600 43.88600
C  -0.98500 -1.01600 43.60600
C  -1.46000 -2.18800 44.28100
C  -0.29800 -2.68100 44.95600
C  -1.74100 -0.15100 42.57800
C  -2.90000 -2.76900 44.20500
O  -3.76300 -2.26100 43.50300
C  -3.32100 -4.00500 45.04900
N  2.23400 -4.21700 46.23600
C  0.96900 -4.57800 46.19300
C  0.80000 -5.94200 46.86300
C  2.26800 -6.37800 47.22100
C  3.05500 -5.13900 46.78700
C  -0.12500 -6.04700 48.12900
C  2.73500 -7.75900 46.53000
C  2.40100 -8.99000 47.37500
N  4.68800 -2.96000 45.73600
C  5.22600 -4.11100 46.36000
C  6.64900 -3.88900 46.56700
C  6.84700 -2.63000 45.92300
C  5.68800 -2.18100 45.37700
C  7.68800 -4.69500 47.35700
C  7.86600 -1.68300 45.67300
O  9.04700 -1.66600 45.93200
C  7.28800 -0.61900 44.76200
C  7.42700 0.81800 45.33000
O  6.73400 1.34500 46.25400
O  8.47200 1.39700 44.75600
C  8.55400 2.84700 45.03200
H  0.77600 0.69200 42.63200
H  -1.01600 -4.50900 45.65900
H  4.94600 -5.98600 47.35400
H  5.44000 1.60000 43.52900
H  3.28400 1.12800 41.59100
H  2.12800 2.45400 43.85100
H  2.60400 3.07500 42.26400
H  3.83100 2.98600 43.54300
H  5.18800 0.61700 40.82100
H  6.11800 -0.54100 41.71900
H  7.79000 0.93500 42.29200
H  6.97600 2.34100 42.05600
H  -1.18800 0.76600 42.37700
H  -2.68300 0.27300 42.92500
H  -1.98200 -0.73400 41.68900
H  -2.86800 -4.92200 44.67200
H  -4.38500 -4.19800 44.91500
H  -3.03000 -3.85900 46.08900
H  0.32600 -6.59400 46.13000
H  2.37500 -6.56400 48.29000
H  -0.48600 -5.05800 48.41200
H  0.40300 -6.34100 49.03600
H  -0.90500 -6.79700 47.99500
H  3.75000 -7.83100 46.13900
H  1.98300 -7.77900 45.74100
H  1.32400 -9.15600 47.38400
H  2.65100 -8.79700 48.41900
H  2.91700 -9.88300 47.02400
H  7.74800 -5.67900 46.89300
H  7.43800 -4.85100 48.40700
H  8.68200 -4.26300 47.24600
H  7.71800 -0.64600 43.76100
H  7.56100 3.22500 44.78900
H  9.21400 3.30200 44.29300
H  8.90900 3.03100 46.04600
Mg 45.80800 17.51700 28.16400
C  44.09800 16.75400 31.18700
C  47.92900 19.47000 30.08100
C  47.39600 18.23500 25.52700
C  43.34800 15.77400 26.40900
N  46.01000 17.98800 30.36100
C  45.29800 17.44600 31.36000
C  45.86400 17.83100 32.75300
C  46.78500 18.99600 32.37700
C  46.94200 18.82700 30.83400
C  46.22300 20.40500 32.85300
C  46.49200 16.59100 33.37300
C  46.22300 16.36600 34.85900
H  45.89300 17.67800 35.67500
N  47.47800 18.73600 27.81700
C  48.26800 19.36700 28.71600
C  49.40500 19.93100 27.99000
C  49.23400 19.66600 26.59700
C  48.05900 18.82100 26.64800
C  50.52900 20.50700 28.81000
C  50.02100 20.02600 25.32300
O  49.72900 19.79300 24.14200
C  51.29800 20.83600 25.47500
N  45.18700 17.34700 26.22000
C  46.11100 17.65200 25.32800
C  45.66500 17.22900 23.88600
C  44.59900 16.09500 24.20400
C  44.20800 16.51900 25.68400
C  45.26200 18.32700 22.86600
C  45.17900 14.61900 24.12800
C  44.62600 13.82400 22.94600
N  44.06900 16.47600 28.61300
C  43.19500 15.75700 27.83100
C  42.05300 15.25400 28.62300
C  42.46800 15.59500 29.94500
C  43.62100 16.34500 29.89800
C  40.79800 14.59500 28.17300
C  42.06700 15.43100 31.42300
O  41.22600 14.74100 31.95600
C  43.19000 16.21100 32.22700
C  42.57000 17.28200 32.94600
O  42.13400 18.26900 32.38100
O  42.61400 17.05600 34.37200
C  41.85000 18.04100 35.11200
H  48.55800 20.12200 30.69000
H  47.88600 18.33800 24.55700
H  42.75300 15.03400 25.86900
H  45.04200 18.20000 33.36700
H  47.71300 18.82700 32.92300
H  46.38100 20.51300 33.92600
H  45.14800 20.43500 32.67600
H  46.66400 21.24400 32.31400
H  47.55900 16.53000 33.15700
H  46.28700 15.67200 32.82300
H  47.15700 16.00000 35.28500
H  45.46100 15.58700 34.88500
H  51.38000 20.70200 28.15600
H  50.71900 19.84700 29.65600
H  50.10800 21.44800 29.16500
H  52.13200 20.20800 25.78800
H  51.16700 21.75200 26.05100
H  51.65200 21.17400 24.50100
H  46.46600 16.64500 23.43200
H  43.65900 16.19700 23.66200
H  44.23300 18.31600 22.50500
H  45.97500 18.26500 22.04500
H  45.30900 19.30700 23.34200
H  44.93500 14.09400 25.05200
H  46.26700 14.55700 24.14800
H  44.12100 14.44300 22.20500
H  44.06900 12.94900 23.28200
H  45.43900 13.29900 22.44400
H  40.91600 14.31800 27.12500
H  39.99100 15.28000 28.43500
H  40.73000 13.68000 28.76100
H  43.59500 15.48000 32.92700
H  42.02300 19.06100 34.77000
H  42.23600 18.05300 36.13100
H  40.78500 17.81000 35.13300

