158

Mg 15.86300 52.52800 25.36600
C  17.86200 51.24300 28.10100
C  13.57900 53.50000 27.56500
C  14.15800 53.47800 22.75000
C  18.38100 51.07000 23.23300
N  15.79200 52.41800 27.66200
C  16.73300 51.90600 28.60800
C  16.31200 52.11900 30.01000
C  14.84300 52.70700 29.79600
C  14.70600 52.92100 28.23700
C  13.71000 51.82500 30.38400
C  17.30000 53.16600 30.60700
C  16.84300 53.77900 31.96100
H  15.92700 53.01400 32.91700
N  14.10500 53.36200 25.21000
C  13.26200 53.74400 26.22000
C  12.07400 54.40200 25.66400
C  12.23900 54.40600 24.19600
C  13.52700 53.73600 23.98800
C  11.06700 55.05400 26.59200
C  11.37900 54.92300 23.11900
O  11.66800 54.78700 21.95100
C  10.07500 55.59800 23.52800
N  16.26900 52.31400 23.23900
C  15.35000 52.80600 22.41600
C  15.77300 52.61100 20.89000
C  17.29400 52.15700 21.09400
C  17.35600 51.75800 22.56200
C  14.97500 51.72700 20.06800
C  18.27700 53.36100 20.95600
C  19.13500 53.25900 19.64200
N  17.70700 51.40200 25.57700
C  18.57200 50.93600 24.60400
C  19.66800 50.33900 25.23200
C  19.44100 50.48300 26.60200
C  18.25800 51.15400 26.73700
C  20.94800 49.66400 24.62000
C  19.97500 50.07300 27.88400
O  20.91900 49.30800 28.16000
C  19.03600 50.76100 28.92800
C  18.53300 49.72100 29.89100
O  17.85600 48.74500 29.69300
O  18.98600 49.92500 31.16400
C  18.20300 49.12000 32.15800
H  12.79700 53.79900 28.26600
H  13.67500 53.73200 21.80400
H  19.14900 50.71900 22.54000
H  16.20200 51.15000 30.49700
H  14.63900 53.69100 30.21900
H  14.01100 50.98100 31.00400
H  13.04900 51.37000 29.64600
H  12.99200 52.43100 30.93800
H  17.33500 54.00600 29.91300
H  18.28800 52.77800 30.85200
H  16.38600 54.75300 31.78700
H  17.70100 53.93000 32.61600
H  10.05800 54.71900 26.35300
H  11.04600 56.13800 26.48400
H  11.21700 54.95100 27.66700
H  9.35000 54.85700 23.86500
H  9.59500 56.14400 22.71600
H  10.24600 56.30700 24.33800
H  15.82300 53.59500 20.42300
H  17.59000 51.28300 20.51400
H  14.41200 51.03600 20.69600
H  15.63400 51.19600 19.38100
H  14.34400 52.28100 19.37200
H  19.01700 53.39000 21.75500
H  17.85300 54.36500 20.96200
H  18.60900 52.59000 18.96100
H  20.17000 52.93000 19.73500
H  19.10000 54.26900 19.23300
H  21.71600 49.56200 25.38700
H  21.34600 50.31100 23.83700
H  20.70500 48.66600 24.25600
H  19.53800 51.52700 29.51900
H  18.66800 49.32400 33.12300
H  18.25000 48.08800 31.81000
H  17.17600 49.47900 32.22000
Mg -5.17300 24.72800 26.70200
C  -3.59600 26.61500 29.19700
C  -6.25300 22.66700 29.36000
C  -6.62400 22.79600 24.60100
C  -3.79900 26.70900 24.33900
N  -4.94200 24.68300 29.07200
C  -4.37500 25.62900 29.85900
C  -4.64100 25.42800 31.34000
C  -5.28900 24.03600 31.38000
C  -5.58000 23.81100 29.83400
C  -4.47800 22.74200 31.96800
C  -5.45000 26.52600 31.92700
C  -4.96500 27.04100 33.30500
H  -5.87500 26.56800 34.48900
N  -6.17300 22.87900 26.94300
C  -6.59900 22.25900 28.07300
C  -7.26600 21.01800 27.71500
C  -7.44400 20.94400 26.33400
C  -6.80200 22.30100 25.89700
C  -7.75600 20.04700 28.77500
C  -8.16000 19.95900 25.47100
O  -8.25100 19.99700 24.23200
C  -8.55100 18.66000 26.17500
N  -5.16300 24.73200 24.67700
C  -5.89300 23.80200 24.02200
C  -5.92900 24.09400 22.50200
C  -4.94700 25.32700 22.42500
C  -4.61200 25.62300 23.87400
C  -5.60000 22.81500 21.60300
C  -5.53700 26.44800 21.48100
C  -4.64300 27.16100 20.44400
N  -4.01500 26.41300 26.67800
C  -3.52400 27.06500 25.62600
C  -2.64600 28.12000 26.15000
C  -2.64800 27.94400 27.52100
C  -3.51200 26.91900 27.85100
C  -2.15400 29.18900 25.25900
C  -2.14400 28.53100 28.75300
O  -1.48100 29.52100 28.97700
C  -2.73200 27.67400 29.90800
C  -1.68900 27.15200 30.78400
O  -0.73100 26.39500 30.47900
O  -1.79800 27.85000 32.00500
C  -0.73500 27.70000 32.96500
H  -6.57800 22.00000 30.16100
H  -7.06400 22.04000 23.94700
H  -3.30800 27.34000 23.59500
H  -3.74000 25.37700 31.95000
H  -6.18900 24.06800 31.99500
H  -3.65600 23.16400 32.54700
H  -4.05400 22.16500 31.14600
H  -5.08000 22.21200 32.70600
H  -6.46700 26.19800 32.14000
H  -5.20200 27.44700 31.40000
H  -4.87200 28.12600 33.27700
H  -4.00100 26.64300 33.62200
H  -8.81800 19.81700 28.68800
H  -7.38500 20.18600 29.79000
H  -7.23100 19.12400 28.52900
H  -7.68100 18.17100 26.61400
H  -8.84600 17.98800 25.36900
H  -9.38500 18.68600 26.87600
H  -6.92100 24.45500 22.22900
H  -3.97600 25.09700 21.98600
H  -4.76000 23.02300 20.94000
H  -6.39500 22.33500 21.03300
H  -5.08300 22.14700 22.29300
H  -6.18500 27.20400 21.92400
H  -6.21600 25.86400 20.85900
H  -4.86800 26.91800 19.40600
H  -3.61700 26.90400 20.70900
H  -4.78000 28.23500 20.57200
H  -1.57700 29.88400 25.86900
H  -3.00100 29.69500 24.79700
H  -1.50000 28.77500 24.49100
H  -3.41400 28.32700 30.45200
H  -0.42100 28.65900 33.37500
H  0.15000 27.11500 32.71500
H  -1.17300 27.10000 33.76300

