158

Mg 2.24500 -2.15400 45.38000
C  5.76300 -1.62800 44.87300
C  1.52400 0.32600 43.31600
C  -1.04600 -3.25600 45.25300
C  3.01500 -4.86900 47.31000
N  3.59500 -0.83200 44.18000
C  4.99500 -0.74800 44.12000
C  5.42900 0.34200 43.07200
C  4.07400 1.12200 42.89300
C  2.91200 0.21300 43.57200
C  4.04600 2.58000 43.37000
C  5.93000 -0.32100 41.78700
C  7.36600 -0.01000 41.34600
H  7.80800 0.33600 39.94100
N  0.43600 -1.52700 44.38400
C  0.38900 -0.45200 43.61000
C  -0.99600 -0.15100 43.31300
C  -1.81300 -1.11400 43.94300
C  -0.81900 -2.07700 44.56800
C  -1.45400 0.96100 42.41700
C  -3.27500 -0.95800 44.12600
O  -3.88000 -0.00100 43.64800
C  -4.01300 -2.03500 44.90800
N  1.07600 -3.87400 46.18900
C  -0.26000 -3.99400 46.10500
C  -0.76500 -5.25500 46.88900
C  0.57600 -5.62800 47.65300
C  1.64000 -4.82800 46.95000
C  -2.08000 -5.01800 47.76400
C  0.90400 -7.22400 47.73900
C  1.64100 -7.61200 48.97100
N  3.97600 -3.00100 46.03000
C  4.12700 -4.15700 46.80100
C  5.57500 -4.36700 47.04700
C  6.23800 -3.37900 46.35600
C  5.24200 -2.59400 45.76100
C  6.16300 -5.46800 47.90100
C  7.51300 -2.81900 46.13800
O  8.63800 -3.26400 46.45000
C  7.23000 -1.64300 45.13200
C  7.75100 -0.35200 45.68100
O  7.43800 0.12000 46.77300
O  8.44300 0.21600 44.66700
C  8.79700 1.63100 44.92600
H  1.43700 1.26900 42.77200
H  -2.07500 -3.62200 45.22900
H  3.26100 -5.59200 48.09000
H  6.21400 0.86500 43.61800
H  3.74900 1.10600 41.85200
H  4.99000 2.89600 43.81500
H  3.28500 2.78300 44.12300
H  3.87300 3.06600 42.40900
H  5.31500 -0.04900 40.93000
H  5.81600 -1.40000 41.88300
H  7.95500 -0.86800 41.67300
H  7.63900 0.91900 41.84600
H  -2.21100 0.65800 41.69500
H  -0.62100 1.20900 41.75900
H  -1.84300 1.83100 42.94600
H  -3.34100 -2.27900 45.73100
H  -4.15100 -2.85700 44.20600
H  -4.91000 -1.47600 45.17500
H  -1.10100 -6.09600 46.28200
H  0.58400 -5.13300 48.62400
H  -2.91400 -5.58800 47.35500
H  -2.09100 -3.92900 47.71000
H  -2.01800 -5.29700 48.81600
H  1.42900 -7.58600 46.85500
H  0.07000 -7.92100 47.65500
H  1.03700 -8.36000 49.48400
H  1.70600 -6.73500 49.61400
H  2.60700 -8.06900 48.75200
H  6.25300 -6.42200 47.38300
H  5.58900 -5.58600 48.82000
H  7.22100 -5.24900 48.04200
H  7.84000 -1.86100 44.25500
H  9.64700 1.63500 45.60900
H  7.90700 2.11700 45.32400
H  9.02800 2.09200 43.96500
Mg 46.83700 25.35000 28.86000
C  47.58700 27.80600 31.25400
C  45.81000 23.26600 31.41500
C  46.38500 22.80900 26.71200
C  48.37600 27.36800 26.46500
N  46.47600 25.62600 31.07000
C  46.95900 26.63300 31.82400
C  46.70600 26.36600 33.29400
C  46.20000 24.86800 33.31000
C  46.24400 24.52400 31.84000
C  47.02800 24.00900 34.38100
C  45.53600 27.35400 33.82300
C  46.00100 28.10200 35.10900
H  46.49500 27.32800 36.36000
N  45.94400 23.38700 29.03000
C  45.60800 22.69800 30.14100
C  45.19300 21.37900 29.80200
C  45.27800 21.26700 28.39600
C  45.85100 22.52100 27.97800
C  44.44000 20.45500 30.74900
C  44.77500 20.17600 27.47100
O  44.66500 20.35400 26.27300
C  44.21000 18.84900 28.00700
N  47.39600 25.11700 26.95400
C  47.06400 23.96600 26.26400
C  47.52300 24.10100 24.84100
C  47.92000 25.64800 24.62300
C  47.87100 26.09400 26.11700
C  48.62400 23.17500 24.55100
C  46.88000 26.47900 23.83600
C  47.50500 27.57100 22.99600
N  47.78100 27.19800 28.72200
C  48.34600 27.89000 27.73000
C  48.86600 29.12200 28.16100
C  48.61400 29.09000 29.56400
C  47.93100 27.96900 29.88200
C  49.43900 30.12400 27.31300
C  48.69200 29.94300 30.77300
O  49.13900 31.06100 30.88500
C  48.22900 29.02100 31.96600
C  49.40600 28.68600 32.84600
O  50.53500 28.50800 32.39400
O  49.08200 28.68300 34.19000
C  50.27200 28.75300 35.07700
H  45.56800 22.62600 32.26600
H  46.23300 22.06900 25.92300
H  48.83600 27.99100 25.69500
H  47.59500 26.48600 33.91300
H  45.15700 24.67600 33.56300
H  46.44700 23.13300 34.67200
H  47.41900 24.58300 35.22100
H  47.86900 23.66300 33.78200
H  44.53600 26.93400 33.92600
H  45.40100 28.12300 33.06200
H  45.06800 28.49400 35.51300
H  46.66900 28.95300 34.96900
H  44.95400 19.49400 30.72300
H  43.44300 20.26300 30.35200
H  44.46800 20.77100 31.79100
H  44.75100 18.40700 28.84400
H  44.24300 18.13700 27.18200
H  43.19800 18.86200 28.41200
H  46.71200 23.90900 24.13800
H  48.98800 25.77400 24.44600
H  48.66700 23.24200 23.46400
H  48.41600 22.18400 24.95600
H  49.54700 23.52200 25.01600
H  46.18400 26.91600 24.55200
H  46.42900 25.80800 23.10500
H  48.58300 27.52600 22.84300
H  47.27400 28.56600 23.37600
H  47.08400 27.53700 21.99100
H  49.50900 30.99500 27.96500
H  48.81300 30.20100 26.42400
H  50.48100 29.89100 27.09000
H  47.42800 29.46400 32.55800
H  50.91000 27.91400 34.79900
H  49.84800 28.52400 36.05500
H  50.73900 29.72700 35.22200

