158

Mg 53.52600 23.33800 45.29700
C  51.02000 25.49900 44.30600
C  51.61700 20.70200 44.20900
C  56.39000 21.27800 45.13200
C  55.65200 26.02500 46.06700
N  51.50700 23.11700 44.22700
C  50.69900 24.15700 44.08200
C  49.34500 23.59600 43.53600
C  49.41400 22.12800 44.05800
C  50.94200 21.91400 44.21600
C  48.62400 21.82500 45.38700
C  49.41000 23.65400 41.94800
C  48.07400 24.02700 41.28500
H  47.95400 23.76100 39.73700
N  53.87500 21.26800 44.86700
C  52.93300 20.41400 44.42100
C  53.50900 19.10200 44.41100
C  54.93700 19.17400 44.77400
C  55.13700 20.58900 44.91700
C  52.66600 17.84400 43.94200
C  55.84000 17.99000 45.08900
O  55.41100 16.91500 44.75900
C  57.18400 18.07900 45.80600
N  55.84400 23.59800 45.53700
C  56.74500 22.64100 45.52000
C  58.14500 23.18000 45.83700
C  57.88200 24.72500 46.17100
C  56.40000 24.80800 45.82800
C  58.77700 22.32400 46.98900
C  58.78700 25.73700 45.39700
C  59.47700 26.80500 46.31000
N  53.41900 25.34900 45.29800
C  54.24700 26.32600 45.77000
C  53.56700 27.66200 45.74300
C  52.31100 27.37600 45.13900
C  52.25700 25.92600 44.87700
C  54.09500 28.96200 46.24200
C  51.08100 27.95900 44.69900
O  50.63300 29.11100 44.71500
C  50.16500 26.77100 44.11200
C  49.87900 27.03600 42.64800
O  50.82200 27.20200 41.87000
O  48.58700 27.19600 42.42400
C  48.20600 27.84400 41.14600
H  50.85600 19.92300 44.13200
H  57.29400 20.67500 45.03100
H  56.35200 26.82500 46.31800
H  48.48600 24.13600 43.93400
H  48.93200 21.41700 43.38700
H  48.21600 22.72800 45.84100
H  49.31500 21.34900 46.08200
H  47.86400 21.06600 45.19900
H  49.69400 22.68900 41.52900
H  50.12300 24.34300 41.49400
H  47.87600 25.07100 41.52700
H  47.23400 23.49500 41.73200
H  52.20000 17.39500 44.81900
H  53.30300 17.04000 43.57500
H  51.86000 18.06300 43.24100
H  56.93100 18.62300 46.71600
H  57.99400 18.56500 45.26300
H  57.44900 17.04900 46.04500
H  58.66500 23.06800 44.88600
H  57.99000 24.78600 47.25400
H  59.40300 22.96700 47.60800
H  59.32700 21.49700 46.53800
H  57.97400 21.88200 47.57900
H  58.29500 26.36900 44.65900
H  59.60200 25.33600 44.79400
H  58.67300 27.51700 46.50000
H  60.34800 27.35100 45.94700
H  59.90900 26.29700 47.17100
H  55.11900 28.71500 46.52200
H  53.60900 29.33500 47.14300
H  53.97900 29.78600 45.53700
H  49.25100 26.83700 44.70300
H  49.03200 27.88600 40.43500
H  47.92400 28.85500 41.44000
H  47.31200 27.40200 40.70700
Mg 26.66600 49.83400 26.00700
C  24.61000 51.36000 28.41200
C  28.84700 48.98400 28.49100
C  28.95400 48.86900 23.59100
C  24.57900 51.03200 23.56500
N  26.70800 50.13000 28.14000
C  25.72400 50.69900 28.93500
C  25.94400 50.39000 30.45500
C  27.39800 49.79100 30.50600
C  27.69700 49.63000 28.98100
C  28.55500 50.55900 31.30700
C  24.81500 49.46600 31.01000
C  23.84000 50.10000 32.14100
H  23.63200 49.20500 33.29900
N  28.64900 49.00000 26.02700
C  29.34300 48.66600 27.20400
C  30.61000 48.07600 26.80200
C  30.70800 48.19700 25.39600
C  29.39200 48.66200 24.92300
C  31.62800 47.55600 27.79900
C  31.84200 47.71600 24.47100
O  31.84300 47.81900 23.25400
C  33.13200 47.15700 25.12400
N  26.76300 49.98600 23.97300
C  27.75900 49.51200 23.17900
C  27.51800 49.73700 21.67300
C  26.07200 50.31600 21.68200
C  25.76000 50.39000 23.16600
C  28.57000 50.55400 20.94100
C  25.00600 49.47700 20.88200
C  24.49600 48.15600 21.44500
N  24.94000 51.01500 25.98400
C  24.16800 51.27800 24.90300
C  23.02800 52.06700 25.39000
C  23.14300 52.05100 26.84800
C  24.30800 51.42000 27.09200
C  21.92500 52.67300 24.62200
C  22.60100 52.58100 28.07300
O  21.55400 53.20900 28.33500
C  23.38300 51.92100 29.18500
C  23.77800 52.96800 30.19900
O  24.85800 53.53200 30.30800
O  22.70300 53.26800 30.98200
C  22.99000 54.09800 32.12400
H  29.46200 48.62200 29.31800
H  29.66900 48.50400 22.85000
H  23.93800 51.38000 22.75200
H  26.05800 51.28400 31.06900
H  27.35200 48.89000 31.11800
H  29.11900 49.83200 31.89100
H  28.14000 51.26000 32.03200
H  29.25000 51.05800 30.63300
H  25.14700 48.49500 31.37700
H  24.17100 49.21900 30.16600
H  22.84900 50.32300 31.74600
H  24.24300 51.07400 32.41800
H  31.72500 46.54200 27.41000
H  31.23000 47.51700 28.81300
H  32.57500 48.08600 27.69900
H  33.77000 46.82700 24.30400
H  32.98600 46.30400 25.78600
H  33.63900 47.99900 25.59500
H  27.57600 48.74600 21.22200
H  26.04200 51.36700 21.39600
H  28.12400 51.52000 20.70300
H  29.07500 50.07500 20.10300
H  29.39500 50.77800 21.61800
H  25.52200 49.20900 19.96000
H  24.22300 50.15400 20.54200
H  24.45700 47.32300 20.74300
H  23.48800 48.35900 21.80600
H  25.08300 47.80500 22.29400
H  21.82700 52.32800 23.59300
H  22.23200 53.70600 24.45900
H  20.97600 52.74000 25.15300
H  22.73200 51.19700 29.67400
H  22.91000 55.15400 31.86700
H  24.00800 53.98800 32.49700
H  22.26600 53.93100 32.92200

