158

Mg 53.72800 24.48900 44.58700
C  51.15500 26.95700 43.96000
C  51.62600 22.20900 43.08400
C  56.26800 22.56900 44.26900
C  55.83600 27.25800 45.37700
N  51.63400 24.63200 43.61400
C  50.76100 25.65400 43.56600
C  49.36400 25.16500 43.19100
C  49.47800 23.61300 43.13800
C  51.03400 23.44900 43.29800
C  48.66400 22.93800 44.24000
C  48.91000 25.82700 41.77900
C  49.90400 25.67600 40.63600
H  49.39700 25.44200 39.24900
N  53.90900 22.58000 43.97000
C  52.96000 21.80200 43.36700
C  53.54300 20.46300 43.09800
C  54.86100 20.50100 43.61900
C  55.05500 21.89200 44.02100
C  52.85700 19.26600 42.35800
C  55.75100 19.31700 43.69900
O  55.30400 18.16100 43.41400
C  57.12300 19.44600 44.33900
N  55.79700 24.94400 44.66900
C  56.63400 23.87700 44.57500
C  58.05700 24.26200 44.68700
C  57.99200 25.69200 45.34000
C  56.48000 25.97400 45.16100
C  58.96600 23.26100 45.49200
C  58.82600 26.78500 44.64500
C  59.43500 27.82100 45.66700
N  53.54800 26.66400 44.72100
C  54.46700 27.59900 45.18000
C  53.78700 28.82900 45.46900
C  52.45500 28.62300 44.99600
C  52.39000 27.33100 44.46700
C  54.33500 30.00400 46.09200
C  51.19900 29.22700 44.93200
O  50.90400 30.37000 45.35500
C  50.26800 28.21200 44.08600
C  49.90600 28.86800 42.79000
O  50.59200 28.75500 41.75900
O  48.75500 29.57800 42.86300
C  48.15200 30.03200 41.63800
H  51.01000 21.36300 42.77300
H  57.16600 22.02400 43.97300
H  56.41700 28.08700 45.78700
H  48.67500 25.60500 43.91200
H  49.16100 23.21400 42.17400
H  49.23700 22.44200 45.02300
H  47.95000 22.21300 43.85000
H  48.09500 23.71200 44.75500
H  48.50300 26.81500 41.99000
H  48.02400 25.26500 41.48300
H  50.58800 24.88400 40.94100
H  50.54200 26.56000 40.62000
H  53.55200 18.61900 41.82200
H  52.06100 19.63700 41.71400
H  52.34300 18.68200 43.12100
H  57.57600 18.46600 44.49100
H  56.98100 20.00600 45.26300
H  57.72700 20.12800 43.74200
H  58.53900 24.22600 43.71000
H  58.05100 25.67500 46.42900
H  58.31700 22.47700 45.87900
H  59.56700 23.77000 46.24600
H  59.60500 22.72500 44.79000
H  58.20400 27.42600 44.02000
H  59.58300 26.36400 43.98200
H  60.51600 27.74100 45.78200
H  59.03900 27.85500 46.68200
H  59.13000 28.79700 45.28900
H  53.49700 30.59700 46.45900
H  54.84000 30.60700 45.33800
H  54.93700 29.74200 46.96200
H  49.41100 27.93000 44.69800
H  47.06900 29.93200 41.70800
H  48.55800 29.43700 40.82000
H  48.25600 31.11200 41.53600
Mg -12.37900 17.03100 42.24100
C  -9.24900 15.36700 42.08400
C  -10.73200 19.77000 40.90700
C  -15.34200 18.07300 41.42700
C  -13.73400 13.99100 43.46500
N  -10.20600 17.48000 41.58600
C  -9.09400 16.66000 41.53100
C  -7.80300 17.40600 41.15700
C  -8.36200 18.89700 41.11500
C  -9.86100 18.78800 41.15500
C  -7.80800 19.72600 42.22900
C  -7.23100 16.88600 39.84400
C  -5.72900 16.63700 39.86000
H  -5.25100 15.34600 39.18700
N  -12.95500 18.77600 41.39200
C  -12.12600 19.79500 40.97100
C  -13.05300 20.79200 40.36500
C  -14.36400 20.42200 40.58800
C  -14.30500 19.06600 41.21700
C  -12.59200 22.06700 39.55500
C  -15.58100 21.10400 40.08000
O  -15.54800 22.21800 39.49200
C  -16.93900 20.59000 40.37000
N  -14.21800 16.20300 42.54500
C  -15.34500 16.87700 42.14000
C  -16.64400 16.21300 42.58900
C  -16.16100 14.82300 43.17500
C  -14.58600 15.01600 43.05100
C  -17.46900 17.01100 43.56800
C  -16.66800 13.55200 42.47600
C  -17.67100 12.60800 43.20200
N  -11.69700 15.14600 42.70700
C  -12.33500 14.03800 43.25300
C  -11.34200 13.00700 43.61500
C  -10.15800 13.53700 43.18800
C  -10.42200 14.79100 42.61600
C  -11.63800 11.61600 44.17100
C  -8.81800 13.25000 43.09400
O  -8.18500 12.25400 43.45300
C  -8.16100 14.38300 42.36900
C  -7.08100 14.96300 43.31700
O  -7.41800 15.52800 44.31800
O  -5.86900 14.82300 42.81100
C  -4.77000 15.41400 43.65300
H  -10.29000 20.69500 40.53200
H  -16.33000 18.26200 41.00100
H  -14.07800 13.04900 43.89800
H  -7.00600 17.19500 41.87000
H  -8.14300 19.52200 40.24900
H  -7.35100 19.11200 43.00500
H  -8.65900 20.16100 42.75300
H  -7.13900 20.50100 41.85300
H  -7.41000 17.59800 39.03900
H  -7.76900 15.97100 39.59400
H  -5.36000 16.57900 40.88300
H  -5.31400 17.50900 39.35500
H  -13.04500 22.10700 38.56400
H  -11.50600 22.06600 39.46100
H  -12.76500 22.99200 40.10500
H  -17.73300 21.33600 40.33200
H  -16.80200 20.32100 41.41700
H  -17.13500 19.78600 39.66000
H  -17.23500 15.99000 41.70100
H  -16.39400 14.72300 44.23500
H  -17.55600 16.58500 44.56700
H  -18.43800 17.11700 43.07900
H  -17.05800 18.01200 43.70100
H  -15.75700 12.98700 42.27900
H  -17.10800 13.86500 41.53000
H  -17.14900 11.65600 43.28900
H  -18.51800 12.55300 42.51800
H  -17.84000 13.11700 44.15200
H  -11.96900 11.80400 45.19300
H  -10.71200 11.04200 44.14100
H  -12.41800 11.04600 43.66700
H  -7.74500 13.93100 41.46900
H  -5.16000 15.73300 44.62000
H  -4.34100 16.29200 43.17100
H  -3.96400 14.68500 43.73800

