158

Mg 25.30900 1.06900 30.40300
C  27.23500 1.06700 33.25800
C  22.46000 1.49500 32.34000
C  23.36000 1.10600 27.59300
C  28.00200 0.56800 28.47600
N  24.86600 1.27500 32.57200
C  25.88500 1.38800 33.48200
C  25.27600 1.77800 34.90700
C  23.73400 1.78800 34.59800
C  23.65400 1.48200 33.14400
C  22.83200 0.99500 35.62000
C  25.93000 3.08800 35.57600
C  26.56600 2.90000 36.94400
H  26.35900 4.00800 37.98500
N  23.25400 1.18300 30.08700
C  22.27000 1.38300 30.99600
C  21.02000 1.49500 30.32000
C  21.26100 1.47100 28.99000
C  22.68900 1.32100 28.83500
C  19.70800 1.62500 31.07700
C  20.26100 1.50400 27.83800
O  20.52500 1.34200 26.65100
C  18.81800 2.00700 28.12200
N  25.61500 0.90600 28.32600
C  24.71000 0.89800 27.35700
C  25.34200 0.77300 25.95700
C  26.86500 0.84400 26.30000
C  26.85400 0.73600 27.79000
C  24.86900 -0.59800 25.25500
C  27.63700 2.08400 25.72700
C  26.99600 3.40100 26.05300
N  27.26500 0.87300 30.72500
C  28.27600 0.59200 29.85200
C  29.53700 0.47400 30.60800
C  29.13700 0.68000 31.94000
C  27.75500 0.91300 31.96000
C  30.87000 0.19300 30.11200
C  29.68700 0.79500 33.27800
O  30.84300 0.72900 33.70700
C  28.45100 1.03600 34.23400
C  28.42400 -0.10700 35.17200
O  27.91300 -1.19000 34.93100
O  28.95000 0.25900 36.42500
C  28.77400 -0.65700 37.50000
H  21.55100 1.73500 32.89500
H  22.83200 1.22700 26.64500
H  28.87800 0.46000 27.83400
H  25.40400 1.06900 35.72400
H  23.43500 2.83400 34.53300
H  21.82000 1.38800 35.72400
H  23.32600 0.95400 36.59100
H  22.57600 0.00600 35.24000
H  25.10400 3.79700 35.50700
H  26.70200 3.37600 34.86200
H  27.63400 2.97000 36.73900
H  26.34700 1.91300 37.35100
H  19.02600 0.81700 30.81000
H  19.38700 2.64000 30.84500
H  19.82900 1.48800 32.15200
H  18.36400 1.91300 27.13500
H  18.80700 2.99400 28.58300
H  18.22100 1.32000 28.72100
H  25.09300 1.66400 25.38100
H  27.35700 -0.00800 25.83100
H  23.96100 -1.00900 25.69700
H  25.62900 -1.37900 25.28100
H  24.68400 -0.52200 24.18400
H  27.76100 2.02800 24.64500
H  28.58400 2.16500 26.26000
H  26.79500 3.91500 25.11300
H  27.63500 4.09700 26.59600
H  26.05600 3.42300 26.60600
H  30.86200 -0.88200 29.93200
H  31.55700 0.66800 30.81300
H  31.04300 0.70600 29.16700
H  28.61300 1.96200 34.78700
H  27.95700 -0.38000 38.16500
H  29.66200 -0.67600 38.13200
H  28.61400 -1.67600 37.14600
Mg 53.97500 24.21200 45.40400
C  51.36500 26.46500 44.38800
C  51.96600 21.69500 44.05400
C  56.74100 22.42800 45.01300
C  55.77600 26.97000 46.45900
N  51.81500 24.14000 44.43800
C  51.04500 25.14000 44.06900
C  49.68300 24.55100 43.46500
C  49.77500 23.10300 44.03600
C  51.30600 22.96200 44.13300
C  49.07100 22.94800 45.45600
C  49.62000 24.68300 41.90800
C  51.00900 24.60600 41.15900
H  51.80600 23.27200 41.06500
N  54.34700 22.24400 44.65600
C  53.33000 21.40300 44.26500
C  53.99800 20.22300 43.98900
C  55.40800 20.36600 44.14900
C  55.56600 21.68700 44.60000
C  53.32000 19.00400 43.45900
C  56.41900 19.28200 43.97100
O  56.02800 18.18000 43.72400
C  57.91500 19.49900 44.08100
N  56.01500 24.77300 45.36100
C  56.97600 23.80300 45.39100
C  58.30700 24.22900 45.88800
C  57.98900 25.66300 46.34200
C  56.51500 25.78200 46.05900
C  58.83800 23.26700 46.99200
C  58.85300 26.79500 45.79800
C  59.91500 27.40900 46.77300
N  53.57200 26.31000 45.60300
C  54.40700 27.25800 46.13900
C  53.72200 28.52900 46.17300
C  52.53400 28.27400 45.42900
C  52.54300 26.90200 45.00700
C  54.19500 29.87600 46.66400
C  51.32400 28.84600 44.88700
O  50.85400 29.92500 44.98000
C  50.64300 27.73700 44.06100
C  50.62400 28.06200 42.55700
O  51.64300 28.20300 41.91000
O  49.38700 28.33900 42.10500
C  49.18700 28.48700 40.61300
H  51.37100 20.90900 43.58400
H  57.64900 21.82200 44.99400
H  56.34400 27.83100 46.81900
H  49.08400 25.33300 43.93200
H  49.40000 22.35100 43.34100
H  49.77600 22.45000 46.12100
H  48.23800 22.27100 45.26500
H  48.63600 23.81700 45.95000
H  49.15900 25.64300 41.67200
H  48.99900 23.82800 41.64200
H  51.56600 25.49000 41.47000
H  50.71700 24.78400 40.12400
H  53.43800 18.95700 42.37700
H  52.28000 19.08600 43.77600
H  53.58700 18.07400 43.96200
H  58.35200 18.64100 43.57200
H  58.31300 19.61800 45.08900
H  58.15200 20.33400 43.42200
H  59.00100 24.18700 45.04800
H  58.06700 25.64700 47.42900
H  57.97300 23.05700 47.62100
H  59.57800 23.61300 47.71400
H  59.14600 22.24900 46.75400
H  58.27500 27.66400 45.48300
H  59.45000 26.45000 44.95400
H  60.85100 27.60800 46.25100
H  60.18800 26.73200 47.58300
H  59.44400 28.29000 47.20900
H  55.20900 29.85900 47.06300
H  53.48800 30.17500 47.43700
H  54.18300 30.63300 45.88000
H  49.61600 27.61200 44.40300
H  49.00500 27.49400 40.20200
H  50.13700 28.78800 40.17300
H  48.38400 29.20900 40.46800

