158

Mg 30.76200 58.94700 40.55800
C  27.68900 57.41400 39.67400
C  32.45100 56.26100 39.40200
C  33.54600 60.98900 40.42800
C  28.87600 61.98900 41.15900
N  30.09200 57.02400 39.74600
C  28.85600 56.63500 39.38300
C  28.95200 55.22400 38.75100
C  30.37700 54.71900 39.08100
C  31.05000 56.03800 39.47000
C  30.39600 53.75900 40.28100
C  28.69900 55.37600 37.21600
C  27.59500 54.56900 36.63900
H  26.80200 55.25500 35.57900
N  32.77400 58.60800 40.09300
C  33.25700 57.38100 39.71300
C  34.67300 57.47500 39.62700
C  35.08800 58.84500 39.97400
C  33.74900 59.55400 40.13900
C  35.55900 56.32000 39.22100
C  36.47200 59.35800 39.94300
O  37.42000 58.54200 39.79900
C  36.74800 60.78500 40.15000
N  31.12600 61.18100 40.71800
C  32.42400 61.71100 40.76600
C  32.43200 63.19000 40.91800
C  30.97300 63.42700 41.34400
C  30.22400 62.12500 41.04400
C  33.58800 63.68100 41.81100
C  30.27000 64.72300 40.84800
C  29.51700 65.53300 41.87200
N  28.77700 59.57100 40.52400
C  28.13900 60.76000 40.88400
C  26.72200 60.65200 40.68300
C  26.50900 59.36300 40.22400
C  27.78300 58.76800 40.12900
C  25.59700 61.73600 40.92500
C  25.48700 58.48900 39.83800
O  24.26500 58.65000 39.77000
C  26.21400 57.05400 39.49600
C  25.67000 55.92600 40.27200
O  25.44400 55.86900 41.46300
O  25.22000 54.87500 39.41500
C  25.16700 53.57900 40.09200
H  33.02700 55.39800 39.06000
H  34.46600 61.57800 40.42800
H  28.28700 62.87300 41.41200
H  28.11800 54.69700 39.21400
H  31.01700 54.32600 38.29100
H  29.41200 53.29700 40.36500
H  30.68600 54.25700 41.20600
H  31.16400 53.00000 40.12900
H  29.64200 55.13800 36.72300
H  28.64600 56.40800 36.86900
H  26.89800 54.47900 37.47200
H  27.95400 53.62700 36.22500
H  36.28300 56.17400 40.02200
H  36.12100 56.54200 38.31400
H  35.02500 55.37800 39.10000
H  36.27400 60.95600 41.11700
H  36.43500 61.42500 39.32500
H  37.83000 60.88500 40.22800
H  32.56400 63.63200 39.93000
H  30.82400 63.32600 42.41900
H  33.23500 64.08700 42.75900
H  33.87800 64.52500 41.18600
H  34.45000 63.06500 42.06900
H  29.43200 64.50400 40.18600
H  30.99900 65.42200 40.43900
H  28.90300 66.25600 41.33500
H  30.37500 65.97200 42.38300
H  28.93400 64.93800 42.57400
H  25.65500 62.52600 40.17700
H  25.77800 62.17200 41.90800
H  24.60800 61.27600 40.94900
H  26.08800 56.85700 38.43100
H  24.20700 53.72600 40.58600
H  25.94200 53.49700 40.85400
H  25.20500 52.71000 39.43500
Mg 36.28500 49.56600 24.83700
C  36.51800 47.85900 27.86400
C  35.22700 52.32000 26.46200
C  36.00100 51.05400 21.85000
C  37.43900 46.61700 23.19800
N  35.84200 49.98900 26.91200
C  36.14400 49.18100 27.99300
C  35.81600 49.93200 29.31100
C  35.47800 51.35900 28.87300
C  35.46000 51.23500 27.29800
C  34.16200 51.93600 29.45000
C  36.89600 49.92600 30.48500
C  36.42100 49.42600 31.83600
H  34.93400 49.38400 32.34600
N  35.68000 51.44900 24.21100
C  35.22600 52.47300 25.02900
C  34.90200 53.61500 24.20400
C  35.08400 53.22800 22.87200
C  35.57200 51.85600 22.92000
C  34.57500 55.04500 24.74700
C  34.79500 54.07700 21.59500
O  34.79000 53.65800 20.42600
C  34.61600 55.61000 21.69700
N  36.36600 48.83600 22.73400
C  36.33500 49.72300 21.76600
C  36.75000 49.12700 20.41700
C  37.32100 47.72100 20.78700
C  36.99200 47.70200 22.33900
C  35.55200 48.95500 19.43500
C  38.83900 47.48700 20.48900
C  39.92000 48.33500 21.25200
N  36.78300 47.59300 25.39800
C  37.26000 46.51800 24.62300
C  37.54400 45.39600 25.53800
C  37.22300 45.88000 26.81600
C  36.87500 47.21700 26.69400
C  38.09900 44.05500 25.24200
C  37.10200 45.56100 28.20500
O  37.31100 44.53400 28.82600
C  36.68900 46.81900 28.96600
C  35.36700 46.44300 29.69900
O  34.31000 46.47800 29.17400
O  35.69800 45.88700 30.91900
C  34.60100 45.41700 31.81000
H  34.80200 53.19000 26.96600
H  35.94000 51.56900 20.88900
H  37.82200 45.71800 22.71000
H  34.90400 49.46500 29.68200
H  36.36000 51.97100 29.06600
H  34.46500 52.39400 30.39100
H  33.47100 51.14000 29.72700
H  33.59200 52.61500 28.81600
H  37.29800 50.90100 30.76100
H  37.71100 49.25500 30.21400
H  36.99800 50.01800 32.54600
H  36.74600 48.39500 31.97100
H  33.67200 55.49200 24.32900
H  35.43200 55.71200 24.65500
H  34.19000 54.95900 25.76300
H  33.70300 55.69900 22.28600
H  34.39700 56.18500 20.79700
H  35.50800 55.98800 22.19600
H  37.47200 49.75100 19.89000
H  36.61400 46.99800 20.38100
H  34.79500 49.72300 19.59000
H  35.00400 48.02800 19.60300
H  35.90200 49.08200 18.41100
H  38.98700 47.50700 19.41000
H  38.96400 46.41700 20.65100
H  39.46900 48.72600 22.16400
H  40.23300 49.07700 20.51800
H  40.62400 47.58200 21.60700
H  38.23000 43.45900 26.14500
H  39.07500 44.19100 24.77600
H  37.63000 43.42600 24.48600
H  37.48100 47.17500 29.62400
H  34.62500 44.32800 31.75600
H  33.62200 45.72500 31.44400
H  34.75300 45.82100 32.81100

