158

Mg 36.28500 49.56600 24.83700
C  36.51800 47.85900 27.86400
C  35.22700 52.32000 26.46200
C  36.00100 51.05400 21.85000
C  37.43900 46.61700 23.19800
N  35.84200 49.98900 26.91200
C  36.14400 49.18100 27.99300
C  35.81600 49.93200 29.31100
C  35.47800 51.35900 28.87300
C  35.46000 51.23500 27.29800
C  34.16200 51.93600 29.45000
C  36.89600 49.92600 30.48500
C  36.42100 49.42600 31.83600
H  34.93400 49.38400 32.34600
N  35.68000 51.44900 24.21100
C  35.22600 52.47300 25.02900
C  34.90200 53.61500 24.20400
C  35.08400 53.22800 22.87200
C  35.57200 51.85600 22.92000
C  34.57500 55.04500 24.74700
C  34.79500 54.07700 21.59500
O  34.79000 53.65800 20.42600
C  34.61600 55.61000 21.69700
N  36.36600 48.83600 22.73400
C  36.33500 49.72300 21.76600
C  36.75000 49.12700 20.41700
C  37.32100 47.72100 20.78700
C  36.99200 47.70200 22.33900
C  35.55200 48.95500 19.43500
C  38.83900 47.48700 20.48900
C  39.92000 48.33500 21.25200
N  36.78300 47.59300 25.39800
C  37.26000 46.51800 24.62300
C  37.54400 45.39600 25.53800
C  37.22300 45.88000 26.81600
C  36.87500 47.21700 26.69400
C  38.09900 44.05500 25.24200
C  37.10200 45.56100 28.20500
O  37.31100 44.53400 28.82600
C  36.68900 46.81900 28.96600
C  35.36700 46.44300 29.69900
O  34.31000 46.47800 29.17400
O  35.69800 45.88700 30.91900
C  34.60100 45.41700 31.81000
H  34.80200 53.19000 26.96600
H  35.94000 51.56900 20.88900
H  37.82200 45.71800 22.71000
H  34.90400 49.46500 29.68200
H  36.36000 51.97100 29.06600
H  34.46500 52.39400 30.39100
H  33.47100 51.14000 29.72700
H  33.59200 52.61500 28.81600
H  37.29800 50.90100 30.76100
H  37.71100 49.25500 30.21400
H  36.99800 50.01800 32.54600
H  36.74600 48.39500 31.97100
H  33.67200 55.49200 24.32900
H  35.43200 55.71200 24.65500
H  34.19000 54.95900 25.76300
H  33.70300 55.69900 22.28600
H  34.39700 56.18500 20.79700
H  35.50800 55.98800 22.19600
H  37.47200 49.75100 19.89000
H  36.61400 46.99800 20.38100
H  34.79500 49.72300 19.59000
H  35.00400 48.02800 19.60300
H  35.90200 49.08200 18.41100
H  38.98700 47.50700 19.41000
H  38.96400 46.41700 20.65100
H  39.46900 48.72600 22.16400
H  40.23300 49.07700 20.51800
H  40.62400 47.58200 21.60700
H  38.23000 43.45900 26.14500
H  39.07500 44.19100 24.77600
H  37.63000 43.42600 24.48600
H  37.48100 47.17500 29.62400
H  34.62500 44.32800 31.75600
H  33.62200 45.72500 31.44400
H  34.75300 45.82100 32.81100
Mg 26.47200 51.17500 26.88800
C  24.20100 52.22800 29.37700
C  28.55800 50.11400 29.45200
C  28.69400 49.91700 24.63400
C  24.35100 52.19700 24.42700
N  26.33400 51.19700 29.19100
C  25.26600 51.55800 29.96200
C  25.50100 51.32500 31.46700
C  26.99300 50.74900 31.43200
C  27.37400 50.77600 29.96500
C  27.90500 51.35800 32.49300
C  24.46400 50.43000 32.24300
C  23.94200 51.01900 33.62500
H  25.02000 51.55900 34.67200
N  28.39300 50.18100 27.01800
C  29.05100 49.89000 28.18500
C  30.34000 49.31700 27.86500
C  30.42900 49.21600 26.39100
C  29.07800 49.69100 25.92300
C  31.40600 49.04500 28.89500
C  31.56700 48.73900 25.43400
O  31.58400 48.83800 24.21500
C  32.82400 48.08300 26.12600
N  26.49500 50.99700 24.76900
C  27.57300 50.48000 24.11900
C  27.27300 50.49900 22.59300
C  25.79700 51.07600 22.57800
C  25.49500 51.48300 24.00200
C  28.27900 51.49600 21.79900
C  24.65000 50.07300 22.00200
C  24.11800 50.55700 20.67600
N  24.79000 52.15700 26.86500
C  24.01300 52.55300 25.80300
C  22.79400 53.29600 26.23100
C  22.88600 53.18000 27.64600
C  24.05800 52.43100 28.00000
C  21.74500 54.04600 25.46800
C  22.28700 53.59300 28.90800
O  21.34200 54.35100 29.14900
C  23.08400 52.97800 30.09800
C  23.49200 54.04800 31.09000
O  24.17600 55.03100 30.88600
O  22.86100 53.81900 32.30500
C  23.01000 54.77800 33.41600
H  29.23500 49.71700 30.21100
H  29.27500 49.37200 23.88700
H  23.62300 52.45300 23.65400
H  25.43300 52.30900 31.93100
H  26.97600 49.66100 31.50000
H  28.72800 51.80700 31.93800
H  28.31700 50.69500 33.25300
H  27.41600 52.18100 33.01400
H  24.89600 49.44300 32.40800
H  23.59900 50.30200 31.59200
H  23.26000 50.33800 34.13400
H  23.31900 51.81900 33.22600
H  31.04300 49.42600 29.85000
H  32.36000 49.45000 28.55800
H  31.49400 47.96400 29.00800
H  33.39900 47.52800 25.38300
H  32.57600 47.43500 26.96700
H  33.59600 48.78500 26.44200
H  27.32000 49.41900 22.45000
H  25.72700 52.03100 22.05700
H  28.58000 51.00600 20.87200
H  29.07500 51.87100 22.44200
H  27.79900 52.46000 21.63300
H  23.83700 49.93400 22.71500
H  25.13400 49.09900 21.92100
H  24.50000 51.51400 20.32100
H  23.05200 50.68900 20.86300
H  24.26300 49.84400 19.86500
H  22.13200 54.14500 24.45400
H  21.45600 54.97200 25.96500
H  20.95700 53.29400 25.42700
H  22.40300 52.32600 30.64400
H  21.94200 54.97600 33.51500
H  23.56400 55.70100 33.24800
H  23.31400 54.44600 34.40900

