158

Mg 40.60900 9.78600 29.85000
C  42.75400 11.09800 32.60900
C  38.26000 9.02400 32.17800
C  39.07600 8.06000 27.51000
C  43.49400 10.06700 27.92700
N  40.56700 9.98100 32.16400
C  41.44100 10.68500 33.02200
C  40.86000 10.73200 34.43500
C  39.45800 10.00300 34.30500
C  39.36200 9.69500 32.80100
C  39.25500 8.74300 35.22700
C  40.75200 12.20500 35.04200
C  39.80000 12.20600 36.31400
H  40.22300 13.12900 37.45400
N  38.85000 8.76200 29.84500
C  38.05300 8.51500 30.88900
C  36.98000 7.64900 30.43600
C  37.18800 7.45500 29.06400
C  38.39300 8.11100 28.73900
C  35.93000 7.17600 31.41200
C  36.30000 6.76200 28.13100
O  36.46900 6.71500 26.92100
C  35.09700 6.03400 28.72600
N  41.16600 9.24000 27.93400
C  40.27000 8.60700 27.09100
C  40.83700 8.48100 25.64900
C  42.14000 9.40800 25.79300
C  42.33800 9.60300 27.31700
C  40.98100 6.98800 25.17000
C  42.23000 10.80300 25.12800
C  40.92900 11.70800 25.23500
N  42.68500 10.43200 30.12200
C  43.68600 10.51700 29.24400
C  44.87200 11.12800 29.78100
C  44.54500 11.37100 31.08800
C  43.18200 10.99400 31.24000
C  46.15100 11.36500 29.09800
C  45.03200 11.97500 32.27800
O  46.06900 12.54300 32.40800
C  43.84100 11.82000 33.33000
C  44.31400 11.09200 34.50400
O  44.78000 9.94100 34.53200
O  44.13100 11.92300 35.58900
C  44.25400 11.40300 36.92700
H  37.50200 8.68600 32.88800
H  38.70400 7.46300 26.67500
H  44.37800 10.28500 27.32300
H  41.50800 10.07400 35.01500
H  38.70000 10.75200 34.53500
H  38.98200 7.87300 34.63000
H  38.43300 8.96900 35.90600
H  40.19500 8.52400 35.73300
H  40.33700 12.95200 34.36600
H  41.73500 12.57600 35.33300
H  39.74500 11.21800 36.77100
H  38.80700 12.57600 36.06100
H  34.95200 7.65600 31.43600
H  36.33400 7.11500 32.42300
H  35.87600 6.10500 31.21600
H  35.35300 5.07800 29.18200
H  34.45500 5.71300 27.90600
H  34.61900 6.68500 29.45800
H  40.17100 9.06600 25.01500
H  43.05900 8.88900 25.52100
H  42.05100 6.78500 25.22500
H  40.59600 6.98400 24.15100
H  40.40000 6.29000 25.77300
H  42.54600 10.73900 24.08700
H  42.97700 11.35900 25.69500
H  41.05100 12.57200 25.88900
H  40.20500 11.14200 25.82100
H  40.61700 11.95100 24.22000
H  46.06800 12.06400 28.26700
H  46.44700 10.45500 28.57500
H  46.91600 11.62100 29.83200
H  43.53100 12.80400 33.68300
H  43.28400 10.92000 37.04000
H  44.34200 12.16100 37.70500
H  45.12300 10.76200 37.07400
Mg 16.68600 51.58700 26.81000
C  18.72100 49.62900 28.92900
C  14.52100 51.94100 29.37700
C  14.72600 52.99800 24.60900
C  18.97100 50.54700 24.20000
N  16.75900 51.06600 28.92900
C  17.71600 50.28900 29.55400
C  17.47800 50.29100 31.09100
C  15.94300 50.73400 31.14600
C  15.66500 51.27000 29.70800
C  15.01200 49.68800 31.77900
C  18.47100 51.28400 31.76400
C  18.77000 50.97200 33.20200
H  17.84700 51.49300 34.19200
N  14.88300 52.45300 27.04000
C  14.20600 52.59200 28.14600
C  13.06100 53.38600 27.92300
C  13.02400 53.59300 26.46000
C  14.24600 53.03600 25.98200
C  12.01800 53.77600 29.04500
C  11.97600 54.20500 25.54500
O  12.08900 54.26000 24.33400
C  10.77300 54.79300 26.11800
N  16.87700 51.77100 24.71700
C  15.87000 52.43200 24.06600
C  16.26300 52.51300 22.57800
C  17.65200 51.85700 22.50600
C  17.84900 51.36800 23.95000
C  15.12400 51.98600 21.68900
C  18.87900 52.84800 22.18400
C  19.60800 52.52200 20.87400
N  18.45700 50.37700 26.51400
C  19.27500 50.05300 25.45800
C  20.34400 49.23200 25.85700
C  20.18400 49.03800 27.19900
C  19.00300 49.81000 27.57800
C  21.46100 48.65200 24.94600
C  20.74100 48.35400 28.33800
O  21.65900 47.57400 28.37700
C  19.84100 48.89700 29.55900
C  19.51900 47.79400 30.43800
O  18.77200 46.88600 30.18800
O  20.16200 47.94700 31.64700
C  19.78700 46.97700 32.72100
H  13.93900 52.16400 30.27400
H  14.09600 53.48500 23.86200
H  19.60600 50.40600 23.32300
H  17.57700 49.30200 31.53800
H  15.82800 51.60900 31.78600
H  14.01300 50.04500 32.03000
H  15.48000 49.35800 32.70700
H  14.99100 48.85100 31.08200
H  18.02800 52.28000 31.79900
H  19.46300 51.31100 31.31500
H  19.79400 51.24200 33.45900
H  18.86400 49.91400 33.44700
H  11.71000 54.80800 28.87500
H  12.59900 53.82600 29.96600
H  11.13600 53.13600 29.08400
H  10.32000 54.02200 26.74300
H  10.15500 55.11600 25.28000
H  10.99700 55.64400 26.76100
H  16.39600 53.59400 22.63000
H  17.69000 50.98500 21.85400
H  14.43000 52.80100 21.48200
H  14.57200 51.14500 22.11100
H  15.54900 51.58100 20.77100
H  19.59900 52.94800 22.99700
H  18.43100 53.83900 22.11100
H  19.34400 51.54200 20.47700
H  20.68900 52.49300 21.00900
H  19.34900 53.31800 20.17600
H  21.63300 49.48500 24.26400
H  21.18100 47.75800 24.38900
H  22.34300 48.51300 25.57300
H  20.50300 49.62700 30.02300
H  19.83000 47.51200 33.67000
H  20.48200 46.13900 32.78000
H  18.81300 46.49600 32.63300

