158

Mg 35.06900 2.99500 29.88000
C  32.86200 4.28400 32.36500
C  37.31300 2.58600 32.13800
C  37.04900 1.88400 27.40700
C  32.43700 3.45600 27.59100
N  34.99400 3.40800 32.04800
C  34.03500 3.92800 32.88600
C  34.55200 3.76500 34.35800
C  36.07100 3.45100 34.24000
C  36.14500 3.12200 32.73400
C  37.11000 4.55800 34.52600
C  33.73300 2.69100 35.10000
C  33.30800 3.05800 36.54500
H  33.87200 4.25600 37.19500
N  36.90700 2.29300 29.75200
C  37.74500 2.19600 30.85500
C  38.90800 1.56800 30.51500
C  38.89400 1.35700 29.09900
C  37.59400 1.83900 28.69000
C  40.08100 1.22600 31.43300
C  39.98200 0.68000 28.28900
O  39.87200 0.51400 27.08200
C  41.28700 0.03300 28.92800
N  34.83100 2.83700 27.71700
C  35.82600 2.40800 26.89600
C  35.25500 2.32400 25.41800
C  33.71300 2.39500 25.64800
C  33.63000 2.95400 27.04100
C  35.75700 3.46700 24.45400
C  32.91900 1.05600 25.39900
C  33.10400 0.57600 23.94700
N  33.04200 3.75600 29.90300
C  32.08900 3.87500 28.83600
C  30.88000 4.40200 29.37300
C  31.11600 4.53600 30.76800
C  32.45300 4.15200 31.02300
C  29.55800 4.63900 28.59100
C  30.43100 4.90500 31.98800
O  29.33400 5.31700 32.28400
C  31.60300 4.73800 33.16100
C  31.54500 6.13800 33.75700
O  32.27400 7.07200 33.40700
O  30.72800 6.12300 34.88500
C  30.79100 7.22500 35.84200
H  38.17300 2.63800 32.80900
H  37.69000 1.56900 26.58100
H  31.65900 3.42300 26.82600
H  34.31800 4.73200 34.80300
H  36.28800 2.57600 34.85200
H  37.86400 4.13900 35.19300
H  36.54900 5.35600 35.01200
H  37.49500 4.95500 33.58600
H  34.27300 1.75000 35.21000
H  32.88100 2.38200 34.49400
H  33.52600 2.28100 37.27800
H  32.22700 3.18200 36.47700
H  40.34200 0.16900 31.40300
H  39.94500 1.51700 32.47400
H  40.97300 1.80900 31.20300
H  41.92500 0.75700 29.43400
H  41.93500 -0.49100 28.22500
H  41.01200 -0.70600 29.68100
H  35.52800 1.33400 25.05500
H  33.25300 3.19100 25.06200
H  34.98900 4.07300 23.97400
H  36.36100 3.06300 23.64200
H  36.37600 4.16900 25.01400
H  31.85200 1.17900 25.58200
H  33.28400 0.35000 26.14400
H  33.66500 1.35700 23.43300
H  32.22000 0.51100 23.31200
H  33.69000 -0.34200 23.99000
H  29.02500 3.70600 28.41000
H  29.75300 5.12500 27.63500
H  28.93100 5.34300 29.13900
H  31.34900 3.95400 33.87400
H  31.00000 6.70000 36.77300
H  29.82500 7.71900 35.94700
H  31.57400 7.97500 35.73200
Mg 6.78100 55.10300 41.83400
C  4.05700 52.78200 41.67200
C  8.65400 52.64900 40.40000
C  9.08400 57.42000 41.24800
C  4.43100 57.54600 42.82000
N  6.31000 52.93300 40.88300
C  5.14900 52.30400 40.87900
C  5.25200 51.01600 40.01000
C  6.78000 50.85600 39.88500
C  7.33900 52.17200 40.44100
C  7.43500 49.54300 40.58500
C  4.58600 51.12400 38.64500
C  4.00000 49.72100 38.12800
H  4.60100 49.20500 36.78400
N  8.72800 55.02900 41.04900
C  9.34400 53.91500 40.59400
C  10.67100 54.27000 40.14700
C  10.81300 55.64900 40.45300
C  9.51600 56.10200 40.93200
C  11.59500 53.38400 39.45900
C  12.02200 56.43800 40.12700
O  13.11300 55.93800 39.77300
C  12.09600 57.91700 40.36800
N  6.69300 57.27300 41.79900
C  7.81500 57.92900 41.61800
C  7.69200 59.38700 42.15800
C  6.20900 59.55300 42.47500
C  5.75200 58.05300 42.42200
C  8.71000 59.78200 43.25600
C  5.47400 60.48000 41.51800
C  5.87600 61.92100 41.63300
N  4.70100 55.16600 42.21400
C  3.95300 56.24700 42.68200
C  2.69600 55.78100 43.17500
C  2.69200 54.44100 42.78800
C  3.93300 54.09600 42.18300
C  1.58200 56.54700 43.78700
C  1.91300 53.20100 42.89500
O  0.83000 52.99200 43.48300
C  2.68500 52.10300 42.04800
C  1.78700 51.65400 40.87700
O  1.30200 52.37500 40.02600
O  1.65600 50.25600 40.90300
C  0.69800 49.70100 39.96000
H  9.16400 51.85400 39.85300
H  9.73900 58.28900 41.16100
H  3.80300 58.25500 43.36200
H  4.86200 50.22500 40.64900
H  7.05200 50.79500 38.83100
H  6.67200 48.86100 40.95900
H  8.08000 49.97800 41.34900
H  8.13200 49.02000 39.92900
H  5.30700 51.59700 37.97800
H  3.84100 51.91900 38.61100
H  2.92800 49.68900 37.93600
H  4.17400 48.87200 38.79000
H  11.09600 52.64600 38.83100
H  12.08900 52.86800 40.28200
H  12.27300 53.87500 38.76200
H  13.02200 58.37400 40.01900
H  11.89500 58.05100 41.43100
H  11.35900 58.57900 39.91400
H  7.90400 60.13900 41.39800
H  6.00300 59.87600 43.49600
H  8.25300 60.28100 44.11000
H  9.48800 60.41700 42.83400
H  9.23000 58.93400 43.70100
H  4.39400 60.45300 41.66600
H  5.49500 60.20300 40.46400
H  6.63900 62.01000 42.40700
H  5.04200 62.54400 41.95500
H  6.14100 62.22400 40.62000
H  1.90100 57.17700 44.61800
H  0.93800 55.82000 44.28200
H  0.90400 57.09200 43.13100
H  2.95600 51.31600 42.75200
H  -0.30300 49.88000 40.35100
H  0.80000 48.61700 39.90200
H  0.81600 50.18400 38.99000

