158

Mg 2.08900 -1.27900 44.96800
C  5.41100 -0.39700 44.06100
C  1.04100 0.98500 42.45000
C  -0.93000 -2.51300 45.41900
C  3.47800 -4.10400 46.62200
N  3.17900 0.08500 43.36500
C  4.55900 0.35900 43.28100
C  4.87200 1.54600 42.38900
C  3.39100 2.03100 42.00500
C  2.44800 0.95000 42.59700
C  3.00900 3.42500 42.55800
C  5.73100 1.07500 41.13800
C  6.95100 2.01000 40.86200
H  7.06400 2.55100 39.44600
N  0.27500 -0.71100 44.22700
C  0.03900 0.19400 43.19700
C  -1.36100 0.26900 43.04400
C  -1.97700 -0.65800 43.95800
C  -0.93000 -1.34900 44.63700
C  -2.07300 1.16500 42.10100
C  -3.49500 -0.73600 44.31400
O  -4.38400 -0.16000 43.66300
C  -3.97000 -1.51700 45.48900
N  1.35700 -3.07300 45.90300
C  0.05100 -3.25300 46.05200
C  -0.27500 -4.59000 46.81000
C  1.18000 -5.20300 47.02400
C  2.07400 -4.09100 46.50100
C  -1.02600 -4.27600 48.11400
C  1.34500 -6.58200 46.31500
C  1.43900 -7.83500 47.26200
N  3.98800 -2.03800 45.31800
C  4.34900 -3.13400 46.08600
C  5.83500 -3.19300 46.13200
C  6.29900 -2.06500 45.42000
C  5.13600 -1.44000 44.90400
C  6.60000 -4.26400 46.86400
C  7.43000 -1.28000 45.09000
O  8.55100 -1.30700 45.44600
C  6.88900 -0.14900 44.27000
C  7.17300 1.12100 45.01900
O  6.56300 1.63700 45.96800
O  8.31900 1.66200 44.50800
C  8.74400 2.97000 44.99800
H  0.70100 1.80600 41.81600
H  -1.86400 -3.01700 45.67500
H  3.85700 -5.10200 46.85200
H  5.36600 2.36700 42.90900
H  3.27800 1.90000 40.92900
H  3.80300 3.78400 43.21200
H  2.01900 3.41800 43.01400
H  2.94100 4.18400 41.77900
H  5.23300 1.13800 40.17000
H  6.02100 0.02500 41.18000
H  7.83300 1.42500 41.12400
H  7.02500 2.85600 41.54500
H  -2.68700 0.55400 41.43900
H  -1.42500 1.71300 41.41700
H  -2.67700 1.92200 42.60100
H  -3.37900 -1.46300 46.40300
H  -4.16500 -2.53200 45.14300
H  -4.95900 -1.16800 45.78700
H  -1.05500 -5.11000 46.25300
H  1.30000 -5.33600 48.09900
H  -1.58700 -5.18000 48.34900
H  -1.63700 -3.37800 48.02200
H  -0.20700 -4.14700 48.82100
H  2.32000 -6.69500 45.84000
H  0.56800 -6.68600 45.55700
H  1.63300 -7.56500 48.30000
H  2.25400 -8.49300 46.96200
H  0.46800 -8.33000 47.24000
H  6.63600 -5.14600 46.22400
H  6.21300 -4.55400 47.84100
H  7.60000 -3.85000 46.99400
H  7.35000 0.00600 43.29400
H  8.00100 3.72600 44.74400
H  9.69600 3.27200 44.56200
H  8.81900 3.07100 46.08000
Mg 17.19900 -1.38500 27.78100
C  15.92600 0.73500 30.32500
C  18.90400 -3.00000 30.25000
C  18.37900 -3.26600 25.39700
C  15.58500 0.74500 25.42100
N  17.42600 -1.09200 30.05900
C  16.86600 -0.18300 30.83100
C  17.19300 -0.33800 32.36400
C  18.34800 -1.36200 32.22200
C  18.20600 -1.90300 30.79300
C  19.83500 -0.89700 32.64900
C  16.00100 -0.70800 33.22800
C  15.97400 -0.27400 34.74500
H  16.52000 -1.32000 35.73100
N  18.42000 -3.00000 27.80800
C  19.02800 -3.53900 28.95300
C  19.80000 -4.62900 28.55400
C  19.60100 -4.79800 27.16200
C  18.74300 -3.68500 26.71000
C  20.78700 -5.46900 29.53000
C  20.15100 -5.89400 26.25500
O  19.91100 -5.90100 25.05100
C  20.76800 -7.12300 26.86400
N  17.13700 -1.10400 25.76200
C  17.72300 -2.08200 24.96300
C  17.59000 -1.75000 23.43900
C  16.53500 -0.61400 23.46800
C  16.37200 -0.34900 24.97200
C  18.96100 -1.29000 22.77700
C  15.15800 -0.85100 22.85700
C  14.17100 -1.78900 23.51100
N  15.88600 0.30500 27.79100
C  15.39500 1.06700 26.77900
C  14.44400 2.14200 27.32200
C  14.71800 2.10200 28.70000
C  15.60200 0.98400 28.92400
C  13.57800 3.09300 26.56800
C  14.54800 2.77100 29.96300
O  13.98300 3.80700 30.27000
C  15.21600 1.85400 30.99700
C  15.93300 2.76200 31.85400
O  16.94500 3.36900 31.55600
O  15.33500 2.85100 33.11500
C  16.00700 3.83300 34.05200
H  19.55000 -3.57000 30.92000
H  18.78400 -3.89500 24.60100
H  15.01400 1.37000 24.73000
H  17.66100 0.58800 32.69800
H  18.14800 -2.21900 32.86500
H  20.01000 0.08300 33.09300
H  20.37200 -0.81300 31.70400
H  20.36900 -1.72700 33.11200
H  15.92000 -1.79100 33.14100
H  15.07000 -0.36200 32.77900
H  14.91400 -0.14700 34.96500
H  16.58700 0.62700 34.74200
H  21.78200 -5.36900 29.09600
H  20.40700 -6.48700 29.61100
H  20.81700 -5.07900 30.54700
H  21.72300 -6.96600 27.36400
H  20.89900 -7.85900 26.07000
H  19.98100 -7.53900 27.49300
H  17.22900 -2.68200 23.00400
H  17.00900 0.26300 23.02800
H  19.39700 -0.49500 23.38300
H  18.80400 -1.02600 21.73100
H  19.63100 -2.14900 22.74900
H  15.23600 -1.16700 21.81600
H  14.61700 0.09500 22.86500
H  13.27600 -1.29400 23.88700
H  14.69900 -2.35800 24.27700
H  13.83500 -2.49500 22.75200
H  14.06900 3.15700 25.59700
H  13.64700 4.12700 26.90600
H  12.55700 2.75000 26.40200
H  14.44000 1.40400 31.61700
H  15.31800 3.97400 34.88500
H  16.04100 4.88200 33.76000
H  16.95200 3.39700 34.37800

