158

Mg 1.47700 -1.89400 42.58600
C  5.02000 -1.75000 42.10100
C  1.30500 1.20700 40.93800
C  -1.71400 -2.57600 41.91200
C  1.89100 -5.17200 43.83400
N  2.99000 -0.45900 41.60600
C  4.37800 -0.64300 41.61200
C  5.07900 0.58100 40.83500
C  3.85700 1.59600 40.60400
C  2.65100 0.78500 41.10200
C  4.09000 2.90800 41.42400
C  5.78300 0.16500 39.45200
C  6.55800 1.31300 38.78200
H  6.25500 1.65600 37.29800
N  -0.01500 -0.82300 41.71200
C  0.11100 0.44200 41.11700
C  -1.23600 0.90600 40.80000
C  -2.07900 -0.24100 40.95900
C  -1.28200 -1.30600 41.50800
C  -1.59900 2.27100 40.30200
C  -3.59400 -0.29900 40.62700
O  -4.08200 0.76200 40.30300
C  -4.53500 -1.49800 40.74100
N  0.32300 -3.66600 42.75800
C  -0.98800 -3.63800 42.49300
C  -1.59900 -5.01300 42.84700
C  -0.51200 -5.86400 43.57400
C  0.67400 -4.86200 43.33700
C  -2.94000 -5.07200 43.62000
C  -0.39400 -7.35000 43.05800
C  -0.91800 -8.50700 43.94700
N  3.13700 -3.09000 43.14400
C  3.12400 -4.42200 43.56100
C  4.50900 -4.82300 43.68000
C  5.26000 -3.72800 43.22600
C  4.38400 -2.80200 42.80100
C  4.99300 -6.17700 44.14200
C  6.65700 -3.27800 42.98400
O  7.73600 -3.76700 43.27000
C  6.52300 -2.03700 42.13400
C  7.30900 -0.93100 42.61000
O  8.05300 -0.31800 41.85200
O  7.06000 -0.57100 43.89600
C  7.67000 0.67700 44.35500
H  1.22200 2.20600 40.50600
H  -2.76000 -2.84000 41.74100
H  1.97900 -6.14500 44.32300
H  5.81900 1.03900 41.49200
H  3.78600 1.67500 39.51900
H  3.14200 3.42500 41.57600
H  4.66900 3.66200 40.89200
H  4.59200 2.58600 42.33600
H  5.05200 -0.25500 38.76100
H  6.45300 -0.65200 39.71600
H  7.63700 1.21700 38.90400
H  6.23500 2.15400 39.39600
H  -1.00900 3.05000 40.78500
H  -2.60500 2.65800 40.46000
H  -1.47000 2.27300 39.22000
H  -5.50600 -1.19500 40.35000
H  -4.67700 -1.87200 41.75400
H  -4.20300 -2.27000 40.04600
H  -1.89600 -5.55800 41.95100
H  -0.79700 -5.79200 44.62400
H  -3.32500 -4.07400 43.83400
H  -2.85400 -5.68800 44.51600
H  -3.59600 -5.63300 42.95600
H  0.65500 -7.45600 42.78400
H  -0.99000 -7.47000 42.15400
H  -1.51300 -8.01400 44.71500
H  -0.04900 -8.96700 44.41800
H  -1.44800 -9.22600 43.32200
H  5.26100 -6.77000 43.26800
H  4.12000 -6.64000 44.60300
H  5.80000 -6.01300 44.85500
H  7.04700 -2.28400 41.21100
H  7.22200 1.58000 43.93700
H  8.74600 0.65400 44.18500
H  7.52100 0.70700 45.43400
Mg 30.85000 59.21300 40.03100
C  27.81200 57.57700 38.74900
C  32.61100 56.70900 38.67700
C  33.50600 61.04800 40.63100
C  28.72300 62.04500 40.59400
N  30.21800 57.40900 38.73400
C  29.00900 56.88100 38.45600
C  29.18600 55.45500 37.98600
C  30.68700 55.08800 38.20900
C  31.22200 56.47600 38.65300
C  31.03000 53.94100 39.22500
C  28.62600 55.24600 36.56000
C  29.33700 56.06200 35.42800
H  28.41800 56.61100 34.29500
N  32.85300 58.83600 39.81200
C  33.38900 57.70500 39.28500
C  34.85900 57.81600 39.35000
C  35.13100 59.05200 40.04900
C  33.81500 59.73200 40.18600
C  35.77300 56.76400 38.76500
C  36.49900 59.47300 40.41000
O  37.43100 58.76900 40.09500
C  36.74100 60.82000 41.08700
N  31.03400 61.29900 40.50800
C  32.28800 61.74300 40.78600
C  32.18200 63.31100 40.95700
C  30.66000 63.56300 41.19400
C  30.10200 62.26800 40.71400
C  33.06300 64.01000 42.02700
C  30.16400 64.73400 40.31900
C  29.14000 65.69400 41.07600
N  28.69900 59.77800 39.79000
C  28.07800 60.94900 40.06200
C  26.68000 60.78900 39.80800
C  26.58200 59.44600 39.34500
C  27.82300 58.88100 39.30100
C  25.51500 61.72000 40.06100
C  25.61600 58.47500 38.77600
O  24.37200 58.62700 38.65900
C  26.33200 57.15400 38.39800
C  25.90400 55.93400 39.10200
O  25.47400 55.86900 40.24500
O  25.89000 54.82400 38.28600
C  25.35400 53.61200 38.96000
H  33.27400 55.97000 38.22200
H  34.36300 61.68400 40.85900
H  28.08200 62.89500 40.83500
H  28.58900 54.81200 38.63200
H  31.18500 54.83400 37.27300
H  30.21200 53.49300 39.78900
H  31.65700 54.38900 39.99500
H  31.59700 53.25400 38.59700
H  27.54800 55.39300 36.49900
H  28.83300 54.18800 36.40100
H  30.12100 55.45400 34.97700
H  29.78600 56.93200 35.90700
H  35.40600 55.78200 38.46600
H  36.45700 56.49800 39.57100
H  36.28200 57.23100 37.92200
H  37.76200 60.72300 41.45600
H  36.06100 60.93500 41.93100
H  36.59400 61.65200 40.39800
H  32.47900 63.71300 39.98800
H  30.59000 63.76200 42.26400
H  32.50500 64.70400 42.65500
H  33.82800 64.58300 41.50300
H  33.51300 63.25300 42.66900
H  29.60600 64.37200 39.45600
H  31.04000 65.20100 39.87000
H  29.57600 66.68500 41.20400
H  29.02400 65.27300 42.07400
H  28.21800 65.74000 40.49700
H  25.74400 62.72700 39.71300
H  25.17700 61.72500 41.09800
H  24.68700 61.33900 39.46400
H  26.31200 57.07800 37.31100
H  25.35400 52.95300 38.09100
H  24.33600 53.83000 39.28200
H  26.01800 53.27400 39.75500

