158

Mg 46.72100 25.25300 28.46900
C  47.75500 27.53500 31.00600
C  45.62500 23.14200 30.84800
C  45.97100 23.21600 25.96000
C  48.30000 27.51200 26.11200
N  46.79500 25.26900 30.71600
C  47.19900 26.32000 31.51600
C  46.96600 25.95600 32.99800
C  46.18800 24.54700 32.90700
C  46.19000 24.26600 31.35100
C  46.67600 23.28800 33.84800
C  46.38400 27.05000 33.93900
C  45.62000 26.63000 35.10200
H  46.37300 26.34700 36.44200
N  45.78800 23.56700 28.39600
C  45.43700 22.77000 29.48600
C  44.79200 21.61400 29.01400
C  44.89300 21.50300 27.59800
C  45.59700 22.81600 27.22400
C  44.24600 20.60200 29.83400
C  44.52100 20.41500 26.61500
O  44.83900 20.42000 25.46300
C  43.76600 19.25000 27.04600
N  46.97800 25.48500 26.38400
C  46.64200 24.40700 25.60800
C  47.03200 24.59800 24.13000
C  47.40000 26.09600 24.13000
C  47.62000 26.39600 25.65000
C  48.20500 23.70800 23.64900
C  46.42400 27.12800 23.48800
C  47.04600 28.35100 22.84400
N  47.84600 27.09200 28.51700
C  48.44100 27.85900 27.48900
C  48.90200 29.17400 27.98900
C  48.66400 29.07500 29.38500
C  47.99400 27.80700 29.63100
C  49.63100 30.14900 27.17500
C  48.82200 29.77100 30.62100
O  49.22300 30.91900 30.84900
C  48.40500 28.75600 31.73800
C  49.65500 28.38200 32.49300
O  50.70500 27.93500 32.05000
O  49.47500 28.56200 33.84000
C  50.45700 28.06800 34.81700
H  45.19200 22.34400 31.45600
H  45.67200 22.56300 25.13800
H  48.69600 28.30400 25.47200
H  48.00500 25.76500 33.26900
H  45.15900 24.69300 33.23500
H  47.30800 23.67500 34.64700
H  47.26500 22.65900 33.18100
H  45.85900 22.74400 34.32100
H  45.81300 27.78500 33.37100
H  47.28300 27.41100 34.43900
H  44.95400 25.80000 34.86600
H  45.04200 27.53500 35.28700
H  44.80500 19.66600 29.82800
H  43.23100 20.31000 29.56200
H  44.19100 20.98500 30.85300
H  42.88600 19.69100 27.51400
H  44.44600 18.59100 27.58600
H  43.38800 18.77800 26.14000
H  46.12700 24.31500 23.59200
H  48.43900 26.32400 23.88900
H  48.62900 23.05500 24.41200
H  48.94100 24.40300 23.24500
H  47.79800 23.16000 22.80000
H  45.65700 27.38500 24.21900
H  45.72900 26.67800 22.77900
H  46.66600 28.50100 21.83300
H  48.11900 28.19000 22.95000
H  46.84200 29.20100 23.49600
H  49.40300 31.15200 27.53400
H  49.32000 30.20700 26.13200
H  50.67900 30.01300 27.44300
H  47.65900 29.28300 32.33400
H  50.67700 28.92600 35.45200
H  51.43100 27.78700 34.41700
H  49.98400 27.23600 35.33800
Mg 37.09700 49.80900 25.05900
C  37.27900 47.95700 28.11400
C  35.49300 52.33700 26.94200
C  36.42800 51.50600 22.32300
C  38.36100 47.21200 23.43500
N  36.51100 50.14700 27.29500
C  36.85100 49.29800 28.29500
C  36.48600 49.91900 29.67300
C  35.67200 51.20300 29.32500
C  35.81200 51.24000 27.74100
C  34.17400 51.28400 29.76900
C  37.68500 50.13900 30.61700
C  37.54400 50.19000 32.13700
H  36.07600 50.03500 32.80400
N  36.23600 51.78800 24.67000
C  35.68100 52.69700 25.57600
C  35.24100 53.87500 24.93500
C  35.29800 53.56900 23.48300
C  36.00100 52.23800 23.40400
C  34.60900 55.06800 25.72400
C  34.91500 54.43500 22.25200
O  35.15300 54.14800 21.07500
C  34.35800 55.78300 22.52200
N  37.34500 49.41100 23.11100
C  37.08400 50.26800 22.13200
C  37.41500 49.62100 20.71800
C  38.11400 48.26200 21.11400
C  37.99200 48.30600 22.63700
C  36.17800 49.54700 19.83700
C  39.53300 48.30800 20.54200
C  40.53700 48.97800 21.55600
N  37.61600 47.95800 25.62600
C  38.22800 46.98700 24.79300
C  38.54700 45.77000 25.58100
C  38.14900 46.13300 26.90300
C  37.65100 47.43700 26.86400
C  39.08500 44.51800 25.01600
C  38.02700 45.66600 28.26100
O  38.27400 44.54900 28.68800
C  37.55500 46.84900 29.09700
C  36.24500 46.41200 29.81900
O  35.18300 46.24400 29.27300
O  36.49200 46.02200 31.09400
C  35.18200 45.62800 31.83600
H  35.10700 53.10600 27.61500
H  36.26300 51.93100 21.33100
H  38.79400 46.41200 22.83100
H  35.92600 49.07900 30.08200
H  36.17300 52.07800 29.74000
H  34.06900 52.07000 30.51700
H  33.98500 50.32900 30.25900
H  33.48400 51.42100 28.93600
H  38.10800 51.06800 30.23400
H  38.50100 49.45500 30.38700
H  37.97600 51.12300 32.50000
H  38.10100 49.33800 32.52700
H  34.44000 54.90400 26.78800
H  33.62500 55.23900 25.28700
H  35.12000 55.99700 25.47100
H  35.14000 56.45900 22.87000
H  33.63500 55.56000 23.30600
H  33.83200 56.34700 21.75100
H  38.21400 50.21100 20.26800
H  37.56600 47.41700 20.69900
H  35.31900 50.17800 20.06400
H  35.90000 48.50200 19.70200
H  36.46200 49.89800 18.84500
H  39.64000 48.77300 19.56200
H  39.81300 47.26700 20.37900
H  40.16200 49.94100 21.90200
H  41.50800 49.08500 21.07200
H  40.67700 48.14000 22.23800
H  38.29600 43.84600 24.67800
H  39.74100 44.05700 25.75500
H  39.64400 44.77600 24.11600
H  38.18500 47.20300 29.91300
H  34.47100 46.44100 31.69100
H  35.47300 45.38800 32.85900
H  34.89700 44.67400 31.39200

