158

Mg 26.28600 -0.49800 30.26000
C  28.32600 -0.51100 32.95700
C  23.53400 0.00000 32.34500
C  24.36200 0.01100 27.53300
C  28.96600 -1.27700 28.11700
N  25.97000 -0.48700 32.46300
C  27.00100 -0.25300 33.30700
C  26.39800 0.04800 34.76600
C  24.85200 0.06300 34.52500
C  24.74700 -0.21600 33.03000
C  23.96600 -0.86800 35.41200
C  27.07500 1.31000 35.38000
C  27.68300 1.23000 36.75600
H  27.24300 2.18700 37.86600
N  24.27500 -0.05900 30.03900
C  23.29600 0.02700 30.94800
C  22.10200 0.37300 30.40200
C  22.22600 0.36500 28.98400
C  23.66900 0.06100 28.78000
C  20.76200 0.42300 31.19400
C  21.23900 0.65600 27.87200
O  21.47300 0.66000 26.66000
C  19.75500 0.92500 28.18100
N  26.63500 -0.67200 28.14500
C  25.63100 -0.34900 27.25300
C  26.16200 -0.28700 25.83300
C  27.61400 -0.86000 26.02100
C  27.80600 -0.83200 27.52700
C  25.33500 -1.01300 24.75900
C  28.69000 0.00900 25.24800
C  29.69000 -0.77100 24.32900
N  28.19200 -0.96900 30.41400
C  29.22100 -1.20300 29.46200
C  30.44300 -1.39600 30.16100
C  30.15900 -1.20100 31.47600
C  28.75500 -0.88600 31.59300
C  31.75600 -1.58300 29.42200
C  30.71900 -1.21100 32.80200
O  31.87600 -1.31900 33.16800
C  29.53500 -0.71600 33.84500
C  29.35400 -1.73900 34.88300
O  28.77800 -2.82700 34.73400
O  29.97500 -1.34200 35.96700
C  29.83300 -2.21900 37.12400
H  22.73900 0.14900 33.07900
H  23.70400 0.27000 26.70100
H  29.81400 -1.50400 27.46700
H  26.73700 -0.79000 35.37600
H  24.47100 1.08300 34.56600
H  22.89800 -0.69200 35.27800
H  24.27500 -0.64500 36.43300
H  24.20700 -1.89200 35.12600
H  26.41300 2.15500 35.19200
H  27.94300 1.43900 34.73300
H  28.73400 1.50100 36.65100
H  27.82700 0.21500 37.12700
H  20.11400 -0.37900 30.84100
H  20.34500 1.41700 31.02800
H  20.88500 0.24100 32.26200
H  19.69600 1.80800 28.81700
H  19.50800 0.07300 28.81500
H  19.23300 1.04700 27.23200
H  26.21900 0.75000 25.50000
H  27.67000 -1.93600 25.85300
H  24.34500 -1.22000 25.16500
H  25.71700 -2.02500 24.62600
H  25.31900 -0.45700 23.82200
H  29.32500 0.44900 26.01700
H  28.38300 0.81400 24.58000
H  30.51400 -1.02300 24.99700
H  30.12700 -0.17400 23.53000
H  29.30600 -1.70500 23.91800
H  32.43800 -1.30900 30.22600
H  31.83900 -0.99300 28.50900
H  31.85200 -2.64700 29.20700
H  29.85300 0.25300 34.23200
H  28.96800 -1.81300 37.64800
H  30.72600 -2.12100 37.74100
H  29.79900 -3.28400 36.89300
Mg 40.11600 41.25300 27.49200
C  39.23200 43.65800 29.90800
C  41.12500 39.18000 30.10900
C  41.10200 39.22000 25.18500
C  39.34200 43.74600 25.08400
N  40.12100 41.38000 29.74100
C  39.63800 42.43300 30.47800
C  39.72300 42.13000 32.01600
C  40.37500 40.70100 32.06100
C  40.50000 40.35200 30.56800
C  41.65600 40.75000 32.92200
C  38.36300 42.14900 32.79900
C  38.21700 41.27200 34.02700
H  37.32800 41.86800 35.15100
N  41.00500 39.38600 27.65000
C  41.31300 38.73300 28.77300
C  42.00900 37.46800 28.38700
C  42.00800 37.41800 26.92100
C  41.35100 38.69400 26.50900
C  42.34200 36.42200 29.44700
C  42.63000 36.39200 25.97900
O  42.56500 36.53000 24.73800
C  43.35800 35.22800 26.59400
N  40.16600 41.44100 25.40400
C  40.65600 40.44100 24.66000
C  40.54400 40.76400 23.21300
C  39.62100 42.04000 23.21800
C  39.62200 42.43400 24.67600
C  41.90100 40.93400 22.39200
C  38.20700 41.82400 22.70900
C  37.16500 40.87200 23.49500
N  39.56600 43.27900 27.49000
C  39.43200 44.24900 26.42700
C  39.21300 45.54100 26.95700
C  39.06100 45.28600 28.29300
C  39.26500 43.96900 28.56600
C  38.97300 46.84000 26.20900
C  38.67000 46.06100 29.55000
O  38.35300 47.21700 29.75400
C  38.76600 44.94400 30.67400
C  39.74000 45.38500 31.61700
O  40.95400 45.54500 31.33600
O  39.14400 45.84600 32.78700
C  40.00400 46.69900 33.67800
H  41.36400 38.46400 30.89800
H  41.43400 38.50200 24.43300
H  38.98100 44.32300 24.23000
H  40.37900 42.87300 32.47000
H  39.68500 39.96300 32.47100
H  41.48100 40.20000 33.84700
H  42.00500 41.73400 33.23500
H  42.46200 40.24400 32.39100
H  37.67100 41.89200 31.99800
H  38.10700 43.15300 33.13700
H  39.23700 41.13300 34.38500
H  37.85300 40.30900 33.66700
H  43.41200 36.23600 29.54700
H  41.82400 35.52200 29.11700
H  42.07700 36.59500 30.49000
H  44.26300 35.48200 27.14600
H  43.59000 34.63000 25.71300
H  42.64500 34.62300 27.15500
H  39.94200 39.98000 22.75500
H  40.20100 42.83800 22.75600
H  41.95000 40.17800 21.60900
H  42.66600 40.78900 23.15600
H  42.02600 41.95300 22.02500
H  38.30400 41.44700 21.69100
H  37.72600 42.80200 22.68300
H  36.93100 39.99100 22.89700
H  36.22000 41.40100 23.61700
H  37.69400 40.63000 24.41700
H  39.03500 46.82300 25.12100
H  39.67500 47.59900 26.55500
H  37.96900 47.17000 26.47500
H  37.83100 44.74900 31.20000
H  40.74800 47.32000 33.17800
H  40.57800 46.04500 34.33400
H  39.33700 47.25400 34.33800

