158

Mg 0.81100 7.56800 25.45000
C  1.15200 9.64900 28.31800
C  1.07200 4.98800 27.45900
C  0.72200 5.65500 22.65500
C  1.11900 10.49300 23.43800
N  1.16700 7.42200 27.73600
C  1.03700 8.30500 28.71600
C  1.04100 7.67500 30.09900
C  1.45200 6.20400 29.80000
C  1.20300 6.15100 28.20200
C  2.91900 5.85000 30.20900
C  -0.25000 7.83500 30.88100
C  -0.42700 7.83200 32.43900
H  0.76200 7.65300 33.39900
N  1.01000 5.59500 25.06900
C  0.99200 4.70400 26.07700
C  0.93900 3.39800 25.54800
C  0.73500 3.48000 24.14100
C  0.78200 4.98600 23.86700
C  1.31000 2.20400 26.34300
C  0.62600 2.37100 23.09000
O  0.47400 2.53100 21.87100
C  0.44800 0.95900 23.61000
N  0.90500 8.02900 23.39500
C  0.87400 7.03900 22.46100
C  0.72400 7.59200 21.07800
C  0.86600 9.18100 21.27400
C  1.02800 9.24000 22.78700
C  1.82700 7.05700 20.11800
C  -0.19100 10.03000 20.67200
C  -1.49600 10.05600 21.46300
N  1.03200 9.68700 25.77700
C  1.09300 10.69500 24.82500
C  1.16300 11.93500 25.52900
C  1.23600 11.61200 26.91000
C  1.06800 10.21200 27.02700
C  1.15600 13.26700 24.96300
C  1.39600 12.11500 28.27200
O  1.59200 13.27200 28.57100
C  1.16200 10.90400 29.24000
C  2.18800 10.67600 30.34100
O  3.24200 10.02500 30.20900
O  1.71400 11.27400 31.45700
C  2.53000 11.26800 32.76800
H  0.86400 4.08600 28.03800
H  0.67100 4.92400 21.84500
H  1.23100 11.35600 22.77800
H  1.78900 8.18800 30.70300
H  0.74200 5.56800 30.33000
H  3.59300 6.70600 30.21600
H  3.30400 5.15500 29.46300
H  3.02500 5.41900 31.20500
H  -0.96400 7.14200 30.43600
H  -0.53100 8.83300 30.54500
H  -1.14500 7.07800 32.76200
H  -0.87300 8.80100 32.66100
H  1.78000 1.43800 25.72600
H  0.50900 1.81600 26.97200
H  2.08000 2.41600 27.08500
H  1.38200 0.42600 23.79100
H  -0.16100 0.39600 22.90300
H  -0.18800 0.97100 24.49400
H  -0.19400 7.34100 20.54700
H  1.80000 9.54400 20.84400
H  2.26500 7.82500 19.48100
H  1.46900 6.30900 19.40900
H  2.62900 6.59300 20.69300
H  -0.34300 9.68700 19.64800
H  0.27000 11.00500 20.52100
H  -1.64500 9.31700 22.25000
H  -2.34300 9.97900 20.78100
H  -1.65600 11.04100 21.90300
H  0.32400 13.36500 24.26600
H  2.13600 13.46000 24.52700
H  0.79200 13.94900 25.73100
H  0.11700 10.95900 29.54400
H  3.45600 10.70400 32.65100
H  1.93700 10.92400 33.61500
H  2.82300 12.29900 32.96500
Mg 23.47600 -6.92500 46.95900
C  25.87000 -4.64800 45.70700
C  21.11200 -5.33400 44.98200
C  21.37600 -9.20900 47.88100
C  26.08300 -8.26500 49.03100
N  23.53000 -5.21700 45.46000
C  24.66600 -4.51100 45.07100
C  24.27300 -3.42700 44.08600
C  22.68200 -3.37900 44.15000
C  22.37300 -4.75800 44.91500
C  21.98900 -2.10400 44.69800
C  24.91100 -3.72400 42.69700
C  26.03500 -2.79900 42.24600
H  25.64000 -1.82000 41.23000
N  21.46400 -7.28800 46.55400
C  20.72500 -6.50000 45.67100
C  19.39500 -6.99300 45.63300
C  19.40000 -8.15100 46.46500
C  20.79900 -8.26000 47.07000
C  18.26800 -6.34100 44.78800
C  18.17100 -9.10800 46.72500
O  17.10900 -9.08000 46.11100
C  18.36100 -10.21600 47.74400
N  23.77700 -8.67100 48.19700
C  22.63400 -9.42500 48.50300
C  23.02900 -10.60300 49.43100
C  24.52100 -10.15600 49.95000
C  24.83700 -8.99800 49.02400
C  21.99600 -10.97400 50.53300
C  25.62900 -11.22300 49.84200
C  26.63500 -11.27700 50.99900
N  25.62600 -6.58000 47.38100
C  26.51400 -7.16000 48.27500
C  27.82000 -6.55900 48.16800
C  27.61600 -5.57400 47.15200
C  26.26500 -5.61800 46.70000
C  29.04600 -7.00700 48.82000
C  28.32600 -4.58400 46.32600
O  29.49200 -4.20800 46.43400
C  27.18600 -3.81500 45.52400
C  26.97500 -2.53400 46.23200
O  26.08100 -2.27900 47.03100
O  27.92800 -1.62800 45.77100
C  27.80800 -0.21100 46.05900
H  20.33000 -4.71700 44.53700
H  20.77700 -10.05100 48.23700
H  26.91200 -8.52700 49.69300
H  24.66500 -2.47500 44.44300
H  22.19900 -3.51200 43.18200
H  22.69100 -1.41000 45.16000
H  21.40700 -2.40700 45.56800
H  21.36600 -1.59400 43.96300
H  24.15700 -3.73800 41.91000
H  25.23600 -4.76400 42.65500
H  26.81900 -3.35800 41.73500
H  26.37500 -2.33600 43.17200
H  17.38400 -6.88800 45.11600
H  18.45000 -6.51900 43.72800
H  18.12300 -5.28200 45.00500
H  17.42300 -10.68500 48.04000
H  18.72200 -9.71500 48.64300
H  18.96100 -11.04400 47.36600
H  23.13400 -11.43500 48.73500
H  24.46500 -9.76200 50.96400
H  22.48900 -11.05100 51.50200
H  21.48700 -11.91800 50.33500
H  21.34000 -10.11700 50.68500
H  26.23700 -11.19900 48.93700
H  25.10300 -12.17600 49.79000
H  26.44200 -10.57700 51.81200
H  27.66400 -11.04400 50.72400
H  26.65600 -12.23500 51.51800
H  29.48200 -7.89300 48.35600
H  28.99500 -7.04300 49.90800
H  29.90200 -6.34800 48.67700
H  27.60500 -3.56700 44.54800
H  27.92100 -0.10000 47.13800
H  26.88100 0.26700 45.74200
H  28.68700 0.27900 45.64100

