158

Mg 2.03300 -1.73300 44.23400
C  5.32400 -1.11000 43.38900
C  1.20200 1.03800 42.30900
C  -1.08300 -2.87100 43.92000
C  3.08300 -4.56700 45.92600
N  3.20900 -0.28100 42.82300
C  4.54400 -0.14500 42.79000
C  5.01800 1.03000 41.92000
C  3.67900 1.84100 41.77400
C  2.59800 0.85000 42.30500
C  3.69600 3.11000 42.66700
C  5.71800 0.60900 40.60700
C  6.81800 1.57600 40.06600
H  6.28900 2.50800 38.92200
N  0.24700 -0.90600 43.37500
C  0.14200 0.25900 42.72600
C  -1.28000 0.57800 42.49900
C  -1.98500 -0.65300 42.87800
C  -0.93900 -1.57900 43.34600
C  -1.73600 1.89200 42.10800
C  -3.52100 -0.75100 42.94100
O  -4.19800 0.18000 42.58500
C  -4.27700 -1.90200 43.56200
N  1.07500 -3.36500 44.93400
C  -0.19600 -3.71500 44.58200
C  -0.50600 -5.16300 44.98700
C  0.88700 -5.75400 45.37600
C  1.73000 -4.43500 45.52400
C  -1.59600 -5.29400 46.02800
C  1.27200 -6.98400 44.54100
C  1.53100 -8.22800 45.42400
N  3.76700 -2.59600 44.69000
C  4.08300 -3.70700 45.42900
C  5.53100 -3.90300 45.53900
C  6.02600 -2.85600 44.81100
C  4.91900 -2.15500 44.20900
C  6.22100 -5.02700 46.34200
C  7.26200 -2.17900 44.40200
O  8.41400 -2.42600 44.69800
C  6.86200 -1.00000 43.51100
C  7.37700 0.22000 44.11900
O  6.97500 0.61700 45.23100
O  8.25400 0.90600 43.28300
C  8.37000 2.32600 43.46200
H  0.83700 1.94900 41.82900
H  -2.03400 -3.36200 43.70500
H  3.31400 -5.56500 46.30300
H  5.73200 1.66300 42.44600
H  3.34300 1.95900 40.74400
H  3.02900 3.05800 43.52700
H  3.28700 3.86500 41.99600
H  4.64200 3.39700 43.12700
H  4.98000 0.54400 39.80800
H  6.19500 -0.36600 40.71200
H  7.69100 1.05700 39.67100
H  7.25800 2.30600 40.74600
H  -1.12300 2.21600 41.26700
H  -1.55200 2.55300 42.95500
H  -2.79600 1.92700 41.85400
H  -5.25400 -1.64800 43.97200
H  -3.79200 -2.26400 44.46900
H  -4.36400 -2.69400 42.81800
H  -0.86300 -5.63000 44.06900
H  0.73900 -6.05400 46.41300
H  -2.15100 -4.35500 46.04000
H  -1.10400 -5.39000 46.99600
H  -2.31800 -6.11000 46.00900
H  2.15800 -6.64700 44.00400
H  0.52300 -7.36700 43.84800
H  2.55200 -8.57800 45.26900
H  0.83500 -9.01900 45.14200
H  1.50700 -8.09100 46.50500
H  5.56400 -5.68500 46.91000
H  6.88100 -4.43400 46.97500
H  6.74700 -5.65400 45.62100
H  7.33600 -1.12700 42.53800
H  7.71400 2.85200 42.76800
H  9.37800 2.68200 43.24700
H  8.12000 2.57900 44.49300
Mg 1.03900 8.23500 26.77300
C  1.84600 10.26800 29.48300
C  0.81400 5.54500 29.05900
C  0.69600 6.12200 24.06200
C  1.77600 10.86200 24.71100
N  1.47000 7.84700 28.91100
C  1.62300 8.90200 29.79200
C  1.38400 8.39800 31.31600
C  1.60100 6.86500 31.18100
C  1.28700 6.68600 29.63100
C  2.98300 6.34900 31.75700
C  0.01600 8.78300 31.80300
C  -0.23400 8.86300 33.31600
H  0.80400 8.42300 34.38300
N  0.75600 6.13000 26.64900
C  0.69400 5.18200 27.71100
C  0.40400 3.85300 27.15300
C  0.27600 3.99100 25.70600
C  0.66600 5.46700 25.38900
C  0.40600 2.55800 27.91700
C  0.00600 2.89800 24.62100
O  0.02700 3.24700 23.48700
C  -0.41000 1.48000 24.94100
N  1.29700 8.41900 24.71000
C  0.96900 7.43900 23.82300
C  1.05200 8.03100 22.38700
C  1.03200 9.56600 22.60800
C  1.45700 9.61100 24.13400
C  2.28100 7.56100 21.56100
C  -0.41500 10.19800 22.53600
C  -0.81600 10.86200 21.16300
N  1.59700 10.20400 26.99200
C  1.86600 11.16100 26.08200
C  2.20400 12.37500 26.72300
C  2.18700 12.07400 28.04900
C  1.84400 10.76000 28.16000
C  2.67300 13.66600 26.10700
C  2.40600 12.63700 29.42300
O  2.82700 13.75300 29.74200
C  2.09600 11.40700 30.46200
C  3.23100 11.15300 31.28300
O  4.22400 10.47800 30.98800
O  2.98900 11.76700 32.47600
C  3.95100 11.48600 33.51700
H  0.70500 4.69500 29.73600
H  0.36500 5.52500 23.20900
H  1.83100 11.73400 24.05700
H  2.18500 8.73600 31.97300
H  0.86500 6.37200 31.81600
H  2.79200 5.56600 32.49000
H  3.62000 7.14400 32.14400
H  3.52700 5.82300 30.97200
H  -0.73100 8.05900 31.47700
H  -0.27300 9.71800 31.32200
H  -1.09700 8.28100 33.64100
H  -0.48200 9.91200 33.48100
H  0.69100 2.70800 28.95800
H  1.18100 1.98200 27.41200
H  -0.50500 1.96400 27.84200
H  -0.68100 0.89500 24.06200
H  -1.27300 1.49200 25.60700
H  0.45500 1.10000 25.48400
H  0.14600 7.88000 21.79900
H  1.73100 10.12100 21.98200
H  2.48400 8.31800 20.80300
H  1.97300 6.56700 21.23700
H  3.08600 7.37200 22.27100
H  -0.60500 11.03000 23.21500
H  -1.15900 9.44500 22.79400
H  -1.76100 10.51300 20.74700
H  -0.01900 10.96500 20.42700
H  -0.96900 11.87200 21.54300
H  2.76300 14.45300 26.85600
H  1.90100 13.95500 25.39300
H  3.59900 13.48400 25.56200
H  1.19600 11.58300 31.05200
H  3.76300 10.46400 33.84500
H  4.03200 12.18400 34.35000
H  4.95500 11.67400 33.13600

