158

Mg 26.53900 0.04200 28.75300
C  28.32600 -0.51400 31.76800
C  23.66000 0.01700 30.66100
C  24.91100 0.59600 25.91300
C  29.48000 -0.87400 26.86600
N  26.10300 -0.28700 30.89600
C  26.98400 -0.17000 31.99700
C  26.32400 0.12600 33.36000
C  24.78800 -0.03100 33.01800
C  24.84500 -0.10400 31.43400
C  24.04600 -1.20100 33.67700
C  26.73700 1.42200 34.14500
C  27.08000 1.17000 35.60500
H  26.50400 1.97800 36.76900
N  24.49700 0.34900 28.38700
C  23.47000 0.19600 29.24300
C  22.21400 0.55000 28.54100
C  22.59500 0.85100 27.14500
C  24.03600 0.59500 27.07600
C  20.80200 0.56400 29.19400
C  21.75600 1.19500 25.93700
O  22.15400 1.54200 24.85500
C  20.25300 1.32300 26.17200
N  27.11700 -0.12500 26.66400
C  26.27800 0.27800 25.74800
C  26.85600 0.17000 24.28800
C  28.36300 -0.14300 24.61900
C  28.32900 -0.41800 26.12200
C  26.22600 -0.88300 23.27600
C  29.30900 1.07500 24.20500
C  30.77800 0.68700 23.81600
N  28.53900 -0.60200 29.18400
C  29.62400 -0.97400 28.26700
C  30.74100 -1.30400 29.09500
C  30.31300 -1.15700 30.38100
C  28.94500 -0.73500 30.47200
C  32.10700 -1.64100 28.69000
C  30.67600 -1.29000 31.82300
O  31.70500 -1.70100 32.39400
C  29.47200 -0.80100 32.68900
C  29.03500 -1.85500 33.63500
O  28.64500 -2.97700 33.30100
O  29.16300 -1.40000 34.92800
C  29.05500 -2.44900 35.90900
H  22.73300 0.14000 31.22500
H  24.47100 0.91800 24.96700
H  30.29400 -1.20100 26.21600
H  26.42300 -0.76300 33.98300
H  24.33300 0.89800 33.36100
H  24.30200 -2.18800 33.29400
H  23.02400 -0.93600 33.40600
H  24.06500 -1.26100 34.76600
H  25.88900 2.10700 34.15300
H  27.62700 1.78800 33.63300
H  28.16400 1.20900 35.71500
H  26.81400 0.15000 35.88200
H  20.39000 1.55700 29.36900
H  20.88200 0.07800 30.16700
H  20.21000 -0.03900 28.50500
H  19.90400 0.29400 26.26100
H  19.85000 1.75800 25.25800
H  19.88000 1.97500 26.96300
H  26.71500 1.16000 23.85600
H  28.68500 -1.02600 24.06700
H  25.23400 -1.06200 23.69000
H  26.85200 -1.75700 23.09700
H  26.00700 -0.40600 22.32000
H  29.35000 1.80200 25.01600
H  28.79400 1.52600 23.35600
H  30.93000 -0.39100 23.77500
H  31.42900 1.11600 24.57800
H  31.11900 1.07600 22.85600
H  32.65900 -0.77800 28.31800
H  31.96900 -2.45600 27.98000
H  32.53000 -2.16700 29.54600
H  29.62200 0.11500 33.26100
H  29.27500 -2.03500 36.89300
H  29.86700 -3.16200 35.76900
H  28.15100 -3.05800 35.92800
Mg 8.54600 47.64600 25.01100
C  6.52400 47.59800 27.93000
C  11.17100 48.45800 27.02700
C  10.43900 47.66500 22.28900
C  5.69700 47.59400 23.03700
N  8.76400 48.12100 27.17000
C  7.84200 48.02200 28.21000
C  8.39900 48.53100 29.54200
C  9.77600 49.18800 29.04900
C  9.97900 48.51100 27.68800
C  9.84100 50.72800 28.95200
C  8.67300 47.30500 30.51800
C  9.04100 47.58400 31.96300
H  8.81300 46.52500 32.99500
N  10.51500 47.94200 24.68100
C  11.41900 48.16800 25.67100
C  12.73900 48.13300 25.05600
C  12.60800 47.80600 23.69300
C  11.13400 47.72900 23.49700
C  14.03600 48.42800 25.80000
C  13.69400 47.67000 22.55800
O  13.38500 47.49300 21.42200
C  15.10900 47.69400 22.87700
N  8.13400 47.48900 22.99300
C  9.08000 47.66000 22.04800
C  8.53200 47.74000 20.62400
C  7.07200 47.70100 20.90000
C  6.93100 47.52600 22.38400
C  9.09700 48.88000 19.70300
C  6.25400 46.60000 20.07600
C  6.12500 46.76300 18.53400
N  6.52500 47.53800 25.36700
C  5.52800 47.46100 24.45400
C  4.32700 47.27100 25.20700
C  4.66100 47.38000 26.57200
C  5.98400 47.54200 26.63100
C  2.99700 47.12500 24.71200
C  4.08800 47.25300 27.84000
O  2.95500 47.09800 28.14800
C  5.27400 47.30200 28.81800
C  5.33800 46.15500 29.73500
O  6.17800 45.24800 29.55000
O  4.57500 46.27900 30.81800
C  4.65800 45.19900 31.79000
H  11.96000 48.86500 27.66300
H  11.10500 47.50700 21.43800
H  4.82200 47.60600 22.38400
H  7.70000 49.28400 29.90500
H  10.56300 48.87700 29.73500
H  9.92800 51.08100 29.98000
H  8.86100 51.05400 28.60400
H  10.62200 51.10200 28.29100
H  9.43600 46.69700 30.03200
H  7.82800 46.61700 30.47600
H  8.52600 48.47300 32.32700
H  10.10100 47.81600 31.86100
H  14.39000 49.39500 25.44200
H  14.78900 47.64400 25.71900
H  13.84300 48.56800 26.86400
H  15.52700 48.66700 23.13700
H  15.75600 47.43100 22.04000
H  15.36500 47.00200 23.67900
H  8.80500 46.72700 20.33100
H  6.63800 48.68400 20.71600
H  9.79000 49.43400 20.33600
H  8.24100 49.51500 19.47300
H  9.48500 48.40700 18.80200
H  5.26200 46.50600 20.51800
H  6.78500 45.65200 20.16000
H  6.74900 47.58600 18.18300
H  5.09000 46.97600 18.26900
H  6.44600 45.81400 18.10400
H  2.89900 46.60800 23.75700
H  2.73700 48.17600 24.58400
H  2.51700 46.49600 25.46200
H  5.05600 48.19100 29.41000
H  4.56700 45.58500 32.80500
H  5.45800 44.46200 31.72300
H  3.77300 44.58600 31.61600

