158

Mg 49.90600 45.93700 42.14700
C  46.77500 46.28200 40.42800
C  49.86800 42.63400 40.85700
C  53.13200 45.89400 42.85200
C  49.95100 49.53200 42.36700
N  48.46200 44.61100 40.65200
C  47.28900 45.04100 40.20200
C  46.58400 43.87100 39.47300
C  47.46800 42.62600 39.86700
C  48.66300 43.33700 40.51900
C  46.84500 41.51800 40.75900
C  46.53600 44.12100 37.94900
C  45.24700 43.73800 37.29100
H  44.82500 44.38400 35.96100
N  51.25300 44.45200 41.94800
C  51.06400 43.20900 41.40700
C  52.29000 42.42500 41.61900
C  53.20300 43.30800 42.30700
C  52.56700 44.60500 42.36200
C  52.46600 40.90000 41.22500
C  54.57000 42.92500 42.88400
O  54.93900 41.78000 42.93300
C  55.68100 43.88200 43.45500
N  51.27700 47.50300 42.67100
C  52.56900 47.18100 42.95500
C  53.38300 48.50300 43.24500
C  52.48200 49.61200 42.80200
C  51.14300 48.88500 42.62400
C  53.83100 48.58900 44.64700
C  53.00600 50.36800 41.52000
C  53.26900 51.87200 41.87200
N  48.62400 47.55900 41.74300
C  48.78300 48.94200 41.84600
C  47.60600 49.66100 41.37400
C  46.82300 48.65600 40.90200
C  47.45300 47.39800 41.13900
C  47.41700 51.12100 41.22100
C  45.58900 48.39400 40.21600
O  44.80400 49.20700 39.78500
C  45.43200 46.93100 39.91300
C  44.33500 46.38800 40.78600
O  44.43000 46.09400 41.97600
O  43.18800 46.43200 40.02600
C  41.99400 46.13900 40.85700
H  49.93600 41.59200 40.53500
H  54.17100 45.79900 43.17300
H  49.96100 50.61700 42.49300
H  45.60500 43.67200 39.91100
H  47.87200 42.06100 39.02700
H  46.92800 41.59300 41.84400
H  47.51600 40.71700 40.45200
H  45.80800 41.33400 40.47700
H  47.22500 43.45600 37.42900
H  46.81900 45.11100 37.59200
H  44.34100 43.87600 37.88100
H  45.21600 42.66100 37.12800
H  52.01300 40.30800 42.02000
H  53.46800 40.65200 40.87300
H  51.93300 40.69500 40.29700
H  55.18700 44.43500 44.25400
H  55.79300 44.52700 42.58400
H  56.57900 43.33900 43.75000
H  54.27300 48.43200 42.61900
H  52.30900 50.30200 43.62800
H  54.85500 48.96000 44.68600
H  53.83400 47.61500 45.13700
H  53.12100 49.16000 45.24600
H  52.34500 50.27800 40.65700
H  53.95000 49.95000 41.16800
H  52.83800 52.47300 41.07200
H  54.35800 51.84100 41.84200
H  52.93100 52.12200 42.87700
H  47.38200 51.52000 42.23500
H  46.43900 51.28700 40.76900
H  48.18400 51.55500 40.58100
H  45.19500 46.78100 38.86000
H  41.11800 46.08300 40.21100
H  41.92700 46.96500 41.56600
H  41.99800 45.14500 41.30500
Mg -5.29100 25.52400 27.36100
C  -4.01600 27.32200 30.06500
C  -6.75100 23.42400 29.69400
C  -6.43000 23.55200 24.82000
C  -3.21700 27.25500 25.22000
N  -5.11500 25.30700 29.58900
C  -4.71100 26.23200 30.53200
C  -5.12800 25.90100 32.03400
C  -5.64700 24.48000 31.84900
C  -5.91900 24.40000 30.25500
C  -4.77500 23.26900 32.51100
C  -6.09800 27.04800 32.58400
C  -6.36300 27.15500 34.06000
H  -5.95800 25.94000 34.93300
N  -6.57400 23.82300 27.29100
C  -7.13400 23.17500 28.30300
C  -8.08800 22.15700 27.75900
C  -8.08600 22.24800 26.38400
C  -7.00500 23.23100 26.06700
C  -8.88900 21.27100 28.72300
C  -8.91300 21.55300 25.37400
O  -8.77400 21.83100 24.15200
C  -9.94600 20.53700 25.81400
N  -4.95200 25.57400 25.26700
C  -5.43900 24.52800 24.49300
C  -4.78700 24.57300 23.07000
C  -3.86000 25.88200 23.08800
C  -4.05000 26.30800 24.62100
C  -4.19000 23.16100 22.65400
C  -4.25100 27.02000 22.16600
C  -3.46700 27.25800 20.85000
N  -3.96800 27.01800 27.52000
C  -3.20700 27.72600 26.57000
C  -2.46000 28.76700 27.10900
C  -2.74700 28.68000 28.51600
C  -3.65500 27.58500 28.70600
C  -1.56800 29.64800 26.35000
C  -2.49500 29.24400 29.80600
O  -1.76300 30.18700 30.13400
C  -3.33700 28.45000 30.79900
C  -2.45800 27.93900 31.86700
O  -1.37700 27.35000 31.69800
O  -3.03000 28.20200 33.04900
C  -2.29000 27.87600 34.23900
H  -7.36700 22.98000 30.47800
H  -6.65600 22.99100 23.91000
H  -2.58600 27.90300 24.60800
H  -4.17000 25.83900 32.54900
H  -6.67600 24.38700 32.19600
H  -4.50100 22.59900 31.69600
H  -5.26400 22.74900 33.33400
H  -3.90100 23.72100 32.98000
H  -7.07600 26.73500 32.21800
H  -6.00000 28.07100 32.22100
H  -7.43900 27.31800 34.12900
H  -5.85100 28.03500 34.44900
H  -8.55100 21.46200 29.74200
H  -8.78500 20.20900 28.50400
H  -9.96100 21.46900 28.73900
H  -9.37800 19.95300 26.53800
H  -10.24200 19.92000 24.96600
H  -10.84900 20.97900 26.23600
H  -5.52100 24.75600 22.28500
H  -2.82100 25.55900 23.02900
H  -3.20200 23.26000 22.20400
H  -4.91600 22.70100 21.98300
H  -4.02800 22.58100 23.56300
H  -4.38100 27.94300 22.73000
H  -5.28400 26.83000 21.87500
H  -3.94800 26.62200 20.10700
H  -2.50600 26.79900 21.08300
H  -3.50200 28.28800 20.49500
H  -0.91700 28.98000 25.78800
H  -0.94900 30.36600 26.88900
H  -2.07500 30.14300 25.52200
H  -4.06600 29.18300 31.14500
H  -1.56400 27.06800 34.14300
H  -3.04800 27.42500 34.87900
H  -1.76000 28.74100 34.63700

