158

Mg 24.88900 -4.77500 46.07000
C  26.77900 -2.42300 44.43600
C  22.29900 -4.38300 43.82400
C  23.45100 -7.64400 47.26400
C  27.86600 -5.66700 47.91200
N  24.57800 -3.55800 44.38400
C  25.46300 -2.62400 43.87400
C  24.85400 -1.82400 42.62300
C  23.43100 -2.50600 42.60300
C  23.39200 -3.49900 43.70800
C  22.35500 -1.46800 42.60200
C  25.60400 -2.20200 41.30800
C  25.56100 -0.99700 40.30700
H  25.52800 -1.17100 38.77300
N  23.01800 -5.72900 45.77000
C  22.06900 -5.41300 44.78600
C  20.93200 -6.36300 44.87500
C  21.25900 -7.24000 45.86300
C  22.65200 -6.89700 46.31900
C  19.65100 -6.32000 44.08100
C  20.40400 -8.37300 46.41000
O  19.25700 -8.58300 45.94000
C  20.74900 -9.20800 47.63800
N  25.56900 -6.44600 47.30300
C  24.77600 -7.43900 47.72000
C  25.44800 -8.42000 48.69600
C  26.68000 -7.58800 49.11400
C  26.78500 -6.50200 48.00600
C  24.63400 -9.08000 49.78900
C  28.02000 -8.45500 49.29100
C  29.01500 -7.94700 50.32000
N  26.90500 -4.08900 46.27700
C  27.93900 -4.51700 47.11000
C  29.06600 -3.62000 46.94900
C  28.66100 -2.70400 45.98600
C  27.37200 -3.11500 45.53400
C  30.36600 -3.77600 47.68100
C  29.05400 -1.62000 45.21500
O  30.08100 -0.96800 45.24800
C  27.87500 -1.40300 44.15400
C  27.35100 -0.04600 44.31700
O  26.42600 0.32100 45.05200
O  27.99200 0.75300 43.37800
C  27.63400 2.19500 43.29800
H  21.49200 -4.15800 43.12400
H  23.10400 -8.50600 47.83800
H  28.74400 -5.85600 48.53300
H  24.79300 -0.77000 42.89100
H  23.21200 -3.04000 41.67900
H  21.47700 -1.82000 42.06100
H  22.63200 -0.50400 42.17500
H  21.96300 -1.43200 43.61900
H  25.07400 -2.97300 40.75000
H  26.65600 -2.46400 41.42300
H  26.51300 -0.49200 40.47400
H  24.93600 -0.13400 40.53600
H  19.75400 -5.54700 43.32000
H  18.74200 -6.11200 44.64500
H  19.41400 -7.34900 43.81100
H  19.88400 -9.75300 48.01600
H  20.96500 -8.49300 48.43200
H  21.58200 -9.79200 47.24700
H  25.81000 -9.28800 48.14700
H  26.33800 -7.03000 49.98600
H  25.16500 -9.39700 50.68700
H  24.07100 -9.92200 49.38500
H  23.94800 -8.32400 50.17100
H  28.52200 -8.57700 48.33200
H  27.74200 -9.44700 49.64700
H  29.16300 -8.69900 51.09500
H  28.45300 -7.11200 50.74000
H  29.93600 -7.49800 49.94800
H  30.25700 -3.24100 48.62400
H  31.08500 -3.15100 47.15100
H  30.69000 -4.80800 47.81600
H  28.15500 -1.42700 43.10100
H  26.84000 2.42600 42.58800
H  28.50600 2.83500 43.16400
H  27.30100 2.48600 44.29500
Mg 47.03000 26.04700 28.93900
C  48.26800 27.95300 31.67000
C  45.93000 23.71900 31.38300
C  46.55700 23.83200 26.46600
C  48.49400 28.30400 26.68000
N  47.03100 25.93000 31.24500
C  47.54800 26.84400 32.07200
C  47.18500 26.48400 33.49400
C  46.75900 25.02300 33.45000
C  46.62900 24.78000 31.91600
C  47.74600 24.00100 34.07600
C  45.97300 27.39500 34.04700
C  45.92100 27.92300 35.48500
H  46.51100 27.09900 36.63000
N  46.30100 24.15900 28.92700
C  45.80500 23.45600 29.98000
C  45.18600 22.26000 29.48900
C  45.36700 22.22200 28.07100
C  46.13000 23.47000 27.74400
C  44.56400 21.19800 30.38000
C  44.83300 21.18700 27.06900
O  45.06800 21.28900 25.86900
C  44.13800 19.89100 27.53600
N  47.67800 26.06500 26.85000
C  47.15100 25.07500 26.06900
C  47.43700 25.43500 24.57000
C  47.89100 26.91500 24.61400
C  48.01900 27.13000 26.12300
C  48.45400 24.47400 23.80000
C  47.12700 27.94800 23.76300
C  47.33700 27.74000 22.28600
N  47.91400 27.93600 29.10900
C  48.50600 28.71300 28.10200
C  49.10600 29.89700 28.67400
C  48.89300 29.68600 30.10200
C  48.27700 28.43200 30.28400
C  49.89200 30.99100 28.00200
C  49.16200 30.23500 31.44000
O  49.68600 31.31300 31.74000
C  48.75000 29.13700 32.47000
C  49.86900 28.70900 33.31800
O  50.92500 28.30300 32.94400
O  49.54100 29.03700 34.62200
C  50.58200 28.76400 35.70300
H  45.68700 22.99500 32.16300
H  46.58500 23.09700 25.65800
H  48.88800 28.93500 25.88100
H  47.99000 26.76400 34.17300
H  45.75000 24.97100 33.86000
H  48.22700 24.50000 34.91700
H  48.42300 23.66600 33.29000
H  47.18500 23.11800 34.38200
H  45.04500 26.85300 33.86500
H  45.89400 28.26500 33.39500
H  44.88700 28.02100 35.81800
H  46.50400 28.83000 35.64500
H  44.43800 21.60300 31.38400
H  45.25200 20.36200 30.51200
H  43.65400 20.81800 29.91500
H  44.57700 19.51800 28.46200
H  44.39300 19.01900 26.93300
H  43.06100 20.05600 27.51500
H  46.39800 25.35600 24.25200
H  48.91600 27.00400 24.25400
H  49.16600 23.99900 24.47400
H  48.85800 25.03200 22.95500
H  47.74000 23.68500 23.56400
H  47.51300 28.94300 23.98400
H  46.09200 27.81200 24.07800
H  46.38200 27.45700 21.84300
H  47.94800 26.86000 22.08900
H  47.71200 28.56600 21.68000
H  49.94300 30.67500 26.96000
H  50.87600 31.01800 28.46900
H  49.41700 31.95300 28.19400
H  47.96900 29.52300 33.12400
H  50.00600 28.59200 36.61200
H  51.14200 29.69800 35.75100
H  51.06500 27.87600 35.29600

