158

Mg 24.18300 -4.85700 45.02600
C  26.17200 -2.16400 43.79600
C  21.65800 -3.64700 43.13900
C  22.41900 -7.65300 45.90300
C  26.97800 -6.08200 46.67300
N  23.99500 -3.09700 43.48500
C  24.86500 -2.09300 43.30200
C  24.32200 -1.15800 42.20200
C  22.77400 -1.45100 42.27100
C  22.75000 -2.79400 43.03800
C  22.14000 -0.34200 43.09400
C  24.97900 -1.55400 40.85000
C  25.69900 -0.47700 40.02100
H  25.41000 -0.36200 38.60900
N  22.27500 -5.61200 44.53000
C  21.38900 -4.90300 43.79900
C  20.13200 -5.72400 43.74700
C  20.30600 -6.81900 44.69200
C  21.69300 -6.70300 45.14300
C  19.01300 -5.30900 42.82900
C  19.26700 -7.83700 45.02100
O  18.21900 -7.70500 44.41700
C  19.47700 -8.96000 46.07000
N  24.68000 -6.62600 45.96700
C  23.76600 -7.66400 46.20200
C  24.45800 -8.88900 46.89300
C  25.81200 -8.31700 47.25300
C  25.86200 -6.94200 46.58300
C  23.70400 -9.46800 48.11500
C  26.99800 -9.23400 46.82000
C  27.71600 -10.06500 47.92300
N  26.18900 -4.34000 45.20100
C  27.19700 -4.89400 45.95000
C  28.42200 -4.18400 45.74700
C  28.08900 -3.19300 44.90100
C  26.71100 -3.24500 44.66800
C  29.69600 -4.53100 46.40100
C  28.59400 -1.99700 44.25500
O  29.78200 -1.59500 44.31000
C  27.37300 -1.32300 43.45500
C  27.16700 0.14100 43.95100
O  26.41300 0.48100 44.85100
O  27.91600 1.04400 43.25300
C  28.03900 2.37400 43.88400
H  20.75000 -3.26900 42.66500
H  21.86600 -8.51200 46.28900
H  27.81500 -6.37500 47.31000
H  24.58700 -0.12200 42.41100
H  22.33900 -1.48500 41.27200
H  21.51800 -0.80600 43.86000
H  21.60000 0.26800 42.37000
H  22.91100 0.27800 43.55300
H  24.21500 -1.92200 40.16500
H  25.78300 -2.26000 41.05400
H  26.77000 -0.60000 40.17600
H  25.46700 0.51600 40.40800
H  19.06600 -4.32700 42.35800
H  18.08200 -5.45600 43.37500
H  18.91500 -5.96100 41.96000
H  19.71100 -8.52200 47.04000
H  20.25700 -9.65300 45.75700
H  18.55600 -9.52000 46.23900
H  24.37900 -9.60700 46.07700
H  25.85500 -8.20800 48.33700
H  23.12000 -10.28500 47.69100
H  22.89400 -8.80600 48.42100
H  24.33900 -9.81200 48.93200
H  27.73100 -8.57400 46.35700
H  26.67200 -9.77600 45.93200
H  28.76400 -10.25000 47.68700
H  27.22100 -11.03500 47.96700
H  27.67200 -9.51200 48.86200
H  29.90900 -5.42700 45.81800
H  29.51200 -4.81100 47.43900
H  30.46000 -3.77300 46.23000
H  27.44800 -1.29300 42.36800
H  27.11600 2.93400 44.03700
H  28.70700 3.03500 43.33100
H  28.38800 2.14500 44.89100
Mg 42.08800 40.91300 26.78800
C  40.87000 43.15900 29.26300
C  43.17200 38.84700 29.27100
C  43.14000 38.90200 24.42000
C  41.32200 43.38800 24.35900
N  42.05200 41.05200 29.02100
C  41.46100 42.02200 29.80400
C  41.68800 41.83400 31.34200
C  42.51700 40.43600 31.30500
C  42.57600 40.04900 29.80400
C  43.95700 40.52300 31.84900
C  40.26900 41.67500 32.01700
C  40.08500 42.50100 33.24200
H  39.69500 41.72700 34.52600
N  42.94800 39.00100 26.84600
C  43.29000 38.31100 28.01200
C  43.87300 36.97100 27.64000
C  43.81700 37.00100 26.23500
C  43.31500 38.35800 25.78000
C  44.35900 35.94700 28.63600
C  44.17100 35.96500 25.27500
O  44.31700 36.21600 24.10200
C  44.40000 34.55200 25.70400
N  42.25200 41.10900 24.74200
C  42.72100 40.15000 23.93100
C  42.66900 40.50800 22.42100
C  42.03800 41.90000 22.42200
C  41.83800 42.13600 23.91700
C  44.01100 40.30000 21.68000
C  40.64200 41.96800 21.70300
C  40.36700 43.18700 20.83100
N  41.33200 42.84600 26.77100
C  41.05100 43.73800 25.71300
C  40.43100 44.87100 26.24300
C  40.29900 44.67100 27.60800
C  40.90100 43.47800 27.90900
C  39.91500 45.94600 25.34400
C  39.75100 45.30400 28.82800
O  39.08800 46.33300 28.98000
C  40.19100 44.34000 30.01200
C  41.01200 45.22100 30.80800
O  42.19000 45.41200 30.63200
O  40.35500 45.75600 31.88400
C  41.23100 46.45500 32.93600
H  43.32300 38.09300 30.04600
H  43.56400 38.24300 23.65900
H  41.17900 44.11900 23.56000
H  42.32600 42.61000 31.76500
H  41.98500 39.72700 31.93900
H  44.35900 41.44200 32.27600
H  44.68900 40.24700 31.08900
H  43.96600 39.82000 32.68200
H  40.13600 40.60300 32.16200
H  39.47400 41.87300 31.29900
H  39.22200 43.16000 33.14900
H  40.99800 43.05900 33.45000
H  43.96000 34.97200 28.35700
H  44.18700 36.16700 29.69000
H  45.44500 35.95600 28.55100
H  45.36700 34.42300 26.19000
H  44.45700 33.86800 24.85700
H  43.62900 34.13400 26.35200
H  41.95300 39.76100 22.07800
H  42.76500 42.69900 22.27000
H  44.43700 41.23800 21.32400
H  43.60700 39.67400 20.88500
H  44.67200 39.85800 22.42500
H  39.79400 41.71400 22.34000
H  40.70600 41.13700 21.00100
H  41.16700 43.90800 20.99600
H  39.45900 43.64600 21.22200
H  40.27200 42.88600 19.78800
H  39.60200 45.62200 24.35100
H  40.68700 46.70400 25.20500
H  38.99700 46.31400 25.80100
H  39.34700 44.11600 30.66500
H  40.52100 47.18100 33.33300
H  42.08700 47.02800 32.58000
H  41.62800 45.68400 33.59600

