158

Mg 36.49100 49.59800 25.93600
C  36.56900 47.57800 28.78000
C  35.42600 52.16800 27.93400
C  36.11500 51.48300 23.15200
C  37.26800 46.84000 23.98900
N  35.90800 49.77200 28.21900
C  36.21300 48.86300 29.17200
C  36.08700 49.50600 30.59000
C  35.49600 50.98300 30.27900
C  35.58500 51.00200 28.70700
C  33.95100 51.17100 30.64200
C  37.42400 49.38100 31.32300
C  37.36600 49.15600 32.83600
H  36.15400 49.66300 33.58200
N  35.92700 51.53100 25.63000
C  35.64400 52.49700 26.57900
C  35.57600 53.79900 25.91800
C  35.67600 53.58800 24.52100
C  36.00000 52.18900 24.36400
C  35.41800 55.00000 26.79300
C  35.57400 54.60900 23.41500
O  35.88500 54.35500 22.24000
C  35.13000 55.98100 23.86400
N  36.53000 49.19200 23.81800
C  36.33900 50.09200 22.88300
C  36.68600 49.58800 21.42600
C  37.17400 48.13700 21.74500
C  36.98000 48.01500 23.28900
C  35.60900 49.67500 20.32900
C  38.62800 47.90500 21.32700
C  38.60700 46.90300 20.21300
N  36.71200 47.59400 26.27100
C  37.06400 46.61000 25.34700
C  37.14600 45.35400 26.05200
C  36.98700 45.68200 27.40400
C  36.77300 47.10400 27.48400
C  37.53800 44.10900 25.39800
C  36.99200 45.14300 28.73800
O  37.14500 43.99400 29.13800
C  36.74300 46.35200 29.70500
C  35.39800 46.09500 30.32300
O  34.36200 46.07800 29.68900
O  35.54100 45.69000 31.66300
C  34.34400 45.45600 32.34300
H  35.12500 53.05600 28.49300
H  36.16200 52.11000 22.25900
H  37.57500 46.05200 23.29800
H  35.28300 48.87600 30.97100
H  36.10900 51.79800 30.66400
H  33.90100 50.47200 31.47700
H  33.34000 50.75000 29.84400
H  33.39500 52.06600 30.92300
H  37.84600 50.38600 31.28300
H  38.16000 48.69900 30.89900
H  38.29400 49.57500 33.22300
H  37.55400 48.10900 33.07500
H  34.48100 55.55700 26.77300
H  36.17900 55.65700 26.37300
H  35.78800 54.87400 27.81100
H  34.81700 56.69200 23.09900
H  35.99100 56.47100 24.31900
H  34.23500 55.83900 24.47100
H  37.55300 50.16600 21.10500
H  36.52900 47.42700 21.22700
H  35.53200 48.72500 19.79900
H  35.74800 50.46900 19.59500
H  34.67400 49.96100 20.81100
H  39.27700 47.48500 22.09600
H  39.13000 48.82000 21.01200
H  37.96400 47.13200 19.36400
H  38.49100 45.91300 20.65400
H  39.61700 46.83000 19.81100
H  37.45600 43.20400 25.99900
H  38.50200 44.22000 24.90200
H  36.87000 43.91400 24.55900
H  37.58400 46.47800 30.38700
H  34.00000 44.44300 32.13400
H  33.55200 46.18800 32.18900
H  34.46500 45.46900 33.42600
Mg 9.21000 48.08700 25.62800
C  6.91200 48.53700 28.32100
C  11.63800 49.13600 27.66800
C  11.22900 47.65400 23.02200
C  6.40500 47.56800 23.50200
N  9.20300 49.01100 27.78200
C  8.21700 48.85500 28.72900
C  8.78500 49.08400 30.12900
C  10.27200 49.34800 29.83600
C  10.40600 49.17600 28.32800
C  10.74900 50.81500 30.25200
C  8.41000 47.95700 31.11200
C  9.40000 47.46900 32.26400
H  8.72500 47.02800 33.63200
N  11.13500 48.48900 25.34600
C  12.01800 48.84100 26.31100
C  13.39400 48.91100 25.78200
C  13.29300 48.32700 24.49700
C  11.84200 48.18500 24.19300
C  14.51700 49.30700 26.71000
C  14.37700 48.07500 23.51500
O  14.17600 47.80700 22.36400
C  15.76100 48.29300 24.03300
N  8.87000 47.45100 23.49600
C  9.92200 47.34400 22.64400
C  9.44000 47.28200 21.23700
C  7.92000 47.54300 21.33900
C  7.68900 47.54000 22.87500
C  10.12300 48.20300 20.10800
C  6.99500 46.47900 20.54600
C  7.48000 45.94000 19.19100
N  7.08100 47.92800 25.80200
C  6.08900 47.80400 24.82600
C  4.77400 47.79200 25.46200
C  5.04500 47.95000 26.81300
C  6.47600 48.16300 26.94600
C  3.53800 47.51700 24.68500
C  4.43600 48.10200 28.17600
O  3.29800 48.08600 28.49100
C  5.64400 48.42200 29.20800
C  5.63900 47.27700 30.09500
O  6.07500 46.16300 29.90300
O  5.13500 47.65200 31.23900
C  4.73600 46.59300 32.21400
H  12.46500 49.35500 28.34600
H  11.93000 47.47500 22.20400
H  5.60200 47.41100 22.77900
H  8.21400 49.97100 30.40400
H  10.89200 48.63500 30.37900
H  9.89000 51.44200 30.48900
H  11.25700 51.33400 29.43900
H  11.43300 50.80900 31.10100
H  8.33400 47.08400 30.46300
H  7.48800 48.19100 31.64400
H  10.06200 48.27800 32.57100
H  9.90300 46.58700 31.86700
H  15.33700 49.83500 26.22100
H  14.82500 48.56300 27.44400
H  13.98000 50.07300 27.27000
H  16.01800 49.31200 24.32500
H  16.45200 47.86000 23.31100
H  15.85800 47.73900 24.96600
H  9.59100 46.26000 20.88900
H  7.62400 48.49000 20.88900
H  10.99900 48.74300 20.46700
H  9.43000 49.01300 19.88200
H  10.57800 47.65200 19.28500
H  6.07100 47.04100 20.40900
H  6.91400 45.54100 21.09400
H  8.36200 46.53900 18.96700
H  6.68400 45.90500 18.44700
H  7.73600 44.90100 19.40100
H  3.42900 46.49900 24.31100
H  3.49500 48.27300 23.90100
H  2.79300 47.78000 25.43700
H  5.38200 49.31400 29.77600
H  4.12600 47.10900 32.95500
H  5.59900 46.19900 32.75100
H  4.10700 45.82000 31.77100

