158

Mg 36.19600 2.32500 29.93100
C  33.83500 3.76500 32.05800
C  38.24700 2.09600 32.65800
C  38.54600 1.34000 27.82700
C  33.95400 2.87600 27.30800
N  36.09300 3.17500 31.99800
C  35.01100 3.51200 32.68900
C  35.25400 3.56300 34.18000
C  36.78300 3.29800 34.30400
C  37.07400 2.84700 32.88300
C  37.43300 4.49700 34.87900
C  34.52000 2.47700 34.99200
C  33.80800 3.08100 36.31100
H  34.55200 4.10300 37.11000
N  38.15200 1.70600 30.23400
C  38.80400 1.62700 31.42700
C  40.07800 0.92300 31.25400
C  40.17600 0.84800 29.83200
C  38.93100 1.31800 29.20800
C  41.07400 0.74700 32.41200
C  41.32500 0.38700 28.95300
O  41.38400 0.33800 27.73900
C  42.62100 -0.11800 29.61200
N  36.23900 2.18900 27.92600
C  37.38400 1.89800 27.27600
C  37.22600 2.05300 25.67000
C  35.72100 2.25500 25.49400
C  35.25700 2.41000 27.04600
C  38.12400 3.18900 25.17400
C  35.08200 1.02200 24.89000
C  33.76900 1.22700 24.08600
N  34.18500 3.02000 29.63300
C  33.44500 3.19900 28.57600
C  32.14400 3.70600 28.94600
C  32.24800 3.92300 30.30200
C  33.55800 3.56600 30.67900
C  31.05800 4.04100 27.97800
C  31.53700 4.51800 31.42100
O  30.43900 5.04000 31.49500
C  32.52400 4.21600 32.65200
C  32.63700 5.52300 33.35000
O  33.27500 6.49900 33.00100
O  31.84400 5.45600 34.51400
C  31.88700 6.64400 35.40000
H  38.92200 2.10800 33.51600
H  39.29700 0.96400 27.13000
H  33.27600 3.17000 26.50400
H  34.93600 4.56500 34.46800
H  36.95700 2.38300 34.87000
H  37.61300 4.24700 35.92400
H  36.86000 5.42100 34.80100
H  38.43800 4.66600 34.49200
H  35.10000 1.63600 35.37000
H  33.72900 2.04800 34.37600
H  33.56500 2.25700 36.98200
H  32.89900 3.46400 35.84800
H  41.70300 -0.12300 32.21900
H  40.43200 0.62600 33.28400
H  41.61900 1.67000 32.61400
H  43.08100 0.72500 30.12700
H  43.36300 -0.42200 28.87300
H  42.44200 -0.93700 30.30900
H  37.51600 1.10000 25.22600
H  35.38800 3.17600 25.01600
H  38.94100 2.82000 24.55400
H  38.53100 3.68500 26.05600
H  37.50300 3.92000 24.65800
H  34.82500 0.38300 25.73500
H  35.79700 0.66900 24.14700
H  33.68100 0.34100 23.45700
H  33.87700 2.06500 23.39700
H  32.92300 1.40700 24.74800
H  31.03800 5.08300 27.65900
H  30.09500 3.72700 28.38300
H  31.12600 3.37500 27.11700
H  32.10400 3.49300 33.35100
H  31.27300 7.27500 34.75800
H  32.88000 7.05600 35.57900
H  31.34700 6.40100 36.31500
Mg 47.62900 24.25300 28.07800
C  48.49500 26.44600 30.63900
C  47.02000 21.80900 30.29300
C  47.12300 22.20600 25.53800
C  48.69400 26.61900 25.70800
N  47.84700 24.14600 30.31700
C  48.07100 25.25900 31.12800
C  47.88400 24.85800 32.62100
C  47.50900 23.29500 32.42100
C  47.53900 22.97500 30.91300
C  48.39400 22.30900 33.22800
C  46.70200 25.71700 33.25500
C  47.01000 26.43700 34.49800
H  46.08500 26.39800 35.75100
N  46.95200 22.29800 27.94300
C  46.81500 21.39300 28.96200
C  46.43700 20.16400 28.46600
C  46.44400 20.28300 27.07500
C  46.90300 21.64000 26.77200
C  46.17900 18.98700 29.39500
C  46.16200 19.26400 25.98500
O  46.10300 19.50300 24.80300
C  45.82600 17.82600 26.36400
N  47.82400 24.40900 25.89900
C  47.48800 23.48600 25.10300
C  47.42800 23.85100 23.62200
C  47.72900 25.40000 23.67500
C  48.11200 25.47200 25.15000
C  48.39400 23.00100 22.71800
C  46.53600 26.26400 23.26600
C  46.88300 27.16000 22.11500
N  48.60200 26.10800 28.10900
C  48.90500 26.94700 27.05900
C  49.37400 28.18700 27.60000
C  49.19900 28.02500 29.05300
C  48.71000 26.75900 29.22600
C  50.08400 29.19900 26.73500
C  49.42100 28.64800 30.27000
O  49.95600 29.74900 30.49800
C  48.78200 27.70900 31.36400
C  49.88700 27.55400 32.40600
O  50.94200 26.99300 32.14800
O  49.57700 28.26200 33.53700
C  50.52700 28.15800 34.68100
H  46.72800 21.02900 31.00000
H  46.98400 21.51200 24.70700
H  48.95100 27.26500 24.86600
H  48.79500 25.03900 33.19200
H  46.48400 23.22100 32.78400
H  48.68100 21.51100 32.54300
H  47.78800 21.80000 33.97700
H  49.26900 22.87300 33.54900
H  45.81900 25.08000 33.30600
H  46.59700 26.54400 32.55300
H  47.24900 27.48600 34.32300
H  48.00500 26.09100 34.77800
H  46.49800 18.03400 28.97400
H  45.11100 18.91900 29.60200
H  46.60100 19.12300 30.39100
H  45.58000 17.11100 25.57900
H  44.99400 17.88400 27.06500
H  46.79300 17.52600 26.76800
H  46.42700 23.63000 23.25000
H  48.66500 25.53300 23.13200
H  47.96400 23.13900 21.72600
H  48.52700 22.02200 23.17700
H  49.41600 23.37900 22.70500
H  46.28300 26.85900 24.14400
H  45.68000 25.65200 22.98000
H  46.98900 28.20000 22.42600
H  46.05200 27.04500 21.41900
H  47.79200 26.85700 21.59600
H  49.53000 29.52100 25.85300
H  51.06800 28.77600 26.53400
H  50.24200 30.07300 27.36700
H  47.91000 28.22300 31.77000
H  51.53300 27.78400 34.49500
H  50.12600 27.56600 35.50400
H  50.63300 29.16900 35.07400

