158

Mg 43.82100 3.72200 47.06200
C  41.92900 6.76100 47.13800
C  40.97400 2.01700 46.94400
C  45.76000 1.07800 46.66700
C  46.76100 5.82900 46.82700
N  41.69900 4.35300 47.00700
C  41.13200 5.61300 47.08400
C  39.64100 5.46000 47.26700
C  39.38300 3.87500 47.49800
C  40.74700 3.36500 47.09300
C  39.07600 3.57400 48.97400
C  38.76100 6.00000 46.05200
C  39.20500 5.53600 44.58100
H  39.35200 6.72300 43.62100
N  43.42700 1.84100 46.76000
C  42.16000 1.33900 46.72000
C  42.31700 -0.16200 46.60300
C  43.68500 -0.55200 46.60800
C  44.36800 0.85600 46.68700
C  41.04300 -1.07800 46.49800
C  44.23100 -1.99200 46.58400
O  43.56900 -2.99700 46.32400
C  45.67400 -2.18000 46.76700
N  45.95800 3.44200 46.76800
C  46.53800 2.24100 46.61000
C  48.09400 2.26200 46.53300
C  48.35900 3.81500 46.36400
C  46.93800 4.41300 46.64000
C  48.75000 1.75500 47.79800
C  48.87500 4.28500 45.00000
C  49.77700 3.47800 44.06000
N  44.34000 5.91400 46.99000
C  45.55100 6.55700 46.92100
C  45.24600 7.97700 46.99200
C  43.86300 8.12700 47.09700
C  43.35800 6.89200 47.03800
C  46.30600 9.07000 46.94000
C  42.77600 9.11800 47.14000
O  42.74400 10.32500 47.04000
C  41.53400 8.26600 47.23600
C  40.78500 8.58000 48.46800
O  40.87800 7.98300 49.52500
O  39.94200 9.64500 48.30600
C  38.97300 9.91500 49.37500
H  40.12400 1.33200 46.94700
H  46.28400 0.16400 46.37800
H  47.64900 6.44900 46.68500
H  39.30800 6.05800 48.11500
H  38.59400 3.42300 46.89600
H  39.90800 3.07100 49.46500
H  38.24000 2.87800 48.90400
H  38.82700 4.48500 49.52000
H  38.70200 7.08400 46.14500
H  37.74200 5.61700 46.08900
H  38.44400 4.85600 44.19700
H  40.17000 5.03300 44.62800
H  40.34500 -0.86700 47.30800
H  41.13300 -2.14000 46.26800
H  40.53600 -0.65800 45.63000
H  45.93900 -1.54500 47.61300
H  46.17600 -2.03000 45.81100
H  45.82000 -3.16400 47.21200
H  48.48800 1.65800 45.71600
H  49.08800 4.25900 47.04200
H  49.42100 0.96700 47.45700
H  47.98600 1.37400 48.47600
H  49.30300 2.46500 48.41200
H  49.42400 5.21800 45.12900
H  48.04700 4.66100 44.40000
H  49.43900 3.75200 43.06100
H  49.61300 2.41700 44.25000
H  50.81400 3.73800 44.27600
H  46.51000 9.55600 47.89400
H  46.00900 9.89800 46.29600
H  47.22000 8.62100 46.55000
H  40.94300 8.52400 46.35800
H  38.93800 10.96200 49.67400
H  39.09900 9.34500 50.29600
H  37.99900 9.75300 48.91400
Mg -11.68800 15.98100 42.00600
C  -8.46800 14.89800 41.09900
C  -10.93600 19.02100 40.47900
C  -14.93900 16.50000 41.64900
C  -12.40900 12.69200 42.99500
N  -9.89200 16.81400 40.71200
C  -8.69300 16.21500 40.53600
C  -7.71200 17.11900 39.73600
C  -8.41100 18.50600 39.93600
C  -9.84900 18.13600 40.38400
C  -7.67200 19.45800 40.98000
C  -7.63100 16.65900 38.20700
C  -6.26000 16.59200 37.59900
H  -6.01800 17.17900 36.22700
N  -12.81900 17.62500 41.22100
C  -12.32900 18.79200 40.72000
C  -13.44000 19.64500 40.49900
C  -14.62100 18.96200 40.86800
C  -14.18000 17.57300 41.28600
C  -13.27500 21.01000 39.99200
C  -16.07200 19.53900 40.76100
O  -16.33700 20.64100 40.21000
C  -17.31700 18.80700 41.30100
N  -13.48100 14.65000 42.08500
C  -14.68600 15.19900 42.09700
C  -15.77400 14.19500 42.48300
C  -14.89200 13.01000 42.86600
C  -13.49300 13.56300 42.74500
C  -16.67500 14.66400 43.63600
C  -15.21800 11.78400 41.90800
C  -15.49200 10.46700 42.63600
N  -10.66700 14.21300 42.34300
C  -11.06700 12.98600 42.67800
C  -9.92800 12.07300 42.67300
C  -8.87800 12.85900 42.20600
C  -9.39400 14.09400 41.84900
C  -9.98500 10.66700 43.19600
C  -7.45800 12.79700 41.91900
O  -6.62000 11.93800 42.16000
C  -7.16300 14.08100 41.02200
C  -6.05800 14.83400 41.63800
O  -6.07400 15.21700 42.78600
O  -5.12600 15.07300 40.69500
C  -4.01800 15.86700 41.19800
H  -10.81300 20.03900 40.10500
H  -16.01500 16.67100 41.73400
H  -12.64100 11.65700 43.25800
H  -6.74200 17.23400 40.21900
H  -8.59000 19.12000 39.05400
H  -8.39000 20.10800 41.48000
H  -6.99200 20.01900 40.33900
H  -7.14000 18.84500 41.70700
H  -8.20400 17.37600 37.62000
H  -8.00400 15.64200 38.07900
H  -5.95300 15.54700 37.54700
H  -5.54300 17.13800 38.21200
H  -12.26600 21.42100 39.95000
H  -13.89100 21.63900 40.63500
H  -13.79700 21.02600 39.03600
H  -18.18800 19.46200 41.30000
H  -17.11300 18.46700 42.31700
H  -17.43700 17.98600 40.59400
H  -16.38900 13.90300 41.63300
H  -15.05000 12.86400 43.93500
H  -16.44100 14.47500 44.68400
H  -17.68000 14.28100 43.45400
H  -16.73800 15.74700 43.52900
H  -14.32700 11.56800 41.31800
H  -16.09800 11.95700 41.28900
H  -14.86900 9.63900 42.29800
H  -16.55300 10.22800 42.70800
H  -15.17600 10.51300 43.67900
H  -10.77900 10.09200 42.71900
H  -10.32400 10.68600 44.23100
H  -9.00300 10.21600 43.04800
H  -6.90700 13.62000 40.06700
H  -3.21900 15.17300 41.46100
H  -4.29800 16.61300 41.94200
H  -3.81800 16.50300 40.33500

