158

Mg 24.65000 -4.43400 46.21700
C  26.94000 -2.23300 44.78100
C  22.28900 -3.40700 43.97200
C  22.84900 -7.21300 46.91500
C  27.36400 -5.83800 48.19400
N  24.72800 -3.05200 44.48100
C  25.68800 -2.18400 44.08700
C  25.22600 -1.19700 42.98300
C  23.66700 -1.42200 43.09600
C  23.55400 -2.71700 43.90600
C  22.83600 -0.27800 43.73700
C  25.76300 -1.59600 41.59300
C  26.05000 -0.41600 40.64600
H  25.58800 -0.54400 39.16900
N  22.74500 -5.18500 45.63400
C  21.98000 -4.67200 44.61100
C  20.77600 -5.51600 44.47300
C  20.85900 -6.65200 45.34100
C  22.19500 -6.33300 46.03100
C  19.67800 -5.14600 43.57200
C  19.87600 -7.80400 45.44400
O  18.91500 -7.97300 44.68800
C  20.07600 -8.88700 46.50300
N  25.01900 -6.16600 47.53600
C  24.09300 -7.08500 47.61700
C  24.54200 -8.28900 48.48400
C  25.96700 -7.76700 49.01200
C  26.13200 -6.50000 48.17500
C  23.54100 -8.95000 49.47600
C  27.10500 -8.74100 48.96500
C  28.26800 -8.55900 49.92200
N  26.69000 -4.08700 46.58400
C  27.62400 -4.69300 47.46200
C  28.88600 -3.96300 47.25600
C  28.63200 -2.91100 46.33600
C  27.29400 -3.07700 45.85400
C  30.15300 -4.27400 48.00900
C  29.29600 -1.78100 45.62000
O  30.45000 -1.43000 45.71000
C  28.26000 -1.33500 44.61700
C  28.02100 0.11400 44.89400
O  27.41200 0.60800 45.85400
O  28.51100 0.76400 43.81300
C  28.29000 2.22700 43.62000
H  21.55700 -2.99000 43.27700
H  22.42700 -8.20100 47.11300
H  28.22500 -6.12400 48.80300
H  25.43200 -0.19300 43.35400
H  23.30300 -1.73000 42.11600
H  21.82600 -0.27100 43.32500
H  23.14000 0.74800 43.53200
H  22.79100 -0.52200 44.79800
H  25.05700 -2.06600 40.90800
H  26.67600 -2.16900 41.75400
H  27.12600 -0.26300 40.73000
H  25.49600 0.43700 41.03800
H  19.74100 -4.05900 43.59900
H  18.70300 -5.40000 43.98900
H  19.78900 -5.61800 42.59500
H  20.18600 -8.45000 47.49500
H  20.96300 -9.43400 46.18200
H  19.18600 -9.51600 46.52600
H  24.72500 -9.15500 47.84800
H  26.03200 -7.43400 50.04800
H  22.59800 -8.40500 49.43500
H  23.94400 -8.88300 50.48700
H  23.29000 -10.00200 49.34300
H  27.51000 -8.74100 47.95300
H  26.78700 -9.77900 49.06500
H  28.49700 -9.52700 50.36700
H  28.26300 -7.80900 50.71300
H  29.08500 -8.31200 49.24400
H  30.63500 -5.17800 47.63600
H  29.95300 -4.33100 49.07900
H  30.88600 -3.47000 47.95300
H  28.73700 -1.40400 43.64000
H  29.17700 2.78400 43.32000
H  27.82000 2.70000 44.48200
H  27.68400 2.39700 42.73100
Mg 26.52200 49.55000 26.44900
C  24.43800 50.61200 28.85200
C  28.81000 48.57500 28.74200
C  28.45500 48.40500 23.91900
C  24.36800 50.99400 24.01800
N  26.66000 49.72300 28.65600
C  25.61700 50.04500 29.44100
C  25.92200 49.92200 30.93200
C  27.42300 49.41900 30.84700
C  27.66600 49.16500 29.32100
C  28.50800 50.32800 31.53300
C  24.97600 48.93000 31.73000
C  24.54700 49.32600 33.12100
H  25.64900 49.93100 34.09100
N  28.40900 48.59700 26.33100
C  29.19200 48.30100 27.40600
C  30.38600 47.65000 26.91500
C  30.29400 47.60500 25.49300
C  29.05200 48.16900 25.18300
C  31.52600 47.31100 27.78300
C  31.13100 46.92100 24.42800
O  30.88300 46.92000 23.22400
C  32.34600 46.24900 24.83900
N  26.36400 49.65300 24.28800
C  27.34500 49.06200 23.48000
C  27.02100 49.26400 21.95000
C  25.67900 50.14000 21.96400
C  25.38000 50.18100 23.45300
C  28.05000 49.97700 21.10800
C  24.53200 49.63700 21.09100
C  23.89800 48.31400 21.53300
N  24.79000 50.68300 26.41600
C  23.97300 51.14400 25.38800
C  22.75300 51.74300 25.94000
C  22.89800 51.49700 27.35300
C  24.10100 50.89200 27.55800
C  21.70500 52.43000 25.24400
C  22.26500 51.71500 28.59500
O  21.17100 52.17100 28.82800
C  23.23300 51.18700 29.62900
C  23.43700 52.38100 30.51900
O  24.10500 53.37500 30.24300
O  22.76400 52.10900 31.70600
C  23.16300 52.95000 32.83300
H  29.49700 48.21400 29.51000
H  29.00500 48.16000 23.00900
H  23.66100 51.35400 23.26800
H  25.83800 50.92500 31.35000
H  27.47200 48.51500 31.45400
H  28.29000 51.35400 31.23400
H  29.47100 50.07400 31.09200
H  28.53100 50.01500 32.57700
H  25.41500 47.93300 31.77200
H  24.11600 48.90400 31.06100
H  24.18400 48.41000 33.58700
H  23.74800 50.06700 33.09100
H  31.59800 46.25500 28.04300
H  31.41100 47.71800 28.78800
H  32.44700 47.72900 27.37700
H  32.11200 45.49400 25.58900
H  33.11900 46.96900 25.10700
H  32.71800 45.66000 24.00000
H  26.80800 48.26700 21.56500
H  25.75800 51.21800 21.81900
H  28.79800 50.52200 21.68400
H  27.56700 50.52600 20.30000
H  28.61100 49.27200 20.49400
H  24.85300 49.51700 20.05700
H  23.78800 50.39800 20.85800
H  22.89300 48.43500 21.93900
H  24.51300 47.85600 22.30800
H  23.80400 47.59800 20.71700
H  21.51900 51.75600 24.40800
H  22.03000 53.38600 24.83200
H  20.85900 52.61600 25.90500
H  22.86600 50.38300 30.26600
H  24.10800 52.60900 33.25600
H  22.33200 52.90900 33.53700
H  23.34700 53.99400 32.57600

