158

Mg 25.13400 1.43200 29.51200
C  27.30000 1.12800 32.49100
C  22.53500 1.48500 31.66900
C  23.40100 1.91700 26.81100
C  28.17000 1.13600 27.61800
N  24.98800 1.13300 31.89600
C  25.97500 1.31700 32.83300
C  25.30700 1.29500 34.31000
C  23.78900 1.22800 33.98000
C  23.76300 1.33600 32.43900
C  22.92400 0.00400 34.49400
C  25.77200 2.50200 35.18000
C  26.01600 2.24100 36.64200
H  25.94700 3.48700 37.58200
N  23.25000 1.65200 29.29600
C  22.23200 1.67800 30.24800
C  20.92900 1.73500 29.58800
C  21.21100 1.92700 28.19800
C  22.67000 1.82000 28.03400
C  19.61000 1.63200 30.31500
C  20.19900 2.04100 26.99400
O  20.61700 2.01900 25.87300
C  18.65300 2.14300 27.31200
N  25.73600 1.39000 27.46000
C  24.77300 1.60500 26.52600
C  25.39600 1.73500 25.08400
C  26.91900 1.79100 25.43000
C  26.95800 1.43300 26.94800
C  24.80100 0.60300 24.23000
C  27.66900 3.11100 25.25100
C  26.95800 4.27200 25.94700
N  27.20200 1.07800 29.93000
C  28.27800 0.92900 29.00700
C  29.56200 0.63200 29.68100
C  29.14000 0.69800 31.07400
C  27.74700 0.98100 31.18000
C  30.89800 0.40900 29.14200
C  29.71100 0.76400 32.41300
O  30.89100 0.49100 32.77700
C  28.52500 1.09500 33.42300
C  28.52400 -0.03300 34.31100
O  28.10400 -1.15200 34.13600
O  29.08500 0.35400 35.47700
C  29.17300 -0.61700 36.57000
H  21.68700 1.44300 32.35600
H  22.78800 1.99400 25.91000
H  29.06900 1.17600 27.00000
H  25.68000 0.36400 34.73600
H  23.29000 2.12700 34.34000
H  21.97700 0.53200 34.60900
H  23.22400 -0.49300 35.41600
H  22.75500 -0.70300 33.68200
H  25.11700 3.37300 35.20200
H  26.66300 2.87200 34.67200
H  27.03500 1.85500 36.67300
H  25.30200 1.53900 37.07000
H  18.92300 2.39300 29.94500
H  19.55400 1.59800 31.40300
H  19.15500 0.73700 29.88900
H  18.36500 3.06300 27.82100
H  18.23100 1.33000 27.90300
H  18.21800 2.02300 26.32000
H  24.95100 2.66700 24.73800
H  27.48100 1.03600 24.87900
H  24.33500 -0.16300 24.85000
H  25.63900 0.15000 23.70100
H  24.08700 1.06200 23.54500
H  27.64800 3.32600 24.18200
H  28.70300 3.03700 25.58700
H  26.19100 3.90200 26.62700
H  26.52100 4.92500 25.19100
H  27.69100 4.81900 26.53900
H  31.64000 1.18500 29.33300
H  30.74500 0.39800 28.06300
H  31.31200 -0.56800 29.39100
H  28.57600 2.00300 34.02400
H  28.35400 -0.37500 37.24800
H  30.14400 -0.45100 37.03600
H  29.17300 -1.65300 36.22900
Mg 27.07700 50.12300 26.74500
C  24.99800 51.06700 29.51200
C  29.34700 49.07100 29.15100
C  29.05400 49.49600 24.20800
C  24.74200 51.57500 24.65700
N  27.15800 50.12300 29.12200
C  26.19900 50.60800 30.00500
C  26.65900 50.41900 31.42600
C  28.11200 49.85800 31.33700
C  28.20400 49.62000 29.81500
C  29.28600 50.80500 31.83500
C  25.74200 49.54100 32.39100
C  25.54400 50.18100 33.87700
H  25.44100 49.14600 34.99200
N  28.91400 49.39400 26.69900
C  29.69700 49.03000 27.74400
C  30.84700 48.39800 27.19100
C  30.89700 48.57900 25.79600
C  29.56300 49.12900 25.53900
C  32.04900 47.82700 28.00800
C  32.00500 48.45100 24.81700
O  31.89200 48.63200 23.65100
C  33.34700 48.05300 25.11500
N  27.02700 50.63600 24.76000
C  27.90300 50.17400 23.88500
C  27.58900 50.47200 22.50400
C  26.09400 50.96000 22.56200
C  25.93000 51.09500 24.06600
C  28.53500 51.50800 21.86900
C  25.06100 49.92500 21.93100
C  23.83200 50.38900 21.11700
N  25.23000 51.13300 26.99800
C  24.43300 51.69500 25.99100
C  23.30100 52.34200 26.64500
C  23.47300 52.09300 28.00000
C  24.60200 51.31100 28.18800
C  22.26900 53.12300 25.86700
C  22.84200 52.32400 29.25800
O  21.75700 52.81700 29.45200
C  23.84700 51.67900 30.34100
C  24.20300 52.70200 31.33200
O  25.20400 53.31600 31.36600
O  23.21000 52.72000 32.33000
C  23.52900 53.55300 33.45400
H  30.10400 48.72800 29.85800
H  29.65300 49.15700 23.36000
H  23.88500 51.74700 24.00300
H  26.69300 51.42300 31.84900
H  28.22100 48.96000 31.94600
H  29.94500 51.08800 31.01500
H  29.90400 50.32300 32.59200
H  28.98900 51.72300 32.34100
H  26.21500 48.57300 32.56100
H  24.82100 49.31000 31.85600
H  24.57500 50.67300 33.79100
H  26.12400 51.05100 34.18600
H  31.97000 47.92600 29.09100
H  32.93400 48.45200 27.89000
H  32.14700 46.76200 27.79800
H  33.27700 47.04300 25.52000
H  33.63500 48.76600 25.88700
H  33.97000 47.97400 24.22400
H  27.59700 49.59200 21.86000
H  26.00800 51.85600 21.94700
H  29.50400 51.45700 22.36400
H  28.11500 52.51400 21.88600
H  28.79700 51.13400 20.88000
H  24.67800 49.21300 22.66200
H  25.66200 49.41800 21.17400
H  23.78500 50.02000 20.09200
H  23.72400 51.47300 21.07600
H  22.92000 50.01400 21.58100
H  22.83600 53.71300 25.14700
H  21.75300 53.77800 26.56800
H  21.46500 52.52700 25.43400
H  23.30500 50.86400 30.82000
H  23.63400 54.60100 33.17400
H  24.43100 53.18200 33.94100
H  22.68000 53.60700 34.13600

