158

Mg 25.65000 -0.49800 29.40000
C  27.36800 -0.97200 32.36700
C  22.86800 0.19800 31.16800
C  23.85200 -0.52800 26.39100
C  28.44000 -1.60300 27.67600
N  25.17300 -0.53400 31.58500
C  26.06500 -0.60100 32.60500
C  25.43900 -0.32700 33.98700
C  24.02400 0.15600 33.57400
C  23.99500 -0.04500 32.01300
C  22.80800 -0.59100 34.19200
C  26.13200 0.78600 34.87200
C  26.96400 0.35200 36.08500
H  26.88500 1.20900 37.31800
N  23.62500 -0.26200 28.86700
C  22.63700 -0.01200 29.77900
C  21.36000 0.18900 29.10000
C  21.64000 0.08900 27.70500
C  23.08100 -0.28400 27.57800
C  19.97000 0.28800 29.86400
C  20.76700 0.17000 26.46700
O  21.19600 0.07200 25.32300
C  19.29800 0.51400 26.59300
N  25.96600 -1.23200 27.32400
C  25.15700 -1.01900 26.25600
C  25.90100 -1.17300 24.83600
C  27.42800 -1.15200 25.34700
C  27.31700 -1.26200 26.90000
C  25.47000 -2.55900 24.21300
C  28.29900 0.13100 25.07500
C  29.63100 -0.12800 24.29100
N  27.52600 -1.19800 29.90100
C  28.59800 -1.54800 29.07400
C  29.75300 -1.76200 29.84900
C  29.33900 -1.67100 31.17500
C  27.99300 -1.21800 31.11200
C  31.19800 -2.09800 29.43100
C  29.75700 -1.83700 32.55000
O  30.78900 -1.99700 33.13100
C  28.47300 -1.49700 33.40500
C  28.10600 -2.53200 34.44500
O  27.21400 -3.33800 34.26000
O  28.85700 -2.37300 35.58200
C  28.63500 -3.35500 36.67400
H  21.97100 0.64600 31.60000
H  23.36500 -0.33500 25.43200
H  29.36400 -1.71900 27.10600
H  25.27000 -1.28900 34.47100
H  23.84900 1.21800 33.74400
H  22.60100 -1.46600 33.57600
H  21.90700 0.01800 34.26700
H  22.98400 -1.00200 35.18600
H  25.37600 1.46400 35.26900
H  26.84900 1.38400 34.30900
H  27.99200 0.25800 35.73400
H  26.73400 -0.65400 36.43500
H  19.28200 0.99500 29.40100
H  20.17200 0.37100 30.93200
H  19.35000 -0.60200 29.76400
H  18.93900 0.47100 25.56400
H  19.13000 1.36500 27.25200
H  18.86700 -0.32000 27.14700
H  25.77500 -0.29600 24.20100
H  27.92200 -2.05100 24.97800
H  24.93200 -3.12200 24.97700
H  26.32400 -3.15100 23.88600
H  24.78700 -2.21500 23.43600
H  28.58100 0.57400 26.03000
H  27.66700 0.84800 24.55000
H  29.46800 -0.79100 23.44200
H  30.39400 -0.50200 24.97300
H  29.86400 0.90600 24.03800
H  31.30100 -3.12900 29.09300
H  31.81600 -1.92100 30.31100
H  31.47700 -1.48700 28.57300
H  28.85000 -0.61400 33.92200
H  28.90500 -4.27900 36.16400
H  27.63500 -3.38500 37.10800
H  29.27600 -3.16700 37.53600
Mg 40.32600 7.36900 29.43500
C  41.95700 9.33000 31.89300
C  38.15400 6.20700 31.73100
C  38.79300 5.93100 26.86900
C  42.96100 8.30500 27.22100
N  40.07000 7.80300 31.55700
C  40.91800 8.54600 32.42900
C  40.42900 8.50100 33.91400
C  39.29700 7.38200 33.84200
C  39.14500 7.09200 32.27300
C  39.67800 6.14000 34.64100
C  39.97300 9.86800 34.53500
C  39.07700 9.78300 35.84300
H  39.45300 10.75100 36.98700
N  38.71300 6.23300 29.25800
C  37.89200 5.91100 30.33400
C  36.78700 5.15800 29.89000
C  36.91500 5.09000 28.46500
C  38.19200 5.71400 28.12700
C  35.62200 4.65300 30.74700
C  35.96300 4.52400 27.47400
O  36.25500 4.39900 26.29800
C  34.57700 4.04200 27.88900
N  40.95700 6.98300 27.36300
C  40.02400 6.51900 26.49900
C  40.53800 6.45700 25.04600
C  41.92700 7.07300 25.12000
C  41.97800 7.53700 26.63600
C  40.45900 4.99400 24.45500
C  42.28700 8.29200 24.14900
C  41.45400 9.62200 24.43200
N  42.09200 8.50300 29.50100
C  43.06800 8.77500 28.51500
C  43.98800 9.77100 29.01800
C  43.58300 9.97700 30.30100
C  42.43400 9.22300 30.55200
C  45.04000 10.42400 28.17000
C  43.88600 10.78000 31.47900
O  44.80400 11.57700 31.63100
C  42.91700 10.35100 32.57900
C  43.74100 9.62500 33.61300
O  44.33900 8.50600 33.54100
O  43.76200 10.44300 34.75900
C  44.26800 9.84600 36.00800
H  37.51200 5.68200 32.44100
H  38.25900 5.60900 25.97300
H  43.74600 8.70400 26.57600
H  41.30400 8.23200 34.50600
H  38.33800 7.78700 34.16600
H  39.23600 6.18600 35.63600
H  40.76200 6.16600 34.75600
H  39.31700 5.13800 34.41100
H  39.48900 10.31300 33.66600
H  40.83800 10.45100 34.85100
H  38.74100 8.80100 36.17400
H  38.18600 10.26600 35.44000
H  35.63800 4.86300 31.81600
H  35.64600 3.57000 30.63000
H  34.70100 5.13200 30.41300
H  34.04500 3.52800 27.08800
H  34.14000 5.00500 28.15200
H  34.72800 3.33600 28.70600
H  39.75200 7.04500 24.57200
H  42.76900 6.38300 25.06900
H  41.47500 4.67900 24.21800
H  39.79600 5.04300 23.59000
H  40.10300 4.30600 25.22100
H  41.98900 8.02100 23.13600
H  43.34100 8.57200 24.14400
H  40.82000 9.55400 25.31600
H  40.85300 9.68600 23.52500
H  42.02100 10.54400 24.56000
H  45.84700 9.69700 28.08500
H  45.29700 11.26000 28.82000
H  44.67000 10.75700 27.20100
H  42.39000 11.21200 32.99000
H  45.00300 9.07300 35.78400
H  43.58200 9.30900 36.66300
H  44.82500 10.59200 36.57500

