158

Mg 46.25200 3.61300 47.48900
C  43.70800 6.05900 46.73000
C  43.78100 1.35500 47.78000
C  48.70700 1.30400 47.44200
C  48.59400 6.21600 47.25600
N  43.99800 3.69900 47.12200
C  43.14900 4.73700 46.86900
C  41.68800 4.34000 46.84900
C  41.73800 2.83200 47.27100
C  43.28000 2.61400 47.48400
C  40.85900 2.43700 48.51300
C  41.05600 4.65600 45.39600
C  39.75300 5.51300 45.23300
H  39.85200 6.87300 44.36800
N  46.27800 1.63000 47.55400
C  45.08200 0.88700 47.68700
C  45.45800 -0.52400 47.70400
C  46.87100 -0.61100 47.52600
C  47.32900 0.80400 47.50500
C  44.45900 -1.69000 47.73700
C  47.70100 -1.88800 47.38900
O  47.21900 -3.00300 47.43200
C  49.18000 -1.82600 47.32500
N  48.32100 3.74300 47.06400
C  49.13100 2.60700 47.16500
C  50.59500 3.04800 47.42200
C  50.47200 4.60500 47.42300
C  49.02300 4.90100 47.20900
C  51.09500 2.45300 48.81600
C  51.41800 5.27900 46.42900
C  52.18300 6.52000 46.99000
N  46.22300 5.65500 46.96400
C  47.28000 6.60300 47.08400
C  46.75500 7.92800 46.71500
C  45.38100 7.76400 46.67100
C  45.10200 6.36600 46.83100
C  47.52100 9.17300 46.51400
C  44.13400 8.44800 46.48600
O  43.88000 9.68200 46.32800
C  42.96500 7.34400 46.58900
C  42.20000 7.65400 47.85600
O  42.17100 6.96100 48.90700
O  41.41500 8.77100 47.57600
C  40.29700 9.06000 48.54600
H  43.06200 0.61600 48.13800
H  49.47700 0.54100 47.57200
H  49.32900 7.02200 47.22800
H  41.20400 4.94800 47.61200
H  41.36300 2.19200 46.47300
H  41.38100 2.02000 49.37400
H  40.21600 1.61700 48.19500
H  40.23900 3.32100 48.65900
H  40.77700 3.69300 44.96900
H  41.84600 5.09400 44.78700
H  39.30100 5.67600 46.21100
H  38.97900 4.94400 44.71800
H  44.68900 -2.54700 47.10300
H  43.49900 -1.26800 47.43900
H  44.36300 -2.11200 48.73800
H  49.54600 -2.85000 47.25600
H  49.58100 -1.37000 48.23000
H  49.53000 -1.30000 46.43600
H  51.19200 2.61200 46.62100
H  50.79000 4.89700 48.42300
H  50.46000 1.63600 49.16100
H  51.16400 3.25800 49.54700
H  52.08700 2.02600 48.66800
H  50.84600 5.65800 45.58200
H  52.07300 4.60000 45.88200
H  51.88800 6.71300 48.02100
H  51.99500 7.32600 46.28000
H  53.24900 6.32800 46.86800
H  46.76400 9.90400 46.23000
H  48.15700 8.92100 45.66500
H  48.22500 9.28000 47.33800
H  42.39900 7.53900 45.67800
H  40.37900 8.59000 49.52600
H  39.26600 8.86800 48.24800
H  40.32200 10.15000 48.56700
Mg 30.48300 57.86300 40.26100
C  27.63400 56.11600 39.04000
C  32.38900 55.12800 39.30900
C  33.22600 59.77600 40.42500
C  28.45000 60.60700 40.87300
N  30.04100 55.86000 39.04500
C  28.78300 55.31000 38.90500
C  28.86000 53.83800 38.52500
C  30.36400 53.44200 39.02000
C  30.98200 54.90100 39.15400
C  30.51500 52.52600 40.25600
C  28.67100 53.66100 37.02200
C  28.90900 54.79000 36.02500
H  28.01000 54.93300 34.78000
N  32.52000 57.49600 39.93900
C  33.11700 56.29700 39.54900
C  34.51000 56.48500 39.31100
C  34.76300 57.91600 39.51400
C  33.44800 58.49400 39.93700
C  35.35900 55.31200 38.87600
C  36.02300 58.62300 39.29300
O  37.06800 58.00900 39.05700
C  36.20000 60.17700 39.28800
N  30.83000 59.94200 40.61000
C  32.02900 60.47200 40.74100
C  31.91200 62.02800 41.06800
C  30.35000 62.20500 41.26300
C  29.84100 60.86900 40.86400
C  32.82000 62.52700 42.21200
C  29.74800 63.32700 40.34000
C  28.71100 64.40300 40.87800
N  28.48200 58.27200 40.03300
C  27.78800 59.41200 40.41200
C  26.37300 59.26100 40.11900
C  26.25800 57.97800 39.56500
C  27.55100 57.46100 39.53300
C  25.32000 60.29300 40.31200
C  25.33600 57.02200 39.03100
O  24.13800 57.09800 39.01700
C  26.20000 55.62000 38.81000
C  25.72300 54.66200 39.84300
O  25.61400 55.02100 40.98800
O  25.31300 53.48900 39.32100
C  24.57800 52.49600 40.14100
H  32.91600 54.19300 39.10900
H  34.06500 60.47100 40.50000
H  27.83800 61.49000 41.06600
H  28.09900 53.23600 39.02200
H  30.79500 52.80100 38.25000
H  31.00300 51.56000 40.12500
H  29.54900 52.32900 40.72100
H  31.11300 53.02500 41.01900
H  27.66800 53.30100 36.79600
H  29.35200 52.84300 36.78400
H  29.84600 54.51700 35.54000
H  28.83700 55.78100 36.47400
H  36.30200 55.62800 38.43000
H  34.91500 54.55400 38.23100
H  35.64300 54.79000 39.79000
H  36.14600 60.57200 40.30200
H  35.44400 60.71200 38.71300
H  37.08800 60.54900 38.77800
H  32.26300 62.53900 40.17100
H  30.09300 62.35700 42.31100
H  33.35200 61.68000 42.64400
H  32.22600 62.91200 43.04100
H  33.46700 63.33400 41.87000
H  29.38700 62.83300 39.43800
H  30.60800 63.87100 39.94900
H  29.24800 65.34000 41.02400
H  28.40300 64.12700 41.88700
H  27.79400 64.53300 40.30300
H  24.75900 60.05300 41.21600
H  24.63800 60.43500 39.47400
H  25.77300 61.26100 40.52600
H  25.96600 55.15100 37.85400
H  24.92200 52.41900 41.17200
H  24.54400 51.52100 39.65500
H  23.56000 52.88500 40.11900

