158

Mg -3.20400 16.99900 26.45400
C  -3.72400 14.80300 29.18800
C  -4.06400 19.54100 28.54600
C  -3.19800 18.99300 23.83300
C  -3.61200 14.19100 24.40700
N  -3.72100 17.12900 28.66500
C  -3.63100 16.09700 29.57800
C  -3.82600 16.65300 31.04400
C  -4.14400 18.16500 30.82900
C  -3.97400 18.31400 29.20600
C  -5.62700 18.53500 31.22800
C  -2.52700 16.21700 31.87700
C  -1.79600 17.26300 32.81500
H  -1.30100 16.85200 34.25200
N  -3.28400 18.96900 26.29400
C  -3.54000 19.89900 27.29700
C  -3.33400 21.23200 26.77000
C  -2.99200 21.01400 25.36300
C  -3.15500 19.59200 25.12600
C  -3.52200 22.50700 27.57900
C  -2.62100 22.14400 24.37200
O  -2.56300 21.90900 23.16500
C  -2.41700 23.51500 24.73400
N  -3.37400 16.57300 24.45400
C  -3.17800 17.61700 23.48800
C  -3.28200 16.97300 22.03900
C  -3.42500 15.48500 22.33500
C  -3.35500 15.38700 23.81700
C  -4.37700 17.60600 21.07200
C  -2.35400 14.57000 21.65000
C  -2.84600 14.11200 20.23500
N  -3.52200 14.94100 26.69400
C  -3.60000 13.97800 25.81400
C  -3.83100 12.71500 26.44500
C  -3.94400 13.01400 27.79800
C  -3.72300 14.36000 27.89900
C  -4.02400 11.42900 25.73900
C  -4.27900 12.40500 29.05000
O  -4.62700 11.24300 29.27300
C  -4.08200 13.54900 30.00500
C  -3.14300 13.14500 31.07800
O  -1.91300 13.05100 30.93100
O  -3.82500 12.98000 32.29400
C  -3.01900 12.54800 33.43500
H  -4.17000 20.45100 29.14100
H  -3.30300 19.64100 22.96000
H  -3.76900 13.31800 23.76900
H  -4.73900 16.23800 31.47100
H  -3.57200 18.87500 31.42700
H  -5.58300 19.00000 32.21300
H  -6.16400 17.61000 31.43900
H  -6.30500 19.14900 30.63600
H  -1.72200 15.82500 31.25600
H  -2.88300 15.44400 32.55800
H  -2.51400 18.06900 32.96700
H  -0.93500 17.78900 32.40400
H  -2.50400 22.77900 27.85700
H  -4.03600 22.26900 28.51100
H  -4.13300 23.23800 27.04900
H  -1.88100 24.07800 23.97000
H  -1.71000 23.45700 25.56200
H  -3.33200 24.04700 24.99200
H  -2.32100 17.29400 21.63700
H  -4.42800 15.14700 22.07200
H  -4.81200 18.58200 21.28500
H  -5.31000 17.06400 21.22500
H  -4.14500 17.46300 20.01700
H  -2.11100 13.75900 22.33600
H  -1.50300 15.24900 21.57900
H  -3.86800 14.39700 19.98500
H  -2.82600 13.02800 20.35300
H  -2.19400 14.37200 19.40100
H  -4.77200 10.85400 26.28500
H  -3.13900 10.80000 25.64800
H  -4.47700 11.70100 24.78600
H  -5.01500 13.82400 30.49700
H  -3.24500 11.48300 33.49800
H  -3.32900 13.14600 34.29200
H  -1.93400 12.64400 33.38300
Mg 17.14000 51.15000 25.80700
C  18.83200 49.68300 28.59100
C  14.67900 52.06700 27.98800
C  15.41500 52.21400 23.09900
C  19.52100 49.58300 23.68800
N  16.77200 50.79500 28.00100
C  17.62900 50.28400 28.94800
C  17.07400 50.58100 30.34900
C  15.61800 51.00600 30.10800
C  15.70400 51.33500 28.56600
C  14.60000 49.81700 30.38900
C  17.91600 51.57600 31.16100
C  18.42000 51.13000 32.51600
H  17.83300 51.88600 33.72600
N  15.26900 52.02500 25.54200
C  14.41800 52.37500 26.56800
C  13.28500 53.13000 25.97200
C  13.55200 53.21000 24.58800
C  14.77000 52.45500 24.34000
C  12.05900 53.40900 26.65000
C  12.70000 53.94500 23.50300
O  12.92200 53.98100 22.29100
C  11.51200 54.77200 23.93300
N  17.41800 50.79900 23.67500
C  16.58000 51.50200 22.76200
C  17.16400 51.17000 21.37700
C  18.46900 50.31200 21.58600
C  18.49300 50.25600 23.03200
C  16.22400 50.55900 20.42600
C  19.83300 50.80500 20.98400
C  20.12700 50.18300 19.60800
N  18.90200 49.98300 26.06900
C  19.77800 49.42100 25.09600
C  20.87000 48.65400 25.73500
C  20.53000 48.81500 27.10800
C  19.29000 49.50200 27.24100
C  22.04600 47.99300 25.04800
C  20.90600 48.44200 28.51100
O  21.77600 47.63800 28.89100
C  19.81300 49.09500 29.50400
C  19.20500 48.05700 30.37700
O  18.24400 47.30100 30.10700
O  19.83300 48.02500 31.56700
C  19.39200 47.03100 32.53500
H  13.90500 52.49600 28.62800
H  14.86300 52.56200 22.22400
H  20.25300 49.05900 23.06900
H  16.98200 49.59900 30.81200
H  15.31800 51.89200 30.66600
H  14.82100 49.27200 31.30700
H  14.67500 49.18700 29.50400
H  13.54400 50.08300 30.44000
H  17.37100 52.47800 31.43700
H  18.70000 51.98500 30.52300
H  19.47500 51.40200 32.49900
H  18.38500 50.04500 32.60900
H  11.17700 52.92000 26.23600
H  11.91900 54.48800 26.58700
H  12.15700 53.05200 27.67500
H  11.13900 55.33200 23.07600
H  11.88000 55.54200 24.61300
H  10.72100 54.10700 24.27900
H  17.42400 52.14800 20.97200
H  18.34500 49.25500 21.35200
H  16.57600 50.89700 19.45100
H  15.23300 50.91100 20.71300
H  16.27900 49.47900 20.56000
H  20.73800 50.58500 21.55100
H  19.87500 51.88700 20.86200
H  19.35800 49.48000 19.28800
H  21.11700 49.75700 19.45000
H  20.10700 51.03200 18.92500
H  22.57600 48.71200 24.42300
H  21.76600 47.19400 24.36300
H  22.71500 47.67400 25.84700
H  20.06900 49.87500 30.22100
H  19.73800 46.05200 32.20400
H  18.33000 47.08500 32.77500
H  19.89800 47.24200 33.47700

