158

Mg 7.17200 2.80200 28.10800
C  8.72600 1.82900 31.13400
C  4.90300 4.55900 29.77300
C  5.97300 3.84000 25.16800
C  9.28500 0.63700 26.47000
N  6.84700 3.17400 30.29100
C  7.61100 2.68100 31.37800
C  7.18900 3.34600 32.67900
C  5.78100 3.93000 32.29400
C  5.86100 3.95300 30.66000
C  4.49200 3.15100 32.82900
C  8.19300 4.33100 33.26500
C  8.97000 3.90800 34.50600
H  8.23800 3.29300 35.72400
N  5.70300 4.15500 27.51200
C  4.78400 4.77900 28.37400
C  3.85500 5.66200 27.64900
C  4.18400 5.41700 26.26000
C  5.31900 4.46300 26.24400
C  2.76300 6.51900 28.30800
C  3.60500 5.97500 24.95200
O  3.89200 5.56200 23.82700
C  2.53700 7.04400 25.11200
N  7.49200 2.24300 26.04100
C  6.85500 2.80600 25.03300
C  7.19000 2.13700 23.72400
C  8.38400 1.22400 24.12800
C  8.43600 1.34500 25.64000
C  5.89600 1.49000 23.14600
C  9.70600 1.40700 23.47000
C  10.71500 2.38900 24.14600
N  8.69600 1.49200 28.63600
C  9.46500 0.71500 27.83600
C  10.40100 -0.01700 28.63900
C  10.18900 0.39800 29.96300
C  9.09300 1.29500 29.89800
C  11.45000 -0.93900 28.06000
C  10.65700 0.31500 31.31200
O  11.56900 -0.36400 31.82300
C  9.78300 1.25200 32.08800
C  9.17300 0.38700 33.16600
O  7.99000 -0.01000 33.19700
O  10.04000 0.34700 34.27800
C  9.56600 -0.40500 35.39500
H  4.20000 5.19000 30.32100
H  5.69700 4.20300 24.17600
H  9.94600 -0.04300 25.92800
H  6.90100 2.53100 33.34300
H  5.59900 4.98000 32.52300
H  4.67900 2.61300 33.75800
H  4.15100 2.45900 32.05800
H  3.74300 3.92400 32.99800
H  7.74200 5.29700 33.49400
H  8.97400 4.53900 32.53300
H  9.50900 4.75600 34.92700
H  9.79400 3.33500 34.08200
H  2.73700 6.25900 29.36600
H  1.85400 6.03500 27.95100
H  2.70900 7.60500 28.23100
H  2.99800 7.93400 25.54200
H  1.67500 6.68400 25.67300
H  2.10400 7.27600 24.13900
H  7.48700 2.91200 23.01700
H  8.15000 0.17700 23.93200
H  5.01700 1.81700 23.70200
H  6.06200 0.41600 23.06700
H  5.78700 1.89100 22.13900
H  9.39500 1.89200 22.54500
H  10.14100 0.42000 23.31000
H  10.25000 2.99600 24.92300
H  11.05700 3.06200 23.35900
H  11.49300 1.80100 24.63300
H  12.20300 -0.41200 27.47300
H  10.99700 -1.75600 27.50000
H  11.93100 -1.33500 28.95400
H  10.53800 1.93200 32.48200
H  8.76000 0.10100 35.92700
H  10.37600 -0.61600 36.09300
H  9.15200 -1.37800 35.13100
Mg 48.20900 25.34500 27.73300
C  48.94900 27.82700 30.18900
C  47.40500 23.30200 30.44800
C  47.63200 22.81700 25.55900
C  49.62500 27.35100 25.35300
N  48.15100 25.62300 30.07100
C  48.40200 26.72500 30.83500
C  48.12500 26.49800 32.32800
C  48.02800 24.93500 32.39600
C  47.79300 24.57800 30.83400
C  49.31700 24.38700 33.01200
C  46.87900 27.27300 32.93100
C  47.25900 28.27900 34.02400
H  46.22800 28.44900 35.13200
N  47.57500 23.35800 28.01000
C  47.18300 22.70500 29.17900
C  46.45800 21.59000 28.77400
C  46.49700 21.41900 27.36600
C  47.28500 22.54200 26.93300
C  45.91000 20.67700 29.77400
C  45.95700 20.35900 26.38500
O  46.11900 20.36600 25.20400
C  45.00300 19.39900 26.98700
N  48.87400 25.01900 25.78300
C  48.39200 23.92500 25.09300
C  48.71300 24.12900 23.54500
C  49.11400 25.71700 23.48600
C  49.26800 26.08000 24.97500
C  49.74800 23.11900 22.98200
C  48.05400 26.50300 22.61900
C  48.31300 26.73600 21.12800
N  49.13800 27.22300 27.69600
C  49.69200 27.89700 26.67900
C  50.20400 29.16900 27.09900
C  49.91100 29.19800 28.48800
C  49.26000 28.00600 28.81400
C  50.79900 30.12900 26.11300
C  50.07400 29.97400 29.74400
O  50.62400 31.03000 29.96800
C  49.46400 29.05300 30.89700
C  50.62600 28.89800 31.83600
O  51.17400 27.85800 32.02400
O  50.78800 30.01300 32.63200
C  51.34700 29.54500 33.89200
H  47.03600 22.68500 31.27000
H  47.38500 22.26900 24.64800
H  50.07200 27.91500 24.53200
H  49.05700 26.80600 32.80300
H  47.26600 24.61800 33.10700
H  49.81000 23.71600 32.30800
H  49.06700 23.71600 33.83400
H  50.12500 25.10100 33.17300
H  46.14800 26.53000 33.25000
H  46.39400 27.85200 32.14500
H  47.50900 29.26400 33.63000
H  48.16200 27.86500 34.47200
H  46.55000 19.80400 29.64700
H  44.92000 20.36000 29.44700
H  45.99300 20.98200 30.81800
H  44.57500 18.85500 26.14500
H  44.20500 19.94700 27.48700
H  45.52000 18.74400 27.68900
H  47.77100 23.97900 23.01800
H  50.09500 25.81700 23.02200
H  50.74400 23.55300 22.90500
H  49.47500 23.00000 21.93400
H  49.70200 22.13200 23.44400
H  48.09300 27.50000 23.05800
H  47.03300 26.12400 22.64200
H  49.14200 26.08000 20.86100
H  48.53600 27.76400 20.84400
H  47.41900 26.49400 20.55500
H  50.18800 30.07100 25.21200
H  51.83600 29.93100 25.84300
H  50.75000 31.15700 26.47100
H  48.59500 29.55900 31.31700
H  51.35900 30.38600 34.58700
H  52.39400 29.24400 33.85000
H  50.65000 28.76600 34.19800

