158

Mg 9.30000 2.63600 28.45700
C  10.43000 1.24500 31.28400
C  7.66700 5.15700 30.39000
C  8.15300 4.19600 25.68400
C  10.74200 0.18400 26.48000
N  8.99400 3.08200 30.58800
C  9.59500 2.33300 31.57700
C  9.40700 2.98400 32.94100
C  8.36400 4.16300 32.71100
C  8.28600 4.14100 31.15500
C  6.97800 3.94600 33.52200
C  10.84700 3.54300 33.48700
C  11.28900 3.11700 34.92900
H  10.19400 3.02600 36.09100
N  8.00900 4.30100 28.10900
C  7.48700 5.25300 29.00800
C  6.71400 6.27700 28.30800
C  6.88200 6.02100 26.89800
C  7.71700 4.74700 26.85900
C  5.91100 7.35000 29.10800
C  6.30800 6.91700 25.75500
O  6.45300 6.65300 24.52900
C  5.68500 8.21000 26.08900
N  9.16900 2.02800 26.37000
C  8.77000 2.95300 25.43400
C  8.94000 2.47300 24.00300
C  9.96000 1.32500 24.21700
C  9.94100 1.13400 25.76800
C  7.46600 2.10900 23.58200
C  11.38900 1.56600 23.81000
C  12.13800 0.57800 22.91000
N  10.29100 1.05800 28.80000
C  10.90000 0.14900 27.87000
C  11.60500 -0.85000 28.67700
C  11.48300 -0.46300 30.05800
C  10.68800 0.68700 29.95600
C  12.27800 -2.01200 28.07500
C  11.80200 -0.74200 31.45300
O  12.45700 -1.63900 31.99100
C  11.06000 0.31700 32.29800
C  10.09100 -0.34500 33.16500
O  9.07300 -0.92700 32.84800
O  10.61300 -0.36400 34.51700
C  9.68400 -0.96800 35.50500
H  7.05300 5.88400 30.92500
H  7.99000 4.73400 24.74700
H  11.29600 -0.55900 25.90100
H  9.04100 2.23300 33.64100
H  8.77100 5.13900 32.97500
H  6.89800 4.65300 34.34800
H  6.95900 2.94100 33.94300
H  6.15400 4.19300 32.85400
H  10.96200 4.62000 33.36100
H  11.61200 3.17700 32.80200
H  11.94100 3.89500 35.32500
H  11.92300 2.23100 34.95600
H  6.39300 8.31400 29.27500
H  5.64700 6.96700 30.09400
H  4.94700 7.48600 28.61800
H  6.34400 8.90800 26.60500
H  4.81600 8.04500 26.72500
H  5.42600 8.78700 25.20100
H  9.31100 3.21200 23.29400
H  9.53600 0.43500 23.75300
H  7.49300 1.06000 23.28700
H  7.21900 2.65400 22.67100
H  6.71900 2.26100 24.36200
H  12.14600 1.61900 24.59200
H  11.31800 2.46100 23.19200
H  13.06300 0.23800 23.37500
H  12.42200 1.09200 21.99200
H  11.55700 -0.33400 22.77300
H  13.24700 -1.71400 27.67500
H  11.65800 -2.59500 27.39400
H  12.44000 -2.68800 28.91400
H  11.88300 0.77500 32.84700
H  9.38500 -1.96800 35.18900
H  8.88000 -0.25400 35.68100
H  10.21900 -1.11100 36.44400
Mg 40.24000 41.60400 27.10200
C  39.56100 44.05700 29.67200
C  41.24500 39.57700 29.39300
C  41.07500 39.65900 24.58300
C  39.32900 44.21600 24.82500
N  40.59300 41.97700 29.28900
C  40.07200 42.85500 30.12000
C  40.00800 42.37700 31.55100
C  40.73300 40.96500 31.40400
C  40.85200 40.79900 29.86900
C  42.00800 40.70700 32.22200
C  38.66500 42.40200 32.26600
C  38.62000 41.78100 33.65100
H  38.27500 42.66800 34.86100
N  41.04300 39.78000 26.97600
C  41.42200 39.09600 28.08900
C  41.96900 37.83800 27.64100
C  42.04100 37.91800 26.22500
C  41.35900 39.15200 25.85800
C  42.50100 36.75700 28.53200
C  42.69300 36.94300 25.25500
O  42.79200 37.24400 24.04200
C  43.36500 35.63900 25.74500
N  40.16600 41.89400 25.04700
C  40.46300 40.85500 24.22800
C  40.20300 41.23600 22.79700
C  39.31200 42.50900 22.86200
C  39.66500 42.93700 24.29400
C  41.54100 41.28000 21.98200
C  37.82300 42.25000 22.58000
C  37.27400 41.14000 23.49700
N  39.60000 43.64300 27.15400
C  39.34000 44.59100 26.16600
C  39.06500 45.91400 26.68300
C  39.07600 45.72900 28.06200
C  39.41100 44.38100 28.29900
C  38.73600 47.17500 25.86800
C  38.83700 46.36000 29.32200
O  38.42200 47.49000 29.63000
C  39.07300 45.28400 30.39000
C  39.95300 45.68500 31.52700
O  41.18000 45.55900 31.54700
O  39.19200 46.16700 32.53300
C  39.93800 46.45100 33.80100
H  41.50900 38.83000 30.14500
H  41.21400 39.03700 23.69600
H  39.16700 45.02300 24.10700
H  40.65900 43.08600 32.06300
H  39.93900 40.27600 31.69400
H  42.17400 41.60300 32.81900
H  42.78300 40.43100 31.50800
H  41.92500 39.90300 32.95400
H  37.97600 41.94000 31.55900
H  38.35200 43.43200 32.43400
H  39.55200 41.29000 33.93000
H  37.92800 40.94400 33.55300
H  43.58100 36.65400 28.41900
H  42.11100 35.74500 28.42200
H  42.35700 37.06900 29.56600
H  43.71100 35.13800 24.84100
H  42.64400 34.93000 26.15200
H  44.10000 35.95800 26.48400
H  39.59300 40.53500 22.22700
H  39.66600 43.28400 22.18200
H  41.71400 42.30200 21.64500
H  41.38600 40.58800 21.15400
H  42.36100 40.92500 22.60600
H  37.72200 42.07700 21.50800
H  37.30400 43.20500 22.65700
H  36.49900 41.51100 24.16800
H  38.01000 40.44400 23.89900
H  36.86600 40.49100 22.72200
H  38.57200 47.97800 26.58700
H  37.83900 46.86200 25.33400
H  39.56700 47.39900 25.19900
H  38.12900 44.99700 30.85200
H  40.74500 45.74400 33.99300
H  39.25600 46.31400 34.64000
H  40.42100 47.42200 33.91000

