158

Mg 35.24900 1.53600 30.19600
C  32.97100 2.88800 32.46200
C  37.67500 1.87000 32.36700
C  37.40800 0.94300 27.65800
C  32.69500 1.84600 27.70900
N  35.36200 2.47600 32.10200
C  34.28500 2.70400 32.96100
C  34.58300 2.63000 34.42500
C  36.14600 2.66100 34.36000
C  36.43100 2.29900 32.82300
C  36.95000 3.91600 34.79000
C  33.91000 1.49500 35.31500
C  33.39500 1.74900 36.73600
H  34.06000 2.81500 37.58000
N  37.24300 1.28700 30.06200
C  38.07600 1.37100 31.06400
C  39.43900 0.99000 30.70800
C  39.38200 0.75700 29.28300
C  37.98300 0.97600 28.89800
C  40.58900 0.94300 31.65600
C  40.43500 0.31800 28.33700
O  40.22500 0.34900 27.14200
C  41.81500 0.08700 28.78500
N  35.12300 1.52300 27.97500
C  36.13900 1.21700 27.22400
C  35.74500 1.16600 25.76800
C  34.22800 1.20800 25.83700
C  33.93900 1.50900 27.25100
C  36.36400 2.34200 24.97200
C  33.54000 -0.08100 25.34200
C  33.33700 -0.22000 23.90100
N  33.24900 2.24700 30.06200
C  32.33400 2.22800 29.01900
C  31.05500 2.59000 29.48000
C  31.18200 2.93000 30.80000
C  32.54700 2.68400 31.11800
C  29.75800 2.62000 28.66100
C  30.63500 3.39100 32.06600
O  29.51900 3.77000 32.37600
C  31.78400 3.34000 33.17800
C  31.92500 4.69700 33.75500
O  32.45600 5.68600 33.22200
O  31.25700 4.71300 34.94900
C  31.21700 5.98500 35.70500
H  38.42600 1.80700 33.15700
H  37.91400 0.62600 26.74300
H  31.84700 1.84500 27.02000
H  34.31700 3.54400 34.95600
H  36.63500 1.85500 34.90800
H  37.69300 3.57600 35.51200
H  36.26900 4.64200 35.23300
H  37.57100 4.39200 34.03100
H  34.50700 0.58400 35.28000
H  33.01100 1.18300 34.78300
H  33.77100 0.92200 37.33800
H  32.31700 1.91100 36.69900
H  41.36700 0.21200 31.43700
H  40.07900 0.63600 32.56900
H  41.02300 1.91600 31.88700
H  42.21900 0.98100 29.25900
H  42.44300 -0.18100 27.93600
H  41.80000 -0.82300 29.38600
H  36.06400 0.28000 25.21900
H  33.80200 1.99000 25.20900
H  36.89300 3.03000 25.63200
H  35.55900 2.92200 24.52100
H  36.90900 1.98000 24.10100
H  32.57800 -0.25900 25.82300
H  34.29000 -0.79000 25.69200
H  34.12000 -0.90000 23.56600
H  33.51600 0.73800 23.41400
H  32.37800 -0.72100 23.77100
H  29.70000 3.67800 28.40400
H  28.92100 2.42800 29.33100
H  29.78900 1.95800 27.79500
H  31.47900 2.62900 33.94600
H  30.31100 6.49600 35.37900
H  32.06500 6.63800 35.50000
H  31.14500 5.78900 36.77500
Mg -11.25100 38.46100 42.09700
C  -9.33300 35.87900 40.58400
C  -9.39900 40.86400 40.68100
C  -13.72300 40.68900 42.89200
C  -13.51300 35.77700 43.12100
N  -9.55300 38.34300 40.80400
C  -8.93800 37.24600 40.30300
C  -7.67000 37.61800 39.55000
C  -7.63300 39.17400 39.64300
C  -8.96300 39.52000 40.38800
C  -6.37300 39.75300 40.35800
C  -7.65800 36.99400 38.11900
C  -6.34800 36.21900 37.75500
H  -5.44800 36.81000 36.67300
N  -11.43500 40.57400 41.92000
C  -10.56200 41.35700 41.25000
C  -11.08700 42.70700 41.34500
C  -12.38600 42.65600 41.84200
C  -12.55600 41.25300 42.25400
C  -10.37500 43.86900 40.66500
C  -13.35700 43.78400 41.99500
O  -13.03500 44.90100 41.61900
C  -14.64000 43.74400 42.86200
N  -13.32900 38.21200 42.77200
C  -14.05000 39.37900 43.17300
C  -15.38000 38.91400 43.71000
C  -15.25200 37.38000 43.76500
C  -13.99300 37.09100 43.10500
C  -15.86600 39.62400 45.04700
C  -16.52000 36.63400 43.23200
C  -17.31600 35.90300 44.32800
N  -11.35000 36.31500 41.98000
C  -12.29400 35.40600 42.48200
C  -11.76800 33.97700 42.29500
C  -10.65900 34.16500 41.53100
C  -10.42700 35.58400 41.36200
C  -12.34400 32.62100 42.68700
C  -9.57400 33.40300 40.91700
O  -9.29900 32.22200 40.93500
C  -8.63200 34.55300 40.29800
C  -7.41300 34.50300 41.23100
O  -7.33200 34.79600 42.43300
O  -6.48900 33.86300 40.46800
C  -5.23800 33.33500 41.04700
H  -8.74400 41.65800 40.31800
H  -14.51400 41.38900 43.17000
H  -14.14500 35.03400 43.61200
H  -6.81800 37.31400 40.15700
H  -7.56800 39.66400 38.67100
H  -6.34400 40.83500 40.22500
H  -5.48000 39.34600 39.88300
H  -6.41100 39.50800 41.41900
H  -7.84800 37.76900 37.37800
H  -8.56700 36.39700 38.04300
H  -6.53800 35.16400 37.55400
H  -5.64900 36.12400 38.58600
H  -10.51500 44.74000 41.30400
H  -10.87400 44.12000 39.72900
H  -9.31800 43.63100 40.54800
H  -15.45500 43.21500 42.36800
H  -14.95200 44.78800 42.89700
H  -14.44600 43.40100 43.87900
H  -16.00800 39.20300 42.86700
H  -15.16600 37.12600 44.82100
H  -16.73800 40.23100 44.80400
H  -15.09300 40.27800 45.45200
H  -16.18500 38.88500 45.78200
H  -16.00300 35.99300 42.51800
H  -17.16500 37.39300 42.78900
H  -17.78300 36.56600 45.05600
H  -16.67900 35.22900 44.90100
H  -18.05500 35.25300 43.86000
H  -12.46100 32.66800 43.76900
H  -11.78600 31.78600 42.26300
H  -13.32700 32.45200 42.24600
H  -8.28600 34.39700 39.27700
H  -4.37100 33.33900 40.38600
H  -5.40200 32.32400 41.41900
H  -5.10000 33.96700 41.92400

