158

Mg 34.83700 3.31700 29.81500
C  32.69800 4.24500 32.45200
C  37.49100 3.29500 31.96200
C  36.72800 2.67900 27.20900
C  32.04300 3.78200 27.67300
N  35.03600 3.83100 32.03800
C  33.99900 3.99200 32.93500
C  34.54000 3.97300 34.36600
C  36.09000 3.78800 34.17100
C  36.27800 3.67700 32.60300
C  36.94700 4.98000 34.72100
C  33.89700 2.76900 35.16500
C  33.44800 3.12500 36.65000
H  34.14600 4.23600 37.48000
N  36.82300 2.94300 29.65200
C  37.78900 2.96300 30.62300
C  39.02900 2.50200 30.02100
C  38.84900 2.51200 28.62900
C  37.43600 2.65700 28.47500
C  40.27400 2.26500 30.78000
C  39.86900 2.46700 27.40100
O  39.59000 2.56800 26.26100
C  41.38300 2.44700 27.72700
N  34.40400 3.34700 27.68100
C  35.42000 3.05000 26.79400
C  34.89000 2.96100 25.39700
C  33.41100 3.15100 25.57200
C  33.24600 3.42800 27.05600
C  35.54300 4.02600 24.39600
C  32.56400 1.89500 25.11300
C  31.13100 2.18700 24.66600
N  32.80300 3.99100 29.94900
C  31.81600 4.13500 29.04000
C  30.59400 4.46500 29.64900
C  30.90900 4.52700 30.96100
C  32.27300 4.32300 31.06100
C  29.29700 4.72600 28.90600
C  30.29900 4.75500 32.28300
O  29.17900 5.00900 32.66500
C  31.54000 4.58600 33.29200
C  31.56500 5.92200 33.95100
O  32.16800 6.86100 33.45300
O  31.01300 5.76000 35.20500
C  31.17500 6.85200 36.14700
H  38.34900 3.11700 32.61300
H  37.26300 2.44600 26.28600
H  31.11000 3.79800 27.10600
H  34.23700 4.87700 34.89600
H  36.52600 2.93300 34.68700
H  36.42200 5.57800 35.46600
H  37.25800 5.63500 33.90700
H  37.86100 4.56800 35.15000
H  34.60300 1.95100 35.31100
H  33.06600 2.32300 34.61800
H  33.40500 2.19500 37.21600
H  32.42000 3.41700 36.43200
H  40.84100 1.40000 30.43400
H  39.95000 2.14900 31.81400
H  40.91600 3.12800 30.60500
H  41.90500 2.70300 26.80500
H  41.68700 1.42300 27.94500
H  41.61200 3.11200 28.56000
H  35.04500 1.93800 25.05400
H  33.20500 4.12800 25.13400
H  34.79100 4.55400 23.81000
H  36.03300 3.52400 23.56200
H  36.23700 4.67900 24.92500
H  32.67400 1.14300 25.89400
H  33.10800 1.42100 24.29500
H  30.45600 1.99000 25.49900
H  30.75300 1.46500 23.94100
H  30.91500 3.20400 24.33700
H  28.67600 3.83100 28.94100
H  29.46000 4.89200 27.84100
H  28.73600 5.46400 29.47900
H  31.28900 3.85800 34.06400
H  30.25800 7.43100 36.25800
H  31.96900 7.53800 35.85500
H  31.42200 6.44700 37.12900
Mg 47.62500 25.98600 27.63200
C  48.55400 28.22900 30.18800
C  46.36300 23.91600 30.04800
C  47.19900 23.68000 25.27400
C  49.49600 28.05900 25.41600
N  47.59100 26.00400 29.81900
C  47.87000 27.11800 30.69200
C  47.36600 26.89200 32.10900
C  47.00200 25.33100 32.06700
C  46.86700 25.11400 30.54200
C  47.94600 24.33700 32.81800
C  46.17200 27.90900 32.54000
C  46.36700 28.65400 33.83300
H  45.36900 28.41500 34.97600
N  46.77200 24.04900 27.60700
C  46.26900 23.37500 28.71400
C  45.64700 22.11200 28.23600
C  45.86600 22.08600 26.83600
C  46.66300 23.29800 26.49100
C  44.87100 21.08100 29.10900
C  45.47500 21.02400 25.86400
O  45.83800 21.06800 24.67200
C  44.52400 19.90100 26.32500
N  48.58600 25.74400 25.70900
C  48.06800 24.70700 24.92600
C  48.47300 24.98400 23.43200
C  48.99800 26.48500 23.41500
C  49.02400 26.82100 24.96000
C  49.42800 23.96100 22.78100
C  48.07300 27.44900 22.54100
C  48.65400 27.82000 21.12300
N  48.72900 27.80400 27.70500
C  49.40000 28.51100 26.73300
C  49.98300 29.69800 27.28900
C  49.65400 29.67400 28.68400
C  48.90700 28.50600 28.88600
C  50.71200 30.78200 26.62400
C  49.74400 30.36700 30.00500
O  50.24400 31.46000 30.26400
C  48.96100 29.51500 30.97200
C  49.86700 29.15100 32.17700
O  50.89200 28.42600 32.09300
O  49.55700 29.86000 33.26900
C  50.32300 29.50100 34.47700
H  45.93800 23.28400 30.83000
H  47.03800 23.05000 24.39700
H  50.04600 28.73900 24.76200
H  48.16600 26.94900 32.84600
H  46.05100 25.06000 32.52600
H  47.54300 23.67900 33.58800
H  48.79400 24.78300 33.33800
H  48.33000 23.68200 32.03700
H  45.19300 27.43000 32.54700
H  46.03600 28.67200 31.77300
H  46.40600 29.71200 33.57200
H  47.40000 28.44200 34.10800
H  43.88000 20.95300 28.67300
H  44.75000 21.39100 30.14700
H  45.35300 20.10800 29.20100
H  45.01300 19.28500 27.08000
H  44.20500 19.23000 25.52800
H  43.67200 20.39200 26.79600
H  47.55100 25.03800 22.85400
H  50.02400 26.53000 23.05100
H  48.95100 23.32300 22.03700
H  49.75500 23.25300 23.54300
H  50.29200 24.41300 22.29600
H  48.00300 28.37300 23.11600
H  47.07500 27.02700 22.42200
H  49.39400 27.06300 20.86200
H  49.20300 28.76000 21.07500
H  47.85200 27.84100 20.38600
H  51.55900 31.15800 27.19800
H  50.17900 31.71100 26.42200
H  51.10700 30.37400 25.69300
H  48.08600 30.08400 31.28700
H  49.72900 28.83000 35.09800
H  50.57500 30.43100 34.98600
H  51.29700 29.01500 34.41500

