158

Mg 47.27600 16.04000 28.47200
C  45.18000 15.61300 31.19100
C  49.56800 17.71100 30.57300
C  49.03200 16.89100 25.79700
C  44.62300 14.92700 26.45200
N  47.37100 16.50000 30.63700
C  46.35700 16.23300 31.53600
C  46.85700 16.66800 32.95300
C  48.22100 17.50500 32.72700
C  48.38600 17.19900 31.20800
C  47.94500 19.00900 33.06400
C  47.06700 15.48400 33.97700
C  46.49400 15.65300 35.36000
H  46.16900 17.07700 35.87600
N  49.13600 16.88300 28.24800
C  49.89300 17.58200 29.17300
C  51.11700 18.06200 28.55900
C  51.05000 17.77200 27.22700
C  49.73800 17.12600 27.03300
C  52.16000 18.69400 29.30800
C  52.06000 18.01400 26.13900
O  51.93000 17.60900 25.02200
C  53.24500 18.90400 26.34200
N  46.89500 15.97900 26.46000
C  47.79200 16.33200 25.49500
C  47.18900 16.06200 24.06700
C  46.03800 15.15500 24.32900
C  45.81700 15.32800 25.84000
C  46.72600 17.34600 23.34300
C  46.35600 13.63300 24.09700
C  45.18300 12.92200 23.50500
N  45.31700 15.42700 28.66200
C  44.37300 15.02500 27.79900
C  43.28300 14.47300 28.54500
C  43.51800 14.63000 29.87000
C  44.76200 15.29400 29.88500
C  42.07400 13.81100 28.01300
C  43.05400 14.47000 31.26600
O  42.11100 13.92400 31.78300
C  44.04800 15.23600 32.13400
C  43.22900 16.31000 32.77100
O  42.80600 17.39000 32.25400
O  42.80900 15.96200 33.98900
C  41.75600 16.74800 34.64100
H  50.26700 18.20200 31.25500
H  49.65700 17.25900 24.98200
H  43.88900 14.42500 25.81800
H  46.01000 17.27600 33.27400
H  49.09300 17.21200 33.31300
H  47.98200 19.55200 32.12000
H  48.82600 19.26400 33.65400
H  47.06200 19.16700 33.68300
H  48.12700 15.27100 34.11600
H  46.65400 14.58100 33.52800
H  47.26900 15.30400 36.04200
H  45.78500 14.83300 35.48100
H  53.10200 18.19200 29.08900
H  51.95700 18.46600 30.35500
H  52.32100 19.76800 29.21300
H  52.83300 19.88900 26.55900
H  53.87200 19.00600 25.45600
H  53.73700 18.46800 27.21100
H  47.96500 15.49100 23.55600
H  45.11300 15.49000 23.85900
H  47.43200 18.14200 23.58000
H  45.67000 17.54100 23.53000
H  46.85400 17.26000 22.26400
H  46.49500 13.21600 25.09500
H  47.23200 13.40100 23.49300
H  44.78100 12.33900 24.33400
H  45.59700 12.24100 22.76200
H  44.40200 13.51500 23.02800
H  41.66800 14.32000 27.13900
H  41.24500 13.82900 28.72000
H  42.23300 12.74800 27.83300
H  44.45400 14.49500 32.82400
H  40.87200 17.07700 34.09400
H  42.25500 17.61400 35.07700
H  41.42500 16.07900 35.43500
Mg 16.74700 52.30500 26.70500
C  18.73100 50.80600 29.18600
C  14.50600 53.39800 29.12600
C  14.80100 53.37800 24.26800
C  18.66700 50.61300 24.31400
N  16.60900 51.98100 28.94900
C  17.57900 51.42700 29.70500
C  17.28200 51.68700 31.18200
C  15.80100 52.35900 31.12500
C  15.52500 52.52500 29.66000
C  14.70000 51.62600 31.86000
C  18.35600 52.76200 31.79000
C  18.83600 52.62100 33.22800
H  17.78900 52.20100 34.20300
N  14.95300 53.40100 26.71700
C  14.20400 53.79900 27.80700
C  13.17900 54.64100 27.36100
C  13.14900 54.55900 25.96600
C  14.31600 53.76000 25.57400
C  12.21200 55.27100 28.41700
C  12.06500 55.18800 24.98700
O  12.21000 54.91900 23.77800
C  10.97600 56.11300 25.44300
N  16.77900 52.08000 24.50000
C  15.89700 52.70000 23.77000
C  16.38300 52.59900 22.26500
C  17.69400 51.78800 22.31600
C  17.79500 51.51200 23.82800
C  15.40000 52.07200 21.30600
C  18.86500 52.64600 21.80000
C  19.03700 52.61700 20.24000
N  18.35900 50.97300 26.65000
C  19.01800 50.36000 25.57800
C  20.05300 49.55300 26.10300
C  19.98900 49.70000 27.51500
C  18.92900 50.56500 27.76800
C  21.20300 48.81000 25.53400
C  20.66300 49.27700 28.73000
O  21.63700 48.60100 28.97200
C  19.84800 49.96500 29.87000
C  19.41700 49.00400 30.91100
O  18.79600 48.00200 30.59200
O  19.86400 49.35900 32.17600
C  19.73800 48.48000 33.30800
H  13.85100 53.85600 29.87100
H  14.20300 53.71800 23.42100
H  19.40300 50.17700 23.63500
H  17.31800 50.73100 31.70600
H  15.91700 53.34100 31.58200
H  13.85300 51.38400 31.21900
H  14.23800 52.16400 32.68800
H  15.08200 50.66600 32.20700
H  18.05300 53.77400 31.52200
H  19.24600 52.47300 31.23100
H  19.27300 53.60400 33.40200
H  19.72000 51.98400 33.23000
H  11.49000 55.88300 27.87700
H  12.71400 55.88300 29.16700
H  11.72000 54.51600 29.03100
H  11.40200 57.02400 25.86300
H  10.27900 55.56200 26.07500
H  10.42400 56.37100 24.53900
H  16.56100 53.60900 21.89500
H  17.75200 50.82800 21.80200
H  15.72000 51.18400 20.76100
H  15.21300 52.89000 20.61000
H  14.39200 51.87100 21.66900
H  19.83700 52.29600 22.15000
H  18.74900 53.64400 22.22300
H  19.92600 52.07300 19.92100
H  19.17400 53.64000 19.88700
H  18.22000 52.07900 19.75900
H  22.07400 49.44800 25.39000
H  20.92100 48.49100 24.53000
H  21.48100 47.99600 26.20400
H  20.56900 50.66900 30.28600
H  20.73000 48.60700 33.74100
H  19.67100 47.41200 33.09800
H  19.07300 48.84800 34.08900

