158

Mg 49.52600 35.64600 27.25300
C  47.56700 34.20400 29.77500
C  50.14300 38.24400 29.32300
C  51.57800 36.84800 24.93300
C  48.45000 33.16700 25.01500
N  48.92100 36.19500 29.37500
C  48.23500 35.33100 30.25600
C  48.41900 35.80800 31.69000
C  48.96900 37.29600 31.48400
C  49.25500 37.29400 29.92400
C  48.04100 38.47000 31.88700
C  49.35900 34.79100 32.51300
C  49.22800 34.89500 34.03600
H  48.19500 35.84400 34.60000
N  50.65300 37.32500 27.14800
C  50.72500 38.37200 28.04100
C  51.70200 39.29800 27.65500
C  52.20600 38.87100 26.37900
C  51.45400 37.67500 26.06700
C  52.01300 40.51100 28.48700
C  53.24700 39.52200 25.50100
O  53.51500 39.09500 24.35200
C  54.00600 40.78700 25.86200
N  49.83200 35.13800 25.21900
C  50.84000 35.73100 24.48100
C  51.09600 34.97400 23.14500
C  50.13600 33.78100 23.26000
C  49.38600 34.08500 24.53000
C  50.90400 35.72800 21.80200
C  50.92300 32.38200 23.26600
C  50.82700 31.44700 22.02200
N  48.28400 34.08100 27.33100
C  47.97000 33.14500 26.32500
C  47.11700 32.10500 26.95200
C  46.94400 32.48000 28.29300
C  47.70100 33.70200 28.47800
C  46.63700 30.84000 26.33100
C  46.31100 32.07300 29.53100
O  45.55700 31.12200 29.76500
C  46.54700 33.25800 30.44300
C  46.77000 32.73000 31.81400
O  47.50900 31.80700 32.16600
O  45.73700 33.21100 32.66200
C  45.74900 32.59300 33.99600
H  50.25000 39.06400 30.03600
H  52.24600 37.24300 24.16400
H  48.18000 32.38100 24.30600
H  47.46400 35.70800 32.20700
H  49.89900 37.36800 32.04800
H  46.99300 38.18000 31.96800
H  48.03200 39.15000 31.03600
H  48.34700 38.84400 32.86400
H  50.36100 35.15800 32.29200
H  49.29200 33.74600 32.20900
H  50.18700 35.02800 34.53700
H  49.00800 33.84800 34.24700
H  52.36600 41.32300 27.85100
H  52.78500 40.27000 29.21700
H  51.14400 40.94400 28.98300
H  54.78800 40.91200 25.11300
H  54.49300 40.76300 26.83700
H  53.33400 41.63100 26.01900
H  52.16200 34.74400 23.17000
H  49.31000 33.81300 22.55000
H  51.16600 36.77500 21.95300
H  49.92500 35.59700 21.34100
H  51.71900 35.23800 21.26900
H  50.48900 31.80500 24.08300
H  51.96900 32.54200 23.52500
H  50.56200 30.45700 22.39300
H  51.79900 31.38700 21.53400
H  50.04700 31.66800 21.29300
H  47.42700 30.13400 26.58700
H  46.54300 31.12000 25.28200
H  45.63600 30.57100 26.66600
H  45.62800 33.84100 30.37800
H  45.53600 31.52400 34.01300
H  45.01700 33.12900 34.60000
H  46.69400 32.64500 34.53600
Mg 17.57800 51.05600 26.00700
C  19.35200 49.89900 28.95500
C  15.21400 52.26600 28.04400
C  16.12300 51.91200 23.20200
C  20.21400 49.36400 24.08400
N  17.30000 50.99200 28.27400
C  18.16300 50.53300 29.24100
C  17.63900 50.97600 30.55700
C  16.18500 51.43400 30.36300
C  16.17700 51.59200 28.85100
C  15.07200 50.54000 30.82600
C  18.58300 52.03000 31.23900
C  18.55300 52.12300 32.75100
H  17.57600 51.27000 33.53900
N  15.89900 52.04900 25.62000
C  14.99900 52.51800 26.61900
C  13.95700 53.26300 25.96500
C  14.14300 53.13000 24.54500
C  15.44100 52.34800 24.35300
C  12.92200 53.92800 26.73600
C  13.38000 53.82300 23.41800
O  13.86000 53.89200 22.31800
C  12.11200 54.54500 23.63600
N  18.05800 50.67600 23.99500
C  17.27800 51.17000 23.03300
C  17.69400 50.72900 21.62700
C  19.08300 50.09700 21.86600
C  19.15200 50.06700 23.40000
C  16.62100 49.90500 20.79000
C  20.26200 50.82700 21.05400
C  20.50300 52.34800 21.44600
N  19.46300 49.86000 26.36300
C  20.39700 49.31400 25.52400
C  21.48500 48.77300 26.31300
C  21.11300 49.03200 27.62100
C  19.93600 49.70800 27.64200
C  22.56100 47.97000 25.86000
C  21.44500 48.64000 29.01100
O  22.39400 48.00000 29.49700
C  20.37900 49.26400 29.91600
C  19.74700 48.22000 30.75300
O  18.77600 47.52800 30.42700
O  20.39000 48.26300 31.97900
C  19.76900 47.44800 33.05300
H  14.45300 52.71800 28.68400
H  15.51000 52.05300 22.31000
H  21.04900 48.99200 23.48700
H  17.65700 50.07100 31.16500
H  16.00800 52.40600 30.82300
H  15.39500 49.81200 31.57100
H  14.57800 50.05700 29.98300
H  14.29600 51.17700 31.25100
H  18.43000 53.03600 30.84800
H  19.60400 51.80100 30.93300
H  18.37800 53.16800 33.00600
H  19.52500 51.86300 33.16900
H  12.00200 53.34800 26.67000
H  12.64000 54.90700 26.35000
H  13.16400 54.24200 27.75200
H  11.53600 53.94900 24.34400
H  11.63000 54.51900 22.65900
H  12.36300 55.59700 23.77100
H  17.74400 51.72300 21.18400
H  19.16500 49.08600 21.46800
H  15.96000 49.33000 21.43800
H  17.15100 49.25200 20.09600
H  15.90600 50.58400 20.32700
H  20.11600 50.89500 19.97600
H  21.19100 50.29400 21.25600
H  20.28500 53.01900 20.61600
H  21.50800 52.48100 21.84500
H  19.82200 52.60800 22.25600
H  22.98100 48.57600 25.05700
H  22.08000 47.19200 25.26800
H  23.28000 47.74100 26.64600
H  20.94500 49.95200 30.54400
H  20.11400 46.41500 33.05700
H  18.68900 47.37200 32.92300
H  20.10500 47.83300 34.01600

