158

Mg 16.76600 -2.08400 27.06800
C  15.86800 0.21400 29.78700
C  18.91200 -3.58300 29.31200
C  18.17900 -3.76800 24.49700
C  15.33000 0.30100 24.84000
N  17.41500 -1.62900 29.23300
C  16.79100 -0.79500 30.17100
C  17.14900 -1.18300 31.57300
C  18.34200 -2.14100 31.36400
C  18.22900 -2.49100 29.91500
C  19.69800 -1.57000 31.78700
C  15.87400 -1.69300 32.42700
C  15.89300 -1.27100 33.89700
H  17.10700 -0.58300 34.52200
N  18.10500 -3.68200 26.92500
C  18.95000 -4.07700 27.97400
C  19.60900 -5.27900 27.51400
C  19.50900 -5.25800 26.06800
C  18.57200 -4.19700 25.80800
C  20.48500 -6.14500 28.44500
C  20.11800 -6.15900 25.00000
O  19.79000 -6.05700 23.83100
C  21.08500 -7.39400 25.24100
N  16.69200 -1.85100 24.98100
C  17.44200 -2.64500 24.11200
C  17.30000 -2.05300 22.63500
C  16.24700 -0.89000 22.78500
C  16.02400 -0.85500 24.25400
C  18.62200 -1.59200 22.06500
C  14.90700 -1.05900 21.95300
C  14.69400 0.14700 21.10000
N  15.68500 -0.21700 27.20200
C  15.12700 0.60700 26.27000
C  14.36300 1.61500 26.89900
C  14.71200 1.50400 28.19800
C  15.48000 0.41000 28.39300
C  13.50600 2.61700 26.28700
C  14.44500 2.13500 29.52500
O  13.82600 3.16600 29.86700
C  15.20700 1.31000 30.58500
C  16.15200 2.16900 31.44000
O  17.30900 2.35900 31.11400
O  15.43400 2.76500 32.43500
C  16.23400 3.61600 33.41400
H  19.56700 -4.12200 30.00000
H  18.66000 -4.17200 23.60400
H  14.80000 0.93500 24.12600
H  17.56500 -0.29000 32.04000
H  18.14100 -3.04900 31.93200
H  19.82100 -0.54800 32.14400
H  20.32800 -1.59700 30.89700
H  20.13700 -2.24100 32.52500
H  15.88700 -2.78100 32.47800
H  14.97900 -1.46300 31.84900
H  15.77900 -2.14100 34.54500
H  15.07200 -0.60500 34.16400
H  21.42800 -6.45200 27.99300
H  19.90300 -7.05100 28.61900
H  20.63000 -5.70400 29.43100
H  22.01800 -6.85500 25.40600
H  21.16100 -7.95200 24.30700
H  20.78500 -7.95200 26.12800
H  17.06200 -2.91400 22.01000
H  16.80100 0.00400 22.49900
H  18.87500 -0.78000 22.74800
H  18.63900 -1.25700 21.02800
H  19.35700 -2.38800 22.18600
H  14.08200 -1.14100 22.66000
H  14.85000 -2.02000 21.44200
H  15.57100 0.77400 20.93900
H  13.91000 0.75800 21.54800
H  14.43400 -0.16500 20.08800
H  12.47600 2.38500 26.56000
H  13.62100 2.75800 25.21200
H  13.78800 3.51400 26.83800
H  14.44700 0.91800 31.26100
H  16.86100 2.82900 33.83300
H  15.54500 4.14500 34.07300
H  16.89500 4.27900 32.85700
Mg 47.07100 44.47500 43.52000
C  43.52000 44.13800 43.14400
C  47.19500 41.06900 42.58900
C  50.41400 44.76700 43.25200
C  46.70100 47.92100 43.58600
N  45.53200 42.84600 42.92000
C  44.22000 42.95200 42.88200
C  43.60800 41.60300 42.68200
C  44.72600 40.54000 42.77800
C  45.92500 41.54900 42.75700
C  44.68200 39.44400 43.88400
C  42.61400 41.34500 41.45500
C  42.86600 42.14800 40.15700
H  42.89700 41.44700 38.85100
N  48.66400 43.14400 43.00200
C  48.43300 41.84700 42.54900
C  49.73700 41.25500 42.27600
C  50.71000 42.25200 42.52600
C  49.97000 43.45000 42.96400
C  49.89600 39.75800 42.01300
C  52.16500 42.04000 42.49700
O  52.62200 41.04900 41.92500
C  53.15600 43.05300 43.05500
N  48.44900 46.12800 43.58800
C  49.76000 46.02200 43.51000
C  50.46300 47.34600 43.45600
C  49.26700 48.30200 43.15400
C  48.06200 47.41900 43.44800
C  51.18000 47.62900 44.74000
C  49.26600 48.97600 41.78600
C  49.66700 50.45000 41.77600
N  45.49300 45.83200 43.47900
C  45.44300 47.19100 43.61800
C  44.07300 47.59900 43.94600
C  43.31700 46.43800 43.70100
C  44.16600 45.36000 43.44800
C  43.64300 49.09600 44.25300
C  41.98600 45.93100 43.65100
O  40.94100 46.52000 43.78500
C  42.01300 44.43300 43.26700
C  41.35300 43.58900 44.22600
O  40.71300 42.63200 43.95600
O  41.43100 44.00900 45.49500
C  41.16000 42.99600 46.47100
H  47.12500 40.01400 42.31500
H  51.49800 44.89300 43.21600
H  46.77600 49.00900 43.64300
H  43.06400 41.56400 43.62600
H  44.76500 40.04200 41.80800
H  43.66400 39.40700 44.27300
H  45.33400 39.60100 44.74300
H  44.91000 38.60500 43.22600
H  41.59100 41.47900 41.80700
H  42.74200 40.26700 41.36000
H  43.76800 42.75900 40.16400
H  42.09700 42.91900 40.10900
H  50.00600 39.52800 40.95300
H  49.11400 39.17300 42.49800
H  50.81700 39.48900 42.53000
H  53.33000 43.87000 42.35400
H  54.09000 42.52400 43.24200
H  52.78200 43.38700 44.02300
H  51.16800 47.31600 42.62600
H  49.33500 49.15000 43.83500
H  51.44200 46.73500 45.30500
H  50.72100 48.37100 45.39400
H  52.17500 48.02900 44.55000
H  48.28900 48.88700 41.31000
H  49.91000 48.42400 41.10100
H  50.11400 50.75800 42.72200
H  48.75900 51.04500 41.67000
H  50.35900 50.70200 40.97300
H  43.29100 49.59300 43.34900
H  44.42400 49.73300 44.66800
H  42.78100 49.01900 44.91500
H  41.56300 44.36600 42.27600
H  41.41300 41.97700 46.17900
H  40.08300 42.98800 46.63400
H  41.66700 43.24900 47.40200

