158

Mg 25.37900 -7.44400 47.92800
C  27.72900 -4.98800 46.92700
C  23.32600 -6.50400 45.28900
C  23.57700 -10.23200 48.36000
C  27.81700 -8.74600 50.02400
N  25.59000 -6.07700 46.11500
C  26.61200 -5.07800 45.97900
C  26.32600 -4.05500 44.90200
C  24.82800 -4.45000 44.60400
C  24.56700 -5.80600 45.28200
C  23.76500 -3.31500 45.01100
C  27.34300 -4.34200 43.80900
C  28.23300 -3.17700 43.24900
H  27.80600 -2.62200 41.83900
N  23.61400 -8.23300 46.98600
C  22.90400 -7.65900 46.00800
C  21.75800 -8.48600 45.76800
C  21.75000 -9.50500 46.76900
C  22.98200 -9.39300 47.43600
C  20.71000 -8.12200 44.69300
C  20.56700 -10.57200 46.88700
O  19.50900 -10.42800 46.33400
C  20.56500 -11.73200 47.92400
N  25.52900 -9.16000 49.16500
C  24.64700 -10.17100 49.14700
C  25.13200 -11.32600 50.04400
C  26.50700 -10.87700 50.63700
C  26.65900 -9.47700 49.97200
C  24.06300 -11.58900 51.15100
C  27.67200 -11.88700 50.31800
C  28.56200 -12.14300 51.52600
N  27.32100 -6.79500 48.66200
C  28.18000 -7.51300 49.46300
C  29.48800 -6.85000 49.36600
C  29.33100 -5.72400 48.60500
C  28.00800 -5.81400 48.04300
C  30.72900 -7.35500 49.98900
C  29.96700 -4.55100 48.00800
O  31.10300 -4.10200 48.17600
C  28.93600 -3.94200 47.00600
C  28.55200 -2.55500 47.40100
O  27.83800 -2.26900 48.30100
O  28.93900 -1.72200 46.37800
C  28.35900 -0.38600 46.38600
H  22.61300 -6.12100 44.55600
H  22.95300 -11.10700 48.55900
H  28.59900 -9.25000 50.59600
H  26.56100 -3.09400 45.35800
H  24.73500 -4.64200 43.53500
H  24.24100 -2.41300 45.39800
H  23.12800 -3.72200 45.79600
H  23.25600 -2.96700 44.11200
H  26.80900 -4.71000 42.93300
H  28.01600 -5.15600 44.07800
H  29.20100 -3.65900 43.11300
H  28.31100 -2.44900 44.05700
H  20.30100 -9.01000 44.20900
H  21.10700 -7.41700 43.96300
H  19.91600 -7.58300 45.21100
H  20.74000 -11.35600 48.93200
H  21.36100 -12.40500 47.60400
H  19.56500 -12.16500 47.95000
H  25.22000 -12.18500 49.37900
H  26.48600 -10.68200 51.70900
H  23.45400 -12.45300 50.88500
H  23.32100 -10.79500 51.06700
H  24.62300 -11.81300 52.05900
H  28.23100 -11.54500 49.44700
H  27.31900 -12.86200 49.98100
H  28.96600 -13.15000 51.42500
H  28.00700 -11.92700 52.43900
H  29.41300 -11.46700 51.43200
H  31.35400 -6.48600 50.19300
H  31.28500 -7.90900 49.23300
H  30.57300 -7.90600 50.91600
H  29.32100 -3.91500 45.98600
H  28.52000 -0.06100 45.35800
H  29.01800 0.28600 46.93400
H  27.31300 -0.27200 46.67200
Mg -9.56700 18.34700 42.11600
C  -6.20800 17.58900 42.27600
C  -8.73100 21.67100 41.45300
C  -12.80600 18.86100 41.21000
C  -10.16400 14.79500 42.39400
N  -7.72700 19.48000 41.74500
C  -6.49500 18.97000 42.01900
C  -5.44500 19.99100 41.73200
C  -6.20300 21.35500 41.81700
C  -7.70600 20.79300 41.77100
C  -6.00300 22.34900 42.96800
C  -4.60900 19.89500 40.30100
C  -5.34000 19.28200 39.18300
H  -5.07400 19.78700 37.69000
N  -10.68200 20.03700 41.49100
C  -10.12400 21.29800 41.29600
C  -11.21300 22.21700 40.94400
C  -12.46400 21.50200 40.85800
C  -12.03000 20.07900 41.19800
C  -10.98500 23.71200 40.80500
C  -13.80700 22.08000 40.51200
O  -13.90300 23.28900 40.42400
C  -15.00000 21.22300 40.29100
N  -11.14500 17.00400 41.66500
C  -12.41000 17.48600 41.50200
C  -13.48000 16.37800 41.44500
C  -12.56000 15.08400 41.63800
C  -11.16400 15.62900 41.93900
C  -14.59100 16.47600 42.50500
C  -12.65200 14.09100 40.43800
C  -12.57900 12.57900 40.72100
N  -8.47600 16.45000 42.49600
C  -8.77000 15.13500 42.56900
C  -7.53700 14.32200 42.90600
C  -6.57200 15.35800 42.74000
C  -7.15400 16.59700 42.52800
C  -7.39500 12.91400 43.12600
C  -5.13800 15.43000 42.75100
O  -4.26400 14.58500 42.86700
C  -4.83800 16.90100 42.47000
C  -3.99900 17.35400 43.62100
O  -2.95400 17.99400 43.53000
O  -4.51200 16.94700 44.82600
C  -3.76200 17.26800 46.04100
H  -8.43300 22.70300 41.25200
H  -13.83800 19.06800 40.91800
H  -10.34000 13.73400 42.58500
H  -4.76300 19.91100 42.57800
H  -6.13300 21.84200 40.84400
H  -6.87400 22.79100 43.45100
H  -5.41700 23.19800 42.61500
H  -5.55500 21.80000 43.79600
H  -3.72000 19.31600 40.54700
H  -4.27300 20.87200 39.95200
H  -6.37400 19.43500 39.49000
H  -5.03400 18.23600 39.16000
H  -11.51800 24.05600 39.91800
H  -9.94000 24.00900 40.72300
H  -11.35400 24.25700 41.67300
H  -15.28300 20.67400 41.18900
H  -14.84700 20.49600 39.49300
H  -15.86700 21.84100 40.05300
H  -14.04600 16.33100 40.51500
H  -12.77100 14.50100 42.53400
H  -14.72900 17.55600 42.55300
H  -14.18900 16.08800 43.44200
H  -15.55200 16.10500 42.14900
H  -11.74900 14.37600 39.89700
H  -13.52300 14.26100 39.80500
H  -13.27600 12.11300 40.02500
H  -12.91900 12.36100 41.73400
H  -11.62600 12.05400 40.64800
H  -6.56500 12.56900 42.50900
H  -8.32800 12.38700 42.92500
H  -7.11500 12.71200 44.15900
H  -4.33200 16.84700 41.50600
H  -3.66200 16.35400 46.62600
H  -4.35100 18.02900 46.55300
H  -2.77600 17.68700 45.84100

