158

Mg 40.72000 41.38000 27.83700
C  39.60100 44.12300 29.99600
C  41.32800 39.56100 30.53900
C  41.58000 39.17700 25.73300
C  40.39700 43.93200 25.26500
N  40.49600 41.83600 29.98200
C  39.90400 42.88400 30.63000
C  39.90300 42.61700 32.19900
C  40.55900 41.18800 32.38100
C  40.80200 40.77600 30.86800
C  41.71100 41.13800 33.43000
C  38.49700 42.84100 32.90700
C  38.09700 42.09100 34.21900
H  37.65500 42.83300 35.45900
N  41.29200 39.53800 28.03000
C  41.67300 38.94100 29.27300
C  42.23600 37.59900 29.00800
C  42.35000 37.52200 27.59100
C  41.70100 38.76000 27.07900
C  42.66400 36.63200 30.08700
C  42.97600 36.38500 26.82800
O  43.02900 36.42200 25.63000
C  43.56700 35.22100 27.52400
N  40.93700 41.51600 25.80800
C  41.23500 40.42400 25.12100
C  41.09800 40.65600 23.67600
C  40.54500 42.15000 23.47300
C  40.53600 42.56000 24.94700
C  42.57400 40.46100 23.10900
C  39.11200 42.13100 22.87900
C  38.12100 41.20300 23.48100
N  40.36500 43.61700 27.64000
C  40.23900 44.44900 26.53800
C  39.83800 45.76500 26.91200
C  39.50800 45.67700 28.26200
C  39.81900 44.35400 28.63600
C  39.69700 46.89900 26.03900
C  38.96000 46.44300 29.40900
O  38.50600 47.58200 29.49700
C  38.99300 45.39100 30.60200
C  39.76400 46.03600 31.73100
O  40.97800 46.29700 31.75400
O  38.80800 46.38400 32.68900
C  39.34200 47.00700 33.95700
H  41.47600 38.93800 31.42300
H  41.88000 38.50000 24.93100
H  40.27600 44.59300 24.40500
H  40.65900 43.35900 32.45400
H  39.77100 40.50500 32.69900
H  42.72400 40.93500 33.08200
H  41.55600 40.58300 34.35500
H  41.89000 42.16700 33.74100
H  37.72800 42.63100 32.16400
H  38.34800 43.87800 33.20700
H  39.01700 41.69100 34.64400
H  37.39200 41.32600 33.89200
H  42.58700 37.19700 31.01600
H  43.69000 36.27900 29.98300
H  41.99000 35.78400 30.20800
H  44.42100 35.51200 28.13500
H  44.04000 34.60500 26.75900
H  42.81300 34.64000 28.05500
H  40.45700 39.88600 23.24600
H  41.10700 42.64400 22.68100
H  42.85200 41.41600 22.66400
H  42.49400 39.67000 22.36300
H  43.30200 40.13000 23.85000
H  39.15300 41.87300 21.82100
H  38.70600 43.14000 22.95700
H  38.55300 40.77900 24.38800
H  37.57400 40.57800 22.77400
H  37.35100 41.84000 23.91600
H  38.70300 47.01600 25.60800
H  40.34700 46.94900 25.16500
H  39.81800 47.81400 26.61800
H  37.99200 45.11700 30.93800
H  39.34700 46.30100 34.78800
H  38.63900 47.77700 34.27600
H  40.36000 47.39000 33.88400
Mg 6.47600 57.00700 41.62800
C  6.03400 53.36500 41.83800
C  9.58600 56.22300 40.28100
C  6.83400 60.14800 40.98000
C  3.28000 57.18300 42.80000
N  7.60400 54.95100 40.97600
C  7.22000 53.66300 41.11100
C  8.32300 52.68600 40.65700
C  9.59700 53.62200 40.52700
C  8.93800 55.04800 40.64000
C  10.77100 53.46300 41.61200
C  7.82500 52.02900 39.27900
C  8.04300 50.51600 39.04300
H  7.70700 49.89900 37.64500
N  7.96000 58.00100 40.65100
C  9.18500 57.59100 40.25700
C  9.92100 58.73200 39.60100
C  9.10100 59.92400 39.70600
C  7.89100 59.42100 40.48400
C  11.30100 58.56400 39.11000
C  9.36900 61.29200 39.16600
O  10.31500 61.49200 38.39400
C  8.47700 62.48600 39.48600
N  5.19000 58.43500 41.61000
C  5.63200 59.73900 41.58900
C  4.59500 60.69500 42.22500
C  3.36700 59.75900 42.64800
C  3.95600 58.34200 42.34000
C  5.35300 61.56400 43.30900
C  1.99500 60.05700 41.89900
C  1.79900 61.47600 41.18900
N  5.01000 55.60000 42.36100
C  3.72400 55.88200 42.79100
C  3.12700 54.70500 43.34900
C  3.99100 53.67800 43.00300
C  5.13500 54.29700 42.38200
C  1.84400 54.65700 44.12900
C  4.14000 52.23500 43.05200
O  3.41200 51.36200 43.47900
C  5.44500 51.92500 42.14800
C  5.01300 51.09500 40.99500
O  4.23400 51.48200 40.12100
O  5.43900 49.79300 41.16100
C  4.88100 48.81300 40.22000
H  10.64200 56.16400 40.01000
H  6.75900 61.22500 40.81500
H  2.35600 57.25000 43.37800
H  8.46700 51.88900 41.38700
H  10.04500 53.61200 39.53300
H  10.67200 52.59400 42.26300
H  10.87600 54.37700 42.19700
H  11.75500 53.43200 41.14300
H  8.48400 52.45100 38.52000
H  6.80700 52.38900 39.12900
H  7.50400 50.03800 39.86000
H  9.08700 50.23900 39.18800
H  11.97100 58.04000 39.79100
H  11.62900 59.58300 38.90300
H  11.40700 58.09200 38.13300
H  8.35100 62.46900 40.56800
H  7.53600 62.55800 38.94100
H  8.98600 63.41200 39.22000
H  4.25400 61.42800 41.49400
H  3.24200 59.85200 43.72600
H  6.41100 61.30700 43.26500
H  5.02400 61.26400 44.30400
H  5.17500 62.62800 43.14800
H  1.17100 59.92200 42.60000
H  1.93400 59.28600 41.13100
H  2.43700 61.69500 40.33300
H  1.80000 62.33300 41.86200
H  0.77400 61.30900 40.85800
H  1.18000 55.50800 43.97200
H  2.12900 54.68000 45.18000
H  1.35600 53.69100 43.99400
H  6.22700 51.36900 42.66400
H  4.04000 49.10900 39.59300
H  4.60500 48.00900 40.90100
H  5.60500 48.46900 39.48100

