158

Mg 40.63600 10.04700 30.18900
C  42.76100 11.23400 32.74800
C  38.64700 8.70300 32.54900
C  38.89000 8.67000 27.71900
C  43.07900 11.04600 27.85300
N  40.78800 10.03200 32.48400
C  41.64800 10.54500 33.34700
C  41.23500 10.18900 34.79600
C  40.01800 9.14700 34.58900
C  39.73500 9.31300 33.12000
C  40.26400 7.65500 34.80100
C  40.91100 11.45000 35.64100
C  40.26600 11.23600 37.10100
H  40.79100 12.11100 38.20300
N  38.90000 8.98200 30.15400
C  38.22200 8.49400 31.22700
C  37.12500 7.62500 30.75900
C  37.16300 7.64100 29.30400
C  38.38000 8.44400 29.00400
C  36.34400 6.85300 31.70400
C  36.16200 7.02200 28.37300
O  36.40900 6.79600 27.17500
C  34.88900 6.50100 28.87700
N  40.91800 9.82600 28.16400
C  40.00900 9.29600 27.34800
C  40.35500 9.47700 25.92400
C  41.67600 10.21500 25.92400
C  41.90100 10.39400 27.40100
C  40.24000 8.14500 25.08000
C  41.55300 11.53800 25.19700
C  41.02200 12.80800 25.93800
N  42.49200 11.08300 30.20600
C  43.39700 11.36600 29.17500
C  44.59200 11.98500 29.83200
C  44.32200 12.07100 31.22300
C  43.11200 11.38100 31.38400
C  45.79300 12.40200 29.17700
C  44.87200 12.47800 32.48500
O  45.94600 12.98400 32.78600
C  43.80100 12.04500 33.54100
C  44.50900 11.29600 34.57300
O  44.92000 10.16100 34.49900
O  44.44100 12.02600 35.76700
C  44.65500 11.25500 37.02800
H  37.95400 8.21900 33.24000
H  38.23600 8.37900 26.89400
H  43.88000 11.31700 27.16300
H  42.15000 9.74900 35.19100
H  39.13600 9.47200 35.14100
H  41.30900 7.68500 35.10900
H  40.17000 7.06700 33.88700
H  39.50100 7.18500 35.42100
H  40.30200 12.20700 35.14800
H  41.90400 11.85200 35.84000
H  40.40300 10.17300 37.30100
H  39.17900 11.30100 37.05100
H  36.56000 5.80000 31.52300
H  35.27800 7.06900 31.63600
H  36.43800 7.09900 32.76200
H  35.12900 5.59700 29.43700
H  34.24800 6.29100 28.02100
H  34.43200 7.18400 29.59300
H  39.60500 10.15000 25.50900
H  42.44300 9.59500 25.46100
H  41.18100 7.96800 24.55800
H  39.59700 8.48800 24.26900
H  39.89800 7.22900 25.56100
H  40.84200 11.36700 24.38900
H  42.45900 11.80700 24.65400
H  41.91400 13.42600 26.04000
H  40.53800 12.45200 26.84700
H  40.22600 13.28300 25.36400
H  46.46700 12.71400 29.97500
H  45.53400 13.17700 28.45600
H  46.34900 11.62700 28.64900
H  43.34200 12.95000 33.94000
H  44.36000 10.20600 37.06900
H  44.19400 11.69900 37.91000
H  45.72900 11.30400 37.21200
Mg -6.13600 25.38900 26.16500
C  -4.43300 26.34000 28.93900
C  -8.05800 23.33300 28.21100
C  -7.15000 23.75700 23.34400
C  -3.94500 27.33100 24.17600
N  -6.18200 24.85800 28.30800
C  -5.45200 25.46500 29.28300
C  -6.09800 25.29700 30.67100
C  -7.04300 24.09100 30.39200
C  -7.11100 24.04700 28.87300
C  -6.63500 22.78900 31.17700
C  -6.83300 26.58300 31.18500
C  -7.04500 26.56000 32.82400
H  -6.50500 25.44400 33.75800
N  -7.52800 23.99500 25.84100
C  -8.23000 23.23600 26.78600
C  -9.20000 22.45000 26.13200
C  -8.98500 22.59200 24.74100
C  -7.88500 23.42300 24.57300
C  -10.36600 21.66100 26.88500
C  -9.72200 21.88200 23.61600
O  -9.53700 22.09800 22.40500
C  -10.68500 20.75300 23.88100
N  -5.57400 25.53800 24.06100
C  -6.15200 24.66500 23.13200
C  -5.54800 24.96400 21.68700
C  -4.57600 26.16800 21.88300
C  -4.72900 26.37100 23.43200
C  -5.02400 23.65100 21.07900
C  -5.05500 27.40800 21.07600
C  -4.13100 28.08400 20.07600
N  -4.57600 26.66600 26.44000
C  -3.81000 27.46100 25.55200
C  -2.78600 28.12100 26.29700
C  -2.91700 27.66200 27.67000
C  -4.07800 26.84500 27.67600
C  -1.75000 28.98000 25.71200
C  -2.47800 27.76200 29.04700
O  -1.49300 28.36200 29.51100
C  -3.48100 27.07900 29.95000
C  -2.80400 26.21400 30.82800
O  -2.20700 25.25700 30.48800
O  -2.86900 26.79900 32.10200
C  -2.20200 25.95500 33.20100
H  -8.76600 22.70500 28.75500
H  -7.53100 23.27800 22.44000
H  -3.30000 27.88600 23.49200
H  -5.29900 25.06800 31.37500
H  -8.04400 24.18000 30.81500
H  -7.22800 22.82300 32.09100
H  -5.58400 22.84800 31.46000
H  -6.90300 21.91300 30.58600
H  -7.81100 26.56800 30.70600
H  -6.34100 27.39300 30.64600
H  -8.13400 26.57800 32.85500
H  -6.69400 27.51000 33.22800
H  -11.36500 21.74800 26.45900
H  -10.43700 22.01500 27.91300
H  -10.18700 20.58500 26.88600
H  -11.62500 21.06400 24.33700
H  -10.18700 20.02300 24.51900
H  -11.01900 20.27200 22.96200
H  -6.45600 25.23700 21.15000
H  -3.56400 25.91800 21.56500
H  -5.22800 22.78000 21.70100
H  -3.98700 23.74400 20.75500
H  -5.64900 23.51400 20.19600
H  -5.26800 28.19200 21.80200
H  -5.93800 27.12300 20.50300
H  -4.51100 28.25900 19.07000
H  -3.22700 27.50000 19.90300
H  -3.78700 29.09300 20.30700
H  -2.15300 29.59500 24.90700
H  -0.89400 28.46800 25.27200
H  -1.28000 29.54000 26.52000
H  -4.11000 27.75000 30.53600
H  -2.69000 24.98800 33.32000
H  -2.32100 26.51700 34.12700
H  -1.15800 25.85300 32.90500

