158

Mg 47.60900 34.67200 27.03300
C  45.65100 33.28500 29.71200
C  47.83500 37.48700 28.91700
C  48.64200 36.03000 24.34700
C  46.44200 31.79000 25.14900
N  46.85500 35.27800 29.07200
C  46.24400 34.52700 29.99600
C  46.57400 35.09300 31.41300
C  47.00500 36.53700 31.14100
C  47.22700 36.48900 29.62300
C  46.01900 37.60700 31.61600
C  47.64800 34.32400 32.24200
C  47.39000 34.25200 33.73700
H  46.58600 35.26100 34.43500
N  48.40600 36.43100 26.77600
C  48.42400 37.46900 27.62000
C  49.06900 38.56200 26.95200
C  49.54300 38.09000 25.69600
C  48.87800 36.79100 25.54800
C  49.17100 39.82300 27.70700
C  50.34700 38.88000 24.57400
O  50.49400 38.37400 23.46400
C  51.06900 40.18500 24.94700
N  47.39100 34.05000 24.91500
C  48.06100 34.76400 24.04600
C  48.21800 34.12700 22.67600
C  47.43500 32.76800 22.92700
C  47.05600 32.85100 24.40500
C  47.78900 35.02000 21.41500
C  48.15300 31.37100 22.75600
C  49.21000 31.06200 23.76000
N  46.29800 32.86700 27.24000
C  45.92700 31.85400 26.45500
C  45.12500 30.87200 27.08100
C  44.95400 31.43000 28.37300
C  45.70300 32.61700 28.45900
C  44.70800 29.54400 26.51900
C  44.26000 31.23400 29.63900
O  43.40700 30.39700 29.94900
C  44.62800 32.46100 30.62200
C  44.95000 31.91300 32.01600
O  46.03700 31.50300 32.40100
O  43.85200 31.92400 32.78200
C  44.02600 31.50800 34.20000
H  48.02100 38.39000 29.50200
H  49.11800 36.56200 23.52100
H  46.07100 30.85900 24.71400
H  45.65400 35.19100 31.98900
H  47.98400 36.77500 31.55700
H  46.49500 38.40800 32.18100
H  45.20000 37.32400 32.27700
H  45.46200 38.02800 30.77900
H  48.56000 34.89500 32.07100
H  47.87500 33.30900 31.91400
H  48.40000 34.30800 34.14200
H  46.97000 33.26300 33.92100
H  49.55000 40.65300 27.11200
H  49.68500 39.70900 28.66100
H  48.17300 40.16800 27.97600
H  51.65200 40.60000 24.12500
H  51.69700 40.04100 25.82600
H  50.23800 40.87800 25.08300
H  49.29000 33.95400 22.58200
H  46.49000 32.76700 22.38300
H  47.10800 34.51900 20.72700
H  48.78300 35.12600 20.98000
H  47.40100 36.00900 21.66000
H  48.64800 31.47800 21.79000
H  47.35800 30.63900 22.61200
H  49.12700 30.07100 24.20600
H  49.26400 31.81200 24.54900
H  50.16800 31.13600 23.24600
H  45.54800 28.85000 26.54100
H  44.36300 29.64500 25.48900
H  43.94900 29.04500 27.12100
H  43.66400 32.94500 30.78400
H  43.41500 30.66400 34.52000
H  43.78800 32.25200 34.96100
H  45.01000 31.13100 34.47700
Mg 27.01700 51.32900 26.74800
C  24.92000 52.29300 29.62700
C  29.35300 50.39100 28.99900
C  28.93300 50.55700 24.15700
C  24.58500 52.73700 24.67200
N  27.10600 51.50600 29.14200
C  26.11200 51.67200 30.08400
C  26.56300 51.31200 31.51300
C  28.04200 50.68000 31.26100
C  28.21400 50.87500 29.72600
C  29.15000 51.28500 32.03600
C  25.65700 50.24100 32.09800
C  26.16500 49.39100 33.32700
H  25.33600 49.24600 34.61700
N  28.90300 50.67500 26.62000
C  29.74500 50.33500 27.66400
C  31.02600 49.74500 27.19500
C  30.96400 49.84000 25.70600
C  29.54700 50.33800 25.40400
C  32.18300 49.32900 28.06600
C  32.07900 49.59200 24.69600
O  31.89600 49.86100 23.51500
C  33.33200 48.88200 25.06000
N  26.75300 51.65700 24.68500
C  27.69500 51.18100 23.74800
C  27.22500 51.46100 22.30600
C  25.70200 51.87500 22.48700
C  25.66900 52.05700 24.07300
C  28.00400 52.42900 21.40900
C  24.68800 50.84600 22.02100
C  23.28300 51.48200 21.83500
N  25.11100 52.38400 27.05700
C  24.28800 52.89800 26.03400
C  23.14300 53.48400 26.73700
C  23.28500 53.21600 28.13000
C  24.54400 52.55000 28.26900
C  21.84100 53.96500 26.04900
C  22.71400 53.35100 29.48600
O  21.72500 54.00400 29.80900
C  23.73100 52.72100 30.49600
C  24.04300 53.66900 31.57200
O  25.03200 54.40000 31.55700
O  23.13300 53.62400 32.61700
C  23.37600 54.48500 33.75900
H  30.12100 49.96600 29.64900
H  29.54800 50.43300 23.26400
H  23.65500 52.98100 24.15500
H  26.63900 52.25100 32.06200
H  27.95300 49.60100 31.38300
H  29.70900 50.57000 32.63900
H  28.63500 51.92800 32.75100
H  29.75500 51.93300 31.40200
H  25.42900 49.46300 31.36900
H  24.75700 50.80000 32.35200
H  27.16200 49.71000 33.63000
H  26.32700 48.32900 33.14300
H  32.38100 48.28000 27.84400
H  32.06300 49.59400 29.11600
H  33.00300 49.91600 27.65300
H  33.82900 48.55800 24.14500
H  32.99900 48.02700 25.64900
H  33.88200 49.61600 25.64700
H  27.28900 50.49300 21.80800
H  25.49200 52.80200 21.95400
H  29.04900 52.39700 21.71500
H  27.52400 53.40800 21.41900
H  28.00700 51.95500 20.42700
H  24.53700 50.19000 22.87900
H  24.98200 50.38700 21.07700
H  22.97100 51.69200 20.81200
H  23.29900 52.51100 22.19500
H  22.55600 50.97100 22.46800
H  21.77100 53.54000 25.04800
H  21.82800 55.05300 25.99100
H  21.07900 53.62500 26.75000
H  23.29700 51.76200 30.77900
H  23.56400 55.51600 33.46100
H  24.22900 54.24100 34.39300
H  22.56900 54.50400 34.49100

