158

Mg 47.73700 15.09000 27.23900
C  45.79900 15.23500 30.01500
C  49.94800 17.29000 28.62200
C  49.25300 15.33100 24.23600
C  45.09700 13.33300 25.60100
N  47.87800 16.21500 29.12400
C  47.05000 15.90100 30.12600
C  47.50100 16.55500 31.43300
C  48.83100 17.33600 31.00200
C  48.86700 17.06200 29.51500
C  48.94500 18.79800 31.45300
C  47.77600 15.44100 32.53100
C  47.24900 15.82300 33.93700
H  46.95600 17.26500 34.37000
N  49.38800 16.05200 26.63300
C  50.19000 16.90600 27.34400
C  51.37000 17.33900 26.57500
C  51.17600 16.61300 25.30200
C  49.88200 15.95200 25.31000
C  52.48800 18.22200 27.08900
C  52.03700 16.64600 24.11600
O  51.81700 16.13700 23.02900
C  53.30000 17.42800 24.16800
N  47.31700 14.29900 25.29700
C  48.08000 14.57100 24.21400
C  47.53200 13.88700 22.95200
C  46.25300 13.13700 23.36100
C  46.22500 13.54100 24.86200
C  47.23500 14.85900 21.76600
C  46.21900 11.65000 22.99100
C  46.69200 10.64600 24.16700
N  45.78800 14.41700 27.68100
C  44.87100 13.63900 26.95400
C  43.67700 13.47600 27.76200
C  44.03000 14.01400 29.01100
C  45.30000 14.58400 28.89700
C  42.32100 12.93300 27.37500
C  43.57800 14.21100 30.41700
O  42.51900 14.04600 30.92100
C  44.74400 14.94000 31.14200
C  44.16500 16.13500 31.79800
O  44.33800 17.29000 31.43400
O  43.48400 15.79900 32.96200
C  42.68900 16.82400 33.62200
H  50.67300 17.88900 29.17600
H  49.66400 15.38300 23.22500
H  44.28000 12.80900 25.10000
H  46.80600 17.33500 31.74400
H  49.67900 16.80000 31.42700
H  48.82800 19.35700 30.52500
H  49.98400 18.92600 31.75700
H  48.17200 19.20200 32.10700
H  48.84900 15.29000 32.65000
H  47.33000 14.51200 32.17700
H  47.89100 15.49400 34.75500
H  46.31700 15.30200 34.15400
H  52.21600 18.65300 28.05200
H  52.79500 19.04400 26.44200
H  53.30400 17.55200 27.35900
H  53.89000 17.38000 25.08300
H  53.08900 18.41200 23.75000
H  53.94900 17.00400 23.40100
H  48.30500 13.14500 22.75600
H  45.43800 13.66700 22.86700
H  46.19500 14.90600 21.44400
H  47.90800 14.50200 20.98700
H  47.55000 15.87500 22.00600
H  46.69600 11.32900 22.06500
H  45.14800 11.45700 22.91900
H  47.24700 9.81700 23.72600
H  45.84400 10.22300 24.70500
H  47.35600 11.05300 24.92900
H  42.21400 12.92800 26.29100
H  41.60200 13.65800 27.75700
H  42.18300 11.88800 27.65300
H  45.19100 14.27800 31.88300
H  43.00000 17.86600 33.54700
H  42.54400 16.53900 34.66400
H  41.71800 16.79600 33.12800
Mg -11.54100 16.91500 42.22100
C  -8.29900 17.87000 41.86300
C  -12.59300 20.23200 41.73500
C  -14.86500 16.00500 42.54800
C  -10.39500 13.62900 42.43800
N  -10.56600 18.81100 41.68300
C  -9.20000 18.98000 41.73100
C  -8.70700 20.39600 41.58400
C  -10.13900 21.16300 41.71600
C  -11.19600 20.04600 41.76500
C  -10.24200 22.18600 42.94000
C  -8.02200 20.64600 40.21100
C  -6.75200 21.37400 40.26000
H  -5.62500 21.06400 39.26300
N  -13.48000 17.93700 41.93500
C  -13.68300 19.29500 41.76900
C  -15.08300 19.59500 41.84900
C  -15.75100 18.40000 42.08300
C  -14.73200 17.38100 42.23500
C  -15.55600 21.05000 41.70700
C  -17.25500 18.37200 42.21800
O  -17.95400 19.35700 42.08600
C  -18.00400 16.97500 42.40200
N  -12.46100 15.04400 42.09000
C  -13.81300 14.96400 42.52300
C  -14.10100 13.52500 42.90500
C  -12.76000 12.73200 42.46100
C  -11.78000 13.87100 42.39600
C  -14.48200 13.38000 44.39600
C  -12.80300 11.99800 41.14400
C  -13.70300 10.76000 41.06400
N  -9.72200 15.87200 42.17900
C  -9.37000 14.54700 42.27500
C  -7.93000 14.45400 42.40200
C  -7.44400 15.73800 42.15800
C  -8.57300 16.55700 42.08900
C  -7.21800 13.18200 42.78700
C  -6.27900 16.51500 42.06700
O  -5.13300 16.08400 42.14200
C  -6.76400 18.01300 41.87900
C  -6.33700 18.81500 43.13400
O  -6.82600 18.58300 44.18200
O  -5.29900 19.58600 42.90600
C  -4.65300 20.20600 44.04200
H  -12.88400 21.25200 41.47600
H  -15.85300 15.66900 42.86900
H  -10.10300 12.61400 42.71600
H  -8.24700 20.65600 42.53800
H  -10.23600 21.84500 40.87200
H  -10.12300 23.19800 42.55200
H  -9.55000 21.98700 43.75900
H  -11.24500 22.24300 43.36400
H  -8.59800 21.10400 39.40700
H  -7.83200 19.69400 39.71600
H  -6.38000 21.12200 41.25300
H  -6.97000 22.44100 40.21200
H  -16.53500 21.13800 41.23600
H  -14.82300 21.60600 41.12200
H  -15.57000 21.48700 42.70600
H  -19.02300 17.16800 42.06600
H  -17.98200 16.64400 43.44000
H  -17.61600 16.23400 41.70300
H  -14.88100 13.12400 42.25800
H  -12.26900 12.01000 43.11300
H  -15.46500 12.94000 44.55900
H  -14.38100 14.32700 44.92800
H  -13.77500 12.75500 44.94200
H  -11.81200 11.73500 40.77300
H  -13.18000 12.71400 40.41300
H  -14.53500 10.97500 40.39200
H  -14.02900 10.65700 42.09900
H  -13.16400 9.87300 40.73400
H  -7.36600 12.95400 43.84300
H  -6.15900 13.33100 42.58000
H  -7.67500 12.41100 42.16600
H  -6.31200 18.24300 40.91400
H  -5.24600 21.01600 44.46400
H  -3.75600 20.76200 43.76700
H  -4.26300 19.51100 44.78600

