158

Mg -0.35000 8.32800 25.92300
C  0.66900 10.12000 28.74200
C  -0.18700 5.53900 27.91300
C  -0.39000 6.47400 23.15100
C  0.21200 11.10700 24.07500
N  0.27700 7.92100 28.13600
C  0.47700 8.80200 29.08400
C  0.51800 8.12800 30.51900
C  0.48100 6.60200 30.17400
C  0.06000 6.65300 28.69800
C  1.75100 5.89500 30.51700
C  -0.70600 8.72400 31.40400
C  -0.26900 9.26800 32.77700
H  -0.83200 8.49100 33.96500
N  -0.42700 6.32200 25.61500
C  -0.46700 5.34900 26.57000
C  -0.59500 4.05100 25.92700
C  -0.53900 4.25000 24.55000
C  -0.40100 5.70000 24.36900
C  -0.81500 2.81000 26.73800
C  -0.76400 3.36500 23.42500
O  -0.83100 3.70700 22.28300
C  -0.84000 1.90400 23.67900
N  -0.19400 8.74500 23.91300
C  -0.26900 7.83100 22.96000
C  -0.45100 8.56500 21.52800
C  -0.39300 10.06300 21.80800
C  -0.10900 10.00700 23.32200
C  0.49700 8.14600 20.36200
C  -1.65600 10.82800 21.33400
C  -2.91200 10.99000 22.26400
N  0.17300 10.20200 26.27000
C  0.40600 11.23300 25.36600
C  0.67700 12.44400 26.08700
C  0.81900 12.03400 27.38400
C  0.52400 10.67900 27.47300
C  0.90500 13.74800 25.50500
C  1.14300 12.53600 28.71700
O  1.48600 13.64100 29.08700
C  0.90600 11.23300 29.63400
C  2.15100 11.14900 30.40500
O  3.28300 10.88200 30.03600
O  1.83100 11.58600 31.65600
C  2.96000 11.82600 32.56500
H  -0.12700 4.59500 28.45800
H  -0.33900 5.89000 22.23000
H  0.46400 11.90000 23.36700
H  1.45600 8.57000 30.85500
H  -0.35700 6.16200 30.71400
H  2.16500 6.36000 31.41200
H  2.47200 6.04200 29.71200
H  1.59100 4.83700 30.72100
H  -1.49300 7.99300 31.58500
H  -1.18000 9.54000 30.85900
H  -0.51000 10.32600 32.88100
H  0.79200 9.02400 32.81800
H  -1.78400 2.50200 26.34500
H  -1.03900 2.99200 27.78900
H  -0.01400 2.08400 26.59900
H  -1.64600 1.70900 24.38600
H  0.05900 1.49200 24.13800
H  -1.05600 1.32300 22.78200
H  -1.42000 8.21600 21.17000
H  0.50800 10.49600 21.37300
H  0.67900 8.87900 19.57600
H  0.09400 7.27100 19.85400
H  1.42000 7.89600 20.88500
H  -2.06800 10.27000 20.49300
H  -1.27800 11.82900 21.12400
H  -3.04100 12.05000 22.48300
H  -2.82300 10.46900 23.21700
H  -3.84900 10.68600 21.79600
H  1.33100 14.51600 26.14900
H  -0.06700 13.99500 25.07700
H  1.52400 13.58100 24.62400
H  -0.00300 11.32400 30.22900
H  3.48200 12.66400 32.10400
H  3.67100 11.00000 32.56600
H  2.75600 12.14000 33.58900
Mg 49.75000 46.57000 42.40400
C  46.42400 46.98900 41.76700
C  49.39800 43.37100 40.66000
C  53.13500 46.14200 42.39500
C  50.15200 49.80300 43.33600
N  48.13800 45.36900 41.16200
C  46.88000 45.84000 41.07800
C  46.09900 45.01300 40.14100
C  46.98000 43.72400 39.86700
C  48.26900 44.17700 40.53600
C  46.32000 42.49400 40.48900
C  45.69800 45.71900 38.83500
C  44.11300 45.73700 38.54800
H  43.71000 45.66300 37.08300
N  51.03900 45.03800 41.77100
C  50.64800 43.76000 41.16800
C  51.77000 42.84600 41.34400
C  52.93300 43.66200 41.69600
C  52.39400 45.09000 41.95900
C  51.66600 41.33500 41.06300
C  54.35100 43.07000 41.76700
O  54.57800 41.83200 41.67300
C  55.51100 43.96000 41.97200
N  51.44300 47.77800 42.80000
C  52.74500 47.39600 42.77700
C  53.69700 48.57100 43.11700
C  52.66200 49.72300 43.52800
C  51.30400 49.06800 43.24800
C  54.78500 48.18600 44.23900
C  52.84300 51.03700 42.72800
C  52.72300 52.33900 43.61800
N  48.58200 48.11200 42.63300
C  48.86500 49.41600 43.05400
C  47.58200 50.10200 43.17100
C  46.67000 49.09300 42.79200
C  47.29400 47.96900 42.37000
C  47.25600 51.44600 43.75100
C  45.29000 48.96900 42.62300
O  44.35300 49.67500 42.92400
C  45.07800 47.62200 41.93100
C  44.14100 46.70400 42.76400
O  44.27400 46.32700 43.90100
O  43.15300 46.24600 41.95800
C  42.18200 45.36000 42.61000
H  49.27900 42.38300 40.21000
H  54.16600 45.92800 42.68400
H  50.28500 50.86300 43.56100
H  45.16300 44.73200 40.62300
H  47.16800 43.59400 38.80100
H  45.63800 42.63100 41.32800
H  47.13200 41.93600 40.95400
H  45.84800 41.92500 39.68800
H  46.37900 45.38500 38.05200
H  46.00600 46.74300 39.04900
H  43.73300 46.67500 38.95500
H  43.54200 45.06100 39.18500
H  50.64600 40.95100 41.10500
H  52.37600 40.76500 41.66200
H  51.94900 41.29200 40.01100
H  55.52100 44.28600 43.01200
H  55.55100 44.75300 41.22500
H  56.47700 43.46000 41.89000
H  54.20500 48.78300 42.17600
H  52.63800 49.84000 44.61100
H  54.99500 47.11600 44.25200
H  54.56100 48.58500 45.22800
H  55.70700 48.76500 44.18300
H  52.13100 51.13100 41.90800
H  53.86500 51.10900 42.35600
H  53.51800 52.31600 44.36300
H  51.81800 52.54300 44.19100
H  52.83200 53.13100 42.87700
H  46.70600 52.13600 43.11200
H  48.15500 51.86300 44.20600
H  46.54400 51.24300 44.55100
H  44.75300 47.65200 40.89100
H  41.30000 45.40500 41.97200
H  42.00800 45.78500 43.59900
H  42.61800 44.37200 42.75600

