158

Mg 47.96600 34.86800 26.18100
C  46.44900 33.62600 29.27700
C  48.45100 37.79700 27.90900
C  49.07900 35.99900 23.34500
C  47.31000 31.77500 24.81300
N  47.52400 35.52100 28.37500
C  46.98200 34.88300 29.44200
C  47.23100 35.67900 30.78600
C  47.48100 37.08800 30.20300
C  47.87100 36.79400 28.70800
C  46.22400 38.08400 30.30300
C  48.39900 35.30900 31.76600
C  47.99100 35.00300 33.20800
H  46.76000 35.61900 33.78300
N  48.56800 36.63400 25.68700
C  48.83900 37.68400 26.55300
C  49.55400 38.73800 25.85000
C  49.73600 38.25300 24.49300
C  49.07800 36.92500 24.41300
C  49.94900 40.09900 26.51900
C  50.46100 38.90200 23.36600
O  50.45700 38.44100 22.24200
C  51.22800 40.25100 23.64500
N  47.99900 34.03400 24.26300
C  48.67400 34.64800 23.26300
C  48.66500 33.78000 22.00100
C  48.28800 32.34200 22.56300
C  47.84300 32.73300 23.93900
C  47.69900 34.34600 20.97600
C  49.52200 31.27500 22.61700
C  49.16300 29.93300 21.92800
N  47.00600 33.15600 26.79900
C  46.76900 31.96300 26.07500
C  45.99600 31.02000 26.82600
C  45.83900 31.64300 28.10300
C  46.49800 32.90800 28.04600
C  45.52400 29.69700 26.38400
C  45.15800 31.56900 29.45600
O  44.40500 30.74900 29.88900
C  45.61100 32.76300 30.25300
C  46.46400 32.23400 31.38900
O  47.69900 32.24200 31.39900
O  45.66700 31.84600 32.48500
C  46.35100 31.35300 33.66700
H  48.37100 38.81800 28.28700
H  49.53100 36.40200 22.43600
H  47.25800 30.79400 24.33500
H  46.31000 35.72900 31.36700
H  48.27200 37.59300 30.75800
H  46.45700 38.92500 30.95600
H  45.29400 37.60900 30.61600
H  46.05700 38.46700 29.29600
H  49.12100 36.12600 31.78000
H  48.97100 34.44200 31.43200
H  48.88700 35.25900 33.77400
H  47.95700 33.93600 33.42600
H  50.11700 40.97600 25.89400
H  50.81200 40.09400 27.18500
H  49.05300 40.42500 27.04600
H  51.91100 40.32800 22.79900
H  51.77100 40.08200 24.57500
H  50.51300 41.07200 23.58300
H  49.66900 33.66600 21.59200
H  47.44100 31.98100 21.97900
H  46.80400 33.72700 20.91600
H  48.14900 34.59000 20.01400
H  47.38300 35.31600 21.35900
H  49.69500 30.87900 23.61700
H  50.43400 31.61700 22.12700
H  50.02200 29.43300 21.48000
H  48.52700 30.19100 21.08100
H  48.64200 29.30700 22.65300
H  46.38900 29.05900 26.20300
H  45.04400 29.85600 25.41800
H  44.85900 29.26600 27.13300
H  44.77100 33.32800 30.65700
H  46.07400 30.30600 33.78800
H  45.81000 31.85900 34.46600
H  47.42400 31.33600 33.85800
Mg 29.75000 57.76800 40.66200
C  27.05000 55.77200 39.47800
C  31.84300 55.60700 39.11600
C  32.25500 60.01500 40.98800
C  27.49400 60.26000 41.57800
N  29.41200 55.97100 39.44900
C  28.31000 55.25100 39.08400
C  28.57700 53.93200 38.29300
C  30.12400 53.86900 38.48200
C  30.48100 55.23900 39.04400
C  30.69800 52.67900 39.28300
C  28.06900 54.02800 36.78700
C  27.86400 55.35100 36.12600
H  27.03300 55.39000 34.95700
N  31.83700 57.80500 40.22600
C  32.50700 56.70800 39.70500
C  33.92700 56.96700 39.76100
C  34.07500 58.24600 40.41100
C  32.70500 58.76300 40.56300
C  35.02200 55.96600 39.44800
C  35.36500 58.94500 40.63500
O  36.45900 58.45900 40.28500
C  35.45400 60.29300 41.29000
N  29.83000 59.95100 41.13200
C  31.02000 60.55400 41.25500
C  30.80800 62.02900 41.67600
C  29.25100 62.15800 41.92800
C  28.82300 60.71000 41.58100
C  31.69700 62.56500 42.90000
C  28.54300 63.34400 41.13600
C  28.21200 64.59400 41.90800
N  27.70400 57.94300 40.74700
C  26.93500 59.00200 41.16200
C  25.55200 58.58100 41.15200
C  25.55900 57.26500 40.47800
C  26.93500 57.00300 40.24500
C  24.39500 59.49900 41.46300
C  24.69000 56.30300 39.89000
O  23.45500 56.26800 39.74800
C  25.62700 55.27500 39.27100
C  25.38700 53.97600 39.98600
O  26.02600 53.53300 40.95800
O  24.25400 53.38300 39.55500
C  23.95000 52.02600 39.86000
H  32.52100 54.87200 38.67700
H  33.02600 60.78000 41.10300
H  26.68100 60.97500 41.72600
H  28.08800 53.20800 38.94400
H  30.70100 53.86700 37.55800
H  29.96900 51.86800 39.26900
H  30.78000 53.00400 40.32000
H  31.67500 52.40500 38.88400
H  27.17900 53.40600 36.67900
H  28.87200 53.60400 36.18400
H  28.82500 55.77700 35.83900
H  27.48700 56.13000 36.78900
H  35.75900 56.43600 38.79600
H  34.64800 55.06700 38.95900
H  35.67000 55.67900 40.27600
H  35.01500 61.06500 40.65800
H  36.53200 60.41600 41.39400
H  35.04100 60.45400 42.28600
H  31.10600 62.55300 40.76900
H  29.16500 62.27700 43.00800
H  32.63200 62.00500 42.86500
H  31.28800 62.49200 43.90800
H  31.96000 63.60100 42.68100
H  27.74700 62.91100 40.53100
H  29.25400 63.70000 40.39000
H  28.76800 65.45800 41.54300
H  28.49100 64.51500 42.95900
H  27.14900 64.79800 41.78200
H  24.68500 60.18800 42.25600
H  23.49200 58.95300 41.73500
H  24.22000 60.12700 40.58800
H  25.42600 55.17200 38.20500
H  23.17400 51.84100 40.60300
H  24.84300 51.45300 40.11300
H  23.48000 51.61000 38.96900

