158

Mg 40.47600 9.26300 28.55700
C  42.29000 10.81200 31.35700
C  38.47600 7.77400 30.93900
C  38.82000 8.19500 26.08200
C  42.96600 10.67300 26.48700
N  40.37300 9.29900 30.85800
C  41.15900 10.05400 31.76700
C  40.64900 9.82000 33.22300
C  39.44900 8.88900 32.97900
C  39.44800 8.52900 31.49500
C  39.40900 7.50000 33.76500
C  40.37300 11.10300 34.04400
C  39.25700 11.10000 35.16100
H  39.65700 11.83600 36.47500
N  38.96800 8.03300 28.48400
C  38.18000 7.52000 29.58500
C  37.08000 6.70600 28.96700
C  37.14700 6.88800 27.56200
C  38.35500 7.62400 27.30800
C  36.08700 5.88700 29.81100
C  36.20800 6.30300 26.51600
O  36.56400 6.28800 25.36100
C  34.83600 5.59300 26.86600
N  40.91600 9.32900 26.59200
C  39.90600 8.99600 25.76100
C  40.29300 9.27800 24.27500
C  41.64400 9.96700 24.37400
C  41.88200 9.95100 25.89200
C  40.22900 8.09000 23.29100
C  41.79600 11.21400 23.51700
C  41.33800 12.61900 24.12000
N  42.25500 10.49200 28.80100
C  43.15000 10.91000 27.84800
C  44.30800 11.53000 28.41600
C  44.01200 11.47600 29.80100
C  42.70500 10.87300 29.98800
C  45.57100 11.94800 27.69900
C  44.55800 11.80300 31.09700
O  45.54200 12.51400 31.33600
C  43.47700 11.40900 32.16900
C  44.04000 10.46700 33.21900
O  44.55400 9.42300 32.86500
O  43.73600 10.90700 34.50800
C  43.86200 9.96000 35.61800
H  37.70100 7.42000 31.62300
H  38.30500 7.81800 25.19500
H  43.68900 10.86900 25.69200
H  41.40500 9.25900 33.77100
H  38.54900 9.50100 33.04800
H  38.35800 7.36700 34.02400
H  40.04000 7.64600 34.64100
H  39.74900 6.68800 33.12200
H  40.36100 11.88800 33.28800
H  41.32300 11.43000 34.46900
H  38.84200 10.15700 35.51600
H  38.37100 11.64400 34.83300
H  35.08500 6.14700 29.47000
H  36.16500 6.06000 30.88400
H  36.22900 4.81600 29.66600
H  35.09400 4.71400 27.45600
H  34.38800 5.17300 25.96500
H  34.25700 6.35400 27.39000
H  39.58100 10.05300 23.99000
H  42.39000 9.24000 24.05100
H  39.95300 7.13300 23.73300
H  41.19700 7.95400 22.80900
H  39.50000 8.34000 22.52000
H  41.27500 11.01000 22.58200
H  42.85000 11.27100 23.24300
H  41.18100 12.57400 25.19800
H  40.41100 12.82600 23.58500
H  42.02400 13.44600 23.93200
H  45.25900 12.84500 27.16400
H  45.86200 11.15800 27.00600
H  46.40200 12.15000 28.37500
H  43.20500 12.23300 32.82800
H  44.47000 9.08100 35.40100
H  42.84300 9.69700 35.90100
H  44.33600 10.37600 36.50800
Mg 1.14900 43.59000 25.86000
C  3.44700 43.52200 28.54600
C  -1.17300 42.47000 28.07200
C  -0.73900 43.01100 23.22300
C  3.90500 44.24900 23.75200
N  1.21400 43.03500 28.11500
C  2.17700 43.25800 28.96900
C  1.64500 43.09100 30.43900
C  0.24600 42.61100 30.28000
C  0.03900 42.77800 28.72000
C  0.06900 41.11000 30.87100
C  1.84700 44.39000 31.17400
C  2.22800 44.44300 32.64500
H  1.60700 43.29200 33.42900
N  -0.77000 42.99100 25.67000
C  -1.56000 42.58900 26.74000
C  -2.86300 42.20700 26.19300
C  -2.71900 42.27800 24.76000
C  -1.41100 42.75200 24.47800
C  -3.96900 41.73300 27.10500
C  -3.66000 41.81300 23.65700
O  -3.45600 41.80200 22.42700
C  -5.04100 41.19800 24.05600
N  1.51200 43.71600 23.91600
C  0.50900 43.48600 22.97800
C  1.09000 43.58000 21.53900
C  2.39900 44.36400 21.74700
C  2.66700 43.96200 23.22100
C  1.28100 42.21100 20.79200
C  2.18200 45.88800 21.65800
C  3.06200 46.55000 20.58900
N  3.24900 43.93000 26.10200
C  4.27400 44.13000 25.11200
C  5.50900 44.23800 25.73800
C  5.22800 43.99400 27.11600
C  3.86100 43.82300 27.23800
C  6.84600 44.35600 25.16100
C  5.86000 43.88800 28.42200
O  7.02600 43.93100 28.77100
C  4.69500 43.61400 29.44600
C  4.93500 42.32200 30.21000
O  5.05500 41.27600 29.63900
O  5.14200 42.44500 31.54300
C  5.16800 41.22200 32.37300
H  -2.02300 42.35900 28.74700
H  -1.27000 42.73900 22.30800
H  4.69600 44.53400 23.05400
H  2.25100 42.45600 31.08500
H  -0.38200 43.29500 30.85100
H  -0.56200 41.14600 31.75900
H  0.97900 40.56000 31.11000
H  -0.43200 40.51300 30.10800
H  0.89900 44.92800 31.16200
H  2.62900 44.95200 30.66400
H  1.95000 45.44900 32.96100
H  3.30600 44.47600 32.80000
H  -5.00900 41.67300 26.78300
H  -4.07800 42.47100 27.90000
H  -3.68100 40.75500 27.48900
H  -4.88300 40.17500 24.39800
H  -5.60000 41.16800 23.12000
H  -5.46900 41.90500 24.76600
H  0.40300 44.09400 20.86800
H  3.19900 43.98600 21.11100
H  1.35700 41.39900 21.51600
H  2.24300 42.26400 20.28300
H  0.54300 42.02000 20.01300
H  2.31800 46.29700 22.65900
H  1.15200 46.12800 21.39400
H  2.48400 47.22500 19.95700
H  3.57300 45.81900 19.96300
H  3.84900 47.06800 21.13600
H  6.76400 44.06200 24.11500
H  7.49400 43.66600 25.70100
H  7.11600 45.40500 25.28400
H  4.62100 44.46100 30.12800
H  5.80400 40.50900 31.84700
H  4.28200 40.68000 32.70200
H  5.65600 41.52000 33.30100

