158

Mg 35.87000 1.87200 30.27100
C  33.19800 3.08500 32.36700
C  37.90700 2.15300 32.91800
C  38.29600 0.93700 28.34900
C  33.55000 2.05300 27.63500
N  35.52700 2.45000 32.42600
C  34.34600 2.82600 33.08400
C  34.60900 3.05800 34.61000
C  36.20000 3.02300 34.66800
C  36.58600 2.51400 33.24800
C  36.83900 4.43500 35.07700
C  33.79000 2.06300 35.46400
C  34.40500 1.50700 36.68100
H  34.91400 2.52200 37.72200
N  37.77400 1.50300 30.61300
C  38.50100 1.61600 31.76000
C  39.86100 1.17800 31.57200
C  40.01300 0.94500 30.22400
C  38.66700 1.09000 29.64500
C  40.78000 1.08200 32.76400
C  41.25600 0.58900 29.41500
O  41.30800 0.66400 28.22000
C  42.59100 0.43200 30.18100
N  35.90000 1.57800 28.28700
C  37.04100 1.14500 27.66100
C  36.85600 0.86300 26.19100
C  35.32500 1.20400 25.97400
C  34.88700 1.65500 27.36500
C  37.79000 1.65300 25.25700
C  34.44500 0.07400 25.26200
C  33.47600 0.46800 24.07500
N  33.77000 2.45900 30.00600
C  32.98700 2.48300 28.87500
C  31.66000 2.88200 29.28100
C  31.65900 3.16000 30.62200
C  32.98300 2.87200 30.99700
C  30.56100 3.19800 28.34400
C  30.89200 3.74000 31.72800
O  29.81000 4.32400 31.74400
C  31.82200 3.53500 32.93200
C  31.95400 4.82400 33.69700
O  32.76100 5.71500 33.42000
O  31.24300 4.62900 34.81900
C  31.38000 5.60000 35.81800
H  38.56700 2.35900 33.76300
H  39.00400 0.60900 27.58500
H  32.84700 2.11400 26.80100
H  34.37400 4.08100 34.90100
H  36.57400 2.30300 35.39600
H  37.40100 4.40100 36.01000
H  36.19300 5.30800 34.98500
H  37.70500 4.63600 34.44500
H  33.21900 1.27500 34.97200
H  32.96200 2.68700 35.79800
H  35.23500 0.89600 36.32700
H  33.67400 0.87600 37.18700
H  41.33100 2.01300 32.63500
H  41.43900 0.21500 32.71200
H  40.27100 1.11700 33.72800
H  42.62100 1.33000 30.79800
H  43.37600 0.19600 29.46300
H  42.35000 -0.34200 30.91100
H  37.10500 -0.19400 26.10000
H  35.31700 2.10600 25.36200
H  38.65900 1.09900 24.90200
H  38.23900 2.58900 25.58900
H  37.16200 1.97000 24.42400
H  33.94700 -0.48000 26.05700
H  35.22400 -0.59700 24.90100
H  33.76400 -0.09200 23.18600
H  33.57900 1.52300 23.82000
H  32.43800 0.36600 24.39300
H  30.32600 2.38200 27.66000
H  30.76600 4.03100 27.67300
H  29.72500 3.45300 28.99500
H  31.38200 2.71900 33.50400
H  30.42900 5.83300 36.29800
H  31.72200 6.57600 35.47400
H  31.97000 5.23000 36.65700
Mg 54.81400 24.45000 45.45000
C  52.19400 26.78400 44.70000
C  52.70600 22.02400 44.10500
C  57.42400 22.33800 45.35100
C  56.91200 27.15700 46.22400
N  52.79300 24.49800 44.31900
C  51.84800 25.52600 44.32400
C  50.51000 25.06300 43.69600
C  50.63600 23.49100 43.91300
C  52.16500 23.32400 44.09800
C  49.83200 22.87700 45.09200
C  50.34300 25.64100 42.26900
C  50.28900 24.63300 41.03300
H  50.02900 25.06500 39.61100
N  55.03400 22.38400 44.85700
C  54.01200 21.54100 44.39700
C  54.57600 20.20300 44.16000
C  55.97700 20.29900 44.28300
C  56.20800 21.67300 44.85100
C  53.60400 18.97900 43.81100
C  56.96900 19.18600 44.08100
O  56.65000 18.07400 43.66800
C  58.49600 19.32100 44.36000
N  56.82900 24.71300 45.72500
C  57.66400 23.67300 45.83900
C  59.09300 24.06700 46.25100
C  58.94900 25.58500 46.37000
C  57.41900 25.87200 46.14700
C  59.75800 23.31300 47.33300
C  60.02000 26.45900 45.71600
C  60.71600 27.42700 46.57900
N  54.66400 26.49800 45.57700
C  55.58200 27.45700 45.97000
C  54.94400 28.75700 46.02300
C  53.63900 28.50900 45.55800
C  53.53400 27.11300 45.17100
C  55.56000 30.01500 46.49800
C  52.43500 29.16200 45.34900
O  52.00900 30.25900 45.61400
C  51.45600 28.11200 44.65700
C  51.09200 28.61800 43.31600
O  51.88900 29.14500 42.50000
O  49.68900 28.54000 43.15200
C  49.26800 29.22500 41.92500
H  52.04700 21.20900 43.79700
H  58.27500 21.65400 45.32500
H  57.55600 28.00200 46.47500
H  49.66800 25.33500 44.33300
H  50.48800 22.88900 43.01700
H  50.43800 22.16100 45.64800
H  48.88900 22.41300 44.80300
H  49.54800 23.65400 45.80200
H  51.11400 26.31800 41.90100
H  49.34000 26.06500 42.31100
H  49.44400 23.94500 41.06600
H  51.23500 24.09800 41.11000
H  52.82400 19.09600 44.56300
H  54.08500 18.00600 43.90800
H  53.22700 19.03900 42.79000
H  58.84400 20.26100 43.93100
H  59.08200 18.67000 43.71200
H  58.74300 19.22000 45.41700
H  59.68900 23.68700 45.42100
H  59.10100 25.75700 47.43600
H  60.72200 22.84600 47.13600
H  59.10900 22.47700 47.59700
H  59.94600 23.89100 48.23800
H  59.52100 27.03200 44.93400
H  60.64600 25.83000 45.08300
H  61.77200 27.46400 46.31400
H  60.59600 27.37500 47.66100
H  60.28700 28.38800 46.29300
H  56.22100 30.44100 45.74300
H  56.14400 29.96300 47.41800
H  54.78400 30.76900 46.63000
H  50.54200 27.96900 45.23400
H  49.68500 28.71700 41.05500
H  49.75200 30.20200 41.93000
H  48.19100 29.35000 42.03700

