158

Mg 39.95400 8.20500 29.25200
C  41.74800 9.85300 31.86300
C  37.48400 7.35300 31.52600
C  38.38200 6.80700 26.71300
C  42.75300 8.84400 27.17000
N  39.78600 8.52900 31.51800
C  40.59000 9.23800 32.33400
C  39.92700 9.34300 33.73200
C  38.67300 8.36000 33.63900
C  38.59500 8.13100 32.07500
C  38.89900 7.08200 34.49200
C  39.69300 10.76800 34.30800
C  38.68400 10.83600 35.48300
H  39.07200 11.64600 36.73600
N  38.15600 7.22800 29.16400
C  37.30300 6.97100 30.18400
C  36.17300 6.29900 29.56700
C  36.37400 6.16300 28.16800
C  37.66600 6.77900 27.93900
C  34.88200 6.06600 30.28600
C  35.53700 5.43900 27.16600
O  35.89200 5.33200 25.99000
C  34.38300 4.57600 27.62900
N  40.50400 7.82200 27.23300
C  39.60800 7.27000 26.38200
C  40.12700 7.33200 24.87200
C  41.60300 7.96600 25.15400
C  41.69600 8.17700 26.63100
C  40.31500 5.94100 24.28600
C  41.66800 9.34900 24.32900
C  40.55300 10.39600 24.69500
N  41.85000 9.03400 29.49100
C  42.78200 9.25600 28.49500
C  43.89200 10.00200 29.11100
C  43.48100 10.35600 30.39800
C  42.22900 9.71000 30.58000
C  45.19800 10.28100 28.41600
C  43.84900 11.11300 31.58600
O  44.86300 11.72500 31.85000
C  42.70500 10.82400 32.62900
C  43.44200 10.23300 33.79700
O  44.19600 9.30000 33.78700
O  43.26200 11.19700 34.77300
C  44.06600 10.93800 36.01300
H  36.70700 7.12000 32.25800
H  37.93300 6.47800 25.77300
H  43.49900 9.16200 26.43900
H  40.77200 8.91600 34.27200
H  37.76000 8.87500 33.93600
H  39.68300 7.28500 35.22200
H  39.26500 6.25300 33.88600
H  37.92700 6.95500 34.96700
H  39.28100 11.39700 33.51900
H  40.63700 11.14300 34.70500
H  38.44700 9.81900 35.79400
H  37.71000 11.15400 35.10900
H  34.72300 6.57400 31.23700
H  34.76300 5.00200 30.48900
H  34.05000 6.36500 29.64900
H  34.77700 4.01700 28.47900
H  34.16300 3.95500 26.76100
H  33.52900 5.18800 27.91800
H  39.55200 7.89000 24.13300
H  42.43200 7.36800 24.77700
H  39.92000 5.21500 24.99600
H  41.39000 5.77900 24.20500
H  39.74400 5.80400 23.36700
H  41.78500 9.08600 23.27800
H  42.60500 9.78900 24.66900
H  39.85200 10.04900 25.45500
H  39.95900 10.63000 23.81200
H  41.13200 11.27700 24.97300
H  46.03200 10.14100 29.10400
H  45.10900 11.25900 27.94400
H  45.25700 9.51600 27.64200
H  42.13700 11.73800 32.80000
H  43.59000 11.36100 36.89700
H  45.08500 11.32400 35.96500
H  44.11100 9.87000 36.22200
Mg 25.95300 53.08400 26.11700
C  23.69900 53.98300 28.90100
C  28.31300 52.65100 28.45400
C  28.05700 52.72800 23.49300
C  23.39700 53.95700 23.90300
N  25.89600 53.27000 28.46400
C  24.91000 53.47900 29.36700
C  25.40100 53.21200 30.78600
C  26.83600 52.68300 30.53500
C  27.06500 52.89900 29.04900
C  27.95200 53.34000 31.35200
C  24.47700 52.30200 31.61800
C  25.05900 51.67600 32.95200
H  24.42300 52.02100 34.40300
N  27.93400 52.79000 25.96900
C  28.73500 52.60200 27.02700
C  30.07800 52.33200 26.61000
C  30.04500 52.37200 25.16600
C  28.64300 52.60800 24.77300
C  31.21100 52.05500 27.66400
C  31.18400 52.17900 24.15700
O  31.09800 52.29100 22.96700
C  32.61000 51.92700 24.72700
N  25.67400 53.48400 24.00100
C  26.71200 53.11000 23.18800
C  26.25900 53.23600 21.70600
C  24.69700 53.42200 21.77600
C  24.57500 53.61400 23.30700
C  26.93500 54.41000 20.87300
C  23.86900 52.21300 21.27900
C  22.54100 52.60200 20.48800
N  23.99000 53.87100 26.31000
C  23.04700 54.10200 25.24900
C  21.80700 54.66000 25.91000
C  22.03300 54.63700 27.26900
C  23.37900 54.14800 27.47500
C  20.66300 55.06800 25.16900
C  21.42000 54.78400 28.56600
O  20.34500 55.21400 28.82200
C  22.48400 54.34300 29.64000
C  22.65500 55.49400 30.59300
O  23.26000 56.57000 30.39200
O  22.18000 55.07700 31.82900
C  22.42200 56.16600 32.83900
H  29.11700 52.35400 29.13100
H  28.70300 52.54300 22.63200
H  22.57600 54.13700 23.20700
H  25.40800 54.18400 31.28100
H  26.94300 51.61900 30.74400
H  27.67500 53.65100 32.35900
H  28.46000 54.16000 30.84400
H  28.64000 52.54500 31.63900
H  23.93900 51.51200 31.09500
H  23.65000 52.94900 31.91000
H  26.13700 51.82900 33.01600
H  24.91100 50.60700 32.80200
H  31.44100 50.99200 27.74300
H  31.00800 52.54700 28.61500
H  32.21700 52.39700 27.42200
H  33.24900 51.58100 23.91500
H  32.54200 51.14900 25.48700
H  32.78100 52.87200 25.24400
H  26.46800 52.24900 21.29400
H  24.29400 54.29600 21.26300
H  27.67200 54.04800 20.15700
H  27.42300 55.03100 21.62500
H  26.16100 55.05100 20.45200
H  23.45100 51.64100 22.10700
H  24.35700 51.49900 20.61500
H  22.38900 53.66800 20.32000
H  21.66800 52.27700 21.05300
H  22.57100 52.20600 19.47300
H  20.88400 55.34300 24.13700
H  20.28800 56.00300 25.58600
H  19.79000 54.41800 25.21200
H  22.19600 53.50500 30.27500
H  23.47100 56.05700 33.11400
H  21.85900 55.98600 33.75500
H  22.23000 57.17500 32.47300

