158

Mg 23.29800 -6.33800 45.42200
C  25.81200 -4.05500 44.37400
C  21.02200 -4.55300 43.62300
C  21.40200 -9.08100 45.47200
C  25.99800 -8.22900 46.90700
N  23.49300 -4.54000 44.05500
C  24.52900 -3.71000 43.84300
C  24.15100 -2.46200 43.02100
C  22.60600 -2.52800 43.16300
C  22.31400 -3.99700 43.60400
C  22.06700 -1.40500 44.13700
C  24.76600 -2.51000 41.67400
C  25.56400 -1.25200 41.24300
H  25.68200 -0.91100 39.74900
N  21.29500 -6.78200 44.75000
C  20.58600 -5.89100 43.95100
C  19.28100 -6.50300 43.76900
C  19.37400 -7.80900 44.38400
C  20.73200 -7.98200 44.87800
C  18.28800 -5.65300 43.05700
C  18.19300 -8.77500 44.56300
O  17.04600 -8.42600 44.20900
C  18.40800 -9.98100 45.32500
N  23.69700 -8.34100 46.07800
C  22.73800 -9.28600 46.03600
C  23.23400 -10.62800 46.56700
C  24.63800 -10.25700 47.12200
C  24.80500 -8.88400 46.59200
C  22.25500 -11.34400 47.55400
C  25.72700 -11.21400 46.60300
C  26.64400 -12.01400 47.59700
N  25.46700 -6.18400 45.70100
C  26.36600 -6.98700 46.35600
C  27.69900 -6.51600 46.20600
C  27.55900 -5.33300 45.47600
C  26.18500 -5.18600 45.17300
C  28.97400 -7.13700 46.80600
C  28.22200 -4.14900 44.89100
O  29.40300 -3.80700 44.88100
C  27.08100 -3.21900 44.22200
C  27.03600 -1.89400 44.90900
O  26.28500 -1.62700 45.78700
O  27.92200 -0.98000 44.36500
C  27.88000 0.45200 44.73500
H  20.25700 -3.90500 43.19100
H  20.90100 -10.04300 45.60100
H  26.70800 -8.91700 47.37100
H  24.48400 -1.53200 43.48200
H  22.10100 -2.45800 42.20000
H  21.58100 -1.78200 45.03800
H  21.36000 -0.77600 43.59700
H  22.85400 -0.77900 44.55600
H  23.96400 -2.57700 40.93800
H  25.36300 -3.40900 41.52400
H  26.56100 -1.38900 41.66000
H  25.11000 -0.36800 41.69200
H  18.10800 -4.72200 43.59400
H  17.28000 -6.06500 43.02200
H  18.63900 -5.36500 42.06500
H  17.45300 -10.47800 45.49300
H  18.89700 -9.78000 46.27900
H  18.95800 -10.74800 44.77900
H  23.34600 -11.25200 45.68000
H  24.62100 -10.18100 48.20900
H  22.05700 -12.36200 47.21800
H  21.32600 -10.78700 47.67500
H  22.58400 -11.22500 48.58600
H  26.37700 -10.71000 45.88800
H  25.25900 -11.89800 45.89500
H  27.67600 -11.84500 47.29000
H  26.49700 -13.08900 47.69400
H  26.48000 -11.57600 48.58200
H  29.36800 -7.92400 46.16400
H  28.77300 -7.64000 47.75200
H  29.68700 -6.34000 47.01700
H  27.33800 -3.14500 43.16600
H  26.91600 0.69600 45.18200
H  28.00200 1.17700 43.93000
H  28.62300 0.69400 45.49400
Mg 17.02800 -1.29100 27.57500
C  16.00500 0.83800 30.12900
C  19.11100 -2.90300 29.68900
C  18.50800 -2.73900 24.84100
C  15.30300 0.87700 25.28700
N  17.64100 -0.90800 29.56500
C  17.00200 -0.08800 30.51800
C  17.29000 -0.51300 31.94000
C  18.46900 -1.52900 31.74100
C  18.54500 -1.73900 30.17900
C  19.85500 -1.05000 32.31800
C  16.06400 -1.21800 32.68200
C  15.81500 -0.69800 34.12600
H  16.90100 0.15100 34.82900
N  18.49900 -2.75600 27.34200
C  19.14400 -3.34000 28.35100
C  19.96300 -4.36800 27.81100
C  19.84900 -4.33300 26.34700
C  18.93900 -3.21700 26.10600
C  20.84100 -5.34400 28.60000
C  20.54200 -5.18500 25.31100
O  20.28200 -5.04800 24.11100
C  21.53300 -6.30300 25.69100
N  16.97000 -0.89200 25.37400
C  17.65000 -1.69700 24.52600
C  17.61000 -1.08800 23.11100
C  16.31700 -0.24400 23.18100
C  16.17100 -0.07600 24.66400
C  18.88400 -0.31400 22.70400
C  15.11900 -0.94400 22.62500
C  14.96600 -0.63000 21.07100
N  15.78600 0.48900 27.63600
C  15.14000 1.24600 26.71200
C  14.32800 2.19400 27.41700
C  14.59600 2.05600 28.76900
C  15.56000 1.10300 28.82400
C  13.42100 3.24300 26.82700
C  14.31100 2.56100 30.07800
O  13.53400 3.45200 30.41400
C  15.30000 1.89400 31.05200
C  16.17600 3.07300 31.50400
O  16.77800 3.85900 30.76600
O  16.16900 3.20800 32.88800
C  16.74700 4.47600 33.34700
H  19.70200 -3.35200 30.48900
H  18.92500 -3.18200 23.93400
H  14.70500 1.48700 24.60600
H  17.77600 0.33400 32.42300
H  18.19200 -2.47900 32.19800
H  20.37200 -0.42100 31.59300
H  20.39900 -1.97400 32.51000
H  19.62600 -0.50600 33.23500
H  16.10400 -2.27500 32.94500
H  15.19000 -1.03500 32.05700
H  15.68600 -1.53700 34.80900
H  14.87500 -0.14700 34.13000
H  21.87700 -5.12200 28.34400
H  20.66200 -6.36800 28.27200
H  20.64800 -5.32700 29.67200
H  21.12100 -7.05200 26.36700
H  22.42800 -5.91000 26.17200
H  21.67300 -6.78500 24.72300
H  17.36600 -1.91400 22.44200
H  16.36800 0.76000 22.76000
H  19.75800 -0.29900 23.35500
H  18.57400 0.69300 22.42500
H  19.29700 -0.72000 21.78100
H  14.20900 -0.81200 23.21000
H  15.29200 -2.01500 22.73500
H  14.02200 -0.10700 20.91600
H  15.04000 -1.57000 20.52500
H  15.89500 -0.16000 20.75000
H  12.86400 2.82300 25.99000
H  13.97800 4.06500 26.37800
H  12.70500 3.49300 27.61000
H  14.71700 1.36400 31.80500
H  17.65400 4.76700 32.81800
H  16.77600 4.55100 34.43400
H  16.06100 5.28400 33.08800

