158

Mg 28.12600 56.72800 40.76500
C  25.56000 54.31200 40.09500
C  30.35900 54.32600 39.63500
C  30.25700 59.10700 40.41600
C  25.47500 58.96800 41.16500
N  27.92500 54.55200 39.95300
C  26.81200 53.84400 39.69300
C  27.12500 52.46100 39.01500
C  28.69500 52.41700 39.16900
C  29.05300 53.86500 39.64000
C  29.07500 51.30400 40.22100
C  26.58500 52.36500 37.59400
C  26.78500 53.66400 36.76200
H  27.03400 53.41500 35.26300
N  30.08200 56.72400 40.18400
C  30.83100 55.64400 39.74800
C  32.15200 56.19400 39.52000
C  32.14100 57.56700 39.78800
C  30.79800 57.83000 40.15700
C  33.26200 55.32800 39.12700
C  33.38700 58.38700 39.59600
O  34.41500 57.97500 39.07600
C  33.37700 59.88800 40.03200
N  27.89900 58.70000 40.86400
C  28.97600 59.52200 40.81000
C  28.55300 61.01600 41.09000
C  27.01300 60.89400 41.26600
C  26.74100 59.43600 41.12300
C  29.29000 61.58500 42.30800
C  26.32500 61.68300 40.09000
C  25.67500 62.99700 40.62000
N  26.02000 56.59600 41.06900
C  25.08900 57.59600 41.22100
C  23.78900 57.00100 41.48400
C  23.91900 55.68400 41.04200
C  25.28500 55.50700 40.72800
C  22.49300 57.65100 41.84900
C  23.15400 54.47200 40.66600
O  21.97000 54.15300 40.77400
C  24.23300 53.54600 40.06300
C  24.23800 52.27600 40.80100
O  24.05800 51.18000 40.21000
O  24.63000 52.43700 42.08000
C  25.25100 51.26300 42.66100
H  31.09400 53.68100 39.15000
H  30.90700 59.97600 40.28800
H  24.60100 59.58900 41.36900
H  26.67400 51.65000 39.58700
H  29.15700 52.21400 38.20300
H  29.77300 51.76600 40.91800
H  29.70200 50.53500 39.77000
H  28.24900 50.90500 40.81000
H  25.51800 52.14300 37.62100
H  27.07300 51.54200 37.07200
H  27.64400 54.20500 37.16000
H  25.93900 54.32600 36.94600
H  34.16500 55.36800 39.73600
H  33.46900 55.45600 38.06500
H  33.02400 54.26500 39.15000
H  32.87900 59.86800 41.00100
H  32.74000 60.37700 39.29500
H  34.41900 60.18400 40.15800
H  28.84400 61.56500 40.19400
H  26.73200 61.17000 42.28200
H  29.77600 62.52100 42.03200
H  30.03700 60.89300 42.69700
H  28.63500 61.75200 43.16300
H  25.55700 61.00100 39.72600
H  26.98400 61.99400 39.27800
H  25.73700 63.12900 41.70000
H  24.64700 63.05000 40.26200
H  26.20400 63.84000 40.17500
H  21.76400 56.84100 41.85700
H  22.15900 58.17300 40.95200
H  22.48400 58.29000 42.73200
H  24.01400 53.18000 39.06000
H  25.53000 51.47900 43.69200
H  26.16700 50.99600 42.13600
H  24.59900 50.39000 42.68200
Mg 0.53100 43.52000 25.97200
C  2.50300 43.32400 28.66600
C  -2.26000 42.92900 27.84800
C  -1.45400 43.16100 23.11600
C  3.35400 43.72500 23.89500
N  0.23800 42.96400 27.95400
C  1.15400 43.22500 28.95900
C  0.52800 43.25700 30.37700
C  -0.92500 42.76500 30.13400
C  -1.00100 42.92500 28.53800
C  -1.30600 41.30900 30.53600
C  0.52700 44.65600 31.03200
C  0.76100 44.72400 32.58900
H  0.44100 43.42200 33.38600
N  -1.65400 43.24000 25.53900
C  -2.59300 43.03200 26.50300
C  -3.90900 42.92600 25.93200
C  -3.65500 43.00900 24.53800
C  -2.21900 43.17300 24.31400
C  -5.23200 42.71300 26.64500
C  -4.72800 42.99300 23.34400
O  -4.51100 42.85000 22.15300
C  -6.14100 43.04000 23.65600
N  0.89500 43.30000 23.72700
C  -0.04000 43.18200 22.79200
C  0.54200 42.87200 21.42500
C  2.02500 43.33500 21.67400
C  2.12000 43.53700 23.22900
C  0.29700 41.41400 20.95500
C  2.34000 44.60000 20.81400
C  1.65400 45.93400 21.19000
N  2.68300 43.52800 26.15800
C  3.67800 43.68100 25.24300
C  4.89800 43.67700 25.93700
C  4.49200 43.58600 27.33100
C  3.13600 43.44000 27.37900
C  6.34300 43.80900 25.49700
C  4.94900 43.57100 28.71600
O  6.03100 43.48700 29.16000
C  3.65700 43.54900 29.56000
C  3.91800 42.48200 30.51500
O  3.64200 41.28500 30.34000
O  4.50800 42.96300 31.67000
C  4.72600 42.06400 32.81200
H  -3.06500 42.84600 28.58100
H  -2.16100 43.01600 22.29700
H  4.18800 44.04900 23.27000
H  1.03900 42.55400 31.03500
H  -1.67300 43.47900 30.47700
H  -2.11200 41.47200 31.25200
H  -0.45400 40.80400 30.99100
H  -1.74200 40.76100 29.70100
H  -0.35300 45.21500 30.71500
H  1.42200 45.13900 30.64100
H  0.08000 45.44800 33.03600
H  1.76400 45.07100 32.83800
H  -4.99400 42.74900 27.70800
H  -5.52400 41.75800 26.20800
H  -5.87400 43.55300 26.37600
H  -6.45400 42.17700 24.24300
H  -6.61300 42.93200 22.68000
H  -6.49100 43.95000 24.14300
H  -0.06500 43.51400 20.78600
H  2.74700 42.58400 21.35100
H  -0.23200 41.28000 20.01100
H  -0.44100 40.96600 21.62000
H  1.22300 40.84500 20.87400
H  1.97500 44.39400 19.80800
H  3.40400 44.77900 20.65900
H  2.31500 46.71200 20.80800
H  1.65800 45.97200 22.27900
H  0.61700 45.95500 20.85400
H  6.53900 43.22700 24.59600
H  6.89600 43.38400 26.33400
H  6.51500 44.85800 25.25600
H  3.51000 44.44900 30.15600
H  5.77500 42.06900 33.10800
H  4.32000 41.06400 32.66000
H  4.11400 42.46900 33.61900

