158

Mg 2.63300 -2.31300 44.35800
C  6.00700 -1.26500 43.98200
C  1.76800 0.32100 42.29300
C  -0.32400 -3.79600 44.00200
C  3.98000 -5.16700 45.97700
N  3.74900 -0.66100 43.25000
C  5.12400 -0.51400 43.17100
C  5.60200 0.51200 42.12300
C  4.20400 1.27700 41.87800
C  3.15400 0.28800 42.53600
C  4.05600 2.67300 42.50500
C  6.27400 -0.11600 40.83800
C  7.71700 0.28800 40.50100
H  8.17200 0.44700 39.05900
N  0.92600 -1.73700 43.36000
C  0.74900 -0.64700 42.63400
C  -0.60000 -0.54400 42.17500
C  -1.30400 -1.71400 42.59600
C  -0.24400 -2.48600 43.35600
C  -1.20500 0.62100 41.47300
C  -2.75900 -1.99000 42.38000
O  -3.47500 -1.15000 41.88200
C  -3.37200 -3.28800 42.83000
N  1.93100 -4.16300 45.00400
C  0.61500 -4.50900 44.81000
C  0.27000 -5.89400 45.36600
C  1.68800 -6.46100 45.73700
C  2.61500 -5.20700 45.58100
C  -0.62000 -5.87500 46.57500
C  2.07500 -7.60700 44.74100
C  2.12100 -9.04200 45.34200
N  4.52700 -2.98400 45.09900
C  4.93700 -4.13900 45.77200
C  6.39300 -4.07300 46.00200
C  6.85500 -2.90800 45.39000
C  5.70400 -2.28100 44.89400
C  7.21600 -5.11700 46.80400
C  8.04100 -2.20300 45.09900
O  9.26000 -2.30100 45.41300
C  7.45800 -0.99900 44.20000
C  7.56600 0.23500 44.90900
O  6.96600 0.49000 45.94000
O  8.68600 0.98100 44.40100
C  9.01300 2.14400 45.23900
H  1.52600 1.11400 41.58200
H  -1.31500 -4.25500 43.96800
H  4.44400 -6.00500 46.50200
H  6.30100 1.18100 42.62600
H  3.89900 1.38000 40.83700
H  5.00100 3.14300 42.78100
H  3.46900 2.74100 43.42000
H  3.71000 3.41200 41.78200
H  5.66100 -0.17600 39.93900
H  6.35300 -1.18200 41.05300
H  8.43900 -0.28300 41.08500
H  7.64900 1.30000 40.90100
H  -1.79000 0.36300 40.59100
H  -0.36500 1.22700 41.13400
H  -1.86100 1.09600 42.20300
H  -2.85300 -4.17700 42.47100
H  -4.43400 -3.31000 42.58600
H  -3.29300 -3.38200 43.91300
H  -0.15100 -6.59300 44.64300
H  1.90500 -6.79100 46.75200
H  -0.23700 -6.41000 47.44400
H  -1.48500 -6.48300 46.31100
H  -0.94600 -4.85300 46.77000
H  3.07500 -7.47400 44.32800
H  1.34300 -7.58200 43.93400
H  1.92800 -9.13900 46.41000
H  3.09300 -9.48200 45.11800
H  1.33600 -9.68100 44.93700
H  6.98300 -6.12400 46.45700
H  7.08200 -5.09800 47.88600
H  8.25200 -4.88300 46.56100
H  8.07000 -0.95600 43.29900
H  9.52700 2.88700 44.62900
H  9.44100 1.92000 46.21600
H  8.04900 2.63500 45.37500
Mg 9.60900 47.78200 25.36800
C  7.35500 48.22500 28.10300
C  12.01900 49.24300 27.30200
C  11.70800 47.60200 22.65300
C  6.83400 46.69700 23.34100
N  9.55500 48.75800 27.42000
C  8.66000 48.63200 28.40500
C  9.14800 49.18900 29.74600
C  10.59300 49.75700 29.33700
C  10.77000 49.19900 27.90100
C  10.82800 51.35100 29.32600
C  9.24500 48.18000 30.91600
C  9.74800 48.56200 32.31200
H  8.99500 48.07300 33.51500
N  11.57900 48.33100 25.03100
C  12.39500 48.85900 25.99100
C  13.78000 48.77500 25.50000
C  13.70800 48.19300 24.18400
C  12.29400 48.05500 23.91000
C  14.95500 49.15400 26.32400
C  14.85300 47.83100 23.26500
O  14.74800 47.49500 22.10700
C  16.24900 47.91800 23.79300
N  9.31400 47.38200 23.25700
C  10.39100 47.29100 22.37300
C  9.95200 46.66100 21.04300
C  8.49400 46.21300 21.30100
C  8.18000 46.73900 22.70300
C  10.12300 47.52100 19.77100
C  8.27600 44.72100 20.85600
C  8.30200 43.76900 22.04800
N  7.53900 47.60300 25.62800
C  6.51300 47.03600 24.68200
C  5.22300 47.07200 25.39800
C  5.60100 47.39100 26.77100
C  6.97100 47.73000 26.85300
C  3.91200 46.80500 24.83300
C  5.07700 47.37600 28.09500
O  4.01900 46.95500 28.54300
C  6.17700 47.83600 29.06200
C  6.45500 46.54800 29.79100
O  7.19800 45.71600 29.32200
O  5.84200 46.53500 31.00900
C  6.16700 45.46600 31.96600
H  12.74900 49.75700 27.93200
H  12.41900 47.32900 21.87100
H  6.02700 46.31700 22.71100
H  8.45900 49.99000 30.01300
H  11.33900 49.29800 29.98600
H  10.93400 51.72200 28.30700
H  11.75300 51.54500 29.87000
H  9.99900 51.90700 29.76300
H  9.81700 47.34500 30.51200
H  8.21100 47.84700 31.00000
H  9.70600 49.64700 32.21500
H  10.76700 48.33900 32.62700
H  14.71300 49.56700 27.30400
H  15.53700 49.90800 25.79300
H  15.52900 48.25400 26.54700
H  16.96000 47.57400 23.04200
H  16.35300 47.28100 24.67200
H  16.38700 48.92800 24.17900
H  10.62400 45.83700 20.80400
H  7.74600 46.73300 20.70200
H  9.24800 48.10000 19.47600
H  10.44900 46.85200 18.97400
H  10.98400 48.17200 19.92200
H  9.00600 44.34200 20.14200
H  7.28000 44.69000 20.41300
H  7.30200 43.39500 22.27100
H  8.53000 44.26300 22.99200
H  8.80900 42.83700 21.79800
H  3.53100 47.66300 24.27900
H  3.21100 46.51800 25.61600
H  3.91900 45.86500 24.28100
H  5.81100 48.63200 29.71100
H  5.74000 45.92400 32.85800
H  7.25300 45.41100 31.89400
H  5.70300 44.49800 31.77800

