158

Mg -1.50900 35.25700 26.42200
C  -2.86300 33.32400 28.92300
C  -0.75400 37.70200 28.73700
C  -0.09200 36.97600 23.91500
C  -2.94500 33.05100 24.02000
N  -2.01200 35.53400 28.62200
C  -2.42300 34.53600 29.45900
C  -2.24500 34.99800 30.91100
C  -1.64800 36.52900 30.76100
C  -1.48500 36.63500 29.27000
C  -2.63500 37.58400 31.33500
C  -1.18200 34.10300 31.68700
C  -1.50300 33.26900 32.87500
H  -0.62400 33.36000 34.13000
N  -0.53800 37.02200 26.30800
C  -0.34900 37.88900 27.38000
C  0.51600 38.94200 26.92000
C  0.68400 38.79500 25.49500
C  0.03300 37.51400 25.19000
C  1.15600 39.95000 27.83300
C  1.38900 39.73300 24.56000
O  1.64100 39.45700 23.37400
C  1.88000 41.03600 25.05600
N  -1.49300 35.00800 24.29200
C  -0.71500 35.77000 23.47900
C  -0.67400 35.35100 21.95700
C  -1.48800 33.99200 22.12100
C  -2.08100 34.06600 23.57700
C  -1.28400 36.29400 20.93500
C  -0.67800 32.70200 21.76000
C  0.48200 32.39900 22.78200
N  -2.89500 33.68800 26.45000
C  -3.36300 32.94000 25.40100
C  -4.15400 31.94200 25.97300
C  -3.91000 31.95700 27.35600
C  -3.24800 33.16500 27.57900
C  -4.95000 30.91200 25.15700
C  -4.18900 31.22700 28.56100
O  -4.89900 30.23400 28.72100
C  -3.42500 32.11800 29.69200
C  -4.41000 32.35600 30.82800
O  -5.18900 33.24400 30.91400
O  -4.17300 31.39000 31.68600
C  -5.18700 31.34600 32.78300
H  -0.35400 38.37400 29.49900
H  0.22800 37.59500 23.07300
H  -3.36200 32.31100 23.33400
H  -3.16800 34.93200 31.48800
H  -0.66700 36.60900 31.22900
H  -3.37700 36.98400 31.86100
H  -3.03100 38.13400 30.48100
H  -2.19600 38.27400 32.05600
H  -0.27300 34.68500 31.83900
H  -0.99700 33.25900 31.02200
H  -1.47000 32.24600 32.50000
H  -2.50900 33.65900 33.02500
H  0.83500 39.89000 28.87300
H  1.04100 40.94300 27.39700
H  2.23000 39.76600 27.85400
H  2.61200 40.83700 25.83900
H  0.98400 41.53400 25.42700
H  2.23200 41.59600 24.18900
H  0.35100 35.08500 21.69600
H  -2.39700 33.99700 21.51900
H  -2.20900 35.87100 20.54300
H  -0.66900 36.36700 20.03800
H  -1.49500 37.27600 21.35900
H  -0.25700 32.91300 20.77700
H  -1.21700 31.75800 21.68200
H  0.20800 31.41700 23.16800
H  0.41600 33.08500 23.62700
H  1.44800 32.46800 22.28200
H  -5.96100 31.31400 25.08900
H  -5.05000 29.97000 25.69600
H  -4.45400 30.78700 24.19500
H  -2.60200 31.56400 30.14400
H  -5.19100 30.36200 33.25200
H  -6.20200 31.65800 32.53500
H  -4.73200 32.08300 33.44300
Mg -11.03900 16.44400 42.84400
C  -7.79900 15.22900 42.29700
C  -9.97700 19.47300 41.57500
C  -14.31100 17.43000 42.55900
C  -12.04200 13.35900 44.08000
N  -9.14000 17.18500 41.77500
C  -7.96400 16.51200 41.88300
C  -6.88300 17.37800 41.35100
C  -7.48400 18.84300 41.37100
C  -8.96400 18.48700 41.68200
C  -6.79000 19.77300 42.46300
C  -6.43700 16.91800 39.91100
C  -4.92400 17.01900 39.55700
H  -4.31400 15.87200 38.66500
N  -11.98500 18.21800 42.05100
C  -11.40900 19.32000 41.52800
C  -12.39600 20.31200 41.12700
C  -13.69600 19.76200 41.54300
C  -13.40100 18.42400 42.16300
C  -11.88800 21.66000 40.62300
C  -14.95200 20.45200 41.35000
O  -14.96100 21.56500 40.84900
C  -16.19700 19.85100 41.88600
N  -12.91900 15.54600 43.20800
C  -14.10500 16.16200 43.05100
C  -15.32100 15.12300 43.30000
C  -14.56000 13.98400 43.87400
C  -13.05500 14.34700 43.82400
C  -16.40700 15.68300 44.25400
C  -14.95800 12.53900 43.31300
C  -14.83100 11.37600 44.30100
N  -10.22400 14.65800 43.15600
C  -10.69700 13.46000 43.69900
C  -9.64100 12.50200 43.81800
C  -8.48600 13.13400 43.26200
C  -8.86000 14.45400 42.86000
C  -9.74300 11.15700 44.41100
C  -7.10500 12.95100 42.94900
O  -6.40000 11.99000 43.12800
C  -6.59300 14.32400 42.35200
C  -5.59000 14.82600 43.27100
O  -5.71400 14.96800 44.45000
O  -4.42000 14.93700 42.60700
C  -3.38400 15.62600 43.35200
H  -9.46000 20.38700 41.27800
H  -15.40100 17.48900 42.51900
H  -12.38100 12.43400 44.54900
H  -6.08500 17.24300 42.08200
H  -7.35300 19.43600 40.46600
H  -6.06300 19.16500 43.00100
H  -7.61200 20.09200 43.10400
H  -6.37900 20.61800 41.91200
H  -7.06400 17.55000 39.28200
H  -6.77200 15.90700 39.67600
H  -4.36100 17.15800 40.48100
H  -4.83600 17.98800 39.06600
H  -10.91200 21.54800 40.15200
H  -11.76300 22.47000 41.34200
H  -12.63100 21.99000 39.89700
H  -16.95100 20.63300 41.97500
H  -16.01100 19.31400 42.81700
H  -16.66900 19.19000 41.15900
H  -15.89700 15.04300 42.37800
H  -14.75600 13.92900 44.94400
H  -16.97500 14.92800 44.79700
H  -17.18500 16.15600 43.65600
H  -15.95600 16.37100 44.97000
H  -14.35700 12.25400 42.45000
H  -15.98000 12.61200 42.94200
H  -15.83800 10.97600 44.41800
H  -14.41400 11.65400 45.26900
H  -14.15900 10.66900 43.81400
H  -10.12400 11.31200 45.42000
H  -8.79200 10.62600 44.35700
H  -10.57300 10.74800 43.83600
H  -6.31000 14.16200 41.31200
H  -2.37400 15.24100 43.21100
H  -3.46500 15.39000 44.41300
H  -3.40700 16.70300 43.18800

