158

Mg 39.89400 8.99800 29.16100
C  41.88900 10.30000 31.84000
C  37.88800 7.57900 31.52100
C  38.47800 7.44100 26.62800
C  42.56700 9.96700 26.96800
N  39.93400 9.00900 31.41800
C  40.73900 9.64500 32.30000
C  40.24400 9.47400 33.74100
C  39.02800 8.52400 33.62700
C  38.97400 8.27000 32.08700
C  38.87800 7.21000 34.42900
C  39.87800 10.86000 34.34600
C  38.74200 11.01200 35.39800
H  39.14300 11.79600 36.60700
N  38.34000 7.79900 29.02400
C  37.57100 7.43800 30.11100
C  36.48300 6.62000 29.61100
C  36.53400 6.69000 28.17200
C  37.86900 7.22500 27.87200
C  35.49100 5.85700 30.47300
C  35.56500 6.11000 27.15300
O  35.93200 5.98700 26.01900
C  34.17000 5.63100 27.46400
N  40.44200 8.67900 27.17700
C  39.63900 8.06000 26.26900
C  40.05300 8.27900 24.80500
C  41.39400 9.10500 24.89600
C  41.54200 9.25300 26.42900
C  40.20900 6.96100 24.03200
C  41.27000 10.50100 24.13000
C  40.09300 11.42500 24.50200
N  41.84800 9.97800 29.31900
C  42.82700 10.22500 28.36300
C  43.95500 10.97700 28.94900
C  43.61300 11.00600 30.31500
C  42.36300 10.41100 30.47100
C  45.22000 11.43400 28.31200
C  44.00000 11.47500 31.66400
O  44.93300 12.14800 32.07400
C  42.95700 11.04400 32.59600
C  43.50400 10.25800 33.70100
O  43.55600 9.03300 33.79500
O  43.64800 11.07400 34.81100
C  43.99100 10.56400 36.17100
H  37.10300 7.21900 32.19000
H  37.83800 7.13500 25.79800
H  43.33500 10.39000 26.31700
H  41.05600 9.01000 34.30100
H  38.13800 9.12100 33.82200
H  39.39900 6.42300 33.88300
H  37.82200 7.00300 34.60000
H  39.39000 7.29900 35.38700
H  39.96000 11.58700 33.53700
H  40.77400 11.00100 34.95000
H  38.39800 10.07100 35.82800
H  37.91000 11.50400 34.89300
H  35.58500 4.90100 29.95800
H  34.47700 6.24900 30.39000
H  35.68000 5.68200 31.53200
H  33.80900 6.45700 28.07700
H  34.26800 4.62800 27.87900
H  33.59800 5.57800 26.53700
H  39.23500 8.84000 24.35300
H  42.31600 8.70300 24.47500
H  39.61300 7.02100 23.12200
H  39.84500 6.17000 24.68800
H  41.22000 6.66600 23.75100
H  41.15000 10.35200 23.05700
H  42.15000 11.08700 24.39600
H  40.37700 12.44400 24.76600
H  39.69100 11.20500 25.49100
H  39.33100 11.34600 23.72700
H  45.25400 11.32000 27.22800
H  46.09200 11.02900 28.82600
H  45.23900 12.49400 28.56400
H  42.43000 11.91600 32.98200
H  43.06600 10.60000 36.74500
H  44.73000 11.16200 36.70500
H  44.23600 9.50300 36.12100
Mg -5.31600 25.07300 25.66900
C  -4.09000 26.84100 28.55800
C  -6.87000 22.93100 28.00700
C  -6.22700 23.19000 23.07700
C  -3.26000 27.03600 23.73000
N  -5.55500 24.97300 28.05600
C  -4.88500 25.72300 28.94900
C  -5.27800 25.31600 30.39400
C  -5.95900 23.87600 30.16600
C  -6.10300 23.88500 28.68600
C  -5.24400 22.60000 30.68100
C  -6.25000 26.37000 30.99200
C  -6.73100 26.16100 32.37700
H  -6.23200 24.96700 33.20500
N  -6.41000 23.28700 25.54400
C  -7.14200 22.70600 26.55300
C  -8.04400 21.69500 25.96600
C  -7.78700 21.69400 24.55600
C  -6.80200 22.73800 24.31600
C  -9.10500 20.91100 26.80700
C  -8.40700 20.85400 23.47600
O  -7.98400 20.94000 22.33500
C  -9.48200 19.76900 23.86700
N  -4.79200 25.07000 23.74000
C  -5.29300 24.19900 22.79700
C  -4.85300 24.53000 21.34500
C  -4.05300 25.90900 21.66200
C  -3.98900 26.02800 23.11200
C  -4.04700 23.36600 20.64200
C  -4.74200 27.20400 21.19800
C  -3.79400 28.16300 20.47200
N  -3.88500 26.67200 25.98900
C  -3.16000 27.38300 25.09400
C  -2.54700 28.49600 25.72900
C  -2.77700 28.24000 27.13100
C  -3.62200 27.11000 27.28600
C  -1.84400 29.63300 24.99300
C  -2.50100 28.68400 28.43700
O  -1.81900 29.59000 28.95400
C  -3.33800 27.80900 29.44000
C  -2.36900 27.13700 30.43400
O  -1.43800 26.44600 30.03500
O  -2.79200 27.20700 31.71100
C  -1.94700 26.61000 32.78700
H  -7.36100 22.18000 28.63000
H  -6.56700 22.63400 22.20000
H  -2.67200 27.77100 23.17700
H  -4.34300 25.17000 30.93500
H  -6.89800 23.94100 30.71500
H  -4.52900 22.16200 29.98400
H  -5.93000 21.82800 31.03200
H  -4.69800 22.77200 31.60900
H  -7.14500 26.30600 30.37300
H  -5.81300 27.36400 30.88900
H  -7.81800 26.08300 32.34400
H  -6.47800 27.07100 32.92100
H  -9.35700 21.51100 27.68100
H  -8.67800 19.98700 27.19700
H  -10.10200 20.76900 26.38900
H  -9.04000 19.32500 24.75900
H  -9.58700 18.99800 23.10300
H  -10.42400 20.27300 24.08000
H  -5.67300 24.77500 20.67000
H  -3.01500 25.87100 21.32900
H  -2.97000 23.52000 20.58100
H  -4.36800 23.19900 19.61400
H  -4.22100 22.44200 21.19300
H  -5.21200 27.70500 22.04400
H  -5.54100 26.97200 20.49400
H  -4.28200 28.53300 19.57100
H  -2.89700 27.61800 20.18000
H  -3.45300 29.02000 21.05300
H  -1.83300 30.58700 25.52000
H  -2.30400 29.81900 24.02300
H  -0.78000 29.53400 24.77700
H  -4.03700 28.48700 29.92800
H  -2.06100 25.53200 32.67400
H  -2.24200 26.96900 33.77300
H  -0.92000 26.91300 32.58000

