158

Mg 53.65400 23.82500 44.18400
C  51.24800 26.15100 43.23600
C  51.55300 21.32900 43.17900
C  56.34400 21.74700 43.87800
C  55.85600 26.45500 44.86800
N  51.62900 23.81800 43.17300
C  50.80700 24.85400 42.95700
C  49.45500 24.36600 42.39100
C  49.52400 22.83900 42.64000
C  50.99200 22.61200 43.05100
C  48.44900 22.08000 43.54200
C  49.28600 24.83900 40.89400
C  47.86200 25.25200 40.46500
H  47.40400 24.58300 39.10000
N  53.82400 21.75400 43.72200
C  52.82500 20.89000 43.48300
C  53.35800 19.56100 43.44600
C  54.77600 19.69900 43.41000
C  55.06500 21.13100 43.63500
C  52.49800 18.31500 43.18400
C  55.72900 18.49100 43.11400
O  55.29100 17.31900 42.88400
C  57.16800 18.73100 43.04400
N  55.83600 24.05500 44.24200
C  56.71400 23.05400 44.18600
C  58.11600 23.43500 44.28900
C  57.97500 24.97500 44.75200
C  56.45500 25.20500 44.64600
C  58.89300 22.58400 45.35000
C  58.89300 25.96400 43.96500
C  59.28300 27.28800 44.70600
N  53.59300 25.92900 44.14700
C  54.47900 26.86700 44.56400
C  53.93200 28.15900 44.59900
C  52.62700 27.90900 44.14900
C  52.50200 26.57200 43.76500
C  54.57100 29.51000 44.95800
C  51.39100 28.53900 43.77300
O  51.07100 29.72000 43.71900
C  50.50400 27.44200 43.14200
C  50.42300 27.82200 41.75600
O  51.32000 27.77900 40.90700
O  49.25500 28.38300 41.49600
C  49.01300 28.95800 40.16700
H  50.85600 20.50700 42.99900
H  57.17200 21.03500 43.89600
H  56.52500 27.23300 45.24100
H  48.68400 24.71200 43.07900
H  49.35000 22.45700 41.63400
H  47.74800 22.77800 43.99900
H  48.98200 21.44800 44.25200
H  47.84400 21.43800 42.90000
H  49.51700 24.02300 40.20900
H  49.92700 25.69200 40.67000
H  47.94800 26.33200 40.34600
H  47.16600 25.12500 41.29500
H  52.70100 17.97600 42.16800
H  51.45900 18.44600 43.48600
H  52.85000 17.52900 43.85300
H  57.63900 18.89900 44.01300
H  57.34800 19.67600 42.53200
H  57.80700 17.97100 42.59500
H  58.71300 23.28500 43.39000
H  58.03600 25.17500 45.82100
H  59.88800 22.38500 44.95300
H  58.38600 21.67100 45.66300
H  59.10500 23.17200 46.24300
H  58.51200 26.27000 42.99000
H  59.82600 25.44100 43.75500
H  60.36400 27.43200 44.69700
H  59.04100 27.23800 45.76700
H  58.82000 28.14200 44.21100
H  54.50800 29.46300 46.04500
H  53.98800 30.35100 44.58400
H  55.60100 29.52000 44.60000
H  49.52800 27.43100 43.62800
H  49.91800 29.14400 39.58800
H  48.33500 29.80100 40.30100
H  48.34400 28.33300 39.57500
Mg 41.82400 40.89000 26.40900
C  40.76300 43.19700 28.87400
C  42.72200 38.67900 28.92900
C  43.01400 38.78300 23.97200
C  40.98800 43.16000 23.88000
N  41.71800 41.03100 28.63300
C  41.15200 41.99000 29.44000
C  41.28700 41.58700 30.94000
C  41.96500 40.15400 30.86200
C  42.20000 39.95200 29.36000
C  43.24400 40.05600 31.70600
C  39.91600 41.75100 31.71500
C  39.77200 42.83400 32.74100
H  39.06800 42.53700 34.08500
N  42.67700 38.96400 26.45400
C  42.98700 38.24100 27.56600
C  43.43000 36.90100 27.14600
C  43.51100 36.88700 25.70400
C  43.06200 38.24100 25.31100
C  43.77200 35.81500 28.12600
C  43.96900 35.78100 24.64500
O  44.04600 35.88900 23.41600
C  44.23800 34.48500 25.20700
N  42.04000 40.98200 24.24100
C  42.54800 39.96600 23.45900
C  42.48800 40.28000 21.99400
C  41.58100 41.52200 21.95500
C  41.53300 41.91600 23.42900
C  43.84700 40.38400 21.22300
C  40.12000 41.45200 21.33400
C  39.23100 40.25100 21.72900
N  41.08600 42.81900 26.28600
C  40.81300 43.61900 25.18700
C  40.26100 44.89300 25.61700
C  40.31000 44.81600 27.06000
C  40.70400 43.50200 27.41800
C  39.77300 46.01200 24.80800
C  40.06900 45.46700 28.32600
O  39.66100 46.60800 28.57000
C  40.42600 44.57200 29.50700
C  41.47800 45.19300 30.38600
O  42.63400 45.37300 30.13200
O  40.88900 45.48400 31.62000
C  41.72900 46.11600 32.62400
H  42.91100 37.99300 29.75700
H  43.27900 38.06100 23.19700
H  40.83000 43.94700 23.14000
H  42.08300 42.18100 31.38700
H  41.16600 39.46000 31.12300
H  43.37600 39.17700 32.33700
H  43.28900 40.83800 32.46400
H  44.08200 40.33700 31.06900
H  39.76100 40.79100 32.20600
H  39.09400 41.87900 31.01100
H  39.36800 43.75700 32.32600
H  40.73400 43.23100 33.06600
H  43.17500 35.95300 29.02800
H  44.84200 35.77000 28.32500
H  43.48100 34.82800 27.76800
H  43.41900 34.00600 25.74300
H  44.95000 34.74800 25.98900
H  44.72400 33.84100 24.47400
H  41.99100 39.46500 21.46900
H  42.08400 42.40700 21.56500
H  44.56500 39.79600 21.79600
H  43.95700 41.43200 20.94700
H  43.68100 39.75500 20.34800
H  40.22900 41.46700 20.25000
H  39.54400 42.34300 21.58400
H  38.77300 39.67300 20.92600
H  38.41600 40.62100 22.35200
H  39.70500 39.51600 22.37900
H  40.62800 46.68200 24.89600
H  38.83500 46.40000 25.20500
H  39.64500 45.63300 23.79400
H  39.53000 44.61600 30.12700
H  41.44400 45.68200 33.58300
H  41.51500 47.18400 32.57900
H  42.80400 46.01000 32.48300

