158

Mg 2.88600 -1.90100 44.48600
C  6.05700 -0.55300 44.07100
C  1.51200 0.81100 43.06300
C  -0.17400 -3.49300 44.61300
C  4.37500 -4.96000 45.45200
N  3.71700 -0.12400 43.69500
C  5.02200 0.23300 43.62200
C  5.13400 1.67400 43.14900
C  3.64400 2.05600 42.80600
C  2.87300 0.85200 43.24100
C  3.13500 3.35000 43.52300
C  6.17300 2.05600 42.00400
C  5.82800 1.41000 40.61800
H  6.97400 0.65200 39.90000
N  0.91500 -1.35400 43.96900
C  0.57900 -0.19300 43.37300
C  -0.80700 -0.21900 43.14100
C  -1.34700 -1.40900 43.66300
C  -0.22600 -2.12900 44.17300
C  -1.49400 0.90800 42.47900
C  -2.76800 -1.78700 43.56800
O  -3.51800 -0.90900 43.24900
C  -3.35600 -3.07600 43.86600
N  2.20200 -3.94400 44.87200
C  0.90100 -4.35900 44.94500
C  0.77200 -5.83000 45.30800
C  2.17600 -6.33600 45.45700
C  2.97400 -5.02000 45.26000
C  -0.13500 -6.15000 46.55700
C  2.60800 -7.54200 44.54700
C  2.95800 -8.87600 45.29200
N  4.78500 -2.65900 44.89200
C  5.29100 -3.85600 45.29800
C  6.66000 -3.81700 45.60000
C  7.02800 -2.53300 45.02000
C  5.84500 -1.89000 44.58700
C  7.46500 -4.80200 46.39000
C  8.12400 -1.63500 44.83600
O  9.35300 -1.80400 45.03400
C  7.57100 -0.22400 44.24800
C  7.82900 0.82200 45.37400
O  7.64800 0.61500 46.56800
O  8.40600 1.94000 44.84100
C  8.60200 3.07000 45.77500
H  1.15200 1.80900 42.80500
H  -1.16900 -3.93500 44.53000
H  4.87800 -5.83800 45.86300
H  5.44900 2.30300 43.98200
H  3.57200 2.38900 41.77000
H  2.24400 3.20400 44.13300
H  2.84300 4.07600 42.76300
H  3.86600 3.81700 44.18200
H  7.19800 1.78800 42.26000
H  6.11600 3.11100 41.73600
H  5.45400 2.21700 39.98900
H  5.04000 0.66400 40.72300
H  -2.01600 0.58800 41.57700
H  -0.83000 1.73700 42.23400
H  -2.22700 1.30600 43.18100
H  -2.83900 -3.90600 43.38600
H  -4.39600 -2.93500 43.57200
H  -3.27100 -3.11400 44.95200
H  0.12200 -6.14900 44.49300
H  2.35600 -6.49500 46.52100
H  -1.17800 -5.95900 46.30600
H  0.05800 -5.45600 47.37500
H  0.04500 -7.18700 46.83900
H  3.42700 -7.16100 43.93700
H  1.70400 -7.67600 43.95300
H  2.53800 -9.79500 44.88300
H  2.59500 -8.78000 46.31500
H  4.03700 -9.02800 45.27500
H  8.44700 -4.56900 46.80200
H  7.56200 -5.67700 45.74700
H  6.76200 -5.20400 47.12000
H  8.10300 0.05800 43.34000
H  9.20500 2.68200 46.59700
H  7.68800 3.43700 46.24200
H  9.09700 3.94000 45.34200
Mg 1.03600 8.18300 26.33500
C  1.60300 9.96000 29.36200
C  0.94700 5.32800 28.33900
C  0.71900 6.30700 23.56200
C  1.31300 11.06300 24.60900
N  1.24800 7.75000 28.58900
C  1.31500 8.61900 29.64200
C  1.19200 7.95700 30.94800
C  1.39700 6.48700 30.57600
C  1.14400 6.50100 29.07800
C  2.69100 5.78000 30.90100
C  -0.09400 8.41100 31.69200
C  0.01700 8.51800 33.22800
H  1.25400 7.93600 33.95300
N  0.83900 6.07500 26.02400
C  0.85100 5.11900 26.94400
C  0.55300 3.84500 26.28500
C  0.68300 4.11900 24.92500
C  0.74800 5.53800 24.77800
C  0.35400 2.52600 26.99600
C  0.60200 3.12400 23.66900
O  0.60100 3.53000 22.51200
C  0.57200 1.60900 23.86500
N  0.94000 8.60400 24.43000
C  0.82300 7.71300 23.41600
C  0.76300 8.45100 22.01500
C  0.83400 9.96000 22.39500
C  0.99700 9.85900 23.92100
C  1.71400 7.97000 20.87300
C  -0.46500 10.77400 21.91300
C  -1.73400 10.51600 22.74700
N  1.37700 10.10400 26.78600
C  1.51000 11.17100 25.96400
C  1.81800 12.37600 26.77200
C  1.83100 11.89000 28.06100
C  1.55800 10.53600 28.05200
C  2.04400 13.81900 26.21300
C  2.20000 12.28800 29.39000
O  2.57200 13.39800 29.84200
C  1.93400 11.01300 30.31900
C  3.15600 10.67200 31.07900
O  4.09000 9.87100 30.83900
O  3.17900 11.52100 32.18300
C  4.40600 11.54600 33.08100
H  0.82600 4.38700 28.88000
H  0.66400 5.89700 22.55100
H  1.22200 11.95700 23.98800
H  2.11800 8.15800 31.48600
H  0.60200 5.87500 31.00200
H  2.48100 5.07300 31.70300
H  3.45000 6.39800 31.38100
H  3.09700 5.17400 30.09100
H  -0.91200 7.72200 31.47700
H  -0.42800 9.37800 31.31800
H  -0.88000 8.07900 33.66400
H  0.08700 9.59800 33.35700
H  1.34400 2.08400 26.88100
H  -0.43600 1.95200 26.51200
H  0.01800 2.67100 28.02300
H  1.56500 1.18800 24.02300
H  0.31300 1.15500 22.90900
H  -0.13100 1.24800 24.61600
H  -0.26000 8.16900 21.76500
H  1.77900 10.39400 22.06700
H  2.42300 7.22000 21.22700
H  2.27900 8.88100 20.67800
H  1.23000 7.44200 20.05200
H  -0.54800 10.57000 20.84500
H  -0.27700 11.84200 22.02000
H  -1.58400 9.99900 23.69500
H  -2.40200 9.80800 22.25700
H  -2.18500 11.48900 22.94100
H  2.47100 13.72900 25.21400
H  2.76700 14.29800 26.87200
H  1.14300 14.42200 26.09400
H  1.08000 11.19900 30.96900
H  5.29300 11.02000 32.72900
H  4.13100 11.15700 34.06200
H  4.75800 12.57000 33.20800

