158

Mg 9.18200 3.97100 28.18600
C  10.38200 2.14700 31.00000
C  7.37400 5.94800 30.32900
C  8.02900 5.49800 25.48100
C  10.61500 1.44200 26.18200
N  8.77500 3.85600 30.35900
C  9.54400 3.20300 31.29400
C  9.39700 3.82700 32.72300
C  8.34700 4.97000 32.56100
C  8.13900 4.98400 30.95500
C  6.97500 4.73600 33.27500
C  10.76800 4.11800 33.38500
C  11.11200 3.37300 34.69900
H  11.58200 4.28200 35.90100
N  7.89400 5.54700 27.97500
C  7.27700 6.25400 28.95000
C  6.49900 7.32000 28.32800
C  6.84200 7.32200 26.89500
C  7.60800 6.10900 26.69100
C  5.57300 8.22300 29.08800
C  6.44900 8.28600 25.81500
O  6.64300 8.03100 24.63700
C  5.76800 9.54000 26.28200
N  9.23700 3.45000 26.20900
C  8.71800 4.29800 25.23300
C  9.02400 3.85700 23.81500
C  9.92500 2.58500 23.99500
C  9.91700 2.46100 25.56400
C  7.88400 3.69400 22.84900
C  11.31500 2.55400 23.31100
C  11.52500 1.42700 22.18100
N  10.23600 2.07500 28.48400
C  10.79700 1.22800 27.55100
C  11.50800 0.17100 28.18200
C  11.36100 0.53300 29.55500
C  10.61800 1.64500 29.65400
C  12.14400 -0.96200 27.59200
C  11.69300 0.09400 30.93600
O  12.28400 -0.95300 31.34200
C  11.11500 1.18900 31.89600
C  10.15900 0.55100 32.92100
O  8.96100 0.35200 32.74000
O  10.75600 0.29300 34.04900
C  9.98600 -0.37300 35.09900
H  6.89300 6.70400 30.95400
H  7.93200 6.07000 24.55500
H  11.08800 0.71200 25.52200
H  8.86600 3.00600 33.20400
H  8.76000 5.93700 32.85100
H  6.79700 5.58000 33.94200
H  7.10400 3.81300 33.84000
H  6.17300 4.77100 32.53800
H  10.94900 5.17300 33.59000
H  11.52200 3.94800 32.61600
H  11.90900 2.66300 34.47700
H  10.23200 2.84800 35.07200
H  5.45100 7.82500 30.09600
H  4.55000 8.18000 28.71400
H  5.96600 9.23200 29.21000
H  5.00500 9.41400 27.05000
H  5.50200 10.06500 25.36500
H  6.64800 10.01000 26.72200
H  9.62300 4.67200 23.40900
H  9.37900 1.71000 23.64300
H  8.05100 4.32000 21.97300
H  7.02200 4.16600 23.32100
H  7.70100 2.65400 22.58000
H  12.11700 2.52500 24.04900
H  11.52400 3.48600 22.78600
H  11.54300 1.77100 21.14700
H  10.76000 0.65000 22.17200
H  12.44900 0.86700 22.32400
H  11.93000 -1.05100 26.52700
H  11.76300 -1.86000 28.07700
H  13.22400 -0.91500 27.73800
H  11.99600 1.55400 32.42200
H  10.65000 -0.87300 35.80300
H  9.26600 -1.12000 34.76400
H  9.52600 0.41600 35.69400
Mg 25.11000 -4.93500 46.10300
C  27.17900 -3.03200 44.37200
C  22.63300 -4.49200 43.59500
C  23.22100 -7.73200 47.17000
C  27.75300 -6.09300 47.99200
N  24.94200 -3.90200 44.14000
C  25.96700 -3.12900 43.69600
C  25.71000 -2.46300 42.36300
C  24.12000 -2.57700 42.30400
C  23.83400 -3.80300 43.38000
C  23.25300 -1.28100 42.77000
C  26.51600 -3.14100 41.26400
C  27.31100 -2.25200 40.28800
H  26.74400 -2.27500 38.83900
N  23.12400 -5.73500 45.70300
C  22.28300 -5.40800 44.62400
C  21.02300 -5.96900 44.79800
C  21.08500 -7.00000 45.79800
C  22.52700 -6.82200 46.30100
C  19.83200 -5.53000 43.88800
C  20.02300 -8.02100 46.24300
O  18.89600 -8.10400 45.68300
C  20.29600 -9.07300 47.37100
N  25.41600 -6.60900 47.39200
C  24.49800 -7.64000 47.64600
C  25.24200 -8.71300 48.45100
C  26.52600 -8.11700 48.92700
C  26.58900 -6.82100 48.08500
C  24.48500 -9.45000 49.52900
C  27.80400 -9.05100 48.76100
C  28.43100 -9.33300 50.10400
N  27.06600 -4.65300 46.23700
C  27.99900 -5.02000 47.13900
C  29.23900 -4.33100 46.97800
C  28.90800 -3.40400 45.99100
C  27.63400 -3.74800 45.49600
C  30.58200 -4.38500 47.75500
C  29.42400 -2.26500 45.18500
O  30.51500 -1.74500 45.15900
C  28.32900 -2.00400 44.12500
C  27.97900 -0.56600 44.32100
O  27.18700 -0.08700 45.10500
O  28.62100 0.20600 43.40200
C  28.57800 1.64200 43.48600
H  21.91400 -4.29700 42.79700
H  22.78700 -8.71800 47.35200
H  28.62800 -6.33000 48.60100
H  25.90600 -1.39100 42.32200
H  23.77400 -2.82300 41.30000
H  22.81300 -1.45600 43.75100
H  22.52200 -1.05000 41.99500
H  23.93200 -0.45500 42.98100
H  25.84000 -3.73100 40.64400
H  27.24000 -3.81300 41.72500
H  28.32600 -2.64200 40.36700
H  27.39400 -1.20200 40.56900
H  20.03800 -4.65100 43.27800
H  18.93100 -5.42800 44.49300
H  19.63200 -6.34000 43.18600
H  19.41700 -9.63000 47.69600
H  20.74200 -8.62000 48.25700
H  21.01300 -9.81900 47.02800
H  25.41400 -9.51300 47.73100
H  26.42600 -7.92400 49.99500
H  24.03300 -10.35100 49.11500
H  23.58300 -8.93700 49.86400
H  25.11200 -9.75200 50.36800
H  28.53400 -8.60500 48.08600
H  27.38100 -9.87800 48.18900
H  28.48200 -10.42200 50.11600
H  27.89400 -9.06500 51.01400
H  29.46900 -9.01900 50.20700
H  30.92200 -5.42000 47.73500
H  30.26500 -4.07900 48.75200
H  31.33000 -3.63600 47.49500
H  28.85400 -2.12000 43.17700
H  29.53300 2.16500 43.52100
H  27.95400 2.03700 44.28800
H  28.13400 2.04700 42.57700

