158

Mg 26.02300 1.49600 29.32900
C  27.91900 1.00600 32.25300
C  23.26300 1.91100 31.40300
C  24.07200 1.57200 26.62800
C  28.81100 0.66500 27.41000
N  25.63600 1.62300 31.57300
C  26.56600 1.43100 32.51200
C  26.04200 1.65300 33.88800
C  24.46700 1.71700 33.70300
C  24.46100 1.80300 32.14300
C  23.72500 0.51400 34.19600
C  26.70200 2.80800 34.78300
C  27.12600 2.48100 36.27900
H  27.03500 3.60200 37.40700
N  23.91800 1.63000 29.07000
C  22.97100 1.86500 30.01100
C  21.67300 1.90900 29.35100
C  21.80900 1.82900 27.93900
C  23.30000 1.65900 27.85600
C  20.37000 2.02700 30.13200
C  20.89000 1.89600 26.76700
O  21.29900 1.72900 25.61200
C  19.45400 2.36000 26.85900
N  26.32900 1.05100 27.26800
C  25.38900 1.27800 26.33900
C  25.95400 1.17000 24.94000
C  27.51000 0.95200 25.15700
C  27.57500 0.85600 26.69700
C  25.34900 0.19500 23.92400
C  28.46200 2.04300 24.52800
C  28.89900 3.34300 25.32700
N  27.99900 0.81500 29.71400
C  29.00200 0.51300 28.83400
C  30.20200 0.25800 29.60400
C  29.81800 0.33100 30.92600
C  28.45100 0.74800 30.94500
C  31.57200 -0.06800 29.06000
C  30.19300 0.35200 32.29300
O  31.30000 0.20400 32.78900
C  28.99700 0.70700 33.19000
C  28.69700 -0.45400 34.11900
O  28.01400 -1.47200 33.79600
O  29.18400 -0.22400 35.35400
C  28.58500 -1.11000 36.36900
H  22.45200 2.14400 32.09500
H  23.57300 1.86100 25.70000
H  29.68300 0.51800 26.77000
H  26.23100 0.70500 34.39200
H  24.05500 2.56800 34.24500
H  23.16400 -0.00300 33.41700
H  22.97500 0.85400 34.91000
H  24.23700 -0.28800 34.72700
H  25.94300 3.59000 34.82800
H  27.57200 3.17800 34.24000
H  28.18600 2.28700 36.11500
H  26.65800 1.58400 36.68400
H  20.39000 1.74500 31.18500
H  19.60700 1.34600 29.75600
H  19.99100 3.04700 30.18300
H  19.04600 1.58200 27.50300
H  18.95500 2.33700 25.89000
H  19.39800 3.34500 27.32400
H  25.92500 2.19000 24.55700
H  27.76600 -0.01300 24.72000
H  25.97100 -0.68800 23.77600
H  25.33000 0.67400 22.94400
H  24.35200 -0.11400 24.23400
H  28.09000 2.32000 23.54200
H  29.31300 1.38800 24.33700
H  28.40700 3.37100 26.30000
H  28.69300 4.29500 24.83800
H  29.97000 3.14300 25.33400
H  31.72800 0.65800 28.26200
H  31.65400 -1.13200 28.84000
H  32.39100 0.18700 29.73300
H  29.29300 1.59600 33.74600
H  28.74500 -2.18000 36.23200
H  27.50300 -0.97900 36.40300
H  29.14300 -0.85400 37.27000
Mg 36.06000 48.41300 25.96800
C  35.89500 46.63000 29.07300
C  35.37900 51.25100 27.56800
C  35.79200 49.87800 23.00800
C  36.74000 45.40200 24.44200
N  35.71200 48.87600 28.11700
C  35.75300 48.09200 29.20000
C  35.55700 48.85400 30.54200
C  35.27300 50.32800 30.00500
C  35.40900 50.18100 28.46500
C  33.83300 50.76800 30.57400
C  36.83900 48.75900 31.46200
C  36.58600 48.08100 32.81400
H  35.51200 48.67900 33.84800
N  35.69700 50.28000 25.35700
C  35.47700 51.33800 26.19600
C  35.24300 52.50900 25.46400
C  35.18400 52.11000 24.08700
C  35.53400 50.67000 24.09800
C  35.06900 53.95100 26.17500
C  34.88900 52.91800 22.86800
O  34.84100 52.47000 21.73900
C  34.73100 54.33000 23.06800
N  36.15200 47.72700 24.03800
C  36.01800 48.51800 22.94200
C  36.42600 47.80900 21.66700
C  36.96200 46.44700 22.18000
C  36.63300 46.54200 23.63800
C  35.23700 47.74400 20.67100
C  38.49100 46.23900 22.00400
C  38.80800 45.06600 21.09600
N  36.39100 46.43200 26.57000
C  36.66100 45.28100 25.83300
C  36.78400 44.16600 26.71900
C  36.47100 44.68500 27.99000
C  36.17300 46.00100 27.82400
C  37.17700 42.76800 26.38300
C  36.48700 44.27400 29.38800
O  36.77100 43.27400 29.96000
C  35.99400 45.59400 30.16200
C  34.65900 45.29400 30.69000
O  33.75900 44.78300 30.01100
O  34.68000 45.38100 32.09300
C  33.52900 44.78700 32.81100
H  35.07700 52.16600 28.08200
H  35.68900 50.31900 22.01400
H  37.06500 44.46300 23.98800
H  34.81100 48.29300 31.10500
H  36.07800 50.97800 30.34900
H  33.87100 51.81100 30.89200
H  33.43900 50.10400 31.34300
H  33.13200 50.68800 29.74300
H  37.22300 49.76100 31.65400
H  37.53400 48.13300 30.90200
H  37.54500 48.03900 33.33100
H  36.44900 47.00500 32.70800
H  35.42600 54.84000 25.65500
H  35.54500 53.95600 27.15500
H  34.03100 54.25700 26.31400
H  34.67200 54.78900 22.08100
H  35.61200 54.72300 23.57500
H  33.79600 54.52600 23.59300
H  37.25200 48.30900 21.16200
H  36.30700 45.67500 21.77600
H  34.32200 47.74300 21.26400
H  35.30600 46.83800 20.06900
H  35.25800 48.54300 19.93000
H  38.86000 45.97900 22.99600
H  39.02100 47.14700 21.71500
H  38.02400 44.31500 20.99400
H  39.67600 44.60400 21.56700
H  39.17600 45.34300 20.10800
H  36.91900 42.31600 25.42500
H  36.84500 42.15100 27.21900
H  38.26600 42.73000 26.40300
H  36.65500 45.85100 30.98900
H  33.15300 43.94600 32.22900
H  32.69300 45.47700 32.93400
H  33.84100 44.39600 33.77900

