158

Mg 41.34200 8.35600 29.83500
C  43.21200 9.67400 32.48500
C  38.87800 7.37800 32.04900
C  39.69800 6.93900 27.24400
C  43.95200 9.19000 27.65200
N  41.13900 8.54400 32.06000
C  41.98300 9.20200 32.95200
C  41.31400 9.21000 34.29000
C  40.06300 8.19200 34.15900
C  40.00600 7.97000 32.63700
C  40.12200 6.89500 35.08300
C  40.89000 10.61800 34.82600
C  40.70000 10.88200 36.30500
H  41.23800 12.25000 36.87000
N  39.55800 7.27500 29.71100
C  38.63000 7.01300 30.71900
C  37.46100 6.31200 30.18500
C  37.73700 6.16800 28.82200
C  39.06400 6.79900 28.51100
C  36.32300 5.86800 31.04700
C  36.73000 5.68500 27.69700
O  37.00100 5.74500 26.51400
C  35.43600 5.18700 28.18200
N  41.71000 8.22300 27.70300
C  40.90400 7.51000 26.84500
C  41.42800 7.63400 25.32900
C  42.67300 8.57800 25.57000
C  42.84100 8.62000 27.06100
C  41.71400 6.25900 24.60100
C  42.56500 9.99500 24.95300
C  43.77300 10.68000 24.31500
N  43.21600 9.32300 29.98700
C  44.17600 9.53700 29.01000
C  45.26900 10.22100 29.63100
C  45.05200 10.18300 30.97900
C  43.80000 9.63400 31.15800
C  46.41400 10.79300 28.94500
C  45.55600 10.49100 32.29700
O  46.63500 10.95700 32.62200
C  44.41200 10.15800 33.31900
C  44.94800 9.18600 34.18500
O  45.20200 7.98200 33.87200
O  45.31200 9.74000 35.35900
C  46.18200 8.92100 36.27900
H  38.05400 7.27900 32.75900
H  39.13900 6.47900 26.42700
H  44.67600 9.52500 26.90600
H  41.93800 8.82200 35.09600
H  39.14300 8.70200 34.44400
H  40.13200 5.94300 34.55200
H  39.41800 6.90700 35.91600
H  41.01400 6.87300 35.70800
H  39.92000 10.80500 34.36500
H  41.75600 11.22100 34.55200
H  41.24200 10.08000 36.80500
H  39.63400 10.74600 36.48800
H  36.48100 5.97300 32.12000
H  36.05000 4.81300 31.00500
H  35.45700 6.43100 30.69800
H  35.52500 4.21600 28.66700
H  34.77000 4.94800 27.35300
H  34.84100 5.87100 28.78900
H  40.65200 8.18700 24.80000
H  43.56000 8.14100 25.11100
H  42.72800 6.27000 24.20200
H  41.01000 5.91900 23.84100
H  41.73100 5.48600 25.36900
H  42.15200 10.68000 25.69400
H  41.74000 9.92300 24.24400
H  44.17300 11.52700 24.87200
H  43.41500 10.98300 23.33100
H  44.49800 9.87600 24.18700
H  46.54200 11.87200 29.03200
H  46.38800 10.65900 27.86300
H  47.32800 10.43800 29.42100
H  44.25800 11.03500 33.94800
H  46.60800 9.55700 37.05500
H  46.93700 8.30700 35.78800
H  45.46400 8.27500 36.78400
Mg 9.30900 48.24700 25.34500
C  6.98500 48.80500 27.86600
C  11.70100 49.46500 27.44000
C  11.46100 47.64800 22.96800
C  6.67200 47.70000 22.98800
N  9.27800 49.20400 27.40000
C  8.28300 49.05500 28.35000
C  8.81800 49.13700 29.83200
C  10.21500 49.83500 29.60200
C  10.42800 49.47400 28.02300
C  10.15700 51.34300 29.82700
C  8.80600 47.75600 30.52400
C  9.37600 47.75700 31.96000
H  8.46000 47.21600 33.06100
N  11.34000 48.39000 25.25500
C  12.14800 48.90400 26.25200
C  13.50900 48.71900 25.78200
C  13.52000 48.21600 24.51400
C  12.05500 48.08700 24.18400
C  14.66000 49.15200 26.71600
C  14.58300 47.90800 23.57400
O  14.38600 47.35600 22.50000
C  15.96700 48.10200 23.99600
N  9.07200 47.81300 23.23600
C  10.18100 47.60200 22.57300
C  9.86500 46.99000 21.16000
C  8.29500 47.01700 21.13800
C  7.97200 47.61500 22.47700
C  10.67700 47.51000 19.93700
C  7.60600 45.67000 20.78800
C  6.59400 45.75600 19.54200
N  7.25800 48.33100 25.37600
C  6.28400 48.09200 24.30600
C  4.98400 48.18200 24.90900
C  5.25700 48.41800 26.34000
C  6.59000 48.52500 26.50700
C  3.62800 48.18300 24.17600
C  4.58800 48.66500 27.59900
O  3.36000 48.60700 27.88300
C  5.70100 48.85900 28.65100
C  5.39500 47.74800 29.66100
O  5.74900 46.60100 29.59600
O  4.60200 48.23000 30.65900
C  4.06900 47.26200 31.63700
H  12.46900 49.69000 28.18300
H  12.11900 47.31300 22.16400
H  5.87000 47.53400 22.26700
H  8.16000 49.77200 30.42500
H  11.05600 49.35900 30.10600
H  9.26000 51.61300 30.38300
H  10.18700 51.88500 28.88100
H  11.01300 51.60800 30.44800
H  9.23700 46.91900 29.97700
H  7.75500 47.52200 30.69300
H  9.72300 48.78000 32.10900
H  10.23500 47.08700 31.92400
H  14.42900 49.36600 27.75900
H  15.03900 50.12400 26.40000
H  15.44800 48.40000 26.67200
H  16.12500 47.31300 24.73100
H  16.01300 49.05400 24.52400
H  16.60700 48.05500 23.11500
H  10.25500 45.97200 21.13900
H  7.94100 47.86300 20.54900
H  10.08800 48.19400 19.32700
H  11.14300 46.77800 19.27700
H  11.49900 48.06200 20.39300
H  7.14800 45.14300 21.62500
H  8.37700 44.93900 20.54800
H  5.78600 45.04900 19.73300
H  7.07300 45.67600 18.56600
H  6.10900 46.72500 19.65500
H  3.84300 48.10200 23.11100
H  2.99700 49.04400 24.39900
H  3.10500 47.35500 24.65500
H  5.67300 49.83300 29.14000
H  3.44600 47.92100 32.24100
H  4.89500 46.97800 32.28900
H  3.57600 46.37700 31.23500

