158

Mg 24.83500 -5.26700 46.71400
C  27.27300 -3.22700 45.38000
C  22.64800 -4.11500 44.43500
C  22.76500 -7.69900 47.65900
C  27.34200 -6.58000 48.79500
N  25.03900 -3.94200 45.00500
C  26.07600 -3.11800 44.66700
C  25.71900 -2.12500 43.54000
C  24.15700 -2.18700 43.57800
C  23.88600 -3.46200 44.44300
C  23.46200 -0.95000 44.16300
C  26.36200 -2.45900 42.17300
C  26.61900 -1.15100 41.24200
H  26.02500 -1.15100 39.81300
N  22.97200 -5.85400 46.08300
C  22.16900 -5.19200 45.24200
C  20.91800 -5.95400 45.10000
C  20.94300 -7.04600 45.97900
C  22.27600 -6.95200 46.58800
C  19.96700 -5.66000 44.07300
C  19.76900 -8.09000 46.20700
O  18.77100 -8.02200 45.48500
C  19.89100 -9.24100 47.13500
N  25.05000 -6.89300 48.06500
C  23.96700 -7.70800 48.27800
C  24.44600 -8.91000 49.15800
C  25.89800 -8.54200 49.60000
C  26.10300 -7.27000 48.81900
C  23.50200 -9.23900 50.42400
C  26.84400 -9.75200 49.21000
C  28.11600 -9.83400 50.11300
N  26.84900 -4.91900 47.12500
C  27.72700 -5.55500 47.98600
C  28.98600 -4.91200 47.91000
C  28.86800 -3.96600 46.94100
C  27.57900 -4.05300 46.46600
C  30.21600 -5.30000 48.74800
C  29.57700 -2.98000 46.18600
O  30.68200 -2.39500 46.32600
C  28.57500 -2.38700 45.10900
C  28.33600 -0.96200 45.41900
O  27.49600 -0.46900 46.18300
O  29.26900 -0.17100 44.76200
C  28.93800 1.18500 44.89800
H  21.79900 -3.61100 43.96700
H  22.08400 -8.43700 48.08800
H  28.06000 -6.90000 49.55200
H  26.12000 -1.15100 43.82200
H  23.86000 -2.30400 42.53500
H  24.06300 -0.38200 44.87300
H  22.72900 -1.30500 44.88800
H  23.11900 -0.28200 43.37300
H  25.63900 -3.08100 41.64400
H  27.26400 -3.03700 42.37500
H  27.70200 -1.21300 41.14200
H  26.48300 -0.19100 41.73900
H  20.27100 -4.98600 43.27100
H  19.10500 -5.19100 44.54700
H  19.66400 -6.50900 43.46100
H  19.98400 -8.90400 48.16800
H  20.77100 -9.80700 46.83000
H  18.98600 -9.82200 46.96000
H  24.51500 -9.74700 48.46300
H  25.99000 -8.27800 50.65300
H  22.43800 -9.07100 50.26100
H  23.89000 -8.88300 51.37900
H  23.55900 -10.32000 50.55000
H  27.19900 -9.62800 48.18700
H  26.37100 -10.73300 49.25400
H  28.03000 -10.65700 50.82200
H  28.26900 -8.90100 50.65500
H  28.98900 -9.83100 49.46100
H  30.44000 -6.31700 48.42500
H  29.84200 -5.40200 49.76600
H  31.18300 -4.79800 48.72100
H  28.81700 -2.50100 44.05200
H  28.96800 1.45600 45.95400
H  27.92300 1.37900 44.55100
H  29.57300 1.83300 44.29400
Mg 48.92000 34.77000 26.51100
C  46.99900 33.37900 29.14600
C  48.99700 37.74400 28.36600
C  50.28700 36.27300 23.84800
C  48.21300 31.89700 24.61400
N  48.30400 35.36800 28.57600
C  47.58100 34.64500 29.49600
C  47.55000 35.32200 30.87000
C  47.77500 36.82600 30.38600
C  48.39900 36.67400 28.99100
C  46.59900 37.82300 30.57500
C  48.65600 34.70000 31.85900
C  48.17300 34.58800 33.34700
H  46.95800 35.45800 33.74100
N  49.70900 36.69000 26.20400
C  49.65100 37.77500 27.11100
C  50.31100 38.90000 26.50600
C  50.73900 38.49100 25.20800
C  50.28600 37.05000 25.02900
C  50.35200 40.24700 27.19300
C  51.52700 39.23400 24.15100
O  51.97400 38.64500 23.19100
C  51.85700 40.71700 24.23000
N  49.27600 34.05800 24.54400
C  49.78200 34.96200 23.60400
C  49.94700 34.19000 22.30100
C  49.68500 32.69100 22.65000
C  49.01800 32.86400 24.00100
C  49.10000 34.58500 21.07000
C  50.99800 31.72200 22.65300
C  51.08700 30.62100 21.52400
N  47.71800 33.01700 26.66700
C  47.53000 31.94000 25.87800
C  46.72500 30.94500 26.53000
C  46.55600 31.44200 27.85000
C  47.09500 32.71800 27.86200
C  46.23200 29.60600 25.96000
C  45.77700 31.21100 29.15300
O  45.07300 30.27800 29.50100
C  46.04300 32.54000 29.97100
C  46.33700 32.14400 31.38200
O  47.43000 31.79400 31.84400
O  45.12500 32.09500 32.04000
C  45.29200 31.42000 33.35500
H  48.99400 38.64000 28.99000
H  50.64600 36.72100 22.91900
H  47.99500 31.02600 23.99300
H  46.51400 35.24500 31.20000
H  48.62100 37.22100 30.94900
H  45.78600 37.51000 31.23000
H  46.34600 38.05400 29.54000
H  46.87400 38.78000 31.01800
H  49.55700 35.31400 31.88400
H  48.99100 33.79600 31.35000
H  48.94200 34.81700 34.08500
H  47.92400 33.54100 33.52000
H  51.40700 40.43100 27.39100
H  49.88400 40.35000 28.17200
H  49.99300 41.04200 26.53900
H  52.20400 40.99100 25.22700
H  51.11600 41.32400 23.71100
H  52.72300 40.78800 23.57200
H  51.00100 34.33000 22.06100
H  49.06600 32.13500 21.94700
H  49.72700 35.14400 20.37500
H  48.31200 35.23400 21.45200
H  48.53800 33.78100 20.59500
H  51.04600 31.35100 23.67700
H  51.88600 32.33400 22.49900
H  51.94900 30.76000 20.87100
H  50.29900 30.61600 20.77200
H  51.22700 29.62200 21.93600
H  47.09900 28.94500 25.99900
H  45.81900 29.79500 24.97000
H  45.54600 29.09900 26.63900
H  45.14300 33.15500 29.99600
H  45.54300 30.37500 33.17100
H  44.30000 31.56000 33.78500
H  45.96900 32.01700 33.96600

