158

Mg 9.03400 3.68300 27.15000
C  10.52000 2.19700 30.13100
C  7.00600 5.44000 29.16800
C  7.63500 4.83300 24.36800
C  10.75300 1.21600 25.25900
N  8.68200 3.65900 29.40900
C  9.47400 3.11600 30.42000
C  9.06800 3.61800 31.78600
C  7.86800 4.55400 31.42600
C  7.80300 4.53200 29.88000
C  6.47200 4.25500 32.09900
C  10.19500 4.42000 32.44800
C  9.92000 4.69000 33.90500
H  10.98000 4.30100 35.00500
N  7.56400 4.97500 26.78300
C  6.78100 5.61300 27.82000
C  5.95800 6.57900 27.10600
C  6.13400 6.48000 25.73700
C  7.11600 5.35900 25.56800
C  4.93700 7.45200 27.88900
C  5.51800 7.28800 24.66300
O  5.77600 7.14100 23.46300
C  4.48300 8.33500 25.07000
N  9.26900 3.17700 25.05000
C  8.57500 3.82600 24.13300
C  8.96300 3.31600 22.75200
C  10.08400 2.20500 23.02400
C  10.12000 2.20600 24.49000
C  7.66800 2.70800 22.03000
C  11.47500 2.41100 22.37000
C  12.63400 3.02300 23.10500
N  10.29800 2.09800 27.58100
C  10.89900 1.16500 26.67800
C  11.67100 0.19500 27.44600
C  11.58800 0.61600 28.75900
C  10.72900 1.72000 28.79500
C  12.27200 -1.06500 26.83100
C  12.04300 0.36100 30.06100
O  12.84300 -0.51400 30.43600
C  11.34900 1.37500 30.99100
C  10.68700 0.68000 32.11000
O  9.67100 -0.03400 31.97400
O  11.18500 1.14300 33.27300
C  10.68300 0.49600 34.51000
H  6.45400 6.05500 29.88200
H  7.27000 5.07500 23.36800
H  11.29800 0.46200 24.68800
H  8.87100 2.79700 32.47500
H  8.12300 5.56300 31.74800
H  6.70700 3.92700 33.11200
H  5.91700 3.43100 31.65200
H  5.69500 5.02000 32.10600
H  10.31600 5.36700 31.92300
H  11.11300 3.83300 32.46800
H  8.98000 4.18800 34.13400
H  9.68000 5.75300 33.91000
H  5.26200 8.48800 27.79000
H  4.99800 7.18700 28.94500
H  3.90500 7.26400 27.59100
H  3.52800 7.86600 25.30800
H  4.38700 8.99800 24.21000
H  4.96800 8.98500 25.79900
H  9.36300 4.18500 22.22900
H  9.68600 1.28600 22.59400
H  6.86400 2.77600 22.76300
H  7.68800 1.63400 21.84400
H  7.43800 3.19200 21.08100
H  11.37600 3.18000 21.60400
H  11.80600 1.45600 21.96200
H  13.59100 2.78500 22.64000
H  12.62200 2.57200 24.09700
H  12.47600 4.10100 23.13000
H  13.33600 -0.92800 26.63600
H  11.72200 -1.50200 25.99700
H  12.18500 -1.86400 27.56800
H  12.16300 1.93800 31.44800
H  9.84300 -0.19100 34.40200
H  10.65900 1.30700 35.23700
H  11.49800 -0.15300 34.83000
Mg 47.30900 24.41400 28.25700
C  48.02500 26.85200 30.77000
C  46.17900 22.35400 30.78700
C  46.78400 22.09300 25.97000
C  48.72600 26.47700 25.86700
N  47.30200 24.61800 30.45100
C  47.45100 25.68500 31.24400
C  47.06200 25.41300 32.70500
C  46.60400 23.85900 32.70500
C  46.68500 23.59600 31.17700
C  47.33800 22.94300 33.72100
C  45.91800 26.40200 33.15000
C  45.14900 26.09000 34.39900
H  45.36200 27.04200 35.65400
N  46.62900 22.47200 28.34900
C  46.16700 21.79100 29.47000
C  45.80300 20.43900 29.03800
C  46.07400 20.31000 27.67000
C  46.48600 21.66400 27.26400
C  45.36500 19.43100 30.07500
C  45.88100 19.03900 26.77400
O  46.43600 18.86300 25.67700
C  45.22900 17.85700 27.40000
N  47.65300 24.33700 26.19200
C  47.31800 23.32700 25.44600
C  47.65700 23.51500 23.96500
C  48.06200 25.00600 23.91300
C  48.24900 25.27200 25.43000
C  48.67800 22.58900 23.32900
C  47.04200 25.94600 23.21900
C  47.11000 25.97000 21.66600
N  48.27900 26.30600 28.22900
C  48.78200 26.98400 27.17800
C  49.35100 28.18500 27.56000
C  49.02200 28.22000 28.94100
C  48.43200 27.00800 29.33400
C  50.26000 29.05000 26.74700
C  49.02100 29.04000 30.16600
O  49.44600 30.22600 30.24700
C  48.47600 28.13500 31.33800
C  49.54000 28.04000 32.33600
O  50.61900 27.48800 32.22300
O  49.10300 28.71800 33.45600
C  49.79200 28.35500 34.75100
H  45.48600 21.80500 31.42700
H  46.67600 21.41200 25.12300
H  49.09200 27.16600 25.10300
H  47.86000 25.60000 33.42500
H  45.53700 23.70700 32.86700
H  48.18700 22.69900 33.08200
H  46.77300 22.02900 33.90100
H  47.74100 23.37900 34.63500
H  45.33400 26.65000 32.26300
H  46.44000 27.34800 33.29400
H  45.55900 25.15600 34.78200
H  44.08900 25.94200 34.19300
H  44.57800 18.79800 29.66300
H  45.03800 19.80000 31.04700
H  46.28800 18.86500 30.19800
H  44.19100 18.14000 27.57200
H  45.70800 17.37600 28.25400
H  45.23000 16.96500 26.77300
H  46.67700 23.35100 23.51900
H  48.98200 25.07300 23.33300
H  48.69500 22.68200 22.24300
H  48.36700 21.56000 23.51100
H  49.66200 22.70700 23.78300
H  47.17700 26.94400 23.63800
H  46.01700 25.76700 23.54500
H  47.84600 25.20800 21.41000
H  47.60900 26.87300 21.31500
H  46.23300 25.74300 21.05900
H  51.10200 29.44300 27.31700
H  49.57600 29.80900 26.36800
H  50.83500 28.56400 25.95900
H  47.70300 28.75000 31.79900
H  49.81900 27.27600 34.90200
H  49.09200 28.65700 35.53000
H  50.79600 28.77300 34.82700

