158

Mg -0.41900 7.28900 26.30100
C  0.56000 9.29000 29.01600
C  -0.90600 4.72100 28.62900
C  -0.75100 5.22400 23.77500
C  0.38000 9.93600 24.21500
N  -0.08800 7.06100 28.55000
C  0.25700 8.01300 29.53300
C  0.19300 7.46600 31.00900
C  -0.09000 5.92400 30.68200
C  -0.45700 5.90600 29.15600
C  1.02600 4.95300 31.07800
C  -0.80900 8.16600 31.92600
C  -0.42000 8.07400 33.45900
H  0.73700 7.32200 33.99300
N  -0.76100 5.24400 26.19800
C  -1.05500 4.37700 27.25300
C  -1.56600 3.17500 26.72500
C  -1.49300 3.28700 25.29900
C  -1.00800 4.61700 25.01100
C  -1.97700 1.96200 27.66100
C  -1.72800 2.18500 24.27200
O  -1.43200 2.43200 23.11200
C  -2.38500 0.87800 24.63000
N  -0.17400 7.44200 24.30700
C  -0.37300 6.52700 23.37000
C  -0.42200 7.09900 21.95500
C  -0.44000 8.65900 22.24100
C  0.01500 8.71400 23.71000
C  0.79300 6.52500 21.05300
C  -1.87500 9.20500 21.86500
C  -1.88800 10.65800 21.19900
N  0.32200 9.20000 26.48600
C  0.60400 10.16700 25.59900
C  1.09400 11.38100 26.22000
C  1.07900 11.08700 27.53800
C  0.53300 9.75200 27.66800
C  1.48500 12.62400 25.59500
C  1.27400 11.64800 28.84900
O  1.60900 12.81900 29.11200
C  0.90700 10.51300 29.80300
C  2.01300 10.28400 30.81500
O  2.96500 9.59200 30.52600
O  1.69500 10.93600 31.97000
C  2.73900 10.90900 33.01400
H  -1.19300 3.93800 29.33400
H  -1.12200 4.65900 22.91800
H  0.69000 10.78900 23.60700
H  1.19200 7.47200 31.44500
H  -0.99200 5.60200 31.20400
H  0.55600 4.06500 31.50200
H  1.58400 5.42200 31.88900
H  1.65700 4.69300 30.22900
H  -1.74400 7.67000 31.66600
H  -0.94200 9.22900 31.72300
H  -1.34000 7.58800 33.78000
H  -0.44300 9.00600 34.02500
H  -1.97200 2.12500 28.73900
H  -1.40600 1.07100 27.40200
H  -2.97400 1.72000 27.29100
H  -3.39200 1.11600 24.97100
H  -1.83400 0.29000 25.36400
H  -2.45000 0.34000 23.68400
H  -1.35000 6.60500 21.66500
H  0.30600 9.23500 21.69400
H  1.35100 7.35200 20.61500
H  0.46100 5.73300 20.38100
H  1.49600 6.12700 21.78500
H  -2.47300 9.34000 22.76600
H  -2.47500 8.42000 21.40500
H  -2.35900 10.71200 20.21800
H  -0.85900 10.98300 21.04000
H  -2.46300 11.32800 21.83600
H  0.51000 13.09800 25.48500
H  1.87200 12.41300 24.59800
H  2.09300 13.22500 26.27100
H  0.01100 10.76300 30.37100
H  3.27200 9.95900 33.06300
H  2.25800 11.02700 33.98500
H  3.53200 11.57400 32.67400
Mg 48.47500 35.83300 28.43300
C  46.53300 33.87100 30.55900
C  48.74900 38.25100 30.80200
C  49.77100 37.93800 26.09300
C  48.25300 33.32600 25.98800
N  47.61700 36.03000 30.39000
C  47.11300 35.05900 31.15900
C  47.43200 35.30000 32.62100
C  47.60900 36.85800 32.60000
C  48.09000 37.09900 31.21300
C  46.40900 37.79200 33.01500
C  48.72400 34.54300 33.03500
C  49.09500 34.37300 34.50700
H  48.29800 35.21700 35.55900
N  49.37100 37.70700 28.51900
C  49.34800 38.49200 29.61400
C  49.98300 39.77400 29.28900
C  50.30600 39.72100 27.91300
C  49.75700 38.44300 27.44500
C  50.37100 40.84600 30.31100
C  51.04600 40.72100 27.19200
O  51.32000 40.41300 26.04600
C  51.47900 42.03400 27.82200
N  48.88900 35.66100 26.34700
C  49.38500 36.66700 25.56100
C  49.69600 36.09200 24.11900
C  49.47300 34.65000 24.29900
C  48.86500 34.51700 25.62600
C  48.73200 36.76500 23.11800
C  50.86100 33.86800 24.21200
C  50.94800 32.73200 23.16500
N  47.49600 33.95300 28.23700
C  47.55500 32.99200 27.19700
C  46.63100 31.97600 27.52000
C  46.21100 32.24100 28.83800
C  46.84300 33.42300 29.22800
C  46.33000 30.82500 26.60500
C  45.40300 31.77700 29.97400
O  44.64000 30.80800 30.06200
C  45.69900 32.76000 31.14000
C  46.42800 32.01000 32.20200
O  47.48200 31.38000 32.02000
O  45.82600 32.20100 33.48300
C  46.55600 31.79000 34.64600
H  48.89100 38.96500 31.61600
H  50.20400 38.49000 25.25600
H  48.32700 32.59100 25.18300
H  46.53200 35.16800 33.22200
H  48.42300 37.23000 33.22200
H  45.55100 37.15000 33.21500
H  46.08600 38.42500 32.18900
H  46.85500 38.39600 33.80500
H  49.54500 35.00000 32.48300
H  48.56900 33.49600 32.77200
H  50.15900 34.55100 34.66300
H  49.10000 33.30400 34.71900
H  51.43600 41.07000 30.24600
H  50.01200 40.65400 31.32300
H  49.74800 41.72600 30.15000
H  50.64300 42.52100 28.32400
H  51.78500 42.59800 26.94100
H  52.31100 41.87900 28.50800
H  50.68600 36.33100 23.73100
H  48.79200 34.25500 23.54500
H  49.28800 37.03800 22.22100
H  48.33200 37.71200 23.48300
H  47.94400 36.02300 22.99100
H  51.08500 33.50200 25.21400
H  51.63300 34.61600 24.03100
H  51.84100 32.17300 23.44600
H  51.05700 33.21800 22.19500
H  50.07700 32.11300 23.38100
H  45.49000 30.17800 26.85800
H  47.28400 30.30200 26.53300
H  46.04900 31.19200 25.61800
H  44.74200 33.11200 31.52400
H  46.73700 32.66200 35.27400
H  47.50500 31.30800 34.41400
H  45.84800 31.11100 35.12200

