158

Mg 0.12600 8.03500 26.90500
C  0.48000 10.18100 29.69000
C  0.57300 5.30200 29.26400
C  -0.25700 5.97900 24.45500
C  0.07200 10.82100 24.81500
N  0.36800 7.77700 29.24400
C  0.33600 8.82700 30.10000
C  0.30600 8.30200 31.54500
C  0.80900 6.83600 31.38000
C  0.56400 6.59500 29.88300
C  2.27500 6.58800 31.81300
C  -1.12900 8.58400 32.14700
C  -1.45800 7.77400 33.41700
H  -0.35900 7.56300 34.40600
N  0.11600 6.03600 26.85900
C  0.23100 5.06800 27.95800
C  0.14500 3.71400 27.33100
C  -0.21300 3.88900 25.96900
C  -0.06700 5.36800 25.64100
C  0.45800 2.40600 28.08100
C  -0.46400 2.82300 24.89200
O  -0.81800 3.10500 23.79200
C  -0.51100 1.35100 25.19000
N  0.15600 8.33900 24.92500
C  -0.10100 7.31400 24.06200
C  -0.42400 7.79800 22.60100
C  -0.46200 9.37100 22.75900
C  -0.05100 9.52000 24.25000
C  0.45200 7.16100 21.53800
C  -1.96200 9.95500 22.59700
C  -2.05500 11.41900 22.07600
N  0.39200 10.00900 27.04600
C  0.30400 11.10000 26.15500
C  0.62100 12.32100 26.82800
C  0.73400 11.95100 28.15700
C  0.46400 10.60200 28.28000
C  0.76600 13.71600 26.24600
C  0.99400 12.50800 29.43100
O  1.20100 13.68600 29.72700
C  0.75400 11.43500 30.46000
C  1.93000 11.40500 31.36600
O  2.97100 10.80700 31.20000
O  1.52200 12.04600 32.50200
C  2.37900 11.92300 33.67600
H  0.91300 4.51900 29.94600
H  -0.41300 5.32700 23.59300
H  0.06500 11.70300 24.17100
H  0.98900 8.98800 32.04600
H  0.11300 6.15200 31.86600
H  2.80600 7.48900 32.12000
H  2.88200 6.03000 31.10000
H  2.29900 5.96100 32.70400
H  -1.87200 8.12700 31.49400
H  -1.34900 9.64500 32.27200
H  -1.85300 6.80600 33.10700
H  -2.28000 8.18700 34.00200
H  -0.47500 1.90500 28.33700
H  0.99500 2.55700 29.01800
H  1.09100 1.85200 27.38800
H  0.42000 0.96000 25.60000
H  -0.72200 0.79300 24.27800
H  -1.29200 1.12600 25.91700
H  -1.36700 7.27600 22.43500
H  0.13600 10.03300 22.13300
H  1.31100 6.72500 22.04800
H  0.78300 7.90300 20.81000
H  -0.11700 6.39000 21.01800
H  -2.39500 9.87000 23.59300
H  -2.71900 9.37400 22.07000
H  -2.59600 11.33100 21.13400
H  -1.08800 11.89600 21.91900
H  -2.59600 12.06200 22.77000
H  0.64500 13.63500 25.16600
H  1.71800 14.17400 26.51300
H  -0.05500 14.32300 26.62900
H  -0.21900 11.55800 30.93500
H  3.43600 11.73700 33.48500
H  1.94900 11.30500 34.46300
H  2.35700 12.92800 34.09800
Mg 34.72000 3.10200 30.26600
C  32.22500 3.96500 32.40000
C  37.01600 3.14300 32.82200
C  37.20100 2.48900 27.95600
C  32.50900 3.29900 27.56600
N  34.61600 3.21000 32.41100
C  33.51200 3.73300 33.00300
C  33.77100 3.84400 34.55800
C  35.34000 3.81000 34.65700
C  35.66400 3.41800 33.20000
C  36.09500 5.08100 35.11500
C  33.13400 2.63600 35.23700
C  32.37800 3.09000 36.47500
H  33.14900 4.00700 37.50900
N  36.75400 2.74500 30.39600
C  37.52700 2.80100 31.55900
C  38.87800 2.42000 31.25700
C  38.98400 2.29800 29.82600
C  37.61800 2.55000 29.33000
C  40.01800 2.42000 32.32700
C  40.24800 1.96000 29.01100
O  40.22600 1.65100 27.82000
C  41.58600 1.79500 29.65800
N  34.87500 2.83000 28.06800
C  35.99400 2.66200 27.37700
C  35.77900 2.67100 25.87100
C  34.22100 2.59600 25.84200
C  33.82400 2.81500 27.26400
C  36.48800 3.88100 25.24200
C  33.62400 1.26700 25.23200
C  34.23400 0.84500 23.93600
N  32.80900 3.52200 29.96300
C  32.08900 3.69200 28.85800
C  30.76300 4.13000 29.18400
C  30.79600 4.29900 30.62100
C  32.03900 3.84000 30.99700
C  29.61200 4.32000 28.27400
C  29.98900 4.62500 31.82000
O  28.80500 4.85100 31.90800
C  30.95400 4.44300 33.04700
C  31.23800 5.84100 33.51600
O  32.06700 6.63000 33.10200
O  30.51700 6.11000 34.65400
C  30.82400 7.41200 35.25200
H  37.69500 2.95100 33.65500
H  37.93000 2.07600 27.25500
H  31.82300 3.26000 26.71700
H  33.41000 4.79500 34.95100
H  35.67800 3.03500 35.34400
H  36.81200 4.82700 35.89600
H  35.50600 5.94900 35.41100
H  36.67100 5.48800 34.28300
H  33.90500 1.96600 35.61800
H  32.41500 2.20100 34.54400
H  32.16100 2.11900 36.92100
H  31.48100 3.65600 36.22500
H  40.99100 2.82600 32.05000
H  40.35600 1.38400 32.35600
H  39.66300 2.73400 33.30800
H  42.29500 1.23800 29.04500
H  41.43600 1.04200 30.43100
H  41.87900 2.77600 30.03100
H  36.16300 1.77700 25.38000
H  33.79700 3.34700 25.17600
H  35.71700 4.56600 24.88900
H  37.13300 3.43500 24.48500
H  37.14900 4.38700 25.94500
H  32.56400 1.40900 25.02400
H  33.71200 0.35400 25.82100
H  33.41400 0.26500 23.51100
H  35.10600 0.24700 24.20200
H  34.54000 1.74000 23.39400
H  29.90300 4.93700 27.42300
H  28.74800 4.84700 28.68000
H  29.35300 3.28300 28.05700
H  30.51200 3.74900 33.76200
H  30.59400 8.19900 34.53300
H  31.88100 7.45900 35.51200
H  30.13400 7.50000 36.09200

