158

Mg 17.58000 -1.51400 27.10700
C  16.68100 0.43500 29.91600
C  19.23900 -3.53900 29.20200
C  18.88100 -2.94300 24.43100
C  15.72300 0.61800 25.04100
N  18.04100 -1.42400 29.36400
C  17.49200 -0.60800 30.36400
C  17.74900 -1.20600 31.76000
C  18.47100 -2.53700 31.41000
C  18.60900 -2.51500 29.89100
C  19.77200 -2.88900 32.20800
C  16.46400 -1.42500 32.63700
C  16.57700 -0.72300 34.03300
H  17.97800 -0.53600 34.58200
N  18.90100 -2.97600 26.87800
C  19.42200 -3.78200 27.84200
C  20.11700 -4.93100 27.28100
C  20.06800 -4.70900 25.85800
C  19.25000 -3.48400 25.65000
C  20.94200 -5.88600 28.18800
C  20.65900 -5.62500 24.76000
O  20.42800 -5.39300 23.58100
C  21.34700 -6.91600 25.00700
N  17.21300 -1.35900 25.00400
C  18.00900 -1.93800 24.08100
C  17.84800 -1.42900 22.61700
C  16.82300 -0.27400 22.93100
C  16.52500 -0.40400 24.38800
C  19.18100 -0.90400 22.02300
C  15.55800 -0.39800 21.99200
C  15.23400 0.74900 21.01600
N  16.48600 0.22400 27.31900
C  15.70200 0.90400 26.42500
C  15.04200 2.00900 27.07700
C  15.32900 1.80700 28.42400
C  16.20500 0.67500 28.59500
C  14.11400 3.03500 26.50400
C  15.05600 2.31700 29.75800
O  14.28900 3.18900 30.14800
C  15.93800 1.47400 30.80900
C  16.84100 2.52500 31.39800
O  17.87600 3.02100 30.89200
O  16.42800 2.75800 32.73700
C  17.31300 3.51400 33.63100
H  19.63900 -4.25200 29.92600
H  19.37000 -3.34900 23.54300
H  15.26600 1.35900 24.38200
H  18.51700 -0.56600 32.19400
H  17.78600 -3.36800 31.57300
H  19.96000 -2.22800 33.05400
H  20.58000 -2.95600 31.47900
H  19.59600 -3.85100 32.68900
H  16.26300 -2.49500 32.70100
H  15.61300 -0.88700 32.22000
H  15.98500 -1.21900 34.80300
H  16.30900 0.32100 33.87200
H  20.99900 -6.90600 27.80800
H  20.49200 -6.07400 29.16300
H  21.95100 -5.53500 28.40600
H  22.28800 -6.61200 25.46700
H  21.63400 -7.40200 24.07500
H  20.80800 -7.48500 25.76500
H  17.56600 -2.06700 21.77900
H  17.17100 0.73100 22.68900
H  19.92600 -0.71300 22.79600
H  19.14700 0.07600 21.54600
H  19.50600 -1.72000 21.37700
H  14.67100 -0.39500 22.62600
H  15.52200 -1.35500 21.47100
H  14.22600 1.08300 21.26100
H  15.24400 0.36400 19.99600
H  15.93900 1.57600 21.09800
H  14.28500 4.03200 26.91000
H  13.07900 2.80900 26.76100
H  14.25400 3.09500 25.42500
H  15.36300 1.04700 31.63100
H  17.33500 2.88800 34.52200
H  16.88300 4.47200 33.92200
H  18.35800 3.51000 33.31800
Mg 30.51100 57.97800 40.10000
C  27.71300 56.12100 39.15700
C  32.51000 55.53700 38.53500
C  33.11300 60.11400 40.07800
C  28.47100 60.48600 41.15000
N  30.10000 56.03300 38.98200
C  28.87900 55.49000 38.83900
C  28.98000 54.06900 38.14300
C  30.53600 53.75600 38.50100
C  31.12800 55.21100 38.65900
C  30.69400 52.93600 39.80300
C  28.85100 54.12800 36.61000
C  27.78800 53.37200 35.93800
H  26.85700 54.16700 35.02600
N  32.59400 57.82000 39.45600
C  33.15300 56.74900 38.75000
C  34.51100 57.08300 38.55300
C  34.74300 58.36800 39.00400
C  33.46600 58.87300 39.49600
C  35.56600 56.20300 37.81100
C  36.13800 59.09000 38.89100
O  37.05100 58.54300 38.24200
C  36.42700 60.49400 39.46500
N  30.71300 59.96200 40.52400
C  31.91100 60.63000 40.53200
C  31.74900 62.06200 41.05000
C  30.20300 62.21000 41.39300
C  29.75500 60.78900 40.97300
C  32.76200 62.39600 42.17600
C  29.39300 63.35700 40.65700
C  28.33300 64.18500 41.40700
N  28.42800 58.29000 40.26000
C  27.75300 59.33800 40.73100
C  26.33300 59.03100 40.64500
C  26.25000 57.76200 40.09100
C  27.55400 57.37200 39.84400
C  25.23200 59.88200 41.16300
C  25.37400 56.69800 39.76900
O  24.16600 56.52600 39.83300
C  26.31200 55.59900 39.16000
C  26.28900 54.40700 40.07500
O  26.76500 54.42300 41.19700
O  25.73000 53.36600 39.38100
C  25.48500 52.06700 40.09300
H  33.09000 54.64600 38.28800
H  33.94300 60.82300 40.10100
H  27.79100 61.27900 41.46600
H  28.27300 53.36300 38.57600
H  31.03800 53.11500 37.77700
H  29.76800 52.98100 40.37600
H  31.52000 53.33000 40.39500
H  30.86800 51.87200 39.64100
H  29.82000 53.97100 36.13500
H  28.66600 55.16600 36.33500
H  27.15100 52.93400 36.70600
H  28.12000 52.52600 35.33600
H  35.99200 56.78400 36.99300
H  34.97000 55.44900 37.29800
H  36.23400 55.70000 38.51100
H  36.11200 60.54300 40.50800
H  35.70500 61.14400 38.97100
H  37.48100 60.75800 39.37800
H  32.03200 62.64500 40.17300
H  30.15500 62.25700 42.48100
H  33.42300 61.54700 42.34900
H  32.23700 62.62700 43.10200
H  33.36600 63.21900 41.79300
H  28.81500 62.90900 39.84800
H  30.04400 64.09800 40.19200
H  28.68100 65.20400 41.57400
H  28.11400 63.64000 42.32600
H  27.38900 64.23700 40.86500
H  25.54400 60.92600 41.18100
H  24.80700 59.71800 42.15400
H  24.50300 59.74400 40.36500
H  25.96300 55.19700 38.20900
H  24.80400 52.33100 40.90200
H  26.38100 51.55700 40.44900
H  24.95900 51.46600 39.35100

