158

Mg 1.56400 -1.81300 43.83600
C  4.92600 -1.18300 43.23900
C  0.82300 0.95800 41.97100
C  -1.65800 -2.72900 43.76500
C  2.37000 -4.99200 44.97700
N  2.82400 -0.37700 42.60600
C  4.16800 -0.31300 42.55300
C  4.60000 0.89500 41.70300
C  3.24400 1.76300 41.52900
C  2.18300 0.71200 42.03500
C  3.23100 3.19100 42.12800
C  5.28000 0.69200 40.30800
C  6.49400 1.64900 40.05700
H  6.61200 2.29800 38.75600
N  -0.20600 -0.99500 42.91600
C  -0.29300 0.18400 42.31400
C  -1.64500 0.47800 41.93500
C  -2.45500 -0.51500 42.55200
C  -1.45600 -1.43600 43.17200
C  -2.28300 1.74100 41.24800
C  -3.97800 -0.62100 42.41600
O  -4.71000 0.17700 41.78200
C  -4.70700 -1.78600 43.06300
N  0.48100 -3.69500 44.11200
C  -0.81900 -3.67600 44.28200
C  -1.31300 -5.02600 44.83200
C  -0.03700 -5.61800 45.45800
C  1.04400 -4.76000 44.76300
C  -2.52900 -5.10600 45.79600
C  0.08400 -7.06600 44.98600
C  0.75800 -8.02700 46.08000
N  3.24800 -2.88200 44.18800
C  3.49100 -4.12200 44.69600
C  4.86600 -4.32900 44.96100
C  5.45600 -3.19800 44.47100
C  4.44100 -2.36100 43.86500
C  5.44800 -5.50000 45.64400
C  6.70400 -2.46200 44.41000
O  7.86500 -2.66900 44.87300
C  6.40400 -1.13900 43.59000
C  6.78000 0.08100 44.38100
O  6.34900 0.47100 45.48500
O  7.73600 0.76000 43.65600
C  8.19900 2.05300 44.22700
H  0.48200 1.89400 41.52500
H  -2.70000 -3.00700 43.59000
H  2.75100 -5.83100 45.56300
H  5.21700 1.37200 42.46300
H  3.04400 1.89900 40.46600
H  3.07500 3.95300 41.36500
H  4.23900 3.22500 42.54200
H  2.51400 3.22400 42.94800
H  4.63900 0.84300 39.43900
H  5.61200 -0.34600 40.32200
H  7.37100 1.01500 40.18100
H  6.63600 2.35300 40.87700
H  -2.90300 2.33900 41.91700
H  -2.77900 1.39300 40.34200
H  -1.50000 2.38000 40.84100
H  -4.54900 -2.64000 42.40400
H  -5.78400 -1.61400 43.07500
H  -4.31200 -1.93500 44.06800
H  -1.63600 -5.49800 43.90400
H  0.06400 -5.60100 46.54300
H  -3.21900 -4.26800 45.69800
H  -2.17900 -5.10700 46.82800
H  -3.02700 -6.06300 45.64000
H  0.66700 -6.95600 44.07200
H  -0.89200 -7.51500 44.80400
H  1.18700 -7.41900 46.87600
H  1.56900 -8.53300 45.55700
H  0.00500 -8.71600 46.46300
H  4.91000 -5.45600 46.59100
H  6.42800 -5.23500 46.04100
H  5.28100 -6.37400 45.01400
H  7.01300 -0.96700 42.70200
H  7.35300 2.73900 44.27000
H  8.93400 2.48600 43.54700
H  8.62900 1.94600 45.22300
Mg 6.58600 53.21100 40.81300
C  6.09000 49.78800 40.26900
C  9.81100 52.93000 39.93300
C  6.86800 56.66900 40.99300
C  3.07500 53.55000 41.14400
N  7.85400 51.54900 39.92200
C  7.43800 50.24100 39.95900
C  8.66100 49.42100 39.89100
C  9.87200 50.37400 40.08100
C  9.18800 51.73900 39.97900
C  10.70300 50.20900 41.42400
C  8.87200 48.51200 38.67000
C  8.88000 49.17800 37.29000
H  7.75300 48.75900 36.30600
N  8.15800 54.62600 40.54700
C  9.34900 54.27700 40.04200
C  10.16300 55.43200 39.78900
C  9.35500 56.51200 40.18200
C  8.04600 55.98100 40.63400
C  11.59400 55.37000 39.18500
C  9.74000 57.93300 40.12500
O  10.78800 58.21200 39.65100
C  8.98700 59.12100 40.68200
N  5.12900 54.84000 41.01900
C  5.52800 56.13500 41.06200
C  4.38300 57.06200 41.30100
C  3.18500 56.12400 41.10100
C  3.84100 54.73400 41.12500
C  4.47500 57.83600 42.65100
C  2.25000 56.29800 39.88300
C  0.74200 56.06500 40.14500
N  4.90200 51.98200 40.82900
C  3.55100 52.21100 41.04800
C  2.73100 50.95300 40.95500
C  3.72400 50.05700 40.70900
C  4.98900 50.67300 40.53300
C  1.33100 50.68500 41.08200
C  3.99100 48.62800 40.56100
O  3.24600 47.63100 40.64100
C  5.47100 48.37000 40.28400
C  5.44300 47.55500 38.96500
O  4.90900 47.91300 37.99800
O  6.16000 46.36500 39.07300
C  5.89000 45.36600 38.02600
H  10.89600 52.83900 39.84800
H  6.78800 57.75800 40.96100
H  1.98300 53.57100 41.15100
H  8.54300 48.79400 40.77400
H  10.67600 50.15000 39.38100
H  11.03100 51.08800 41.97800
H  11.59700 49.65600 41.13400
H  10.10400 49.67100 42.15900
H  8.06400 47.78600 38.75500
H  9.77900 47.91700 38.77900
H  9.83500 49.05600 36.77800
H  8.72500 50.23500 37.50600
H  11.63500 55.89000 38.22800
H  11.93900 54.33800 39.12800
H  12.23800 55.81500 39.94400
H  9.61800 60.01000 40.70800
H  8.80000 58.85500 41.72200
H  8.03000 59.32800 40.20300
H  4.21100 57.80500 40.52300
H  2.62900 56.07500 42.03700
H  4.65600 58.86700 42.34800
H  5.23300 57.50800 43.36200
H  3.45500 57.68600 43.00700
H  2.58300 55.74000 39.00800
H  2.33300 57.32100 39.51700
H  0.62200 56.06100 41.22800
H  0.52400 55.13700 39.61600
H  0.21400 56.96900 39.84200
H  1.17300 49.84800 40.40100
H  0.86000 51.64700 40.88100
H  1.14200 50.42700 42.12400
H  5.70800 47.63500 41.05300
H  4.81900 45.29300 37.83800
H  6.31900 44.39500 38.27200
H  6.34000 45.72500 37.10000

