158

Mg 6.34900 53.82700 41.06900
C  5.94900 50.25100 40.80800
C  9.47200 53.35900 39.70200
C  6.42800 57.10500 40.41900
C  3.05600 53.91300 41.82900
N  7.45400 51.96800 40.17100
C  7.16100 50.66900 40.19200
C  8.36600 49.70500 39.83800
C  9.53400 50.70600 39.84700
C  8.77800 52.10600 39.86900
C  10.50200 50.55900 41.08800
C  8.21300 48.94300 38.46800
C  7.90900 49.73200 37.27900
H  6.87600 49.29900 36.26500
N  7.84100 55.16800 40.35600
C  9.09400 54.75700 39.86900
C  9.90100 55.94900 39.82000
C  9.02200 57.06800 39.93300
C  7.69700 56.54300 40.27300
C  11.42800 55.95300 39.52300
C  9.38000 58.51100 39.90500
O  10.52900 58.82600 39.62600
C  8.35100 59.68200 40.06500
N  4.87100 55.26800 40.81100
C  5.11400 56.62200 40.59600
C  3.86100 57.50700 40.91600
C  2.87900 56.37300 41.17300
C  3.69200 55.11300 41.44000
C  4.02400 58.52900 42.05700
C  1.83400 56.09400 40.07600
C  0.45600 56.74000 40.19400
N  4.81800 52.39900 41.45300
C  3.54500 52.60900 41.76500
C  2.84100 51.40400 42.13000
C  3.83300 50.38000 41.80200
C  4.93500 51.08900 41.29600
C  1.47700 51.19900 42.75600
C  4.11000 49.00200 41.79700
O  3.45900 48.02200 42.19500
C  5.49100 48.83600 41.04800
C  5.16600 48.02000 39.91600
O  4.78900 48.38000 38.78200
O  5.39600 46.71900 40.27300
C  4.89800 45.77900 39.31200
H  10.46000 53.23300 39.25500
H  6.31200 58.19100 40.44000
H  2.05800 54.17700 42.18600
H  8.48200 49.02100 40.67900
H  10.19200 50.57900 38.98700
H  10.40100 51.44400 41.71500
H  11.52300 50.51800 40.70700
H  10.20700 49.74200 41.74600
H  7.52000 48.10300 38.51400
H  9.21600 48.52200 38.38300
H  8.82500 49.90100 36.71200
H  7.61100 50.71100 37.65600
H  11.76500 55.00500 39.10400
H  11.97300 56.23000 40.42500
H  11.68100 56.67800 38.74900
H  8.95800 60.56800 39.87700
H  7.87200 59.74600 41.04200
H  7.73100 59.59200 39.17200
H  3.54800 57.94900 39.97000
H  2.35900 56.63700 42.09400
H  3.34600 58.47100 42.90800
H  3.78800 59.46500 41.55100
H  5.05700 58.55600 42.40200
H  1.70700 55.04400 39.81500
H  2.19800 56.51400 39.13900
H  0.44200 57.82400 40.08400
H  0.09400 56.44600 41.18000
H  -0.16500 56.21500 39.46900
H  0.68400 51.80700 42.31900
H  1.47000 51.25100 43.84500
H  1.23300 50.19400 42.41300
H  6.03500 48.23100 41.77400
H  3.88700 46.07100 39.02500
H  4.84600 44.75000 39.66700
H  5.55000 45.75600 38.44000
Mg -1.69600 34.03800 26.45600
C  -3.55300 32.84200 29.26300
C  -0.65900 36.61500 28.57600
C  -0.15000 35.28700 23.91700
C  -3.38200 31.72100 24.60800
N  -1.92300 34.56600 28.62900
C  -2.66100 33.90500 29.58100
C  -2.65300 34.54000 31.02300
C  -1.70200 35.79000 30.71100
C  -1.40600 35.67500 29.19700
C  -2.25300 37.20600 31.11400
C  -2.12300 33.63000 32.11200
C  -2.93000 33.54500 33.40000
H  -2.57200 34.60800 34.43500
N  -0.52000 35.72100 26.24500
C  -0.29400 36.72400 27.18800
C  0.50500 37.74700 26.58400
C  0.83400 37.26000 25.29000
C  0.08900 36.00700 25.11600
C  0.97300 39.07000 27.34200
C  1.66000 37.88500 24.25200
O  1.84500 37.37700 23.12900
C  2.48000 39.15200 24.59200
N  -1.81900 33.55600 24.49000
C  -0.98600 34.17200 23.65100
C  -1.12800 33.50100 22.29500
C  -2.08300 32.27200 22.46500
C  -2.40000 32.46800 23.93000
C  -1.55400 34.53900 21.17700
C  -1.39900 30.86400 22.15200
C  -2.46900 29.89500 21.58800
N  -3.07600 32.51600 26.83700
C  -3.65300 31.60400 25.99700
C  -4.54400 30.80700 26.64600
C  -4.54300 31.24700 27.94000
C  -3.64000 32.31400 28.00700
C  -5.39800 29.66400 26.08200
C  -5.17200 31.01700 29.22800
O  -5.94800 30.19200 29.59700
C  -4.50700 32.07100 30.20200
C  -5.50000 32.93100 30.79300
O  -5.85300 34.04500 30.40300
O  -6.09000 32.26500 31.87600
C  -7.06000 33.05800 32.61000
H  -0.43200 37.49500 29.18200
H  0.45000 35.63300 23.07300
H  -4.00600 31.07200 23.99000
H  -3.68800 34.85200 31.16600
H  -0.77800 35.72100 31.28500
H  -3.08500 37.07400 31.80500
H  -2.58900 37.84800 30.30000
H  -1.53700 37.74400 31.73400
H  -1.12300 33.97600 32.37300
H  -2.03500 32.59800 31.77100
H  -2.76100 32.56800 33.85200
H  -4.00600 33.68900 33.30000
H  0.84500 39.89200 26.63800
H  1.97800 38.89800 27.72800
H  0.23600 39.08300 28.14500
H  1.78600 39.97900 24.74100
H  3.10300 39.53000 23.78100
H  3.03000 38.87100 25.49000
H  -0.10400 33.17600 22.10900
H  -2.99400 32.48800 21.90800
H  -2.21700 34.06900 20.45100
H  -0.59800 34.81700 20.73400
H  -2.06800 35.44300 21.50400
H  -0.88800 30.42500 23.00900
H  -0.71800 31.08800 21.33000
H  -2.32300 28.99700 22.18800
H  -2.27300 29.73800 20.52700
H  -3.47900 30.27300 21.75200
H  -5.26000 29.53500 25.00900
H  -6.36800 29.86700 26.53600
H  -5.01400 28.76600 26.56600
H  -3.94500 31.39200 30.84300
H  -7.12200 32.49700 33.54200
H  -7.84100 32.93300 31.86000
H  -6.63300 34.04900 32.76400

