158

Mg 24.37000 -4.79500 45.40900
C  26.35100 -2.70700 43.60300
C  21.73400 -4.12600 43.35600
C  22.89400 -7.65000 46.52700
C  27.30900 -5.84400 47.17600
N  24.16200 -3.64800 43.55000
C  25.05800 -2.78100 43.03900
C  24.42800 -1.96200 41.86400
C  22.93400 -2.31500 42.01600
C  22.91300 -3.39100 43.10800
C  22.04200 -1.14100 42.43400
C  25.10100 -2.29100 40.47900
C  25.72400 -1.12100 39.65300
H  25.34400 -0.82700 38.18400
N  22.65000 -5.72100 45.02200
C  21.65100 -5.26700 44.14400
C  20.54300 -6.16200 44.15000
C  20.78100 -7.10300 45.16500
C  22.17200 -6.83000 45.60800
C  19.43800 -6.03900 43.11800
C  19.76300 -8.13200 45.56200
O  18.59200 -8.19600 45.11700
C  20.11000 -9.08000 46.62700
N  24.96200 -6.52100 46.78600
C  24.19200 -7.57600 47.00900
C  24.99200 -8.72000 47.81400
C  26.36400 -8.02300 48.12500
C  26.27700 -6.75500 47.24500
C  24.17400 -9.16500 49.11400
C  27.68200 -8.83400 47.93800
C  28.69800 -8.69200 49.06600
N  26.42800 -4.32700 45.54900
C  27.46900 -4.72700 46.35700
C  28.64700 -3.89200 46.15900
C  28.19700 -3.08600 45.01300
C  26.87600 -3.41500 44.68900
C  29.91200 -3.88800 47.03300
C  28.69400 -2.06600 44.10100
O  29.72300 -1.44300 44.07700
C  27.45100 -1.72000 43.14900
C  27.02200 -0.34700 43.36600
O  26.37400 0.12000 44.29100
O  27.50200 0.49500 42.37200
C  27.32100 1.96800 42.54200
H  20.78800 -3.94500 42.84000
H  22.54700 -8.64500 46.81200
H  28.19000 -6.11000 47.76500
H  24.67500 -0.97400 42.25300
H  22.52700 -2.76800 41.11200
H  22.49400 -0.20500 42.10400
H  21.85300 -1.22100 43.50400
H  21.09300 -1.29400 41.91900
H  24.35800 -2.78300 39.85100
H  25.84400 -3.06700 40.65800
H  26.76400 -1.41600 39.51400
H  25.56800 -0.19400 40.20400
H  19.81400 -5.69600 42.15400
H  18.66000 -5.35200 43.44900
H  18.91400 -6.98200 42.96000
H  19.22300 -9.59400 46.99800
H  20.62400 -8.56700 47.44000
H  20.75100 -9.84700 46.19100
H  25.18100 -9.64300 47.26600
H  26.28000 -7.70600 49.16500
H  23.13300 -8.92400 48.89600
H  24.43800 -8.53200 49.96100
H  24.32500 -10.21600 49.36100
H  28.17000 -8.45200 47.04200
H  27.49900 -9.89900 47.79600
H  29.45200 -8.00900 48.67500
H  29.19900 -9.63900 49.26500
H  28.26900 -8.43800 50.03500
H  30.49900 -4.71700 46.63900
H  29.69300 -4.28500 48.02500
H  30.38200 -2.90500 47.03000
H  27.55800 -1.91100 42.08100
H  27.42500 2.29100 43.57800
H  26.35700 2.27000 42.13100
H  28.16500 2.37300 41.98300
Mg 45.37800 5.58200 47.15600
C  43.39200 8.45300 46.38200
C  42.82100 3.76700 46.08400
C  47.49100 3.03200 46.89000
C  48.02000 7.91700 47.57600
N  43.40900 6.04300 46.23300
C  42.80700 7.25100 46.05300
C  41.40000 7.12900 45.46300
C  41.09600 5.64700 45.92500
C  42.49900 5.08100 46.12600
C  40.22200 5.61800 47.21400
C  41.46700 7.18100 43.89700
C  40.48400 8.03600 43.11400
H  40.85400 8.73200 41.73100
N  45.18200 3.54500 46.75700
C  43.99900 2.97900 46.39800
C  44.12300 1.57900 46.20400
C  45.51100 1.29300 46.44700
C  46.15500 2.61500 46.70500
C  43.11500 0.61700 45.71900
C  46.19000 -0.01600 46.34300
O  45.54100 -1.02100 46.01700
C  47.65100 -0.25700 46.52600
N  47.34900 5.58000 47.16200
C  48.01400 4.35000 47.17800
C  49.48000 4.47700 47.55000
C  49.64600 6.04800 47.68800
C  48.25900 6.55600 47.48100
C  49.89400 3.62100 48.81200
C  50.62300 6.66800 46.58100
C  51.98600 7.12100 47.07400
N  45.70600 7.81200 47.07800
C  46.80200 8.57600 47.32600
C  46.40800 9.95700 47.32200
C  45.09300 9.92200 46.98500
C  44.72100 8.59800 46.84900
C  47.28400 11.17100 47.41500
C  43.89200 10.76200 46.78900
O  43.79200 11.93100 46.95000
C  42.73400 9.81400 46.28200
C  41.64300 9.89600 47.28400
O  41.69500 9.49900 48.44300
O  40.66900 10.68100 46.79300
C  39.66900 11.03900 47.83000
H  41.93200 3.17800 45.84800
H  48.23700 2.24000 46.79300
H  48.89700 8.52000 47.81900
H  40.67600 7.85500 45.83300
H  40.44200 5.14100 45.21500
H  39.78600 6.58900 47.45000
H  40.72300 5.41100 48.15900
H  39.41200 4.89500 47.11400
H  41.38100 6.17900 43.47600
H  42.43900 7.60500 43.64400
H  40.35400 8.84400 43.83400
H  39.44100 7.72800 43.05100
H  42.13400 1.05600 45.90300
H  43.32500 -0.28700 46.29000
H  43.26200 0.51800 44.64400
H  47.84800 -0.04000 47.57600
H  48.27300 0.22500 45.77200
H  47.77600 -1.33100 46.38800
H  50.09500 4.11600 46.72500
H  49.89000 6.29600 48.72000
H  48.91700 3.28700 49.16100
H  50.59800 3.97700 49.56400
H  50.32000 2.73500 48.34100
H  50.12800 7.57700 46.23800
H  50.77800 6.03100 45.71100
H  52.13000 6.51000 47.96500
H  51.99800 8.20700 47.16800
H  52.77400 6.97400 46.33500
H  46.68200 12.07900 47.41600
H  47.97100 11.11300 46.57100
H  47.83800 11.09600 48.35100
H  42.41000 10.17300 45.30500
H  39.04500 11.68200 47.20900
H  40.13600 11.52300 48.68800
H  39.09100 10.16800 48.13800

