158

Mg 35.76800 0.49500 29.33200
C  33.53400 1.22500 31.80400
C  38.18300 0.25400 31.65800
C  37.96700 -0.27000 26.90300
C  33.25000 0.74400 26.81200
N  35.85700 0.76700 31.34500
C  34.85000 1.01000 32.24700
C  35.35700 1.19200 33.73000
C  36.87800 1.17300 33.55900
C  37.00400 0.69500 32.07600
C  37.69100 2.53000 33.81500
C  34.88000 -0.06200 34.60400
C  34.74500 0.17600 36.17600
H  35.38300 1.41700 36.67400
N  37.81000 0.02300 29.29600
C  38.61800 -0.07200 30.34400
C  39.93900 -0.56400 29.93100
C  39.85300 -0.64500 28.47100
C  38.53000 -0.28600 28.14200
C  41.00700 -0.97100 30.85400
C  40.86900 -1.20700 27.48500
O  40.62800 -1.42600 26.32300
C  42.27700 -1.82700 28.01700
N  35.56600 0.26800 27.17800
C  36.71100 0.01600 26.40700
C  36.32600 -0.11200 24.92900
C  34.85400 0.37400 24.92200
C  34.44200 0.32500 26.36500
C  37.17100 0.79100 24.02100
C  34.00600 -0.59800 24.12400
C  32.96500 -1.50000 24.72400
N  33.79200 0.96400 29.28600
C  32.91800 1.04100 28.21400
C  31.61000 1.40800 28.75400
C  31.79800 1.45700 30.18700
C  33.15200 1.21300 30.44900
C  30.40200 1.40100 27.96900
C  31.09800 1.54500 31.47700
O  29.95200 1.54300 31.78800
C  32.27900 1.60700 32.56500
C  32.23600 2.98100 33.23500
O  32.43300 4.01200 32.58400
O  32.13700 2.87800 34.55600
C  32.14000 4.06900 35.43200
H  38.90300 0.15300 32.47200
H  38.65800 -0.50000 26.09000
H  32.52000 0.86000 26.00800
H  34.98600 2.13600 34.13000
H  37.34600 0.53100 34.30600
H  37.13700 3.15700 34.51300
H  37.69400 2.93300 32.80300
H  38.67000 2.26100 34.21200
H  35.50900 -0.94400 34.48600
H  33.93500 -0.31300 34.12300
H  35.26900 -0.69500 36.57200
H  33.70000 0.23900 36.47900
H  41.99400 -0.59800 30.57900
H  41.00400 -2.05700 30.76400
H  40.81500 -0.45200 31.79300
H  42.80800 -1.09100 28.62100
H  42.79800 -1.93300 27.06500
H  42.01600 -2.73500 28.56000
H  36.44900 -1.19100 24.84400
H  34.61800 1.33400 24.46400
H  36.48200 1.50600 23.57000
H  37.48100 0.27400 23.11300
H  38.08000 1.14400 24.50800
H  34.72200 -1.04300 23.43400
H  33.37500 -0.08800 23.39600
H  31.92800 -1.22600 24.52800
H  33.18800 -1.76300 25.75800
H  33.05100 -2.41700 24.14100
H  30.26300 0.52400 27.33600
H  30.27600 2.15800 27.19600
H  29.51900 1.52600 28.59600
H  32.09200 0.91500 33.38600
H  32.81700 4.88200 35.16900
H  32.38200 3.77600 36.45300
H  31.12500 4.46500 35.45900
Mg 36.01100 49.29700 25.52300
C  36.01800 47.31200 28.43400
C  34.96800 51.92700 27.33900
C  35.59000 50.93300 22.62200
C  36.77800 46.45100 23.71900
N  35.31300 49.47700 27.68200
C  35.58600 48.64000 28.69900
C  35.50100 49.34500 30.02800
C  34.92500 50.79000 29.69800
C  35.04300 50.73400 28.13100
C  33.48400 51.18300 30.26600
C  36.80700 49.36500 30.84700
C  36.67000 48.92600 32.36300
H  36.76000 50.07500 33.35000
N  35.47600 51.20200 25.05100
C  34.98300 52.17700 25.93200
C  34.95100 53.46200 25.28500
C  35.08300 53.17500 23.89100
C  35.35000 51.70600 23.78500
C  34.74800 54.68000 26.08500
C  35.06700 54.09600 22.69100
O  35.00800 53.85100 21.47100
C  34.92300 55.59500 22.98900
N  36.03400 48.72500 23.44300
C  35.90900 49.60500 22.47900
C  35.98400 49.02400 21.10900
C  36.42500 47.57500 21.40400
C  36.40900 47.56500 22.95600
C  34.69900 49.00400 20.14400
C  37.76200 47.31600 20.69500
C  39.11100 47.40200 21.51700
N  36.26300 47.32400 25.90700
C  36.60300 46.28700 25.05300
C  36.85300 45.04900 25.87200
C  36.60000 45.42700 27.19100
C  36.25500 46.82200 27.13300
C  37.37700 43.84000 25.40100
C  36.67000 44.97600 28.50600
O  36.80100 43.83800 28.94600
C  36.42600 46.25700 29.37400
C  35.23400 46.05700 30.22400
O  34.04000 46.02700 29.86100
O  35.71900 45.70700 31.51400
C  34.69400 45.41400 32.50500
H  34.84700 52.75500 28.04100
H  35.47000 51.53500 21.71900
H  37.16100 45.60800 23.14000
H  34.76500 48.92700 30.71500
H  35.57200 51.61000 30.01300
H  33.07900 50.27000 30.70100
H  32.91700 51.51800 29.39700
H  33.51500 52.09500 30.86300
H  37.26300 50.35300 30.78100
H  37.57500 48.70400 30.44400
H  37.53400 48.29300 32.56200
H  35.76300 48.32900 32.45900
H  35.39100 55.55500 25.99300
H  34.62800 54.51500 27.15500
H  33.80500 55.04000 25.67400
H  35.80400 55.98900 23.49500
H  34.03400 55.84400 23.56800
H  34.65700 56.06000 22.04000
H  36.81100 49.57800 20.66500
H  35.72900 46.74800 21.26000
H  33.88900 49.63700 20.50800
H  34.31700 47.99600 19.98600
H  35.01200 49.30200 19.14300
H  37.87400 48.00500 19.85800
H  37.74800 46.30200 20.29700
H  39.82600 46.67800 21.12400
H  38.93900 47.27100 22.58500
H  39.56900 48.37500 21.33800
H  37.95900 43.40900 26.21600
H  37.92300 43.79700 24.45900
H  36.55500 43.15200 25.20500
H  37.29900 46.33400 30.02200
H  34.03100 44.57400 32.29500
H  33.99700 46.25200 32.52800
H  35.21500 45.29600 33.45500

