158

Mg 44.18900 5.50900 48.68500
C  42.03400 8.16000 47.95900
C  41.63000 3.43700 47.49700
C  46.42000 2.90200 48.75800
C  46.85900 7.76000 48.65000
N  42.06600 5.74800 47.90900
C  41.40400 6.94500 47.76600
C  39.93400 6.71800 47.41400
C  39.86800 5.20300 47.16400
C  41.28800 4.76600 47.56300
C  38.68200 4.40100 47.87900
C  39.37800 7.70000 46.33900
C  40.23400 7.99000 45.12300
H  39.87600 7.34600 43.76000
N  43.97500 3.42800 48.40100
C  42.83300 2.80900 47.92700
C  43.13000 1.33600 47.77600
C  44.50200 1.21600 48.24100
C  45.00800 2.56000 48.49000
C  42.32400 0.41700 46.93300
C  45.18900 -0.09300 48.30900
O  44.60800 -1.12400 47.95900
C  46.59200 -0.29500 48.86800
N  46.40000 5.34700 48.56900
C  47.02600 4.15200 48.84100
C  48.53900 4.31000 48.81000
C  48.74500 5.91400 48.81400
C  47.24700 6.42500 48.70000
C  49.28800 3.60300 49.96600
C  49.80500 6.45600 47.76700
C  50.79600 7.54200 48.35500
N  44.44200 7.51600 48.57900
C  45.61700 8.32600 48.58400
C  45.29700 9.69900 48.37300
C  43.88300 9.67400 48.18400
C  43.41700 8.28900 48.21700
C  46.29700 10.85100 48.24700
C  42.76100 10.50800 47.92200
O  42.69300 11.70800 47.79500
C  41.49700 9.58400 47.81300
C  40.64400 9.81800 48.99400
O  40.68000 9.30400 50.10900
O  39.70600 10.81300 48.60900
C  38.77800 11.33400 49.71400
H  40.84900 2.73600 47.19500
H  47.23500 2.17600 48.71100
H  47.64400 8.51900 48.63800
H  39.45600 6.91700 48.37300
H  39.75400 4.96700 46.10600
H  37.91400 5.04900 48.30200
H  39.19000 3.90100 48.70400
H  38.28900 3.64600 47.19800
H  39.01500 8.62700 46.78300
H  38.47300 7.30400 45.87800
H  41.24600 7.62500 45.29600
H  40.19500 9.06600 44.95600
H  41.47500 0.81600 46.37800
H  41.90900 -0.37700 47.55400
H  43.08400 0.02400 46.25900
H  46.73500 -1.29900 49.26900
H  46.60700 0.52800 49.58300
H  47.29900 -0.20300 48.04300
H  48.83700 3.83400 47.87600
H  48.99400 6.26900 49.81400
H  48.63800 3.27300 50.77600
H  50.04300 4.30100 50.32700
H  49.91600 2.75700 49.68400
H  49.33700 6.84700 46.86300
H  50.36900 5.58000 47.44600
H  50.84700 7.61800 49.44100
H  50.61000 8.51500 47.90100
H  51.77500 7.14500 48.08600
H  46.77100 10.81400 47.26600
H  47.10800 10.87000 48.97500
H  45.80100 11.81100 48.39100
H  40.88800 9.61700 46.90900
H  39.03300 11.03000 50.73000
H  37.73500 11.15800 49.44900
H  38.86700 12.41900 49.77100
Mg 17.40400 51.51400 26.11900
C  19.36800 50.01500 28.50900
C  15.00800 52.14300 28.28700
C  15.63800 52.94800 23.60300
C  19.82200 50.53900 23.64800
N  17.15200 50.85900 28.13600
C  18.16300 50.47500 28.98100
C  17.77000 50.80300 30.47800
C  16.19300 51.06300 30.35900
C  16.07300 51.36700 28.84900
C  15.27500 49.85400 30.85900
C  18.76000 51.87200 30.97100
C  18.49900 52.44400 32.41400
H  17.50200 51.80600 33.30600
N  15.63500 52.52900 26.01000
C  14.78600 52.63700 27.04100
C  13.60200 53.28200 26.61700
C  13.73400 53.47800 25.18500
C  15.05500 53.05300 24.90500
C  12.52600 53.65500 27.61100
C  12.72400 54.13200 24.27500
O  13.01300 54.48100 23.13400
C  11.28900 54.44600 24.74700
N  17.70200 51.58400 23.93500
C  16.79600 52.26400 23.18500
C  17.27700 52.46000 21.66900
C  18.70800 51.76100 21.72500
C  18.72900 51.23100 23.20100
C  16.28200 51.98800 20.54800
C  19.88900 52.60600 21.35200
C  20.84500 51.96500 20.30800
N  19.24800 50.43000 25.98800
C  20.08800 50.03500 24.94700
C  21.19700 49.27600 25.49600
C  20.96100 49.30300 26.91500
C  19.76600 49.93400 27.09600
C  22.27300 48.68900 24.70100
C  21.46200 48.81500 28.18000
O  22.41900 48.10200 28.46000
C  20.60300 49.42600 29.24400
C  20.28100 48.45400 30.33500
O  19.66200 47.41600 30.14700
O  20.53300 49.03500 31.53800
C  20.00900 48.35700 32.69800
H  14.22400 52.11100 29.04600
H  15.00400 53.30700 22.79000
H  20.57000 50.29800 22.89100
H  18.01300 49.89100 31.02300
H  16.00600 51.90400 31.02700
H  14.40100 50.21800 31.40000
H  15.87500 49.27000 31.55800
H  15.11600 49.28300 29.94500
H  18.84100 52.72400 30.29600
H  19.80400 51.60600 31.13800
H  18.28100 53.49900 32.25300
H  19.34800 52.53800 33.09100
H  12.15800 54.64000 27.32600
H  12.90100 53.67400 28.63400
H  11.76300 52.90500 27.39900
H  10.84700 53.69500 25.40200
H  10.74600 54.58000 23.81200
H  11.31700 55.40000 25.27300
H  17.36300 53.53900 21.54300
H  18.68600 50.89900 21.05800
H  16.86200 51.34600 19.88500
H  16.04900 52.86500 19.94500
H  15.41700 51.43400 20.91200
H  20.47400 52.92000 22.21600
H  19.50200 53.51000 20.88000
H  20.22600 51.41900 19.59700
H  21.46600 51.27600 20.88100
H  21.46400 52.66300 19.74500
H  22.73400 49.39000 24.00400
H  21.86800 47.79000 24.23700
H  23.10600 48.35400 25.32000
H  21.24400 50.20100 29.66500
H  20.23400 49.03600 33.52000
H  20.49100 47.50000 33.16700
H  18.94800 48.10600 32.66900

