158

Mg 1.86100 8.22000 25.95700
C  2.50400 10.18000 28.92200
C  2.40300 5.51300 27.96000
C  1.36100 6.54300 23.38700
C  2.04900 11.28000 24.23900
N  2.48400 7.93600 28.25200
C  2.54500 8.83700 29.28200
C  2.39500 8.14200 30.65200
C  2.66200 6.66800 30.26400
C  2.47700 6.68100 28.72600
C  4.02800 6.08300 30.54500
C  0.97900 8.39400 31.19100
C  0.91300 8.71600 32.64400
H  2.13900 8.35300 33.51200
N  2.01700 6.25200 25.67100
C  2.22100 5.28800 26.56000
C  2.14400 4.01200 25.96100
C  1.75700 4.26600 24.69300
C  1.71900 5.77100 24.51800
C  2.41800 2.74100 26.64200
C  1.39900 3.33200 23.57600
O  1.02500 3.80600 22.55500
C  1.39900 1.86300 23.59900
N  1.87700 8.83000 24.03000
C  1.55400 7.88500 23.11600
C  1.27600 8.50400 21.74500
C  1.26700 9.99000 22.07200
C  1.80500 10.10100 23.51000
C  2.43300 8.16400 20.73700
C  -0.16800 10.61900 21.95300
C  -0.39000 11.66100 20.81900
N  2.04200 10.36800 26.46900
C  2.13500 11.44200 25.65400
C  2.24200 12.69400 26.42800
C  2.33400 12.22600 27.73700
C  2.31900 10.80200 27.67400
C  2.33100 14.14100 25.94700
C  2.55800 12.68300 29.13200
O  2.78600 13.79000 29.53700
C  2.48200 11.31400 30.00300
C  3.71500 11.30500 30.87400
O  4.74100 10.66600 30.75500
O  3.34100 12.15900 31.97600
C  4.19300 12.00000 33.12400
H  2.42700 4.63600 28.61000
H  0.92200 6.12600 22.47800
H  1.63300 12.18200 23.78600
H  3.16300 8.56500 31.29900
H  1.86400 6.01500 30.61700
H  4.28200 5.26700 29.86800
H  4.17200 5.72200 31.56300
H  4.83400 6.81500 30.50600
H  0.33500 7.56800 30.88900
H  0.48300 9.25900 30.75000
H  0.01900 8.26700 33.07900
H  0.88500 9.80000 32.75700
H  2.84800 2.89400 27.63200
H  3.08000 2.01500 26.16800
H  1.44700 2.26700 26.78300
H  1.60100 1.43400 22.61700
H  0.45000 1.58400 24.05600
H  2.17500 1.42600 24.22800
H  0.27400 8.26000 21.39200
H  1.99400 10.47000 21.41600
H  3.37100 7.76600 21.12400
H  2.67700 9.02000 20.10800
H  2.15200 7.37900 20.03600
H  -0.39200 11.18300 22.85900
H  -0.94800 9.86900 21.82000
H  0.42700 11.44400 20.13100
H  -0.50400 12.63300 21.29800
H  -1.28400 11.44700 20.23200
H  3.20500 14.19900 25.29900
H  2.37400 14.62900 26.92100
H  1.41100 14.47400 25.46500
H  1.68900 11.33700 30.75000
H  4.77100 11.08000 33.21500
H  3.59000 12.12900 34.02200
H  4.76100 12.93000 33.10600
Mg 44.39800 2.61000 46.94600
C  42.48500 5.43700 47.08900
C  41.55600 0.64800 46.62200
C  46.38200 -0.12800 46.62800
C  47.23100 4.63900 46.84700
N  42.31200 2.98400 46.65900
C  41.74600 4.23700 46.81300
C  40.25900 4.11800 46.59900
C  39.85400 2.66900 46.58500
C  41.33400 2.03200 46.61700
C  39.06700 2.21800 47.84800
C  39.86300 4.71500 45.20500
C  38.59100 5.56900 45.15200
H  37.80400 5.43400 43.80800
N  43.97100 0.51800 46.81000
C  42.75500 -0.06400 46.74000
C  42.94800 -1.53000 46.61200
C  44.38100 -1.75300 46.45800
C  44.95700 -0.40300 46.65500
C  41.79800 -2.49700 46.38000
C  45.00800 -3.24900 46.24400
O  44.35600 -4.31200 46.27900
C  46.53300 -3.40700 46.09500
N  46.47100 2.29400 46.72400
C  47.06000 1.09300 46.58800
C  48.59700 1.11700 46.39500
C  48.86700 2.68600 46.43100
C  47.44300 3.28300 46.76300
C  49.31700 0.32500 47.50700
C  49.52000 3.44400 45.21200
C  50.98900 3.75300 45.41500
N  44.82400 4.62900 46.83400
C  46.02800 5.36300 46.90600
C  45.75400 6.74500 47.07200
C  44.36300 6.79600 47.13600
C  43.83900 5.51100 47.07800
C  46.74800 7.88700 46.99100
C  43.26600 7.74900 47.23300
O  43.23300 8.93700 47.35100
C  41.92800 6.80700 47.32500
C  41.15900 6.96800 48.60100
O  41.54800 6.95200 49.75400
O  39.85700 7.10200 48.27000
C  38.96700 7.40200 49.38100
H  40.65300 0.07000 46.41200
H  47.08500 -0.96100 46.56400
H  48.08700 5.31100 46.94700
H  39.69600 4.60800 47.39400
H  39.33000 2.36200 45.68000
H  38.25300 2.92600 48.00000
H  39.71500 2.23800 48.72400
H  38.62800 1.22700 47.73200
H  39.78800 3.87200 44.51800
H  40.64700 5.35100 44.79600
H  38.86800 6.60900 45.32600
H  38.01900 5.15000 45.97900
H  41.58700 -2.61500 45.31700
H  40.88600 -1.97700 46.67500
H  41.81000 -3.42200 46.95700
H  46.97400 -2.99700 47.00400
H  46.99300 -2.75000 45.35600
H  46.87900 -4.40800 45.83900
H  48.87800 0.76000 45.40400
H  49.40600 2.96700 47.33600
H  48.77900 0.41800 48.45000
H  50.33500 0.69600 47.63100
H  49.33800 -0.68200 47.08800
H  49.04500 4.39200 44.95900
H  49.33200 2.76900 44.37700
H  51.28300 3.81700 46.46300
H  51.07000 4.74100 44.96100
H  51.39100 2.87900 44.90300
H  47.71500 7.59900 46.57900
H  46.87800 8.22600 48.01900
H  46.32300 8.63900 46.32700
H  41.22800 7.07300 46.53300
H  39.37100 8.20000 50.00200
H  38.76300 6.46700 49.90300
H  38.04700 7.78700 48.94000

