158

Mg 9.06200 48.70900 26.21600
C  6.89000 49.00400 28.91900
C  11.65500 49.70800 28.44200
C  11.29500 48.81000 23.65600
C  6.48400 48.40300 24.02600
N  9.18400 49.47200 28.35300
C  8.23800 49.25400 29.27900
C  8.68400 49.53700 30.74900
C  10.07900 50.20000 30.44400
C  10.37200 49.71200 28.98300
C  10.32300 51.68900 30.65600
C  8.64900 48.26000 31.70300
C  9.69000 47.97300 32.83000
H  9.13500 47.65500 34.23600
N  11.19300 49.07500 26.06300
C  12.05600 49.42800 27.13900
C  13.42100 49.50800 26.61800
C  13.31400 49.10800 25.23100
C  11.88400 49.05300 24.89600
C  14.64400 49.69900 27.41500
C  14.39900 48.72600 24.15900
O  14.16000 48.51000 22.96500
C  15.81000 48.68000 24.64900
N  8.99100 48.48600 24.23100
C  9.97200 48.57800 23.37800
C  9.56900 48.59900 21.84100
C  8.04800 48.28600 22.02500
C  7.76500 48.40700 23.53300
C  9.81300 49.96600 21.03400
C  7.62900 46.99700 21.43700
C  6.95000 46.98200 20.03600
N  7.07000 48.67100 26.40600
C  6.07600 48.51100 25.40400
C  4.74200 48.72600 26.03000
C  4.98700 48.78500 27.45000
C  6.42100 48.80900 27.59100
C  3.39800 48.70800 25.27600
C  4.37900 48.79500 28.72200
O  3.20900 48.68000 29.04500
C  5.64500 48.87000 29.73400
C  5.74200 47.44600 30.32100
O  6.08700 46.48800 29.66300
O  5.38900 47.43500 31.64300
C  5.76500 46.28100 32.46700
H  12.47200 50.01600 29.09700
H  11.98500 48.90200 22.81500
H  5.68300 48.26200 23.29700
H  8.07100 50.33500 31.16900
H  10.95300 49.86800 31.00400
H  9.56700 52.08600 31.33300
H  10.11500 52.15000 29.69100
H  11.34700 51.84100 30.99700
H  8.41100 47.37500 31.11400
H  7.71200 48.45700 32.22500
H  10.27300 48.88600 32.94600
H  10.42200 47.25500 32.46000
H  14.40900 50.02800 28.42700
H  15.38900 50.37600 26.99900
H  15.13200 48.72500 27.38500
H  16.55300 48.51500 23.86800
H  15.89100 47.86900 25.37200
H  16.13700 49.56800 25.18900
H  10.12700 47.74900 21.45000
H  7.37300 48.98500 21.53100
H  10.40400 50.67200 21.61800
H  8.89200 50.44000 20.69600
H  10.39500 49.76700 20.13400
H  6.92900 46.50800 22.11400
H  8.50100 46.34300 21.41800
H  6.11800 46.28100 20.10800
H  7.67000 46.46100 19.40500
H  6.49800 47.89900 19.65700
H  3.52100 49.30000 24.36900
H  2.60700 48.88100 26.00500
H  3.33700 47.71400 24.83300
H  5.36700 49.51500 30.56700
H  6.60300 45.77400 31.98900
H  4.93700 45.59700 32.65300
H  6.15800 46.60000 33.43300
Mg -2.17500 35.35400 26.69500
C  -3.53000 33.73200 29.64000
C  -1.08600 37.80500 28.84500
C  -1.24000 36.89000 24.08100
C  -3.90400 32.94600 24.88800
N  -2.42200 35.72300 28.99200
C  -2.81600 34.89600 30.00600
C  -2.44900 35.35600 31.35500
C  -1.63100 36.68400 31.07600
C  -1.70200 36.81500 29.54200
C  -2.18200 37.92800 31.76600
C  -1.60800 34.23700 32.05200
C  -2.09000 33.72900 33.36900
H  -1.14300 33.57400 34.59200
N  -1.10700 37.03400 26.45700
C  -0.71000 37.90100 27.49700
C  0.10300 38.96900 26.86500
C  0.19800 38.61000 25.46700
C  -0.76200 37.51500 25.26800
C  0.83300 40.02600 27.67100
C  0.99200 39.16800 24.34100
O  1.20000 38.57300 23.31000
C  1.77200 40.34200 24.56000
N  -2.71700 35.04700 24.77000
C  -2.10800 35.87400 23.80900
C  -2.56400 35.44300 22.37800
C  -3.33600 34.08400 22.63700
C  -3.30700 33.95600 24.14400
C  -3.48500 36.43000 21.62900
C  -2.63500 32.74300 21.96900
C  -1.16000 32.43000 22.31700
N  -3.39000 33.66100 27.10200
C  -3.99600 32.84100 26.29300
C  -4.69200 31.71500 26.94000
C  -4.47600 32.01500 28.22000
C  -3.71000 33.20000 28.26500
C  -5.47900 30.52900 26.39600
C  -4.77800 31.56500 29.56100
O  -5.41500 30.59700 29.94500
C  -4.15700 32.63000 30.52200
C  -5.37000 33.17900 31.22600
O  -6.20200 33.95100 30.72600
O  -5.52700 32.61600 32.44700
C  -6.69100 32.99100 33.23200
H  -0.54100 38.46900 29.51900
H  -1.06700 37.50000 23.19200
H  -4.43700 32.22900 24.26000
H  -3.44300 35.52600 31.76800
H  -0.57900 36.59700 31.35000
H  -2.77900 38.48600 31.04500
H  -1.30800 38.54500 31.97500
H  -2.74800 37.54900 32.61700
H  -0.58200 34.59200 32.15500
H  -1.47700 33.48800 31.27000
H  -2.49000 32.72600 33.21900
H  -2.84100 34.42300 33.74800
H  0.72700 39.91100 28.75000
H  0.43400 40.98400 27.33800
H  1.90200 39.95300 27.47100
H  2.04000 40.80600 23.61100
H  2.69700 39.98500 25.01300
H  1.20700 41.02800 25.19200
H  -1.76500 35.21600 21.67200
H  -4.41000 34.24100 22.53800
H  -3.80700 37.27500 22.23700
H  -4.39400 35.90900 21.32600
H  -3.02100 36.78300 20.70900
H  -2.68800 32.91100 20.89400
H  -3.15100 31.78600 22.05100
H  -1.15100 31.37200 22.57900
H  -0.88700 33.07700 23.15100
H  -0.45400 32.47200 21.48700
H  -6.48000 30.96100 26.43200
H  -5.37500 29.66800 27.05600
H  -5.28000 30.21900 25.37000
H  -3.51000 32.12800 31.24100
H  -7.61500 32.78800 32.69000
H  -6.54200 34.04200 33.48000
H  -6.71600 32.48600 34.19700

