158

Mg 40.32100 8.77600 29.39800
C  42.15600 9.80400 32.21400
C  38.36600 6.98400 31.45900
C  38.62400 8.01200 26.67400
C  42.91700 10.01100 27.37700
N  40.23300 8.55700 31.67200
C  41.04000 9.07600 32.61600
C  40.43300 8.69800 34.02600
C  39.55700 7.37700 33.75800
C  39.34500 7.63500 32.23000
C  40.24000 5.99200 34.16100
C  39.60600 9.86700 34.62200
C  39.92500 10.22900 36.12500
H  40.47400 11.54800 36.53400
N  38.69300 7.71100 29.08400
C  38.04300 6.96600 30.09400
C  37.00000 6.27200 29.38700
C  36.93100 6.63300 28.04900
C  38.07800 7.54300 27.90200
C  36.06900 5.29900 30.18900
C  35.91100 6.18200 26.96800
O  35.88900 6.51100 25.77800
C  34.77600 5.51200 27.36100
N  40.73900 9.01600 27.29900
C  39.80300 8.65200 26.38600
C  40.22600 9.11300 24.98300
C  41.70100 9.63600 25.20000
C  41.79600 9.50500 26.69800
C  40.25300 7.94100 23.97000
C  41.77800 11.13100 24.69600
C  43.29000 11.47300 24.32300
N  42.22100 9.65800 29.70300
C  43.13100 10.06500 28.79500
C  44.27900 10.74200 29.55500
C  43.87800 10.69500 30.89200
C  42.57500 10.02700 30.93900
C  45.36900 11.44700 28.93300
C  44.26700 11.13900 32.26200
O  45.19700 11.86700 32.66100
C  43.20800 10.45700 33.18700
C  44.05100 9.39800 33.82300
O  44.11100 8.21400 33.50100
O  44.74200 9.96200 34.87900
C  45.32900 9.05000 35.85800
H  37.79500 6.26300 32.04700
H  38.01800 7.76300 25.80000
H  43.68000 10.49200 26.76200
H  41.26700 8.58600 34.71900
H  38.53900 7.42000 34.14500
H  39.59400 5.55200 34.92000
H  41.15000 6.13500 34.74400
H  40.39100 5.30400 33.32800
H  38.54000 9.64700 34.58300
H  39.83800 10.79000 34.09000
H  40.56500 9.45200 36.54500
H  38.94800 10.13300 36.59900
H  36.43800 4.91200 31.13900
H  35.85200 4.41700 29.58600
H  35.10600 5.77500 30.37200
H  34.09100 5.47200 26.51400
H  34.19300 6.06200 28.09900
H  34.96600 4.47100 27.62300
H  39.58500 9.92200 24.63500
H  42.49000 8.98100 24.83000
H  40.81200 7.04200 24.22800
H  40.75100 8.32200 23.07900
H  39.33500 7.44000 23.66300
H  41.63600 11.81300 25.53400
H  41.07800 11.39900 23.90400
H  43.20100 11.97000 23.35700
H  44.02200 10.66500 24.32100
H  43.73800 12.19800 25.00300
H  44.93900 11.94000 28.06100
H  46.07900 10.71200 28.55200
H  45.88200 12.05700 29.67700
H  42.68100 11.11000 33.88200
H  45.77800 9.65000 36.64900
H  45.96100 8.24700 35.47900
H  44.51600 8.44600 36.25900
Mg 54.00800 23.91300 45.16200
C  51.70000 26.17800 44.19300
C  52.31200 21.40500 43.65100
C  56.77800 21.99800 45.27400
C  55.96900 26.64800 46.35400
N  52.31700 23.81800 44.03100
C  51.53600 24.89300 43.63600
C  50.58400 24.43800 42.58900
C  50.42500 22.95100 42.96800
C  51.74200 22.68900 43.60900
C  49.24600 22.61100 43.96400
C  51.07300 24.75300 41.10900
C  49.91000 24.93600 40.20300
H  50.25500 25.26200 38.73800
N  54.46300 21.89700 44.68700
C  53.59200 21.01900 44.08500
C  54.14600 19.69900 43.99300
C  55.50900 19.91800 44.46100
C  55.62300 21.33600 44.86500
C  53.42600 18.45200 43.49700
C  56.55200 18.80300 44.63700
O  56.26000 17.62000 44.26000
C  57.88300 18.92100 45.23200
N  56.15900 24.31800 45.52600
C  57.02700 23.30000 45.58500
C  58.37400 23.87500 45.95400
C  58.13100 25.28400 46.50100
C  56.64100 25.45800 46.16200
C  59.26700 23.05400 46.90000
C  59.13500 26.42100 46.10700
C  59.78800 27.20000 47.19600
N  53.77300 25.95500 45.53600
C  54.61600 26.91000 46.03200
C  53.92900 28.16900 46.13800
C  52.74000 27.91600 45.40900
C  52.71600 26.55600 45.06400
C  54.41100 29.42100 46.73600
C  51.55600 28.52600 44.90100
O  51.11600 29.68700 44.96300
C  50.78600 27.36700 44.11000
C  50.57000 27.76100 42.71400
O  51.41300 28.29800 41.97300
O  49.22400 27.70500 42.42400
C  48.81300 28.47500 41.25800
H  51.72000 20.71200 43.05000
H  57.62100 21.30900 45.36000
H  56.36900 27.49400 46.91700
H  49.66200 24.99800 42.74300
H  50.30800 22.30500 42.09700
H  49.69800 22.53200 44.95200
H  48.84400 21.63000 43.70900
H  48.49900 23.40200 44.02500
H  51.57000 23.89500 40.65800
H  51.72100 25.63000 41.13500
H  49.36700 25.79700 40.59200
H  49.32400 24.02300 40.30700
H  54.00700 17.62300 43.09200
H  52.70500 18.66500 42.70900
H  52.84500 17.98300 44.29100
H  57.79800 19.19400 46.28400
H  58.52700 19.59600 44.66800
H  58.43200 17.98400 45.14100
H  58.98300 23.92100 45.05100
H  58.20000 25.30700 47.58900
H  59.43900 23.60900 47.82200
H  60.21900 22.80000 46.43300
H  58.91500 22.11800 47.33400
H  58.64500 27.17600 45.49200
H  59.91300 26.03700 45.44700
H  59.76000 28.26100 46.94600
H  60.79800 26.82800 47.36700
H  59.26400 27.22700 48.15100
H  54.34200 30.17600 45.95200
H  55.45500 29.38800 47.04800
H  53.70400 29.63000 47.53900
H  49.80900 27.22400 44.57200
H  47.91300 28.98800 41.59800
H  48.55600 27.97600 40.32400
H  49.55800 29.24700 41.06500

