158

Mg 46.45500 25.04300 28.45000
C  46.74600 27.21100 31.09800
C  45.49300 22.58100 30.81300
C  46.44000 23.01200 26.00300
C  47.45100 27.58700 26.19800
N  46.11700 24.98900 30.78500
C  46.29200 25.98200 31.65300
C  46.05200 25.58100 33.13900
C  45.79400 24.04700 32.96300
C  45.71900 23.81300 31.41900
C  46.94800 23.09300 33.53400
C  44.83500 26.34800 33.76200
C  45.07800 27.05800 35.10900
H  43.88500 27.16800 36.14800
N  45.98000 23.14300 28.40100
C  45.48200 22.33900 29.39800
C  45.13200 21.08200 28.78400
C  45.37600 21.18700 27.43500
C  46.01500 22.49300 27.20700
C  44.45400 19.90500 29.50500
C  45.24000 20.08800 26.37200
O  45.73000 20.15600 25.24600
C  44.74900 18.77000 26.67900
N  47.27800 25.18300 26.40900
C  47.04000 24.18300 25.58100
C  47.09000 24.60900 24.11400
C  47.18700 26.12500 24.19000
C  47.35500 26.32600 25.69300
C  48.19500 23.92200 23.25300
C  45.92400 26.77600 23.65100
C  44.68700 26.65100 24.50600
N  46.95400 26.98100 28.54700
C  47.39100 27.89200 27.61800
C  47.80800 29.13800 28.25800
C  47.55700 28.90500 29.61000
C  47.05900 27.58400 29.71800
C  48.64000 30.25200 27.64600
C  47.75600 29.42100 30.93200
O  48.22100 30.49500 31.32600
C  47.20400 28.40800 31.87500
C  48.33700 28.13200 32.76100
O  49.40800 27.72300 32.38600
O  47.93000 28.34400 34.07400
C  48.95000 28.02200 35.09200
H  45.17200 21.73700 31.42600
H  46.08400 22.39700 25.17400
H  47.52200 28.41800 25.49300
H  46.94700 25.81200 33.71500
H  44.87600 23.75000 33.47000
H  47.84200 23.68000 33.74200
H  47.30000 22.37900 32.78900
H  46.54200 22.70700 34.46900
H  44.04400 25.63500 33.99600
H  44.39700 27.08100 33.08500
H  45.28900 28.10600 34.89500
H  45.92900 26.59600 35.61100
H  43.53700 19.73300 28.94200
H  44.19600 20.18700 30.52600
H  44.99700 18.96000 29.51900
H  44.72200 18.18800 25.75700
H  43.71400 19.00400 26.92900
H  45.21700 18.19700 27.47900
H  46.05300 24.37100 23.87500
H  48.08100 26.59800 23.78600
H  48.47200 24.58900 22.43600
H  47.83000 22.98600 22.83000
H  49.09700 23.66900 23.80900
H  45.62500 26.43200 22.66100
H  46.01000 27.85900 23.56100
H  43.87000 26.36800 23.84300
H  44.40100 27.50300 25.12100
H  44.93500 25.92100 25.27700
H  48.03500 31.13500 27.44000
H  49.09800 30.00100 26.68900
H  49.43100 30.52000 28.34700
H  46.41800 28.82900 32.50200
H  48.82100 27.11800 35.68800
H  49.06500 28.88700 35.74500
H  49.98300 27.92500 34.75500
Mg -9.48500 41.17700 42.42900
C  -8.55500 38.05400 41.17800
C  -7.11700 42.61700 40.36900
C  -10.86300 44.05000 43.15700
C  -12.27900 39.54500 43.66600
N  -8.04000 40.51700 40.97700
C  -7.76600 39.18700 40.73600
C  -6.45000 39.00400 40.01100
C  -5.91900 40.46000 39.86700
C  -7.09100 41.26000 40.51900
C  -4.54600 40.75400 40.58700
C  -6.61200 38.31600 38.65100
C  -5.97700 36.93200 38.43200
H  -4.89100 36.73900 37.39000
N  -9.03900 43.12400 41.88100
C  -8.01300 43.46900 41.06600
C  -7.93200 44.90900 41.14200
C  -8.99900 45.38900 41.92300
C  -9.72300 44.17700 42.35700
C  -6.94500 45.78100 40.35100
C  -9.41000 46.88200 42.18800
O  -8.58500 47.79000 41.89200
C  -10.71600 47.29400 42.72100
N  -11.27600 41.71600 43.20700
C  -11.59200 42.98500 43.52400
C  -12.98100 43.12900 44.21700
C  -13.42700 41.59100 44.23100
C  -12.27900 40.92900 43.67500
C  -12.86200 43.68100 45.65800
C  -14.69500 41.25200 43.35400
C  -15.48000 40.07600 43.97700
N  -10.25800 39.18200 42.55000
C  -11.35000 38.68500 43.14500
C  -11.41600 37.28500 43.08100
C  -10.29000 36.98800 42.23000
C  -9.69500 38.17700 41.96600
C  -12.48400 36.18800 43.61500
C  -9.63100 35.81500 41.56400
O  -9.90600 34.60500 41.60500
C  -8.37300 36.45300 40.89600
C  -7.21600 35.78200 41.54300
O  -6.59300 36.25400 42.43200
O  -6.92200 34.67300 40.77000
C  -5.82000 33.82500 41.29700
H  -6.29200 43.12500 39.86500
H  -11.34700 44.90200 43.64000
H  -13.13500 38.96900 44.02300
H  -5.76200 38.49900 40.68900
H  -5.89700 40.75400 38.81800
H  -3.76500 40.00400 40.46100
H  -4.61300 40.96000 41.65500
H  -4.20000 41.61500 40.01400
H  -6.06400 38.89900 37.91100
H  -7.62000 38.35100 38.23800
H  -6.73600 36.20300 38.14700
H  -5.62700 36.49600 39.36800
H  -6.11600 45.28700 39.84400
H  -6.48400 46.39500 41.12400
H  -7.44700 46.40700 39.61200
H  -10.69600 47.10400 43.79400
H  -11.49800 46.93600 42.05200
H  -10.80200 48.37800 42.64000
H  -13.70300 43.67200 43.60800
H  -13.71200 41.13800 45.18100
H  -13.16800 42.89400 46.34700
H  -13.60100 44.48200 45.63600
H  -11.96300 44.25900 45.86900
H  -14.29800 41.09300 42.35100
H  -15.37900 42.08700 43.20200
H  -15.26100 39.84000 45.01800
H  -15.39100 39.19500 43.34200
H  -16.52700 40.37600 43.94300
H  -13.50600 36.31100 43.25700
H  -12.47200 36.34200 44.69400
H  -12.04700 35.21500 43.39000
H  -8.30500 36.23600 39.82900
H  -5.20300 34.21700 42.10500
H  -5.21800 33.41500 40.48600
H  -6.48300 33.00200 41.56600

