158

Mg 29.82600 57.09400 40.99300
C  27.26300 55.12700 39.45200
C  32.15200 54.65800 39.49400
C  32.35800 59.09000 41.66400
C  27.45700 59.53100 41.40700
N  29.64000 55.14000 39.54100
C  28.51600 54.52800 39.18900
C  28.81700 53.17800 38.43100
C  30.42100 53.04300 38.53300
C  30.80100 54.35100 39.24700
C  31.03700 51.82300 39.23000
C  28.27900 53.09100 36.96200
C  28.67800 54.20900 36.00900
H  27.58100 54.94600 35.22400
N  31.87100 56.80900 40.76800
C  32.59900 55.84500 40.16800
C  34.00200 56.16600 40.27300
C  34.18800 57.32800 41.07100
C  32.76700 57.80600 41.21600
C  35.17500 55.30300 39.71600
C  35.48400 58.03100 41.44200
O  36.52600 57.63400 41.05900
C  35.42500 59.16600 42.41400
N  29.89600 59.06000 41.30400
C  31.08600 59.62300 41.75600
C  30.84800 61.03000 42.34300
C  29.27800 61.22900 42.20200
C  28.82000 59.89100 41.56200
C  31.34600 61.42700 43.72000
C  28.97400 62.45100 41.26000
C  29.89300 63.71700 41.47400
N  27.75300 57.29400 40.62700
C  26.90400 58.31600 40.92200
C  25.51300 57.98100 40.83200
C  25.63900 56.69300 40.25000
C  26.97100 56.36800 40.05900
C  24.32000 58.89800 41.01500
C  24.84800 55.66000 39.52600
O  23.64900 55.67400 39.19300
C  25.87700 54.52000 39.17800
C  25.55100 53.37400 40.08900
O  25.98900 53.30300 41.25200
O  24.56200 52.55400 39.56000
C  24.04800 51.46800 40.38200
H  32.90900 53.94700 39.15500
H  33.13300 59.79200 41.97800
H  26.81400 60.38700 41.62000
H  28.28200 52.43600 39.02400
H  30.85200 52.94500 37.53700
H  31.91200 51.54800 38.64100
H  30.31300 51.01200 39.15200
H  31.38800 51.91000 40.25900
H  27.20600 52.90400 36.94200
H  28.60900 52.17900 36.46400
H  29.49100 53.89100 35.35600
H  29.07800 55.03600 36.59600
H  35.95500 55.94800 39.31300
H  34.92000 54.77200 38.79900
H  35.50800 54.46900 40.33400
H  35.22200 60.11100 41.91000
H  36.42400 59.26100 42.84000
H  34.80800 58.91200 43.27600
H  31.50200 61.60600 41.68900
H  28.74400 61.46800 43.12200
H  30.48700 61.49100 44.38800
H  31.86500 62.38500 43.75600
H  32.07600 60.68300 44.03900
H  27.96700 62.86400 41.32300
H  29.19100 62.26200 40.20900
H  30.68100 63.78000 40.72300
H  30.32200 63.61200 42.47100
H  29.36100 64.64700 41.27500
H  23.87100 59.03200 41.99900
H  23.53500 58.60900 40.31700
H  24.45300 59.91000 40.63400
H  25.67200 54.31600 38.12700
H  23.55300 50.78300 39.69300
H  23.37200 51.98800 41.06100
H  24.78600 50.90600 40.95400
Mg -10.53000 17.06900 40.59700
C  -7.12300 16.56300 40.49000
C  -10.14700 20.32000 39.93000
C  -13.80300 17.13700 39.94100
C  -10.79400 13.42500 40.71700
N  -8.80100 18.27700 39.97500
C  -7.48600 17.92200 40.15800
C  -6.57800 19.07500 39.92300
C  -7.52000 20.28700 40.12700
C  -8.89500 19.62600 39.94200
C  -7.42500 20.94700 41.54500
C  -5.94100 19.06600 38.50800
C  -4.42000 18.74100 38.49000
H  -3.93200 17.89400 37.30800
N  -11.81400 18.57000 39.98000
C  -11.48900 19.87300 39.88200
C  -12.64200 20.67800 39.76000
C  -13.70100 19.79600 39.68000
C  -13.13900 18.41800 39.88600
C  -12.62100 22.16700 39.75300
C  -15.20200 20.20600 39.61800
O  -15.47200 21.37400 39.40300
C  -16.32400 19.18000 39.76900
N  -12.06400 15.55500 40.35200
C  -13.30900 15.89200 40.08500
C  -14.34200 14.62500 40.18300
C  -13.28900 13.49700 40.24500
C  -11.99600 14.19200 40.52300
C  -15.36100 14.67100 41.43500
C  -13.22800 12.62900 38.99700
C  -13.05800 11.08000 39.17500
N  -9.24800 15.29400 40.71200
C  -9.48100 13.92500 40.75400
C  -8.24200 13.22900 40.94900
C  -7.24600 14.22000 40.89800
C  -7.89300 15.44200 40.60200
C  -8.01400 11.71700 41.21700
C  -5.88300 14.39600 40.91800
O  -4.93300 13.61000 41.16300
C  -5.72800 16.01600 40.76400
C  -5.01200 16.61400 41.91500
O  -3.99800 17.28600 41.79800
O  -5.53600 16.11300 43.06400
C  -4.84000 16.51600 44.31400
H  -10.06900 21.40800 39.88900
H  -14.89300 17.16700 39.87900
H  -10.82300 12.34100 40.84200
H  -5.76100 19.12500 40.64300
H  -7.41300 20.96900 39.28400
H  -6.37000 20.83300 41.79300
H  -8.08900 20.35500 42.17500
H  -7.76600 21.95000 41.28800
H  -6.03900 20.09400 38.16000
H  -6.47000 18.31600 37.91900
H  -4.18900 18.35800 39.48400
H  -3.92800 19.70400 38.35500
H  -13.38900 22.64300 40.36200
H  -12.69900 22.55700 38.73800
H  -11.73800 22.66300 40.15600
H  -16.26800 18.58600 38.85600
H  -17.22400 19.78200 39.89400
H  -16.27000 18.51000 40.62700
H  -14.80100 14.54300 39.19800
H  -13.51300 12.85200 41.09400
H  -15.68400 13.68400 41.76500
H  -16.30200 15.18400 41.23300
H  -14.82600 15.26000 42.18000
H  -12.47500 13.03300 38.32000
H  -14.19000 12.78900 38.51100
H  -13.91800 10.63400 39.67400
H  -12.20200 10.90400 39.82800
H  -12.80900 10.48300 38.29800
H  -6.97700 11.64300 41.54300
H  -8.15300 11.10000 40.32900
H  -8.65900 11.28900 41.98500
H  -5.12200 16.31500 39.90900
H  -3.79900 16.20000 44.25300
H  -5.35000 16.22400 45.23200
H  -4.88300 17.60500 44.30100

