158

Mg -1.97300 17.29400 26.22000
C  -1.90000 15.06200 28.96900
C  -2.61000 19.86900 28.59400
C  -2.24200 19.50300 23.69900
C  -1.94300 14.67100 24.04700
N  -2.23800 17.38900 28.47500
C  -2.12500 16.35400 29.38400
C  -2.35600 16.80600 30.87800
C  -2.92500 18.18800 30.61000
C  -2.58100 18.52800 29.13100
C  -4.45800 18.48100 31.09100
C  -1.11400 16.72100 31.72300
C  -1.01600 17.58600 32.95300
H  -0.55800 16.93100 34.30500
N  -2.26200 19.41800 26.14300
C  -2.40400 20.28000 27.20800
C  -2.50800 21.64200 26.66600
C  -2.54000 21.47500 25.24500
C  -2.18400 20.10700 25.00300
C  -2.80400 22.78000 27.56300
C  -2.58400 22.55700 24.17900
O  -2.30700 22.37100 23.05300
C  -2.89000 23.97900 24.61200
N  -2.11200 17.08600 24.19600
C  -2.17000 18.13800 23.35200
C  -2.21600 17.67900 21.93000
C  -2.25000 16.10000 22.05700
C  -1.99400 15.92600 23.52500
C  -3.34800 18.27800 21.04200
C  -1.38900 15.29600 21.15100
C  0.12900 15.35900 21.33100
N  -1.86200 15.27200 26.41600
C  -1.81100 14.27300 25.42100
C  -1.74700 12.96400 26.05800
C  -1.67500 13.21500 27.42900
C  -1.80900 14.67600 27.61600
C  -1.80500 11.67900 25.30000
C  -1.63300 12.59700 28.73500
O  -1.55600 11.36800 29.01400
C  -1.78800 13.76000 29.76100
C  -0.67200 13.68600 30.77800
O  0.34500 14.28000 30.51000
O  -0.98400 13.03400 31.98700
C  0.03400 12.92200 33.03300
H  -2.54200 20.56400 29.43400
H  -2.26700 20.12200 22.80000
H  -2.01700 13.84000 23.34300
H  -3.07000 16.21200 31.44800
H  -2.39600 18.91200 31.22900
H  -5.13000 18.86200 30.32200
H  -4.47600 19.32800 31.77700
H  -4.98400 17.73500 31.68700
H  -0.22400 16.78000 31.09600
H  -1.07100 15.74400 32.20500
H  -1.94100 18.12500 33.16100
H  -0.22700 18.28200 32.67100
H  -3.10200 22.45600 28.56100
H  -3.72800 23.23800 27.21000
H  -1.98200 23.49000 27.47500
H  -2.97500 24.56200 23.69500
H  -2.15700 24.24900 25.37300
H  -3.87800 24.17900 25.02700
H  -1.26000 18.02300 21.53400
H  -3.25900 15.76800 21.81100
H  -3.59700 17.50200 20.31800
H  -2.90900 19.11100 20.49200
H  -4.22000 18.59900 21.61100
H  -1.57500 15.68200 20.14900
H  -1.85700 14.32100 21.00900
H  0.35400 16.22600 21.95200
H  0.58200 15.53800 20.35600
H  0.49300 14.44400 21.79800
H  -1.01300 11.74300 24.55500
H  -2.81400 11.46900 24.94500
H  -1.37200 10.89100 25.91600
H  -2.69900 13.70500 30.35700
H  0.95000 13.38100 32.66100
H  0.33600 11.88600 33.18200
H  -0.37200 13.34400 33.95300
Mg 48.59400 34.53500 26.93800
C  46.49000 33.15200 29.42400
C  48.88700 37.38300 28.83800
C  50.11400 36.06100 24.29000
C  47.90700 31.80800 24.91600
N  47.78900 35.25400 28.86400
C  47.08900 34.42300 29.77100
C  47.22800 34.90700 31.19100
C  47.50000 36.40100 30.99700
C  48.14600 36.37500 29.46700
C  46.22500 37.33400 31.16600
C  48.41200 34.19400 31.97800
C  48.40200 34.33800 33.51600
H  47.33700 35.26100 34.19300
N  49.42000 36.47900 26.60400
C  49.51600 37.48300 27.58100
C  50.13000 38.63000 26.99700
C  50.39400 38.31300 25.60100
C  49.91000 36.93100 25.40500
C  50.53600 39.81800 27.75200
C  51.10800 39.13900 24.49200
O  51.38500 38.59100 23.36200
C  51.54400 40.56000 24.70000
N  48.95400 33.99600 24.97100
C  49.66900 34.77100 24.12000
C  49.67700 34.07500 22.70700
C  49.41300 32.58100 23.01300
C  48.76600 32.76400 24.42000
C  48.82100 34.85900 21.74500
C  50.53100 31.54100 23.11900
C  51.67400 31.86300 24.14100
N  47.52400 32.78700 27.11900
C  47.33600 31.78400 26.17900
C  46.54100 30.74400 26.77600
C  46.11700 31.27400 27.95000
C  46.78600 32.45300 28.15800
C  46.26600 29.40800 26.20300
C  45.37900 30.98400 29.19800
O  44.76000 30.05700 29.59500
C  45.47700 32.25300 30.11100
C  45.72900 31.86000 31.49000
O  46.68900 31.26100 31.97000
O  44.70200 32.29400 32.25900
C  44.78800 31.84700 33.66300
H  48.86200 38.32400 29.39100
H  50.60500 36.44300 23.39300
H  47.74600 30.95100 24.25800
H  46.28700 34.69300 31.69800
H  48.29800 36.87400 31.56800
H  45.40200 36.83500 31.67700
H  45.85000 37.57500 30.17100
H  46.54800 38.20400 31.73800
H  49.34000 34.68800 31.69200
H  48.49700 33.14200 31.70300
H  49.37400 34.71800 33.82900
H  48.38400 33.38900 34.05100
H  51.32800 39.40300 28.37400
H  49.70200 39.94300 28.44300
H  50.66400 40.76400 27.22500
H  52.47300 40.57700 25.26900
H  50.77000 41.16000 25.17800
H  51.57300 41.02100 23.71200
H  50.68700 34.24100 22.33200
H  48.58900 32.14100 22.45200
H  48.13200 35.43000 22.36800
H  48.32800 34.16300 21.06600
H  49.44500 35.55300 21.18200
H  50.89200 31.42000 22.09800
H  50.10900 30.60300 23.48200
H  51.41500 31.43500 25.11000
H  51.69500 32.95100 24.20600
H  52.66300 31.55400 23.80600
H  45.42800 28.96400 26.74200
H  47.06600 28.69700 26.41000
H  45.96900 29.46700 25.15600
H  44.58200 32.86700 30.01000
H  45.78300 32.01000 34.07900
H  44.69700 30.76100 33.67500
H  43.95100 32.36300 34.13300

