158

Mg 9.25500 4.12100 27.94400
C  10.28400 2.45100 30.89400
C  7.46300 6.29700 29.91600
C  8.06500 5.34800 25.20300
C  11.16100 1.75600 26.09900
N  8.75400 4.19300 30.09700
C  9.41100 3.51400 31.15700
C  9.00700 4.08000 32.58800
C  8.06000 5.26800 32.17100
C  8.06500 5.27000 30.61300
C  6.60000 5.35200 32.76700
C  10.29700 4.38300 33.38500
C  10.12800 5.26500 34.63400
H  10.70600 4.78600 35.93700
N  8.04100 5.70700 27.57400
C  7.34800 6.49700 28.47800
C  6.42600 7.38900 27.83700
C  6.66200 7.16000 26.43100
C  7.62200 6.02100 26.32400
C  5.37300 8.29000 28.56400
C  6.13200 7.89600 25.28100
O  6.23800 7.62700 24.08900
C  5.39900 9.19700 25.63100
N  9.56500 3.54700 25.97600
C  8.94400 4.32400 25.08600
C  9.29600 3.82300 23.66000
C  10.53300 2.84500 23.90400
C  10.43700 2.71100 25.39300
C  8.05600 3.09800 23.03500
C  11.86400 3.54000 23.51000
C  12.84200 2.60600 22.79100
N  10.41100 2.36500 28.35700
C  11.08900 1.51200 27.45700
C  11.61600 0.47000 28.23300
C  11.42100 0.83100 29.55000
C  10.67400 1.98400 29.63100
C  12.34800 -0.68700 27.59200
C  11.80800 0.47400 30.88700
O  12.47000 -0.47200 31.29000
C  11.07500 1.55100 31.81500
C  10.22100 0.90100 32.81000
O  9.08600 0.46400 32.62500
O  10.91700 0.77800 33.99200
C  10.31000 -0.05300 34.98300
H  6.97200 7.11200 30.45200
H  7.66500 5.77000 24.27900
H  11.71500 0.97700 25.57300
H  8.44400 3.23400 32.98500
H  8.43900 6.23800 32.49300
H  6.21500 4.34100 32.63400
H  5.97400 6.16600 32.40300
H  6.59200 5.37700 33.85600
H  10.82900 4.98300 32.64600
H  10.76400 3.43900 33.66500
H  9.08300 5.53700 34.77900
H  10.65700 6.19800 34.44000
H  5.40500 7.93500 29.59400
H  4.39700 8.08600 28.12200
H  5.54100 9.36500 28.51300
H  4.37200 8.96200 25.91100
H  5.45600 9.78300 24.71400
H  5.88500 9.62000 26.51000
H  9.61700 4.62700 22.99900
H  10.41600 1.86800 23.43500
H  7.16200 3.15300 23.65600
H  8.38300 2.08200 22.81300
H  7.79000 3.56900 22.08900
H  12.47700 4.00100 24.28500
H  11.59300 4.35700 22.84100
H  13.54600 2.45100 23.60900
H  13.40500 2.99200 21.94100
H  12.37700 1.69500 22.41500
H  12.22100 -1.50600 28.29900
H  13.43300 -0.61600 27.66300
H  11.87100 -0.87100 26.62900
H  11.87100 2.10600 32.31200
H  9.74300 0.64000 35.60600
H  11.09100 -0.49600 35.60000
H  9.68200 -0.87800 34.64700
Mg 16.93400 53.48200 26.97600
C  19.04800 51.78200 29.33900
C  14.85400 54.14200 29.40800
C  14.85300 54.96800 24.62200
C  19.12200 52.46000 24.36000
N  16.86500 52.85400 29.02600
C  17.81400 52.28400 29.76600
C  17.38100 52.16600 31.20900
C  15.89700 52.54900 31.17100
C  15.84700 53.24100 29.79700
C  14.85000 51.40100 31.20500
C  18.29700 53.17700 32.08500
C  18.25800 53.10100 33.58800
H  17.23400 52.14200 34.17600
N  15.21000 54.55200 27.05600
C  14.50800 54.73500 28.19600
C  13.44800 55.66000 27.94900
C  13.38400 55.87000 26.53000
C  14.58800 55.14800 26.01000
C  12.47100 56.21200 29.03700
C  12.56200 56.72100 25.66300
O  12.70000 56.85000 24.51500
C  11.56500 57.59800 26.26600
N  16.96800 53.71900 24.79600
C  15.99500 54.37100 24.04700
C  16.24700 54.25300 22.52800
C  17.77900 53.73400 22.53700
C  17.98600 53.25500 23.96800
C  15.13900 53.33800 21.89400
C  18.88200 54.63600 21.78700
C  20.19400 54.91100 22.57800
N  18.79500 52.33500 26.74500
C  19.53700 52.05400 25.64100
C  20.78000 51.35700 26.19300
C  20.61400 51.26900 27.58500
C  19.38900 51.84500 27.93300
C  21.84900 50.78300 25.35500
C  21.24500 50.69700 28.84500
O  22.34400 50.22300 29.10800
C  20.28600 51.15800 30.00300
C  19.81000 50.02400 30.83300
O  19.09000 49.15300 30.33900
O  20.23700 50.04900 32.11900
C  19.85700 48.93200 32.99200
H  14.14400 54.33600 30.21400
H  14.12800 55.34400 23.89700
H  19.83200 52.04800 23.64100
H  17.45700 51.10900 31.46700
H  15.71500 53.25500 31.98100
H  14.72800 50.91500 32.17300
H  15.21200 50.69600 30.45600
H  13.84900 51.75800 30.96400
H  18.07900 54.19400 31.75700
H  19.34600 52.98200 31.86200
H  18.00500 54.14800 33.75300
H  19.25900 52.98300 34.00300
H  12.88200 55.98200 30.02100
H  11.51900 55.73000 28.81500
H  12.25900 57.27800 28.96100
H  12.17900 58.40700 26.66200
H  10.97600 57.09600 27.03300
H  10.91700 58.02300 25.50000
H  16.21600 55.22400 22.03300
H  17.79800 52.80000 21.97600
H  15.55200 52.46500 21.38800
H  14.62800 53.89600 21.10900
H  14.30500 52.96100 22.48600
H  18.36600 55.46000 21.29500
H  18.97700 53.97700 20.92400
H  19.99400 55.12700 23.62700
H  20.84400 55.68300 22.16400
H  20.80400 54.01500 22.46900
H  22.44100 49.96800 25.77000
H  22.47400 51.57300 24.93900
H  21.31000 50.35300 24.51100
H  20.73300 51.92900 30.63100
H  20.43100 48.85500 33.91600
H  20.05800 48.00600 32.45300
H  18.80000 48.93600 33.25700

