158

Mg 7.89200 3.22100 27.83200
C  9.73400 1.76000 30.54400
C  6.01500 4.64600 30.18000
C  6.22900 4.37900 25.33500
C  9.51000 0.97100 25.71200
N  7.87500 3.20000 30.11700
C  8.86000 2.71600 30.93600
C  8.64700 3.09500 32.44100
C  7.25600 3.87900 32.25900
C  6.98000 3.92200 30.74500
C  6.08600 3.12900 32.98900
C  9.79700 3.95100 33.09300
C  9.47200 4.79400 34.33800
H  10.43900 4.58300 35.47400
N  6.27100 4.30200 27.79100
C  5.62200 4.83100 28.86700
C  4.61300 5.68600 28.35300
C  4.75600 5.74700 26.92800
C  5.82100 4.79200 26.60100
C  3.48600 6.32200 29.27000
C  3.98400 6.56100 25.90300
O  3.97200 6.36500 24.67000
C  3.07200 7.64200 26.33700
N  7.64900 2.50000 25.76800
C  7.00800 3.30200 24.94200
C  7.19300 2.88300 23.48200
C  8.32500 1.80500 23.60000
C  8.48900 1.68200 25.13700
C  5.91700 2.44800 22.70800
C  9.69000 2.26400 23.06800
C  10.39600 1.09900 22.41300
N  9.37900 1.70700 27.99900
C  9.98100 0.97800 27.01500
C  10.97700 0.12300 27.65900
C  10.93900 0.43700 28.99700
C  9.97300 1.44700 29.15400
C  11.75800 -0.92100 26.90200
C  11.64800 0.17500 30.22200
O  12.66700 -0.41700 30.41200
C  10.91700 1.05700 31.31700
C  10.44000 0.17800 32.38900
O  9.64200 -0.70200 32.32000
O  11.13100 0.48300 33.59600
C  10.80400 -0.30600 34.77500
H  5.49100 5.28600 30.89400
H  5.68200 4.88700 24.53800
H  10.03700 0.44300 24.91400
H  8.57900 2.10500 32.89100
H  7.29900 4.90700 32.62000
H  6.59400 2.42600 33.64900
H  5.49300 2.58500 32.25300
H  5.51000 3.82900 33.59400
H  10.11900 4.62300 32.29700
H  10.60400 3.26000 33.33700
H  8.50100 4.46700 34.71100
H  9.27500 5.80900 33.99300
H  3.62900 5.93700 30.28000
H  2.49000 6.07900 28.89900
H  3.64100 7.39600 29.17000
H  2.91600 8.31800 25.49600
H  3.54600 8.25000 27.10700
H  2.13200 7.24200 26.71800
H  7.60100 3.80500 23.06600
H  7.99200 0.87000 23.15100
H  4.98000 2.49200 23.26400
H  5.85100 1.38900 22.46100
H  5.87800 2.89700 21.71500
H  10.24600 2.67100 23.91400
H  9.50300 3.09700 22.39100
H  10.69900 1.47000 21.43400
H  9.75000 0.23300 22.27000
H  11.25800 0.80800 23.01300
H  12.62500 -1.20300 27.49800
H  12.23300 -0.48400 26.02400
H  11.12800 -1.79800 26.75200
H  11.59700 1.82600 31.68300
H  10.39200 0.39300 35.50200
H  11.70500 -0.70100 35.24600
H  10.10900 -1.12000 34.57200
Mg 36.25300 49.24200 24.25700
C  36.77600 47.65400 27.33700
C  35.02300 51.95400 25.74700
C  35.60700 50.61100 21.31100
C  37.48900 46.23600 22.62300
N  36.01700 49.70300 26.30700
C  36.28100 48.94900 27.42500
C  36.00500 49.69200 28.74500
C  35.42400 51.11800 28.20600
C  35.45900 50.89800 26.65500
C  33.97700 51.48300 28.73000
C  37.27000 49.83500 29.72100
C  37.04500 49.67700 31.20800
H  35.55300 49.64200 31.70000
N  35.40800 51.04600 23.61700
C  35.02000 52.07000 24.41300
C  34.64900 53.23100 23.60200
C  34.77200 52.81700 22.27100
C  35.28500 51.49400 22.34300
C  34.10100 54.61700 24.18700
C  34.45400 53.52100 20.96300
O  34.85900 53.11500 19.93900
C  33.73100 54.84300 21.02100
N  36.35300 48.44500 22.24000
C  36.05600 49.25100 21.21300
C  36.47400 48.65300 19.87300
C  37.16600 47.27100 20.28500
C  36.95400 47.28100 21.81600
C  35.31800 48.45200 18.89500
C  38.63500 47.05300 19.83300
C  39.69400 47.91800 20.52200
N  36.96400 47.34600 24.79000
C  37.43800 46.25200 24.01900
C  37.97800 45.25600 24.92000
C  37.72200 45.83100 26.20600
C  37.15600 47.06400 26.07200
C  38.60900 43.98200 24.71500
C  37.95800 45.56700 27.67600
O  38.63400 44.71800 28.24900
C  37.30100 46.71700 28.44000
C  36.28000 46.08000 29.29700
O  35.11500 45.76200 29.00000
O  36.80300 45.86900 30.57700
C  35.80100 45.27000 31.51800
H  34.55300 52.78100 26.28300
H  35.53300 51.12900 20.35200
H  38.04000 45.44200 22.11400
H  35.16600 49.20900 29.24600
H  36.00900 52.02200 28.37600
H  34.16000 52.43900 29.22200
H  33.60800 50.76500 29.46200
H  33.23000 51.66700 27.95700
H  37.71100 50.79800 29.46400
H  38.06200 49.12300 29.49100
H  37.65700 50.46400 31.64800
H  37.52900 48.75700 31.53600
H  34.41500 54.59800 25.23100
H  33.02100 54.76000 24.16000
H  34.52800 55.48600 23.68600
H  34.44200 55.61900 21.30500
H  32.97400 54.66200 21.78400
H  33.20100 55.04100 20.08900
H  37.16500 49.34500 19.39100
H  36.59800 46.46200 19.82500
H  34.35900 48.60700 19.38900
H  35.38500 47.46400 18.43900
H  35.36800 49.23200 18.13500
H  38.70500 47.18400 18.75300
H  38.83700 45.98200 19.86000
H  39.43200 48.37100 21.47900
H  40.14700 48.56400 19.77000
H  40.54700 47.27000 20.72600
H  38.20900 43.64600 23.75800
H  38.34200 43.16500 25.38600
H  39.68900 43.98700 24.86200
H  38.00900 47.18800 29.12200
H  35.86400 44.18700 31.41000
H  34.81000 45.70800 31.63900
H  36.31300 45.60100 32.42200

