158

Mg 48.33700 35.36700 28.27900
C  46.79200 33.51600 30.79700
C  48.58300 38.00900 30.50200
C  49.95400 37.18200 25.79500
C  47.73300 32.80400 26.12900
N  47.93000 35.63700 30.50000
C  47.33300 34.73000 31.29100
C  47.52100 35.15400 32.70600
C  47.51800 36.70900 32.50000
C  47.99000 36.82200 31.04700
C  46.13000 37.33900 32.65200
C  48.80400 34.67900 33.34700
C  48.76000 34.59800 34.81100
H  47.70300 35.47100 35.57500
N  49.07700 37.32600 28.14200
C  49.09900 38.22400 29.18800
C  49.72900 39.46700 28.73600
C  50.18300 39.28700 27.35300
C  49.79800 37.82700 27.04400
C  49.65100 40.64500 29.68000
C  50.91400 40.25900 26.40100
O  51.30800 39.93100 25.26500
C  51.38200 41.60000 26.90700
N  48.71500 35.05200 26.28000
C  49.37600 35.90700 25.47100
C  49.49200 35.39500 24.02200
C  48.98300 33.91700 24.26100
C  48.52100 33.85200 25.68400
C  48.64000 36.15200 22.94800
C  50.00400 32.85500 23.99200
C  49.87500 32.19100 22.55800
N  47.36300 33.52600 28.37900
C  47.14500 32.63100 27.39000
C  46.41700 31.46600 27.86100
C  46.25400 31.79500 29.25100
C  46.78000 33.02100 29.47900
C  46.02000 30.29500 27.09800
C  45.68800 31.33700 30.56800
O  45.15000 30.23800 30.89500
C  45.87800 32.51700 31.57700
C  46.43700 31.94000 32.77200
O  47.54500 31.45600 32.85900
O  45.51900 32.11900 33.76500
C  45.95800 31.83700 35.17800
H  48.60500 38.80300 31.25100
H  50.41700 37.63800 24.91700
H  47.57400 31.97700 25.43300
H  46.60400 34.79000 33.16800
H  48.21000 37.15400 33.21600
H  45.47000 36.82600 33.35100
H  45.71400 37.47800 31.65400
H  46.24200 38.35100 33.04100
H  49.58200 35.39300 33.07600
H  49.16200 33.79900 32.81100
H  49.80500 34.72200 35.09600
H  48.57500 33.53500 34.96600
H  50.59400 40.68500 30.22500
H  48.75200 40.75700 30.28700
H  49.67700 41.52700 29.04000
H  52.27300 41.89000 26.35100
H  51.64200 41.65000 27.96400
H  50.56800 42.30500 26.74000
H  50.54700 35.40700 23.74800
H  48.09200 33.85600 23.63500
H  48.72000 37.23300 23.05400
H  47.60200 35.83200 23.04200
H  49.04600 35.83000 21.98900
H  50.03000 32.09800 24.77700
H  50.96900 33.35500 23.91400
H  49.36400 32.92200 21.93200
H  49.24700 31.30400 22.64000
H  50.85100 31.96000 22.13100
H  45.44700 29.61500 27.72700
H  46.93700 29.83800 26.72600
H  45.42000 30.70400 26.28500
H  44.87300 32.92300 31.69500
H  46.43800 32.75800 35.51000
H  46.60500 30.96800 35.29900
H  45.08700 31.68800 35.81500
Mg 42.73700 41.39000 26.44800
C  41.60300 43.71300 28.92000
C  43.68800 39.29300 29.02800
C  43.81800 39.30500 24.09800
C  41.95500 43.77900 23.96300
N  42.69600 41.53200 28.76900
C  42.12600 42.53900 29.52900
C  42.13200 42.09500 30.98300
C  42.90200 40.74500 31.01900
C  43.14600 40.47600 29.50100
C  44.24800 40.70300 31.84100
C  40.81000 42.06000 31.77100
C  40.64200 43.08900 32.96500
H  40.23300 42.56400 34.35400
N  43.59000 39.56700 26.56400
C  43.93400 38.85000 27.69300
C  44.65600 37.71000 27.31800
C  44.62400 37.64500 25.94400
C  44.01000 38.89100 25.46300
C  45.30800 36.78600 28.27500
C  44.93100 36.43900 25.04300
O  44.87500 36.42700 23.80800
C  45.36800 35.20400 25.59000
N  42.85700 41.51000 24.38100
C  43.30100 40.49300 23.63000
C  43.07600 40.74600 22.06500
C  42.53500 42.22100 22.09700
C  42.47700 42.55100 23.57200
C  44.32100 40.52800 21.19500
C  41.09800 42.34900 21.46100
C  41.07400 42.71600 19.99000
N  42.00400 43.32900 26.36500
C  41.69000 44.13700 25.30800
C  41.19700 45.42200 25.85200
C  41.16400 45.20300 27.20100
C  41.63600 43.91200 27.52200
C  40.85200 46.71100 24.99500
C  40.76900 45.79400 28.46400
O  40.29300 46.91300 28.68000
C  41.02300 44.87300 29.54400
C  42.11700 45.45700 30.44500
O  43.27200 45.69600 30.16200
O  41.47800 45.81400 31.64500
C  42.42200 46.23800 32.75400
H  43.92800 38.58200 29.82100
H  44.19800 38.70700 23.26700
H  41.71600 44.52100 23.19800
H  42.77600 42.76200 31.55500
H  42.22500 39.99700 31.43000
H  45.10600 40.81400 31.17900
H  44.41600 39.85500 32.50400
H  44.44600 41.61400 32.40600
H  40.59100 41.07400 32.17900
H  39.98900 42.31600 31.10100
H  39.73600 43.63000 32.69200
H  41.51700 43.73900 32.99700
H  45.49400 37.32000 29.20700
H  46.24900 36.35700 27.93100
H  44.64400 35.96700 28.55100
H  45.55900 34.43300 24.84500
H  44.59300 34.90500 26.29600
H  46.34700 35.31000 26.05800
H  42.30800 40.07900 21.67300
H  43.25000 42.84400 21.56000
H  45.18700 40.86000 21.76800
H  44.13600 41.15300 20.32200
H  44.54600 39.51100 20.87200
H  40.50600 43.08700 22.00000
H  40.58700 41.40600 21.65400
H  40.21700 43.33800 19.73300
H  40.96300 41.80600 19.40000
H  41.96500 43.30200 19.76700
H  40.15600 46.43300 24.20400
H  41.74800 47.15400 24.56000
H  40.34600 47.44400 25.62300
H  40.12900 44.57400 30.09100
H  42.01500 45.97800 33.73100
H  42.40600 47.32800 32.77500
H  43.41800 45.80000 32.81700

