158

Mg 26.56600 0.56500 28.75400
C  28.34100 -0.02000 31.73700
C  23.61000 0.17500 30.59300
C  24.91600 0.97100 25.94300
C  29.65100 0.12000 27.04400
N  26.11700 0.23800 30.90100
C  26.96000 0.18000 31.91700
C  26.21200 0.22800 33.24800
C  24.71700 0.14300 32.90200
C  24.76400 0.06500 31.35600
C  23.91000 -1.08100 33.53000
C  26.56000 1.53500 34.08900
C  26.57600 1.18900 35.62700
H  27.17300 2.12600 36.58600
N  24.50900 0.62700 28.28700
C  23.51600 0.48700 29.19900
C  22.20000 0.79000 28.48800
C  22.56200 0.98200 27.16900
C  24.00800 0.87500 27.05000
C  20.82300 0.76200 29.24600
C  21.68600 1.08400 25.94100
O  22.12800 0.95100 24.83100
C  20.16300 1.29300 26.06100
N  27.23400 0.37200 26.72700
C  26.35300 0.77000 25.73000
C  27.10200 0.99700 24.33600
C  28.64100 0.96100 24.85700
C  28.54800 0.46400 26.30800
C  26.68900 0.10600 23.15800
C  29.25500 2.38000 24.77300
C  29.68600 2.72300 23.35100
N  28.57000 0.09800 29.20900
C  29.70200 0.00800 28.44600
C  30.85500 -0.13800 29.23000
C  30.32700 -0.10600 30.51500
C  28.92300 -0.05800 30.43900
C  32.22600 -0.37700 28.79300
C  30.73600 -0.16200 31.87600
O  31.84200 -0.23100 32.32000
C  29.42600 -0.09500 32.78500
C  29.16300 -1.33700 33.64900
O  28.53600 -2.33700 33.32700
O  29.64400 -1.04100 34.88000
C  29.38500 -2.06200 35.92400
H  22.70800 0.17000 31.20700
H  24.39400 1.07800 24.99000
H  30.59600 0.27900 26.52000
H  26.70600 -0.53900 33.84500
H  24.12400 1.02000 33.16000
H  23.07600 -0.74100 34.14300
H  24.56000 -1.63400 34.20800
H  23.46900 -1.71300 32.76000
H  25.76400 2.24000 33.84800
H  27.49900 1.93900 33.70900
H  26.77600 0.15100 35.89000
H  25.53900 1.30400 35.94200
H  20.48700 1.79600 29.32400
H  20.85400 0.32900 30.24600
H  19.99200 0.18400 28.84200
H  19.83100 1.69600 25.10400
H  20.02500 2.03100 26.85200
H  19.79200 0.29100 26.27600
H  26.69800 1.93400 23.95200
H  29.19200 0.20100 24.30300
H  26.09100 0.75900 22.52300
H  26.02800 -0.72700 23.39700
H  27.48800 -0.25700 22.51100
H  30.16600 2.38500 25.37200
H  28.60800 3.16200 25.17000
H  29.12200 3.61000 23.06200
H  29.41100 1.92700 22.65900
H  30.75300 2.86300 23.17800
H  32.80000 0.30300 29.42300
H  32.41500 -0.16200 27.74100
H  32.58000 -1.38700 28.99900
H  29.58700 0.76000 33.44200
H  30.08000 -1.98600 36.76000
H  29.55400 -3.05800 35.51400
H  28.34900 -2.02700 36.26200
Mg 16.89500 52.30700 26.10300
C  18.89500 51.03000 28.62700
C  14.55200 53.12300 28.32700
C  14.91600 53.33300 23.50400
C  19.05800 50.94500 23.74900
N  16.80300 52.06000 28.25600
C  17.74500 51.62000 29.13300
C  17.37000 51.92000 30.59700
C  15.88200 52.37200 30.50300
C  15.67900 52.44100 28.93200
C  14.87300 51.25800 30.99100
C  18.31700 52.96500 31.21300
C  18.39800 53.05400 32.77300
H  17.48700 52.11700 33.65400
N  15.06000 53.13300 25.97800
C  14.30100 53.45000 27.03200
C  13.17900 54.27200 26.58100
C  13.22600 54.30600 25.16700
C  14.47800 53.61200 24.84100
C  12.21300 54.94200 27.55300
C  12.33500 54.98400 24.14800
O  12.57500 55.03500 22.94300
C  11.11000 55.67300 24.59600
N  16.90200 52.17300 23.81600
C  16.02200 52.69600 23.03000
C  16.35300 52.57300 21.53800
C  17.68800 51.78300 21.59100
C  17.97900 51.58000 23.13900
C  15.15300 51.88000 20.75600
C  18.88900 52.32300 20.78800
C  19.52800 53.61900 21.23700
N  18.59900 51.31700 26.16200
C  19.35100 50.73900 25.12900
C  20.44400 49.90200 25.64800
C  20.19900 49.98200 27.03500
C  19.17600 50.86900 27.28200
C  21.34800 49.00500 24.87600
C  20.79700 49.50600 28.32500
O  21.79400 48.84200 28.63600
C  19.91400 50.20300 29.46400
C  19.25600 49.20100 30.32900
O  18.36800 48.35100 30.08000
O  19.80000 49.31300 31.51300
C  19.11200 48.54400 32.56700
H  13.96500 53.55200 29.14200
H  14.33700 53.70100 22.65500
H  19.74600 50.45000 23.06000
H  17.51700 51.04600 31.23100
H  15.78100 53.27300 31.10800
H  14.04000 51.80300 31.43400
H  15.32000 50.68700 31.80600
H  14.61200 50.62800 30.14200
H  18.18500 53.94300 30.75000
H  19.28700 52.58500 30.89200
H  18.26200 54.11800 32.96600
H  19.44200 52.87400 33.03000
H  12.24800 56.02600 27.44000
H  12.45500 54.77600 28.60300
H  11.17400 54.70200 27.32600
H  10.42300 55.76600 23.75500
H  11.32800 56.71100 24.84700
H  10.48600 55.09600 25.27800
H  16.54400 53.54200 21.07600
H  17.50700 50.85900 21.04300
H  14.36700 51.87800 21.51100
H  15.37400 50.87300 20.40000
H  14.69900 52.54900 20.02500
H  18.58600 52.36100 19.74200
H  19.60900 51.50500 20.79900
H  19.88300 54.17000 20.36600
H  20.37600 53.39200 21.88300
H  18.72200 54.20200 21.68400
H  22.37200 49.15400 25.21800
H  21.38000 49.20400 23.80500
H  21.04000 47.97200 25.04300
H  20.49100 50.97900 29.96800
H  18.03100 48.47100 32.44700
H  19.44700 49.07100 33.46100
H  19.40100 47.49300 32.54200

