158

Mg 25.99200 50.62200 26.59000
C  24.09300 51.83500 29.26600
C  28.53500 49.81200 28.86500
C  28.14900 49.81400 24.00100
C  23.65100 51.77300 24.37900
N  26.27800 50.90300 28.80900
C  25.33000 51.28500 29.75200
C  25.76900 50.91200 31.20500
C  27.23200 50.51700 30.99400
C  27.37500 50.36300 29.47300
C  28.29700 51.28600 31.83800
C  24.81300 49.76300 31.73600
C  24.05900 50.15900 32.97400
H  24.39100 49.56500 34.28900
N  27.96900 49.81900 26.47600
C  28.84200 49.51000 27.51100
C  30.03800 48.87300 27.03100
C  29.88400 48.80400 25.64400
C  28.64100 49.51000 25.29900
C  31.16700 48.45400 27.93900
C  30.88200 48.17200 24.57500
O  30.62900 48.12600 23.37400
C  32.19900 47.58800 25.07600
N  25.98800 50.95400 24.46600
C  26.92700 50.40000 23.59400
C  26.43500 50.33200 22.15400
C  24.99700 50.94600 22.33700
C  24.83800 51.24400 23.83900
C  27.23100 51.23000 21.05100
C  23.85300 50.12000 21.66800
C  23.70800 50.28900 20.12700
N  24.31800 51.75200 26.76800
C  23.42800 52.07100 25.75600
C  22.24800 52.65400 26.36300
C  22.44300 52.55200 27.71700
C  23.70200 52.02900 27.91000
C  21.05100 53.16100 25.66700
C  21.79500 52.70300 29.04500
O  20.65600 53.01800 29.38100
C  22.88900 52.22400 30.10400
C  23.15500 53.40000 31.03500
O  23.90200 54.33000 30.79200
O  22.64500 53.17000 32.32000
C  22.98400 54.20400 33.36400
H  29.20200 49.62600 29.71000
H  28.74300 49.32900 23.22400
H  22.85200 52.01500 23.67500
H  25.64500 51.74100 31.90200
H  27.27900 49.49300 31.36400
H  28.93700 50.52300 32.27900
H  27.82500 51.94900 32.56300
H  28.99900 51.85600 31.23000
H  25.37000 48.83800 31.88400
H  24.12900 49.47500 30.93800
H  23.06600 49.76100 32.76500
H  23.99900 51.23400 33.14300
H  31.29600 47.37400 28.01300
H  30.97100 48.75700 28.96700
H  32.10400 48.89400 27.59500
H  32.88600 48.39800 25.32200
H  32.58900 46.99800 24.24600
H  31.99100 46.96900 25.94800
H  26.41900 49.26300 21.93900
H  24.97300 51.90800 21.82500
H  28.01800 51.73300 21.61200
H  26.54500 51.98600 20.66800
H  27.61200 50.63700 20.21900
H  22.88800 50.28800 22.14700
H  24.08300 49.05700 21.73500
H  24.72300 50.35000 19.73300
H  23.01800 51.09800 19.89000
H  23.37000 49.35000 19.69000
H  21.01300 52.72800 24.66800
H  21.07100 54.24900 25.60500
H  20.21200 52.79500 26.26000
H  22.51700 51.47500 30.80200
H  23.77300 54.91100 33.10800
H  23.38100 53.59800 34.17800
H  22.06400 54.66500 33.72100
Mg -1.70500 34.44800 26.73200
C  -3.19200 32.58700 29.10400
C  -0.33900 36.44800 29.16600
C  -0.60600 36.61300 24.26000
C  -3.67700 32.89900 24.34700
N  -1.61600 34.38300 28.82400
C  -2.24800 33.45400 29.63400
C  -1.95300 33.65200 31.17000
C  -1.00600 34.91700 31.17600
C  -0.92300 35.28800 29.64200
C  -1.49100 36.13700 32.02100
C  -1.23600 32.36200 31.74800
C  -1.85700 31.73700 32.96600
H  -1.06900 31.88400 34.27600
N  -0.49100 36.23000 26.69700
C  -0.09000 36.87700 27.83700
C  0.67400 38.00600 27.43300
C  0.78900 37.96500 25.96300
C  -0.11500 36.90700 25.54900
C  1.16200 39.05800 28.40800
C  1.58400 38.82100 25.05300
O  1.51700 38.71700 23.81400
C  2.46300 39.86300 25.60200
N  -2.12600 34.76600 24.63700
C  -1.56700 35.70500 23.87400
C  -2.10200 35.56400 22.39200
C  -2.88100 34.25500 22.45300
C  -2.97200 34.01900 23.91500
C  -2.95300 36.81600 21.97300
C  -2.36100 33.05900 21.66200
C  -1.27600 32.09500 22.28600
N  -3.11800 32.94900 26.56900
C  -3.85500 32.41700 25.64900
C  -4.62600 31.30800 26.08500
C  -4.44300 31.36800 27.46600
C  -3.51400 32.37000 27.74200
C  -5.52300 30.45700 25.36300
C  -4.76100 30.80900 28.73200
O  -5.46900 29.81700 28.97100
C  -4.04500 31.68700 29.86300
C  -5.07400 32.29000 30.73100
O  -5.97800 33.08500 30.37100
O  -5.02800 31.73300 32.01600
C  -6.13300 32.13100 32.81000
H  0.25100 36.95800 29.93000
H  -0.34600 37.29000 23.44400
H  -4.23200 32.36800 23.57100
H  -2.90800 33.91400 31.62600
H  -0.01500 34.57900 31.47900
H  -1.74000 36.99700 31.40100
H  -0.60000 36.43800 32.57300
H  -2.23700 35.78900 32.73600
H  -0.20700 32.61100 32.00800
H  -1.24700 31.72100 30.86600
H  -1.91200 30.66100 32.80000
H  -2.79900 32.27200 33.08400
H  0.86400 40.07100 28.13800
H  2.24000 39.21000 28.46200
H  0.84800 38.94100 29.44600
H  3.17900 40.13700 24.82700
H  2.99100 39.51500 26.49000
H  1.69700 40.61200 25.80500
H  -1.18700 35.41800 21.81900
H  -3.91900 34.36800 22.13800
H  -2.34800 37.49900 21.37600
H  -3.21300 37.43100 22.83400
H  -3.81000 36.48000 21.38900
H  -1.90200 33.28800 20.70000
H  -3.20900 32.38700 21.53000
H  -1.58800 31.13700 22.70200
H  -0.66200 32.67300 22.97600
H  -0.52600 31.96300 21.50700
H  -5.79200 29.49200 25.79400
H  -5.20400 30.14100 24.37000
H  -6.46300 30.99000 25.21600
H  -3.40300 30.98700 30.39700
H  -5.94000 32.74800 33.68800
H  -6.37400 31.14600 33.20900
H  -7.06300 32.41400 32.31600

