158

Mg 23.71700 -6.22600 47.35600
C  26.30800 -4.41800 46.00700
C  21.54500 -5.08300 44.90200
C  21.37700 -8.74600 48.12600
C  26.02700 -7.83000 49.34800
N  24.06500 -5.01800 45.50000
C  25.15400 -4.36500 45.18800
C  24.89700 -3.27700 44.15200
C  23.35800 -3.61700 43.68300
C  22.92100 -4.63600 44.79400
C  22.48000 -2.31300 43.49900
C  25.88800 -3.44100 43.01200
C  26.83800 -2.18800 42.75500
H  26.78100 -1.62500 41.28500
N  21.65400 -6.72400 46.72700
C  20.95900 -6.04700 45.73200
C  19.63500 -6.64200 45.62400
C  19.57500 -7.79000 46.49000
C  20.87900 -7.78900 47.18300
C  18.59700 -6.25000 44.56300
C  18.44100 -8.81000 46.41400
O  17.51400 -8.63600 45.56300
C  18.38700 -10.08100 47.34900
N  23.74100 -8.10100 48.54000
C  22.63000 -8.85900 48.78800
C  22.99000 -10.02300 49.59900
C  24.43600 -9.66000 50.17200
C  24.80300 -8.50700 49.25700
C  21.93400 -10.36300 50.70000
C  25.45100 -10.87000 50.03100
C  26.72700 -10.91000 50.90400
N  25.78300 -6.09900 47.69600
C  26.48400 -6.69100 48.64800
C  27.78700 -6.01600 48.72700
C  27.72000 -5.06400 47.68600
C  26.51400 -5.22600 47.08100
C  28.89100 -6.31800 49.75100
C  28.49400 -4.02900 47.13500
O  29.64100 -3.63100 47.36300
C  27.52800 -3.50100 45.92400
C  27.29500 -2.08400 46.24100
O  26.40200 -1.64300 46.97300
O  28.12700 -1.22100 45.55600
C  28.02800 0.17600 45.76600
H  20.86800 -4.59600 44.19600
H  20.63900 -9.49500 48.42200
H  26.65100 -8.17000 50.17700
H  24.97700 -2.29000 44.60700
H  23.40500 -4.15300 42.73500
H  23.08700 -1.43400 43.71700
H  21.77400 -2.33600 44.32800
H  22.13600 -2.25500 42.46600
H  25.28200 -3.39700 42.10700
H  26.46800 -4.36200 43.06400
H  27.91300 -2.35800 42.81700
H  26.56400 -1.33300 43.37200
H  18.95500 -5.34000 44.08100
H  17.58900 -6.27300 44.97600
H  18.65200 -7.01900 43.79200
H  17.44000 -10.57400 47.13000
H  18.46300 -9.67400 48.35800
H  19.15200 -10.82900 47.14000
H  23.09500 -10.79900 48.84100
H  24.73700 -9.32000 51.16300
H  21.07600 -9.69200 50.67300
H  22.45500 -10.25800 51.65200
H  21.50700 -11.36500 50.65400
H  25.71300 -11.08100 48.99400
H  24.86900 -11.73900 50.33900
H  26.72400 -11.79600 51.53900
H  27.04400 -9.99800 51.41000
H  27.45600 -10.98300 50.09700
H  29.01800 -7.36200 49.46300
H  28.52500 -6.22800 50.77400
H  29.83000 -5.77000 49.68000
H  28.02200 -3.66900 44.96700
H  27.98300 0.33700 46.84300
H  27.11900 0.64300 45.38800
H  28.88100 0.65200 45.28200
Mg 16.88000 -1.80000 28.12200
C  15.86800 0.32600 30.46300
C  19.23800 -3.14800 30.33100
C  18.14700 -3.75600 25.49400
C  15.34600 0.25300 25.66100
N  17.45100 -1.43900 30.16100
C  16.81000 -0.62100 30.99200
C  17.19800 -0.76200 32.47800
C  18.44700 -1.68500 32.38600
C  18.39800 -2.13500 30.88300
C  19.85200 -1.20800 32.84500
C  16.02300 -1.33800 33.30100
C  15.72800 -0.58100 34.69600
H  16.93800 -0.16500 35.52100
N  18.29700 -3.27300 28.00200
C  19.13100 -3.70100 29.03000
C  19.79400 -4.94500 28.59500
C  19.45500 -5.16200 27.22600
C  18.56400 -4.04900 26.84900
C  20.62500 -5.88300 29.50400
C  19.84100 -6.27300 26.24800
O  19.44900 -6.34000 25.06700
C  20.86200 -7.25900 26.71000
N  16.76800 -1.73400 25.94700
C  17.44500 -2.52700 25.08500
C  17.17800 -2.25700 23.63900
C  16.16900 -1.07400 23.72400
C  16.07200 -0.82600 25.24500
C  18.55700 -1.98500 22.88200
C  14.84800 -1.28700 22.93500
C  13.49800 -1.65800 23.68400
N  15.86800 0.05100 27.99700
C  15.24000 0.71900 26.99500
C  14.37300 1.80000 27.53100
C  14.55500 1.69400 28.92800
C  15.53500 0.67900 29.12500
C  13.51900 2.79100 26.80900
C  14.26300 2.26400 30.21400
O  13.58000 3.19900 30.56100
C  15.08800 1.36400 31.23400
C  15.90800 2.37500 31.89300
O  16.93700 2.84400 31.43500
O  15.44400 2.66200 33.13400
C  16.07500 3.79700 33.88500
H  20.04500 -3.57000 30.93400
H  18.48400 -4.27300 24.59300
H  14.90300 0.72700 24.78200
H  17.45600 0.19900 32.92400
H  18.31100 -2.53100 33.05900
H  19.82600 -0.30100 33.45000
H  20.52900 -1.03500 32.00900
H  20.25400 -1.98400 33.49600
H  16.16400 -2.39100 33.54400
H  15.14100 -1.07400 32.71800
H  15.03200 -1.19200 35.27000
H  15.21900 0.35800 34.47700
H  21.68900 -5.69300 29.36100
H  20.34200 -6.89100 29.19900
H  20.34200 -5.68400 30.53700
H  20.36800 -7.94200 27.40100
H  21.64300 -6.72900 27.25500
H  21.31900 -7.59100 25.77700
H  16.74200 -3.22300 23.38500
H  16.72000 -0.21000 23.35300
H  18.59600 -2.65200 22.02100
H  19.38100 -2.25000 23.54500
H  18.61200 -0.97400 22.47800
H  14.92100 -2.08700 22.19900
H  14.52000 -0.51500 22.23800
H  13.48700 -1.35400 24.73100
H  13.33200 -2.73500 23.71100
H  12.68800 -1.20200 23.11600
H  14.06100 3.72800 26.67500
H  12.71700 2.81900 27.54600
H  13.17200 2.36000 25.87000
H  14.37700 0.82700 31.86100
H  16.39100 4.56000 33.17400
H  16.87300 3.37700 34.49800
H  15.43800 4.34200 34.58200

