158

Mg 0.63400 7.75000 25.64600
C  1.58200 9.66200 28.45400
C  0.81800 4.91800 27.66200
C  0.20300 5.89400 22.95400
C  0.67900 10.61200 23.82300
N  1.24400 7.37800 27.84000
C  1.34500 8.33100 28.84700
C  1.34800 7.68500 30.25300
C  1.38100 6.19200 29.89500
C  1.16000 6.13400 28.38900
C  2.63000 5.41200 30.38200
C  0.02100 8.08500 31.04000
C  0.15400 8.17900 32.59800
H  1.42200 7.85700 33.24200
N  0.42300 5.67000 25.33600
C  0.55000 4.69500 26.31000
C  0.37400 3.35200 25.61900
C  0.15900 3.66500 24.22500
C  0.25700 5.11500 24.10600
C  0.47100 2.08700 26.35400
C  -0.20700 2.76000 23.04300
O  -0.42100 3.17200 21.88200
C  -0.38900 1.30600 23.32900
N  0.43100 8.17500 23.72500
C  0.25700 7.24500 22.75000
C  0.20400 7.89100 21.36900
C  -0.00700 9.39800 21.67600
C  0.32700 9.46000 23.19300
C  1.59900 7.65800 20.68100
C  -1.39200 9.99000 21.28800
C  -1.45400 11.30200 20.46300
N  1.27500 9.70500 25.98100
C  1.16500 10.76100 25.14700
C  1.52200 11.97300 25.83000
C  1.78600 11.63300 27.18900
C  1.53100 10.20300 27.22000
C  1.55900 13.45500 25.22600
C  2.03900 12.08700 28.49000
O  2.14800 13.17900 28.94700
C  1.82300 10.86100 29.38100
C  3.03900 10.77400 30.20400
O  3.90700 9.89800 30.16800
O  2.82200 11.71100 31.25000
C  3.50300 11.42800 32.49100
H  0.91200 3.99100 28.23100
H  0.12900 5.35900 22.00400
H  0.62500 11.56900 23.30000
H  2.22100 7.86900 30.88000
H  0.50200 5.66400 30.26400
H  2.19400 4.49200 30.77100
H  3.18000 5.96400 31.14400
H  3.20900 5.02000 29.54700
H  -0.76800 7.36100 30.83700
H  -0.28500 9.00300 30.53800
H  -0.58600 7.55400 33.09700
H  -0.11900 9.21500 32.79900
H  -0.27600 1.32200 26.14200
H  0.51900 2.20900 27.43600
H  1.38300 1.67200 25.92300
H  -1.13500 1.36500 24.12200
H  0.52600 0.78300 23.60600
H  -0.74800 0.84500 22.40800
H  -0.56600 7.44000 20.74300
H  0.68200 10.02300 21.10900
H  1.89700 8.39500 19.93500
H  1.61600 6.63400 20.30800
H  2.35000 7.78100 21.46100
H  -1.95900 10.19300 22.19700
H  -1.92000 9.12400 20.88900
H  -1.21900 11.10200 19.41700
H  -0.70700 12.04500 20.74200
H  -2.36900 11.89500 20.46600
H  2.53100 13.63800 24.76900
H  1.42600 14.14100 26.06400
H  0.78500 13.64300 24.48200
H  1.01400 11.03500 30.09100
H  3.92600 12.41500 32.67900
H  4.27300 10.65800 32.50800
H  2.74600 11.14600 33.22200
Mg 46.85200 46.48000 43.91000
C  43.51900 46.40200 43.04500
C  47.19100 43.35200 42.30600
C  50.08700 46.64700 44.43200
C  46.49500 49.96900 44.39200
N  45.60700 45.23500 42.68600
C  44.21400 45.26900 42.64000
C  43.67700 44.25700 41.62800
C  44.79100 43.19200 41.68800
C  46.00500 43.98800 42.22200
C  44.33600 41.93500 42.56100
C  43.34000 44.91400 40.20300
C  42.05500 44.48900 39.56400
H  42.22900 43.42200 38.50500
N  48.40900 45.12800 43.48200
C  48.40900 43.90600 42.78200
C  49.74100 43.35500 42.75600
C  50.61500 44.31600 43.31200
C  49.70500 45.41100 43.80900
C  50.08200 41.97100 42.02000
C  52.11100 44.17100 43.50700
O  52.66300 43.19000 43.10900
C  52.95100 45.37400 43.95000
N  48.08600 48.09400 44.27100
C  49.43900 47.87300 44.60200
C  50.12700 49.24300 45.05200
C  48.95800 50.28100 44.80200
C  47.73800 49.41000 44.45900
C  50.60500 49.27200 46.50200
C  49.25400 51.29700 43.66600
C  49.02800 50.90600 42.18600
N  45.24900 48.00500 43.92600
C  45.26900 49.36600 44.06800
C  43.89700 49.81400 44.05800
C  43.15400 48.68800 43.66500
C  44.01400 47.61900 43.56200
C  43.48900 51.24100 44.23200
C  41.88700 48.16900 43.26900
O  40.89600 48.76700 43.06600
C  42.01400 46.68900 42.95000
C  41.05800 45.88500 43.74600
O  40.03200 45.49400 43.29500
O  41.46000 45.76400 45.06400
C  40.57100 44.99200 45.93900
H  47.25400 42.37500 41.82300
H  51.08800 46.71800 44.86200
H  46.46600 51.04100 44.59500
H  42.71400 43.86600 41.95700
H  45.09900 42.75300 40.74000
H  44.43200 41.01100 41.99100
H  43.29900 41.94700 42.89700
H  44.88700 41.97900 43.50100
H  44.06500 44.56300 39.46800
H  43.43700 45.99600 40.28800
H  41.58800 45.32900 39.04900
H  41.32100 44.07200 40.25400
H  49.18500 41.44700 41.69000
H  50.62300 41.27100 42.65800
H  50.70400 42.28000 41.18000
H  52.75000 46.27100 43.36400
H  54.00300 45.09100 43.96900
H  52.65500 45.55700 44.98300
H  51.00100 49.48900 44.44900
H  48.67100 50.87100 45.67300
H  51.67500 49.47900 46.49700
H  50.42400 48.33600 47.03100
H  50.14300 50.06200 47.09400
H  50.15500 51.91000 43.69300
H  48.52100 52.09400 43.78400
H  47.97800 50.74600 41.94300
H  49.58600 49.99200 41.98400
H  49.41700 51.69200 41.53800
H  44.29900 51.96900 44.20500
H  42.88600 51.29200 45.13800
H  42.97400 51.41600 43.28700
H  41.67800 46.55000 41.92300
H  40.86400 45.34300 46.92800
H  40.77200 43.93000 46.07500
H  39.52500 45.06600 45.64400

