158

Mg 17.31200 -2.09700 27.61800
C  16.37400 -0.43000 30.50300
C  19.33500 -4.02700 29.54500
C  18.28500 -3.78500 24.73800
C  15.57800 0.22600 25.74900
N  17.85400 -2.14100 29.71900
C  17.25700 -1.44900 30.74000
C  17.69500 -1.96900 32.11900
C  18.90800 -2.90100 31.80000
C  18.76100 -3.05200 30.26500
C  20.37000 -2.63900 32.23200
C  16.54200 -2.64700 32.87300
C  16.42300 -2.16600 34.34900
H  17.74600 -1.93000 35.13900
N  18.65500 -3.64700 27.22000
C  19.26500 -4.33700 28.19800
C  19.99600 -5.43100 27.58200
C  19.67800 -5.48000 26.11800
C  18.85300 -4.24000 25.92700
C  20.78600 -6.45700 28.38500
C  20.16900 -6.44700 25.05100
O  19.81700 -6.32800 23.87500
C  21.30200 -7.47300 25.34000
N  16.98400 -1.89700 25.53100
C  17.41600 -2.72000 24.53400
C  17.00500 -2.17400 23.16100
C  15.88700 -1.04800 23.53200
C  16.24400 -0.83300 25.03300
C  18.20300 -1.77400 22.19800
C  14.37900 -1.24900 23.34400
C  13.90100 -0.84800 21.95200
N  16.13500 -0.52000 27.89400
C  15.49300 0.36400 27.08500
C  14.77000 1.41000 27.83700
C  15.13300 1.16400 29.19800
C  15.90900 -0.02000 29.18600
C  14.01200 2.56900 27.21100
C  15.07100 1.69800 30.48100
O  14.51600 2.73700 30.79000
C  15.64100 0.61200 31.43200
C  16.62300 1.32100 32.39800
O  17.80100 1.55300 32.18300
O  15.91800 1.70700 33.54700
C  16.68600 2.52100 34.45200
H  19.74700 -4.77200 30.23000
H  18.52700 -4.38500 23.85800
H  15.01100 0.96100 25.17400
H  18.06200 -1.08700 32.64400
H  18.65300 -3.85300 32.26500
H  20.39400 -1.58900 32.52600
H  21.06400 -2.68000 31.39200
H  20.72800 -3.16700 33.11500
H  16.65700 -3.72800 32.78600
H  15.66900 -2.32400 32.30600
H  16.04500 -3.00300 34.93500
H  15.69600 -1.36800 34.50200
H  21.03900 -6.16300 29.40400
H  21.67400 -6.95300 27.99500
H  20.05100 -7.25700 28.47200
H  21.59100 -8.04600 24.45900
H  21.02800 -8.18800 26.11600
H  22.22800 -6.98200 25.64000
H  16.48800 -3.00900 22.68700
H  16.10400 -0.09500 23.05000
H  19.16400 -1.77700 22.71200
H  18.12200 -0.88200 21.57700
H  18.19900 -2.57100 21.45400
H  13.75400 -1.02100 24.20700
H  14.21900 -2.32700 23.31100
H  12.83300 -1.01700 22.09200
H  14.26800 -1.54100 21.19500
H  13.96600 0.19600 21.64400
H  13.95700 3.47700 27.81100
H  13.00200 2.16400 27.13800
H  14.48900 2.79100 26.25600
H  14.85200 0.13800 32.01500
H  17.69900 2.24400 34.74300
H  16.09600 2.53600 35.36800
H  16.70400 3.55500 34.10800
Mg 40.96800 8.31000 29.69400
C  42.68700 9.87600 32.33300
C  38.85800 7.20400 32.04200
C  39.21800 6.81000 27.22600
C  43.51300 9.12800 27.54700
N  40.82800 8.42900 31.90500
C  41.59400 9.16500 32.76200
C  40.99800 9.15200 34.15600
C  39.95500 8.09600 34.10500
C  39.90100 7.89600 32.54400
C  40.15600 6.64800 34.84000
C  40.44100 10.57400 34.64800
C  39.76600 10.61500 36.04700
H  40.11900 11.65400 37.13600
N  39.26400 7.22600 29.60400
C  38.50900 6.89500 30.72300
C  37.37200 6.12600 30.30100
C  37.31600 6.20300 28.88100
C  38.64500 6.74100 28.48700
C  36.44100 5.42000 31.30600
C  36.33500 5.80000 27.89000
O  36.47100 6.05200 26.67300
C  35.14100 5.21100 28.31900
N  41.41700 7.79300 27.69800
C  40.48300 7.21000 26.88200
C  41.03500 7.20500 25.43500
C  42.43100 8.03200 25.53400
C  42.49700 8.27800 27.03600
C  41.07500 5.86300 24.68500
C  42.61600 9.24000 24.64400
C  42.04500 10.63200 25.12100
N  42.79700 9.24500 29.86500
C  43.68000 9.56400 28.91700
C  44.67000 10.41400 29.41600
C  44.29600 10.65700 30.77200
C  43.17700 9.87000 31.01100
C  45.79800 11.03300 28.66100
C  44.63200 11.33200 32.00500
O  45.59700 12.10600 32.24600
C  43.58800 10.87900 33.09500
C  44.29400 10.26200 34.21600
O  44.50500 9.03600 34.45200
O  44.57400 11.23000 35.15600
C  44.97200 10.72000 36.46900
H  38.18400 6.90300 32.84700
H  38.65100 6.28900 26.45200
H  44.16200 9.54600 26.77400
H  41.84900 8.81900 34.74900
H  38.99300 8.33200 34.55900
H  39.29800 6.44300 35.48000
H  41.01000 6.78900 35.50200
H  40.30300 5.82500 34.14000
H  39.82500 10.88500 33.80500
H  41.35200 11.15000 34.81300
H  39.85300 9.61700 36.47700
H  38.70700 10.81300 35.88000
H  35.57800 4.87400 30.92500
H  36.09600 6.08600 32.09700
H  37.08900 4.69300 31.79700
H  34.72600 6.01400 28.92900
H  35.30800 4.22700 28.75800
H  34.55600 5.01500 27.42100
H  40.37200 7.91700 24.94300
H  43.26600 7.36800 25.31200
H  41.09100 5.04900 25.40900
H  42.00300 5.80200 24.11500
H  40.19100 5.72300 24.06200
H  42.14900 8.88000 23.72800
H  43.69400 9.36400 24.53600
H  41.71100 10.65800 26.15800
H  41.13900 10.91400 24.58500
H  42.82100 11.39700 25.10100
H  45.47100 11.99000 28.25400
H  46.21200 10.43100 27.85200
H  46.55200 11.31000 29.39700
H  43.08500 11.81800 33.32300
H  44.56400 11.32500 37.27800
H  46.04500 10.60100 36.61800
H  44.73200 9.68000 36.69000

