158

Mg 54.44200 24.07600 44.50300
C  51.88100 26.26900 43.98700
C  52.53400 21.52600 43.32700
C  57.25000 21.96100 44.42100
C  56.57000 26.82100 45.46900
N  52.56700 23.94600 43.72700
C  51.64000 24.93100 43.51800
C  50.35500 24.49700 42.84900
C  50.45100 22.96500 43.11900
C  51.95200 22.77800 43.44600
C  49.53500 22.39500 44.24800
C  50.18200 24.81200 41.31900
C  48.68500 24.79600 40.76400
H  48.51500 24.15500 39.41600
N  54.82700 22.08800 43.90100
C  53.89900 21.19500 43.49100
C  54.48700 19.86500 43.33000
C  55.85100 20.06000 43.45300
C  56.06200 21.41100 43.88600
C  53.62400 18.58100 43.01700
C  56.91100 19.02300 43.29700
O  56.59200 17.85300 43.15200
C  58.37700 19.25800 43.35100
N  56.63000 24.39100 44.74600
C  57.50500 23.32100 44.83100
C  58.88600 23.85100 45.38800
C  58.66700 25.33800 45.66500
C  57.23200 25.59200 45.16900
C  59.38200 23.01500 46.60600
C  59.67900 26.40500 45.05100
C  60.46300 27.24700 46.07900
N  54.25300 26.14700 44.71000
C  55.17700 27.09600 45.22500
C  54.40900 28.29400 45.44300
C  53.12300 28.09900 44.97900
C  53.09600 26.75300 44.53600
C  54.99700 29.52000 46.14900
C  51.78600 28.67200 44.75200
O  51.29300 29.81100 44.95200
C  50.96500 27.50300 44.02600
C  50.66800 28.18400 42.72600
O  51.53800 28.59200 41.96400
O  49.35200 27.93100 42.36500
C  48.90900 28.54100 41.16900
H  51.79900 20.76000 43.07100
H  58.07900 21.27700 44.61400
H  57.18500 27.62300 45.88300
H  49.46900 24.71100 43.44700
H  50.30700 22.40100 42.19800
H  50.04200 22.34600 45.21200
H  49.21100 21.38800 43.98400
H  48.62100 22.99000 44.26700
H  50.65900 23.98900 40.78700
H  50.73200 25.71800 41.06700
H  48.31700 25.80500 40.57500
H  47.95000 24.34400 41.42900
H  53.71800 18.32100 41.96200
H  52.55500 18.71300 43.18400
H  53.89900 17.70200 43.60100
H  58.50200 20.06700 42.63200
H  58.85100 18.31700 43.07200
H  58.70100 19.52600 44.35700
H  59.52300 23.73300 44.51200
H  58.70300 25.47300 46.74600
H  58.57800 22.35000 46.92200
H  59.64600 23.65400 47.44900
H  60.28100 22.48300 46.29400
H  59.19400 27.10300 44.36900
H  60.52600 25.84500 44.65300
H  60.18500 26.94900 47.09000
H  60.31200 28.30100 45.84600
H  61.54600 27.30500 45.96700
H  54.41600 29.80400 47.02600
H  55.15500 30.39400 45.51700
H  55.98200 29.26500 46.54200
H  50.02500 27.31100 44.54200
H  48.79300 29.59900 41.40700
H  47.90000 28.17800 40.97200
H  49.57100 28.29200 40.34000
Mg 49.26900 44.76600 43.07800
C  45.92900 45.57000 42.11700
C  48.89200 41.64000 41.75100
C  52.61500 44.43700 43.37800
C  49.52400 48.19500 44.03000
N  47.62700 43.86900 41.92300
C  46.38500 44.36400 41.64100
C  45.51400 43.36900 40.79500
C  46.45000 42.05900 40.77100
C  47.73800 42.49000 41.60400
C  45.85800 40.77400 41.43100
C  45.17000 44.03800 39.41200
C  43.71600 43.73100 39.01000
H  43.55700 42.69700 37.85200
N  50.61100 43.19800 42.65700
C  50.21300 41.98000 42.14500
C  51.40400 41.16400 42.00900
C  52.50800 41.96000 42.39500
C  51.96800 43.26900 42.85800
C  51.40500 39.66000 41.69000
C  53.99900 41.65300 42.33500
O  54.37700 40.57900 41.83000
C  55.15000 42.54300 42.92300
N  50.79900 46.04300 43.75300
C  52.14700 45.69600 43.71200
C  53.11700 46.84000 44.15700
C  52.11900 47.89200 44.55500
C  50.71800 47.37500 44.05500
C  54.27900 46.41700 45.05000
C  52.34800 49.35700 44.09800
C  52.11300 50.54200 45.03700
N  48.06400 46.51000 43.23600
C  48.26200 47.82900 43.61200
C  47.11300 48.64600 43.45200
C  46.14700 47.78100 42.95300
C  46.75200 46.49700 42.83200
C  46.85900 50.06300 43.92000
C  44.77800 47.71700 42.55500
O  43.92500 48.55200 42.70600
C  44.58200 46.26100 42.01900
C  43.40400 45.56100 42.64400
O  43.41400 44.87900 43.66800
O  42.33600 45.92700 41.90500
C  41.10400 45.32600 42.39700
H  48.70000 40.64800 41.33700
H  53.70700 44.40800 43.40800
H  49.59400 49.26400 44.24600
H  44.59300 43.10300 41.31400
H  46.62400 41.83800 39.71800
H  45.46500 40.04800 40.71900
H  45.05800 41.11700 42.08700
H  46.45300 40.27400 42.19500
H  45.81900 43.52100 38.70500
H  45.48900 45.08000 39.40400
H  43.24400 44.64300 38.64500
H  43.05600 43.50100 39.84700
H  51.72000 39.40100 40.67900
H  50.34100 39.42700 41.64800
H  51.93000 39.12700 42.48200
H  54.95900 42.90700 43.93300
H  55.46700 43.35000 42.26300
H  56.03100 41.93000 43.11300
H  53.51400 47.14900 43.19000
H  52.23900 47.96600 45.63600
H  54.35400 45.33000 45.07900
H  54.16500 46.72000 46.09100
H  55.18900 46.79900 44.58700
H  51.74300 49.49500 43.20200
H  53.41500 49.29500 43.88100
H  51.79900 50.17700 46.01400
H  51.23900 51.10100 44.70300
H  52.96900 51.17100 45.28000
H  47.34500 50.19000 44.88700
H  45.77300 50.11000 43.99800
H  47.24900 50.78800 43.20600
H  44.24300 46.45500 41.00200
H  40.72800 45.99500 43.17000
H  41.32300 44.32800 42.77400
H  40.38400 45.12300 41.60500

