158

Mg 9.18700 4.64400 27.58000
C  10.59000 3.11200 30.22300
C  7.40900 6.63700 29.79800
C  7.48200 5.95600 24.94700
C  10.90400 2.52500 25.33400
N  9.05300 4.91900 29.84200
C  9.73600 4.16500 30.70500
C  9.38800 4.51100 32.18700
C  8.34100 5.68000 32.03200
C  8.29700 5.78900 30.47900
C  6.93800 5.42300 32.67400
C  10.74000 4.92800 32.95000
C  10.50600 5.58700 34.24500
H  11.19700 5.11200 35.53900
N  7.73200 6.12200 27.40100
C  7.10800 6.81800 28.36400
C  6.23900 7.89800 27.80400
C  6.24600 7.61100 26.42100
C  7.17100 6.53800 26.20400
C  5.43900 8.90400 28.62300
C  5.52600 8.34100 25.32100
O  5.66000 8.01800 24.14700
C  4.58100 9.38500 25.55200
N  9.20600 4.35400 25.47800
C  8.33000 4.89500 24.62700
C  8.59900 4.39400 23.19100
C  9.85300 3.46500 23.23300
C  10.03500 3.45100 24.81100
C  7.36700 3.84200 22.45400
C  11.05400 4.03700 22.39100
C  11.75100 3.04900 21.55600
N  10.53200 3.08100 27.64100
C  11.08100 2.31200 26.74500
C  11.94800 1.36300 27.39800
C  11.76900 1.56600 28.77300
C  10.89700 2.67100 28.84200
C  12.74700 0.36300 26.70200
C  12.13300 1.14400 30.16400
O  12.83400 0.26000 30.59400
C  11.37000 2.12900 31.10600
C  10.51300 1.35100 32.06800
O  9.37000 0.89200 31.82600
O  11.15500 1.26200 33.29600
C  10.29600 1.06100 34.44200
H  6.84700 7.31400 30.44400
H  7.14700 6.42300 24.01800
H  11.56000 1.86700 24.75900
H  8.79900 3.67100 32.55500
H  8.91800 6.52500 32.41000
H  6.76900 4.49600 33.22200
H  6.15100 5.47200 31.92100
H  6.69300 6.29100 33.28600
H  11.43000 5.53300 32.36200
H  11.23300 3.99500 33.22100
H  9.43100 5.51500 34.40800
H  10.76700 6.64000 34.13900
H  4.38900 8.64900 28.76700
H  5.57200 9.83600 28.07400
H  5.91100 9.04200 29.59500
H  3.64700 9.19600 26.08100
H  4.35200 9.71400 24.53800
H  5.11700 10.20300 26.03400
H  8.87400 5.26900 22.60300
H  9.68900 2.42800 22.93900
H  7.16900 4.40200 21.54000
H  6.54500 3.87600 23.16900
H  7.58700 2.81600 22.16100
H  11.66600 4.32600 23.24600
H  10.92400 5.03300 21.96800
H  12.55700 2.56900 22.11200
H  12.15900 3.62700 20.72700
H  11.11200 2.24400 21.19300
H  13.40800 0.71300 25.90900
H  12.07000 -0.18900 26.05000
H  13.27700 -0.32200 27.36300
H  12.07400 2.76300 31.64600
H  9.25100 1.21500 34.17100
H  10.61200 1.76400 35.21300
H  10.35300 0.03600 34.80800
Mg 29.43400 57.71800 40.93700
C  26.83300 55.76100 39.53800
C  31.65100 55.80400 39.24700
C  31.86500 60.20500 41.38600
C  27.03000 60.05900 42.03600
N  29.22300 56.07500 39.57100
C  28.14700 55.37700 39.18200
C  28.49800 54.16700 38.26100
C  30.02400 54.06200 38.55600
C  30.33800 55.34600 39.12500
C  30.46700 52.89300 39.46200
C  28.10400 54.51200 36.78000
C  27.22400 53.48900 35.97000
H  26.33200 54.22200 34.86200
N  31.51000 57.87000 40.49700
C  32.22100 56.95500 39.80400
C  33.64600 57.34600 39.78300
C  33.70700 58.68300 40.44100
C  32.33000 58.94400 40.81200
C  34.68800 56.51300 38.94700
C  34.99600 59.51300 40.61800
O  36.06600 58.96200 40.35200
C  35.16800 60.90300 41.29200
N  29.50500 59.81800 41.70200
C  30.60200 60.60700 41.73000
C  30.29800 62.04400 42.19400
C  28.76200 61.86800 42.67400
C  28.37100 60.54000 42.05300
C  31.33500 62.61300 43.23600
C  27.88000 63.11900 42.26600
C  27.68500 63.94800 43.51400
N  27.36400 57.79300 41.02400
C  26.53200 58.83000 41.42700
C  25.18500 58.36800 41.27300
C  25.21900 57.19900 40.50600
C  26.59600 56.87800 40.32000
C  23.91000 59.06700 41.65400
C  24.44800 56.12300 39.86900
O  23.23800 55.90600 39.91300
C  25.43600 55.22600 39.19500
C  25.12800 53.82200 39.62800
O  25.11800 53.43000 40.80200
O  24.87300 52.98900 38.56800
C  24.57800 51.55300 38.74400
H  32.42600 55.17600 38.80200
H  32.72000 60.87100 41.52000
H  26.27600 60.74300 42.43100
H  28.00000 53.26000 38.60300
H  30.46600 53.94400 37.56700
H  31.09000 53.24800 40.28300
H  31.16400 52.26700 38.90500
H  29.70600 52.25900 39.91700
H  28.98500 54.56600 36.14100
H  27.53900 55.44300 36.73900
H  26.57600 52.94200 36.65400
H  27.90700 52.79000 35.48800
H  34.93900 56.94000 37.97600
H  34.26200 55.53800 38.71200
H  35.51800 56.33200 39.63000
H  34.56000 61.62800 40.75100
H  36.22200 61.15700 41.17500
H  34.91900 60.91800 42.35300
H  30.48900 62.71500 41.35700
H  28.77000 61.70800 43.75200
H  30.72300 63.13100 43.97400
H  31.97800 63.34900 42.75400
H  31.86100 61.82000 43.76900
H  26.86000 62.88100 41.96200
H  28.31100 63.73600 41.47700
H  28.57500 63.99400 44.14200
H  26.80200 63.74400 44.12000
H  27.46200 64.98100 43.24700
H  23.72500 58.98100 42.72500
H  22.98900 58.66700 41.22900
H  23.91500 60.10300 41.31700
H  25.24800 55.08500 38.13100
H  23.78900 51.35800 39.47000
H  25.44900 50.92900 38.94300
H  24.27600 51.11800 37.79100

