158

Mg 16.38000 -2.67000 28.01000
C  15.41800 -0.55500 30.57700
C  18.37800 -4.39300 30.02600
C  17.78800 -3.97800 25.21700
C  14.64800 -0.43000 25.79500
N  16.92800 -2.36500 29.98900
C  16.32900 -1.55400 30.92400
C  16.89200 -1.81800 32.36100
C  18.02300 -2.90900 32.11700
C  17.75100 -3.27700 30.64400
C  19.41500 -2.33000 32.27100
C  15.71400 -2.34100 33.25900
C  15.85300 -2.14800 34.80200
H  17.17300 -1.66400 35.39000
N  17.75100 -4.12300 27.68500
C  18.38800 -4.80100 28.68600
C  19.13600 -5.84400 28.03200
C  19.01000 -5.71400 26.63100
C  18.16400 -4.53400 26.47200
C  20.07100 -6.81900 28.83300
C  19.74300 -6.39900 25.49600
O  19.55900 -6.21600 24.30400
C  20.68200 -7.51600 25.84900
N  16.45100 -2.11400 25.73200
C  17.09000 -2.89400 24.82400
C  16.58600 -2.63000 23.40600
C  15.46200 -1.60800 23.68100
C  15.52900 -1.31900 25.16000
C  17.76900 -2.12600 22.50600
C  14.03900 -1.93800 23.17300
C  13.01100 -0.84500 22.88200
N  15.28600 -0.89300 28.10700
C  14.60500 -0.18700 27.16400
C  13.74800 0.83000 27.84600
C  14.15200 0.76100 29.17900
C  14.99300 -0.32100 29.26600
C  12.72500 1.77800 27.28500
C  13.96500 1.45400 30.49100
O  13.31900 2.47800 30.82000
C  14.82000 0.55700 31.50800
C  15.68700 1.49900 32.13600
O  16.65800 2.09500 31.62200
O  15.19800 1.69100 33.44000
C  15.88400 2.74700 34.11400
H  19.08600 -4.97400 30.62100
H  18.15200 -4.49500 24.32600
H  14.04900 0.26200 25.19800
H  17.32000 -0.85800 32.65000
H  17.83400 -3.75700 32.77600
H  19.92000 -2.98900 32.97700
H  19.34500 -1.32400 32.68500
H  19.78800 -2.27700 31.24800
H  15.69400 -3.42800 33.18000
H  14.80100 -1.87800 32.88500
H  15.49400 -3.05400 35.29100
H  15.16000 -1.35700 35.09000
H  19.98900 -6.71400 29.91500
H  21.12400 -6.70800 28.57700
H  19.73400 -7.83800 28.64200
H  21.47000 -6.87800 26.25000
H  21.00000 -7.97800 24.91400
H  20.38900 -8.34200 26.49800
H  16.21300 -3.56400 22.98700
H  15.72400 -0.60400 23.34500
H  17.76200 -1.06000 22.27800
H  17.80600 -2.72300 21.59500
H  18.66900 -2.23000 23.11200
H  13.52800 -2.56300 23.90400
H  14.13000 -2.49700 22.24100
H  12.24300 -1.07800 23.62000
H  12.69300 -0.73300 21.84500
H  13.40400 0.13100 23.16800
H  13.20900 2.11000 26.36600
H  12.54100 2.63600 27.93100
H  11.76200 1.31900 27.06100
H  14.13100 0.14000 32.24200
H  15.69300 3.77900 33.82200
H  16.94200 2.50200 34.02800
H  15.72100 2.73600 35.19200
Mg -5.42000 24.68700 25.96300
C  -4.09400 26.08100 28.84100
C  -7.17500 22.41700 27.96400
C  -6.43900 23.21500 23.30500
C  -3.39100 26.77200 24.12300
N  -5.63600 24.42100 28.17700
C  -5.01600 25.13500 29.14900
C  -5.55600 24.78700 30.55900
C  -6.32000 23.41200 30.26300
C  -6.36500 23.36900 28.70000
C  -5.67700 22.10500 30.86300
C  -6.48200 25.81600 31.24300
C  -6.21200 26.12500 32.72800
H  -7.19400 25.41400 33.69100
N  -6.70300 23.20000 25.68200
C  -7.39100 22.43200 26.57400
C  -8.39400 21.72000 25.94200
C  -8.24000 21.92400 24.55400
C  -7.03500 22.79500 24.45700
C  -9.44100 20.93700 26.60600
C  -9.01200 21.35500 23.40000
O  -8.59200 21.40000 22.22400
C  -10.33600 20.54600 23.54000
N  -4.76500 24.79300 24.01400
C  -5.41900 24.10800 23.09500
C  -4.89700 24.48500 21.72400
C  -4.09100 25.72500 21.96800
C  -4.05500 25.79700 23.44300
C  -4.20800 23.37500 20.91600
C  -4.41900 27.05200 21.14300
C  -3.24000 27.85100 20.56400
N  -3.89100 26.10700 26.34200
C  -3.24900 26.99300 25.51900
C  -2.30500 27.86600 26.22900
C  -2.70000 27.57200 27.57700
C  -3.65500 26.51700 27.59200
C  -1.27300 28.87600 25.65700
C  -2.51800 28.07000 28.96400
O  -1.82800 28.98200 29.41100
C  -3.40600 27.13300 29.84300
C  -2.53800 26.49200 30.92800
O  -1.68400 25.64600 30.77100
O  -2.79800 27.18900 32.10200
C  -1.79600 26.91600 33.15800
H  -7.64500 21.65400 28.58700
H  -6.70800 22.65600 22.40600
H  -2.81400 27.43600 23.47700
H  -4.65200 24.53900 31.11500
H  -7.38700 23.55600 30.43400
H  -6.46400 21.52000 31.33900
H  -4.98900 22.39100 31.65900
H  -5.06900 21.51700 30.17600
H  -7.49600 25.42700 31.14500
H  -6.44600 26.74900 30.68000
H  -6.28700 27.19700 32.90900
H  -5.23000 25.73500 32.99800
H  -10.41900 21.14800 26.17400
H  -9.43300 21.10900 27.68300
H  -9.27900 19.87100 26.44100
H  -10.78900 20.37400 22.56300
H  -11.00600 21.28300 23.98200
H  -10.27000 19.62500 24.11800
H  -5.80500 24.68800 21.15500
H  -3.08200 25.41300 21.70000
H  -4.45700 22.40500 21.34700
H  -3.12500 23.49100 20.94700
H  -4.48200 23.41900 19.86100
H  -5.15300 27.71200 21.60400
H  -5.06100 26.59800 20.38900
H  -3.53900 27.97200 19.52200
H  -2.34000 27.23600 20.55600
H  -2.98700 28.82700 20.97800
H  -0.63400 29.18100 26.48600
H  -1.79000 29.80800 25.43100
H  -0.71200 28.44100 24.83000
H  -4.06300 27.80700 30.39200
H  -2.10900 26.08200 33.78500
H  -1.94900 27.77200 33.81600
H  -0.77400 26.78800 32.80100

