158

Mg 55.03800 23.36200 44.39800
C  52.30800 25.61300 43.70800
C  52.94300 20.70900 43.28800
C  57.67600 21.27300 44.42600
C  57.03100 26.04600 45.22000
N  52.89400 23.23700 43.49000
C  52.02900 24.30100 43.37000
C  50.71600 23.72700 42.71400
C  50.82300 22.23000 43.03900
C  52.34300 21.97500 43.37300
C  49.84300 21.78600 44.18700
C  50.65400 23.90100 41.14800
C  49.36200 24.56800 40.61300
H  48.98900 24.17600 39.15000
N  55.24700 21.27300 43.89400
C  54.31700 20.39000 43.37100
C  54.92700 19.12200 43.09300
C  56.26800 19.20400 43.64400
C  56.45700 20.60600 44.04200
C  54.23300 17.95600 42.47600
C  57.21300 18.09600 43.70000
O  56.88800 16.98500 43.26400
C  58.57700 18.21500 44.38500
N  57.01800 23.59400 44.82700
C  57.95700 22.57900 44.78000
C  59.38100 23.05600 45.06600
C  59.17800 24.59400 45.36200
C  57.69100 24.77900 45.01900
C  60.14400 22.31600 46.18100
C  60.09700 25.62400 44.60000
C  61.46200 25.14700 44.12500
N  54.75700 25.42600 44.59900
C  55.65100 26.34400 44.96400
C  54.97500 27.62800 45.08700
C  53.68500 27.40000 44.59900
C  53.57300 26.00800 44.31200
C  55.55100 28.93600 45.37800
C  52.41600 28.06900 44.30200
O  52.12800 29.26500 44.30400
C  51.43200 26.88800 43.65600
C  51.24600 27.43300 42.23100
O  52.12800 27.53700 41.38000
O  49.97600 27.73100 41.97000
C  49.56400 28.34500 40.68200
H  52.28300 19.84500 43.19000
H  58.66000 20.81000 44.32600
H  57.74100 26.84700 45.43800
H  49.84500 24.12300 43.23700
H  50.40400 21.66100 42.20800
H  49.89500 20.70000 44.26700
H  48.82300 22.16200 44.11800
H  50.27900 22.21200 45.09100
H  50.93200 23.01900 40.57100
H  51.40700 24.65600 40.92200
H  49.51700 25.64500 40.67500
H  48.48200 24.23600 41.16500
H  53.37300 18.36000 41.94200
H  53.85500 17.29000 43.25100
H  54.87200 17.46000 41.74500
H  59.21900 18.84300 43.76700
H  59.11400 17.26800 44.33300
H  58.41500 18.65800 45.36800
H  59.88800 23.03200 44.10100
H  59.22500 24.84000 46.42300
H  61.19000 22.13200 45.93400
H  59.65400 21.39400 46.49400
H  60.29700 22.96100 47.04600
H  60.14900 26.48600 45.26500
H  59.51500 26.04100 43.77800
H  62.22400 25.91000 44.28900
H  61.49500 25.00800 43.04400
H  61.63800 24.22500 44.67800
H  55.26300 29.25200 46.38100
H  55.18100 29.66000 44.65200
H  56.62500 29.03500 45.22500
H  50.43300 26.74000 44.06600
H  49.68600 27.69000 39.82000
H  50.18700 29.21700 40.48200
H  48.59000 28.83400 40.68700
Mg 0.90000 43.56000 25.78100
C  2.99800 43.78000 28.63600
C  -1.68700 42.77700 27.83100
C  -0.87600 42.91700 23.11600
C  3.73100 44.06400 23.82400
N  0.78200 43.10800 27.95500
C  1.64900 43.44500 28.99100
C  0.97400 43.27600 30.36400
C  -0.45500 42.84900 30.00500
C  -0.43500 42.83200 28.48100
C  -0.98700 41.57000 30.71600
C  1.14000 44.47300 31.24000
C  1.55100 44.20800 32.73700
H  1.04400 42.85800 33.27800
N  -1.03700 43.15600 25.50800
C  -1.94500 42.90600 26.51500
C  -3.23600 42.64500 25.93400
C  -3.05300 42.52900 24.47800
C  -1.60900 42.87600 24.29600
C  -4.53600 42.55300 26.76400
C  -4.07100 42.34300 23.32400
O  -3.77400 42.15100 22.16000
C  -5.54900 42.11300 23.62400
N  1.32800 43.62800 23.73400
C  0.45600 43.20900 22.83700
C  1.00900 43.13400 21.44200
C  2.37300 43.94100 21.60300
C  2.52300 43.88100 23.16900
C  1.10400 41.63800 20.83700
C  2.37700 45.39400 21.00600
C  2.57000 45.52900 19.49500
N  2.94300 43.87100 26.12800
C  3.92400 44.14100 25.21600
C  5.21500 44.29900 25.84500
C  4.86700 44.09300 27.21400
C  3.49400 43.92000 27.30500
C  6.47900 44.55800 25.22700
C  5.41700 44.02400 28.53900
O  6.56600 44.11400 28.95200
C  4.23200 44.00100 29.52200
C  4.35200 42.81800 30.39700
O  4.22500 41.67000 29.95600
O  4.86600 43.04800 31.67800
C  5.43800 41.95000 32.45500
H  -2.49700 42.64300 28.55100
H  -1.50100 42.62800 22.26800
H  4.53400 44.39700 23.16400
H  1.51900 42.40300 30.72400
H  -1.16200 43.65800 30.18200
H  -1.22800 40.72700 30.07000
H  -1.82400 41.76400 31.38700
H  -0.19800 41.20200 31.37200
H  0.18900 44.98700 31.38000
H  1.72900 45.30500 30.85500
H  1.15800 45.08200 33.25800
H  2.63900 44.15100 32.72600
H  -4.37000 43.14600 27.66300
H  -4.72300 41.51600 27.04100
H  -5.39100 42.97200 26.23300
H  -5.64200 41.28700 24.32900
H  -6.16600 41.89400 22.75300
H  -5.74800 43.06100 24.12500
H  0.25700 43.66500 20.85700
H  3.19700 43.47300 21.06500
H  0.58200 40.84500 21.37300
H  2.16600 41.40500 20.92100
H  0.70600 41.62800 19.82300
H  3.16800 45.99300 21.45800
H  1.38800 45.76200 21.27900
H  1.66600 45.93300 19.04000
H  2.64200 44.56800 18.98500
H  3.41000 46.16700 19.22200
H  7.36900 44.17900 25.72800
H  6.61400 45.63900 25.19400
H  6.49700 44.09800 24.23900
H  4.21000 44.91600 30.11400
H  5.92500 42.36900 33.33600
H  6.20200 41.45700 31.85400
H  4.65900 41.36200 32.94000

