158

Mg 36.54200 48.64700 24.51400
C  36.82400 46.81300 27.47000
C  35.49100 51.42600 26.33400
C  36.01600 50.30300 21.67000
C  37.73000 45.98800 22.78800
N  36.04100 48.97300 26.61400
C  36.37400 48.16000 27.71400
C  36.17000 48.89400 29.05200
C  35.81100 50.32400 28.63000
C  35.78000 50.27200 27.08400
C  34.40700 50.82300 29.18200
C  37.36400 48.74400 30.00100
C  37.08600 48.14400 31.36600
H  35.76500 48.27200 32.08700
N  35.80100 50.60700 24.07000
C  35.43800 51.57500 24.91500
C  34.86800 52.67600 24.23600
C  35.07200 52.45100 22.85000
C  35.65300 51.09700 22.81700
C  34.46900 53.92500 24.94500
C  34.66200 53.28400 21.57100
O  34.92500 52.88900 20.42800
C  33.90100 54.60500 21.69700
N  36.70300 48.11300 22.54700
C  36.46700 48.95900 21.55400
C  36.90400 48.44100 20.19600
C  37.48200 47.07200 20.50300
C  37.28400 47.03300 22.04600
C  35.96100 48.33600 19.05700
C  38.92700 46.92000 19.97500
C  40.15500 47.14800 20.98500
N  37.21000 46.72900 25.01800
C  37.65000 45.74900 24.19200
C  37.95800 44.54200 24.92600
C  37.62300 44.91200 26.23400
C  37.21600 46.26500 26.20100
C  38.45100 43.13700 24.38100
C  37.58400 44.42700 27.58600
O  37.96700 43.38200 28.08900
C  37.14900 45.63400 28.47000
C  36.04800 45.26700 29.32900
O  34.92100 45.23700 28.86700
O  36.48900 44.89100 30.57900
C  35.48100 44.31700 31.49100
H  35.17300 52.18300 27.05400
H  35.95400 50.85100 20.72800
H  38.17200 45.19400 22.18200
H  35.28500 48.45700 29.51400
H  36.55600 51.06600 28.91500
H  34.65700 51.53600 29.96700
H  33.84200 50.03500 29.68000
H  33.76500 51.20700 28.38900
H  37.84300 49.68400 30.27600
H  38.06100 48.16400 29.39600
H  37.84700 48.66400 31.94900
H  37.43900 47.11300 31.37800
H  35.21200 54.66600 24.65100
H  34.32600 53.75300 26.01200
H  33.49400 54.25000 24.58100
H  34.39900 55.28900 22.38400
H  32.91700 54.42200 22.12700
H  33.71500 55.04600 20.71700
H  37.63300 49.21900 19.96800
H  36.97300 46.17500 20.14800
H  35.88900 49.31500 18.58300
H  35.00900 48.08000 19.52200
H  36.26800 47.59500 18.31900
H  39.05900 47.57800 19.11600
H  39.07100 45.87800 19.68800
H  40.42100 46.13900 21.30300
H  39.96500 47.85400 21.79400
H  40.98300 47.64800 20.48200
H  37.79900 42.33300 24.71900
H  39.49600 42.97700 24.64500
H  38.46200 43.12200 23.29100
H  37.94000 45.91000 29.16700
H  35.80600 44.47100 32.52000
H  35.36300 43.25900 31.25600
H  34.53300 44.84900 31.41900
Mg 26.96500 49.48600 26.39600
C  24.85500 50.45300 28.97700
C  29.19600 48.28000 28.63900
C  28.96000 48.54100 23.86500
C  24.61700 50.79600 24.15200
N  27.00300 49.46200 28.61000
C  26.01600 49.78400 29.48300
C  26.41000 49.49300 30.94400
C  27.94500 49.00600 30.84600
C  28.10400 48.95900 29.24700
C  28.96700 49.94600 31.52300
C  25.42200 48.48000 31.65800
C  24.66100 48.94300 32.92000
H  25.41300 49.57800 34.06700
N  28.74800 48.57500 26.28400
C  29.49600 48.18300 27.30600
C  30.60400 47.43100 26.84500
C  30.69100 47.68100 25.45400
C  29.38500 48.28400 25.14500
C  31.53500 46.66300 27.70900
C  31.81000 47.41600 24.44500
O  31.70600 47.69600 23.22900
C  32.95900 46.68600 24.90100
N  26.81400 49.71400 24.31900
C  27.78700 49.25900 23.48100
C  27.37000 49.49600 22.03700
C  25.95800 50.09900 22.12700
C  25.76800 50.19600 23.62900
C  28.42200 50.34300 21.22800
C  24.80500 49.30000 21.44600
C  24.10400 49.96400 20.24400
N  25.23500 50.49700 26.46000
C  24.41600 51.03400 25.46600
C  23.33300 51.68300 26.05800
C  23.44700 51.48400 27.37300
C  24.56000 50.73300 27.59800
C  22.17500 52.30700 25.35300
C  22.83800 51.71900 28.60400
O  21.85700 52.38200 28.89000
C  23.79400 51.14600 29.74800
C  24.41800 52.24100 30.53000
O  25.39400 52.89300 30.22400
O  23.60500 52.42100 31.61400
C  24.21500 53.31700 32.63400
H  29.87100 47.81500 29.36100
H  29.47700 48.20700 22.96300
H  23.87000 51.15200 23.44000
H  26.32300 50.50100 31.34900
H  28.04900 48.07300 31.39900
H  28.49500 50.77800 32.04600
H  29.64800 50.40500 30.80600
H  29.63700 49.35300 32.14500
H  25.87700 47.52700 31.92900
H  24.60800 48.28800 30.96000
H  24.13400 48.17300 33.48300
H  23.93300 49.73700 32.75100
H  31.87800 45.73500 27.25100
H  31.08100 46.48800 28.68500
H  32.45100 47.20600 27.94100
H  33.24500 47.17900 25.83100
H  33.68600 46.77300 24.09400
H  32.63600 45.64800 24.98400
H  27.38200 48.48900 21.61900
H  25.90900 51.12700 21.76900
H  29.36800 50.38500 21.76700
H  28.14300 51.39400 21.15600
H  28.72400 49.79400 20.33600
H  23.97100 49.19900 22.14000
H  25.13000 48.30200 21.15000
H  23.02600 49.84000 20.34200
H  24.37000 49.41100 19.34300
H  24.31600 51.02600 20.12200
H  21.96600 51.93100 24.35100
H  22.52600 53.31900 25.15000
H  21.24500 52.19400 25.91100
H  23.19100 50.46700 30.35200
H  23.40600 53.52500 33.33500
H  24.59800 54.29600 32.34400
H  25.03200 52.84100 33.17600

