158

Mg 40.83200 10.34200 29.52100
C  42.70300 11.54700 32.23300
C  38.84400 8.80200 32.05900
C  39.04500 8.94800 27.00500
C  43.18400 11.38300 27.25900
N  40.89700 10.03000 31.93800
C  41.59900 10.86500 32.77900
C  41.04500 10.90900 34.25300
C  40.06000 9.71400 34.15200
C  39.88800 9.51400 32.68500
C  40.60600 8.46600 34.79700
C  40.49700 12.31600 34.66200
C  39.91700 12.37000 36.11300
H  40.59700 13.21800 37.16300
N  39.21200 9.10200 29.52400
C  38.51500 8.60000 30.68400
C  37.43300 7.71100 30.21400
C  37.41400 7.84100 28.77300
C  38.62100 8.66800 28.32700
C  36.60200 6.85100 31.08500
C  36.58500 6.96100 27.82400
O  36.77600 6.86300 26.60500
C  35.42600 6.19200 28.36500
N  41.07300 10.24800 27.43300
C  40.17000 9.68800 26.59900
C  40.56100 9.83800 25.12000
C  41.77100 10.83100 25.21900
C  42.07500 10.69600 26.69800
C  40.86400 8.52700 24.42700
C  41.44300 12.29000 24.75200
C  41.05100 13.34200 25.80500
N  42.60900 11.16700 29.68500
C  43.45100 11.51100 28.66900
C  44.60000 12.21200 29.25100
C  44.34700 12.20100 30.64000
C  43.13800 11.51800 30.86700
C  45.76200 12.73700 28.59800
C  44.91200 12.64900 31.84200
O  45.91400 13.29800 32.12400
C  43.82100 12.29200 32.95800
C  44.46500 11.63500 34.13300
O  44.83300 10.48900 34.21300
O  44.51200 12.50600 35.22000
C  44.95200 12.02300 36.57000
H  38.16900 8.31400 32.76400
H  38.63000 8.42000 26.14400
H  43.94300 11.72800 26.55400
H  41.85800 10.61500 34.91700
H  39.12400 10.01500 34.62300
H  40.34900 7.61600 34.16600
H  40.18000 8.44200 35.80000
H  41.67000 8.57000 35.01100
H  39.79700 12.64700 33.89500
H  41.29200 13.05400 34.55100
H  40.01900 11.34300 36.46300
H  38.87000 12.67200 36.12100
H  35.57000 7.19300 31.00900
H  36.87100 6.85400 32.14100
H  36.64000 5.81000 30.76200
H  34.75000 6.00900 27.53000
H  34.86300 6.80600 29.06800
H  35.74300 5.32000 28.93900
H  39.76600 10.44800 24.69200
H  42.68200 10.40400 24.80000
H  41.70500 8.60900 23.73800
H  39.98600 8.26100 23.83800
H  41.07300 7.77300 25.18600
H  40.58800 12.24500 24.07800
H  42.26300 12.57100 24.09200
H  41.10100 12.91000 26.80500
H  40.01700 13.65700 25.66600
H  41.79900 14.11400 25.62300
H  45.54000 12.75600 27.53200
H  46.65600 12.12800 28.73600
H  46.09300 13.69800 28.99100
H  43.63200 13.25400 33.43600
H  45.72200 11.25600 36.48000
H  44.12700 11.67100 37.19000
H  45.42600 12.87400 37.05800
Mg -5.89200 24.64500 26.44800
C  -4.35600 25.84500 29.28900
C  -8.01900 22.70600 28.45200
C  -6.70200 22.87700 23.65300
C  -3.48600 26.45400 24.52800
N  -6.03600 24.18700 28.59800
C  -5.34500 24.85800 29.57500
C  -5.86800 24.51700 30.98300
C  -6.90500 23.33400 30.64900
C  -7.12700 23.51900 29.15100
C  -6.14100 21.97200 31.02700
C  -6.59500 25.73700 31.68700
C  -6.29400 26.01100 33.13500
H  -5.85500 24.83300 34.02800
N  -7.22600 23.13100 26.09300
C  -8.06000 22.50200 27.05100
C  -8.98600 21.66800 26.33100
C  -8.63700 21.65600 24.92900
C  -7.47300 22.59900 24.83700
C  -10.15500 20.98800 27.06800
C  -9.21400 20.87800 23.73100
O  -8.76100 20.95800 22.60200
C  -10.44800 20.06200 23.88000
N  -5.09600 24.60900 24.43000
C  -5.65900 23.78100 23.45700
C  -4.83900 23.92000 22.12500
C  -4.25600 25.34000 22.35400
C  -4.25000 25.48000 23.85500
C  -3.89300 22.77500 21.79000
C  -4.88400 26.57700 21.66800
C  -3.85200 27.41400 20.76400
N  -4.31300 26.02500 26.75200
C  -3.44700 26.68500 25.90500
C  -2.44400 27.46900 26.69800
C  -2.86900 27.25400 28.04700
C  -3.92400 26.28200 28.02400
C  -1.50000 28.57900 26.28000
C  -2.59700 27.63600 29.51600
O  -1.88000 28.49000 30.09600
C  -3.55900 26.64400 30.28500
C  -2.81300 25.81300 31.19600
O  -2.07500 24.95700 30.90600
O  -3.09500 26.24400 32.47400
C  -2.14400 25.80600 33.55700
H  -8.71100 22.10300 29.04500
H  -7.07200 22.65600 22.65000
H  -2.77200 26.96200 23.87600
H  -5.01600 24.14500 31.55200
H  -7.87900 23.43300 31.12800
H  -5.92400 21.42500 30.10900
H  -6.90300 21.38500 31.54100
H  -5.31800 22.06700 31.73600
H  -7.66200 25.52500 31.74600
H  -6.52300 26.65700 31.10700
H  -7.07300 26.59900 33.62000
H  -5.49400 26.75100 33.13300
H  -11.07900 21.54400 26.91100
H  -9.99300 20.78100 28.12600
H  -10.40000 19.98600 26.71700
H  -10.74500 19.75300 22.87800
H  -11.18000 20.76900 24.27000
H  -10.47000 19.24200 24.59800
H  -5.51300 23.89200 21.27000
H  -3.19600 25.27400 22.10800
H  -2.96000 23.20300 21.42300
H  -4.29000 21.99900 21.13500
H  -3.61200 22.39100 22.77100
H  -5.17600 27.21700 22.50000
H  -5.69200 26.21900 21.02900
H  -3.78800 28.37700 21.27100
H  -4.20900 27.44200 19.73500
H  -2.84400 27.01700 20.64800
H  -0.54500 28.32800 26.74200
H  -1.77800 29.63000 26.35900
H  -1.38300 28.46400 25.20200
H  -4.23800 27.22300 30.91000
H  -2.34800 24.73900 33.64800
H  -2.37700 26.35800 34.46800
H  -1.13000 25.91000 33.17000

