158

Mg -0.19000 44.04100 25.71200
C  2.27000 44.17500 28.39600
C  -2.44300 43.13600 28.04000
C  -2.19900 43.66000 23.15900
C  2.56200 44.30400 23.55900
N  0.00400 43.59100 27.93800
C  1.00400 43.85100 28.84800
C  0.59300 43.73600 30.34200
C  -0.95300 43.22000 30.08900
C  -1.13800 43.28200 28.57200
C  -1.38000 41.84700 30.70000
C  0.61600 45.10400 31.03100
C  0.83500 45.07200 32.66200
H  0.44900 43.82800 33.44500
N  -2.11200 43.55400 25.61500
C  -2.91600 43.25200 26.71500
C  -4.28300 43.05800 26.23700
C  -4.19500 43.25600 24.79700
C  -2.77800 43.50200 24.43900
C  -5.40800 42.67500 27.05200
C  -5.32600 43.09700 23.69600
O  -5.08400 43.06900 22.52700
C  -6.71700 42.82000 24.01000
N  0.14800 43.89400 23.72800
C  -0.87300 43.73400 22.79400
C  -0.35100 43.68300 21.33100
C  1.07900 44.18300 21.49000
C  1.27000 44.08700 23.01500
C  -0.54700 42.26800 20.67000
C  1.36900 45.64400 20.89600
C  1.27200 46.89700 21.88400
N  1.94000 44.36700 25.88800
C  2.88200 44.40400 24.92100
C  4.28100 44.40200 25.49500
C  4.01900 44.42600 26.88700
C  2.61900 44.32500 27.02000
C  5.57700 44.62200 24.75000
C  4.71200 44.52400 28.21800
O  5.87900 44.62000 28.47700
C  3.53900 44.41700 29.30500
C  3.81000 43.24600 30.13000
O  3.67900 42.12600 29.72100
O  4.14200 43.67900 31.37200
C  4.48500 42.64900 32.30100
H  -3.25200 42.96900 28.75400
H  -2.87100 43.77000 22.30600
H  3.30200 44.39000 22.76000
H  1.26500 43.06900 30.88300
H  -1.70300 43.90100 30.49300
H  -0.47100 41.35000 31.04100
H  -1.92100 41.27000 29.95000
H  -1.96800 41.97800 31.60800
H  -0.33500 45.62500 30.92000
H  1.32300 45.65700 30.41300
H  0.55300 45.97500 33.20500
H  1.92500 45.08700 32.66500
H  -6.28300 43.06900 26.53500
H  -5.40900 43.25800 27.97300
H  -5.45800 41.60700 27.26300
H  -6.65600 41.95100 24.66400
H  -7.27800 42.50800 23.12900
H  -7.17700 43.63000 24.57600
H  -1.08000 44.34500 20.86500
H  1.79200 43.54300 20.97000
H  -1.37700 41.84400 21.23600
H  0.38100 41.69700 20.63600
H  -0.97800 42.36300 19.67300
H  0.58600 45.70200 20.13900
H  2.26800 45.68500 20.28100
H  0.63600 47.73300 21.59100
H  2.25000 47.28100 22.17400
H  0.75200 46.55000 22.77600
H  6.10000 45.49300 25.14500
H  5.27000 44.74800 23.71200
H  6.20800 43.76000 24.96700
H  3.52800 45.34500 29.87800
H  4.06800 43.00300 33.24400
H  5.56600 42.56100 32.41000
H  4.23900 41.60500 32.10700
Mg -12.28700 15.50200 42.14200
C  -9.04700 14.35900 41.49600
C  -11.50600 18.51800 40.44600
C  -15.61600 16.28500 41.93700
C  -13.19300 12.26800 43.11000
N  -10.60900 16.22700 40.96700
C  -9.33100 15.63100 40.97500
C  -8.26500 16.49600 40.27200
C  -9.00100 17.90500 40.32400
C  -10.49300 17.53600 40.58200
C  -8.37100 19.00300 41.29200
C  -7.77700 16.01400 38.86800
C  -6.24400 15.92500 38.73200
H  -5.58100 16.58700 37.55300
N  -13.42500 17.23600 41.36300
C  -12.92800 18.36200 40.71900
C  -13.97600 19.29900 40.44400
C  -15.23500 18.69600 40.92300
C  -14.78600 17.39100 41.48900
C  -13.72900 20.64600 39.82700
C  -16.58000 19.33600 40.86900
O  -16.75300 20.34900 40.15800
C  -17.71100 18.89500 41.66400
N  -14.11900 14.48500 42.63000
C  -15.31600 15.03100 42.39800
C  -16.46500 14.06000 42.68000
C  -15.71500 12.70100 43.14000
C  -14.22100 13.13400 42.94500
C  -17.61200 14.48500 43.67900
C  -16.12500 11.42900 42.42100
C  -16.72800 10.31900 43.26400
N  -11.42300 13.69100 42.27800
C  -11.85700 12.51100 42.86200
C  -10.75100 11.56800 43.01600
C  -9.63900 12.28300 42.42400
C  -10.07000 13.52600 42.01100
C  -10.76600 10.10400 43.55300
C  -8.20000 12.20900 42.12200
O  -7.42700 11.38600 42.50800
C  -7.77100 13.58900 41.47400
C  -6.62400 14.15300 42.22500
O  -6.70700 14.54800 43.36700
O  -5.43700 14.13800 41.51900
C  -4.25500 14.41200 42.36000
H  -11.13300 19.48300 40.09600
H  -16.66300 16.56900 41.81100
H  -13.34700 11.30400 43.60000
H  -7.42500 16.55500 40.96400
H  -8.85500 18.40200 39.36500
H  -8.30300 19.94700 40.75200
H  -7.35300 18.70700 41.54300
H  -8.97000 19.08400 42.19900
H  -8.23100 16.76800 38.22400
H  -8.22300 15.04100 38.65800
H  -6.13200 14.84000 38.72600
H  -5.82300 16.37300 39.63200
H  -12.72100 21.06100 39.85300
H  -14.34700 21.37300 40.35400
H  -14.07800 20.66100 38.79400
H  -18.30400 18.31500 40.95700
H  -18.30000 19.77700 41.91500
H  -17.45200 18.29900 42.54000
H  -17.03300 14.00000 41.75100
H  -15.74900 12.59700 44.22400
H  -17.62900 13.82100 44.54200
H  -18.51900 14.32600 43.09500
H  -17.55600 15.53300 43.97600
H  -15.23200 11.09700 41.89200
H  -16.80200 11.71800 41.61700
H  -16.29500 9.39500 42.88200
H  -17.81400 10.22800 43.24900
H  -16.41400 10.37400 44.30700
H  -9.80300 9.59400 43.58600
H  -11.36200 9.45900 42.90700
H  -11.21500 9.95500 44.53500
H  -7.42300 13.53200 40.44300
H  -4.14500 15.43200 42.72800
H  -3.43900 14.12600 41.69600
H  -4.21200 13.70700 43.19000

