158

Mg 16.97200 -1.74600 28.26800
C  15.66400 0.24800 30.63900
C  18.87400 -3.37300 30.60400
C  18.07600 -3.51300 25.72400
C  15.06900 0.21000 25.80100
N  17.29900 -1.53700 30.37200
C  16.55000 -0.67900 31.14800
C  16.96700 -0.75600 32.57200
C  18.16200 -1.80100 32.54400
C  18.10100 -2.34100 31.14900
C  19.54900 -1.23500 32.91200
C  15.81700 -1.13100 33.49300
C  15.92800 -0.58100 34.91900
H  17.32200 0.08900 35.34000
N  18.33100 -3.26000 28.20400
C  19.02800 -3.81500 29.28300
C  19.93800 -4.82500 28.75700
C  19.62200 -4.93100 27.32300
C  18.65300 -3.89600 26.99000
C  20.95200 -5.61600 29.65400
C  20.18700 -5.97100 26.41400
O  19.93400 -5.94800 25.21900
C  21.06900 -7.06300 26.85300
N  16.63200 -1.63800 26.05400
C  17.28800 -2.48600 25.23900
C  16.91000 -2.26400 23.76100
C  15.87200 -1.06200 23.85900
C  15.77700 -0.88000 25.38200
C  18.11800 -2.03600 22.81100
C  14.51000 -1.21800 23.09900
C  14.16900 -0.13000 22.06500
N  15.66200 -0.10200 28.22300
C  14.99700 0.62500 27.17800
C  14.35500 1.78600 27.76400
C  14.70100 1.72000 29.13700
C  15.32600 0.46800 29.32000
C  13.48000 2.85800 27.01900
C  14.47800 2.34500 30.39600
O  13.86300 3.41400 30.60500
C  15.08100 1.50400 31.42400
C  15.97500 2.45500 32.14900
O  17.14500 2.69000 31.84100
O  15.37400 2.94800 33.27400
C  16.16000 3.93800 34.00300
H  19.49900 -3.86200 31.35400
H  18.34000 -4.18400 24.90400
H  14.60500 0.88300 25.07800
H  17.35900 0.21000 32.89300
H  18.01800 -2.72700 33.10100
H  19.64100 -0.16200 32.74500
H  20.35400 -1.66500 32.31500
H  19.83100 -1.53500 33.92100
H  15.82100 -2.22100 33.50500
H  14.86100 -0.82400 33.06900
H  15.66100 -1.27700 35.71500
H  15.19600 0.22700 34.89100
H  21.20200 -4.88800 30.42600
H  21.72200 -5.92400 28.94800
H  20.42600 -6.47400 30.07200
H  21.10600 -7.88200 26.13400
H  20.48000 -7.48400 27.66800
H  22.07500 -6.70300 27.06800
H  16.34900 -3.16300 23.50400
H  16.34200 -0.14600 23.50100
H  18.90200 -2.66600 23.23200
H  18.44500 -0.99600 22.81400
H  17.81300 -2.20200 21.77800
H  13.65000 -1.28200 23.76500
H  14.49100 -2.14400 22.52300
H  13.83400 -0.66700 21.17800
H  15.12200 0.34100 21.82400
H  13.44200 0.61200 22.39400
H  13.81800 2.89100 25.98300
H  13.74800 3.86000 27.35600
H  12.40600 2.67900 26.97300
H  14.20700 1.23600 32.01800
H  16.62000 4.72700 33.40800
H  16.98700 3.51600 34.57500
H  15.40000 4.29200 34.69900
Mg 42.77100 42.24900 26.09400
C  41.60400 44.28400 28.63400
C  44.24000 40.14200 28.33700
C  43.84000 40.26500 23.58700
C  41.83400 44.67600 23.72200
N  43.01100 42.31300 28.32700
C  42.26700 43.12700 29.12900
C  42.44700 42.62000 30.52200
C  43.53600 41.47600 30.51500
C  43.59400 41.22500 28.98300
C  44.90000 41.89800 31.17400
C  41.03000 42.30100 31.17000
C  40.70900 43.15000 32.48400
H  41.57000 42.82900 33.65300
N  43.90600 40.55500 25.95800
C  44.35800 39.82800 26.99200
C  44.95500 38.58600 26.58400
C  44.69000 38.49100 25.24000
C  44.11500 39.84500 24.86200
C  45.79400 37.67200 27.44500
C  44.90500 37.29500 24.32100
O  44.56800 37.32500 23.15400
C  45.31200 35.91700 24.91700
N  42.89200 42.52300 24.02000
C  43.35100 41.55400 23.19400
C  43.33000 41.95600 21.71400
C  42.37300 43.27300 21.78700
C  42.44400 43.55700 23.23900
C  44.77200 42.21700 21.15900
C  40.87100 43.10700 21.22500
C  40.01200 42.04400 21.86400
N  41.99700 44.12000 26.07400
C  41.62000 45.07200 25.08300
C  40.98800 46.25900 25.66700
C  41.00300 45.92400 27.06800
C  41.58700 44.62800 27.25600
C  40.58900 47.52500 25.08000
C  40.61600 46.39000 28.37100
O  40.07200 47.44200 28.64500
C  40.91800 45.35400 29.41700
C  41.84800 46.04000 30.41500
O  43.02100 46.32600 30.19200
O  41.20400 46.42000 31.53900
C  42.12500 46.71900 32.65900
H  44.72900 39.41000 28.98300
H  44.22800 39.61100 22.80400
H  41.41900 45.41200 23.03000
H  42.75700 43.48700 31.10500
H  43.32000 40.55900 31.06400
H  45.54500 42.36800 30.43300
H  45.43300 41.00500 31.50300
H  44.65500 42.45300 32.07900
H  40.92600 41.26800 31.50000
H  40.23400 42.54600 30.46600
H  39.71400 42.90100 32.85200
H  40.70200 44.22400 32.29600
H  46.45500 38.10500 28.19600
H  46.52300 37.08500 26.88700
H  45.15600 36.95600 27.96400
H  44.64000 35.82100 25.76900
H  46.35400 35.88900 25.23600
H  45.10100 35.15500 24.16700
H  42.75700 41.24800 21.11500
H  42.73200 44.17300 21.28700
H  45.09200 41.52500 20.38100
H  45.44300 41.97000 21.98200
H  44.94500 43.26300 20.90700
H  41.07200 42.97000 20.16200
H  40.29700 44.03200 21.27200
H  40.33700 41.47000 22.73200
H  39.82700 41.22000 21.17500
H  39.06200 42.50400 22.13400
H  39.52900 47.48100 25.33100
H  40.79300 47.53700 24.00900
H  40.96900 48.43700 25.54000
H  40.02000 44.96700 29.89900
H  42.41700 47.75800 32.50900
H  43.00300 46.07500 32.66200
H  41.52100 46.69400 33.56600

