158

Mg 48.41400 34.80800 27.48800
C  46.47100 33.51500 30.00600
C  48.99900 37.58200 29.20100
C  50.03800 36.15900 24.71300
C  47.82400 31.85100 25.69900
N  47.74100 35.42900 29.41100
C  47.06500 34.76300 30.31800
C  47.29300 35.44500 31.72100
C  47.70200 36.88900 31.30900
C  48.17700 36.65700 29.89600
C  46.59600 37.97100 31.47800
C  48.46300 34.67100 32.46200
C  48.41100 34.70300 33.99000
H  47.62800 35.90200 34.64200
N  49.54500 36.61200 27.04600
C  49.61600 37.66900 27.88900
C  50.44100 38.74300 27.27300
C  50.80400 38.24000 26.00000
C  50.14000 36.94300 25.83700
C  50.67100 40.10400 27.95900
C  51.68800 38.94900 24.98900
O  51.87600 38.54200 23.81100
C  52.51400 39.99000 25.40000
N  48.76700 34.11200 25.47600
C  49.42900 34.90800 24.56600
C  49.46400 34.16700 23.25600
C  48.89300 32.70700 23.60200
C  48.46800 32.86200 24.97500
C  48.75800 34.91200 22.08700
C  49.94200 31.50300 23.58500
C  49.53100 30.26900 22.86000
N  47.25900 33.00500 27.71600
C  47.16700 31.91000 26.92100
C  46.38100 30.90700 27.62900
C  46.18200 31.52800 28.86500
C  46.69100 32.80900 28.86400
C  46.06300 29.45800 27.27900
C  45.58700 31.27200 30.13000
O  45.07000 30.25600 30.55100
C  45.57400 32.64600 30.88300
C  45.86800 32.56800 32.29800
O  46.71600 31.86000 32.89300
O  44.78500 33.23500 32.91200
C  44.38600 32.98700 34.32800
H  49.29000 38.41700 29.84100
H  50.45600 36.66200 23.83800
H  47.68800 30.93300 25.12300
H  46.31700 35.38400 32.20100
H  48.64200 37.07800 31.82800
H  45.68200 37.55900 31.05000
H  46.94400 38.81700 30.88500
H  46.41000 38.27100 32.50900
H  49.43600 35.10700 32.23700
H  48.48200 33.61700 32.18500
H  49.39900 34.90100 34.40400
H  47.95000 33.81900 34.43100
H  50.44200 40.89000 27.24100
H  51.64800 40.18300 28.43600
H  49.97800 40.29200 28.78000
H  52.01100 40.95700 25.37100
H  53.42400 39.85000 24.81700
H  52.86100 39.84800 26.42400
H  50.51300 34.22700 22.96500
H  47.97900 32.49900 23.04700
H  47.95100 35.61500 22.29300
H  48.34800 34.20600 21.36500
H  49.36400 35.60500 21.50400
H  50.16000 31.14800 24.59200
H  50.87000 31.90300 23.17700
H  50.21000 30.01000 22.04700
H  48.56900 30.38800 22.36300
H  49.42100 29.40300 23.51300
H  44.98600 29.29100 27.29900
H  46.42400 28.62600 27.88400
H  46.34900 29.25400 26.24700
H  44.58300 33.08700 30.77800
H  44.78100 32.04800 34.71700
H  43.30900 32.82600 34.34600
H  44.60300 33.80700 35.01200
Mg -11.03800 40.47800 42.77900
C  -10.20900 37.24100 41.98100
C  -7.98300 41.50900 41.58100
C  -12.31900 43.56500 42.86800
C  -14.48400 39.25900 43.29500
N  -9.42800 39.53300 41.64000
C  -9.23600 38.16900 41.58700
C  -7.88400 37.82900 40.92000
C  -7.09200 39.27100 40.90300
C  -8.18900 40.16900 41.34300
C  -5.68800 39.22700 41.65600
C  -8.07100 37.20100 39.45500
C  -7.04100 36.21100 39.09500
H  -5.96800 36.68200 38.09800
N  -10.15500 42.22300 42.53000
C  -8.86800 42.49600 42.06100
C  -8.69100 43.95600 42.00200
C  -9.83200 44.54800 42.59000
C  -10.86200 43.41800 42.65200
C  -7.36800 44.55200 41.51700
C  -10.09400 46.05000 42.92600
O  -9.27700 46.88800 42.51500
C  -11.17300 46.41800 43.78400
N  -13.15000 41.27400 43.02600
C  -13.32800 42.62600 43.03200
C  -14.82500 43.01500 42.93800
C  -15.54200 41.61000 43.06900
C  -14.31700 40.62700 43.08800
C  -15.28300 44.06300 43.97400
C  -16.64900 41.39500 41.99700
C  -18.15100 41.25100 42.38300
N  -12.17300 38.57900 42.81100
C  -13.46500 38.30500 43.06900
C  -13.64800 36.88000 43.11100
C  -12.38000 36.37600 42.71100
C  -11.53100 37.47600 42.46500
C  -14.92800 36.17800 43.34500
C  -11.64400 35.24800 42.33400
O  -11.90500 34.06900 42.40300
C  -10.21900 35.75800 41.79400
C  -9.23200 35.00300 42.55000
O  -9.03900 35.05000 43.80200
O  -8.45600 34.26900 41.72800
C  -7.48700 33.48000 42.32900
H  -7.02700 41.76100 41.11900
H  -12.58200 44.62200 42.79500
H  -15.52200 38.95800 43.45300
H  -7.25400 37.20700 41.55500
H  -6.87900 39.61200 39.89000
H  -4.94200 39.67100 40.99600
H  -5.53800 38.20600 42.00700
H  -5.76900 39.91900 42.49400
H  -8.19900 38.04900 38.78300
H  -8.92200 36.52300 39.38600
H  -7.57700 35.37600 38.64300
H  -6.59000 35.77600 39.98700
H  -6.70200 43.80800 41.08100
H  -6.88200 45.04500 42.35900
H  -7.54300 45.32300 40.76600
H  -12.04600 46.73500 43.21300
H  -10.80500 47.20800 44.43700
H  -11.43000 45.55400 44.39700
H  -15.07000 43.45900 41.97300
H  -16.00000 41.47800 44.05000
H  -14.41000 44.46600 44.48900
H  -16.12200 43.71900 44.57700
H  -15.61500 44.99100 43.50700
H  -16.42500 40.47700 41.45200
H  -16.63200 42.20400 41.26700
H  -18.62100 41.94000 41.68200
H  -18.27400 41.65500 43.38800
H  -18.65800 40.29700 42.23900
H  -15.26300 36.42400 44.35200
H  -14.76800 35.10100 43.40000
H  -15.73200 36.44400 42.65900
H  -10.28300 35.52600 40.73100
H  -8.02700 32.88200 43.06300
H  -6.75300 34.20500 42.68200
H  -7.12800 32.82200 41.53700

