158

Mg 49.20500 47.96400 42.61500
C  45.89100 47.58900 41.32200
C  49.79400 44.82800 41.43400
C  52.26100 48.48100 43.54600
C  48.23200 51.19000 43.58700
N  48.02200 46.53600 41.25400
C  46.70000 46.56900 40.94500
C  46.31000 45.32800 40.11900
C  47.54500 44.38200 40.37800
C  48.48900 45.31300 41.06200
C  47.11800 43.20800 41.33600
C  46.07600 45.77900 38.67300
C  44.77600 45.36700 37.89400
H  44.93000 44.51900 36.62800
N  50.80100 46.84400 42.46000
C  50.85300 45.57300 41.95400
C  52.22600 45.13200 41.93700
C  52.99800 46.14300 42.57900
C  52.03000 47.25300 42.89200
C  52.63800 43.78500 41.31800
C  54.47800 46.08000 42.79000
O  55.14800 45.12300 42.45500
C  55.21600 47.17000 43.49800
N  50.16500 49.66600 43.34300
C  51.46800 49.61100 43.62500
C  51.92900 50.93700 44.32900
C  50.61100 51.78100 44.36700
C  49.62900 50.87800 43.72800
C  52.58300 50.85400 45.74900
C  50.73700 53.17800 43.67600
C  50.80500 54.27300 44.78500
N  47.45700 49.13100 42.55700
C  47.24200 50.38100 43.02700
C  45.85300 50.77500 42.78200
C  45.24100 49.65800 42.23500
C  46.30900 48.76400 42.01300
C  45.29400 52.12200 43.05400
C  43.99500 49.16000 41.60600
O  42.88200 49.60100 41.44600
C  44.41500 47.72700 41.02700
C  43.54700 46.73900 41.64500
O  43.71400 46.41100 42.80200
O  42.61100 46.30400 40.72500
C  41.65100 45.38600 41.28600
H  50.07300 43.79300 41.22600
H  53.22700 48.58700 44.04400
H  47.86300 52.13700 43.98700
H  45.40200 44.97100 40.60600
H  47.84500 44.07400 39.37600
H  46.16500 43.32700 41.85000
H  47.85800 43.21400 42.13700
H  47.22000 42.20900 40.91100
H  46.84300 45.41100 37.99200
H  46.17400 46.86500 38.66600
H  44.28900 46.21400 37.41000
H  44.03400 44.86800 38.51800
H  52.63400 43.83900 40.23000
H  51.95900 42.99400 41.63700
H  53.60400 43.45700 41.70200
H  55.06100 48.10400 42.95900
H  56.30200 47.07500 43.50900
H  54.78900 47.15400 44.50100
H  52.72700 51.27800 43.67000
H  50.34800 51.99300 45.40300
H  52.50900 49.82600 46.10200
H  52.24100 51.55600 46.51000
H  53.59000 51.19500 45.50800
H  49.82000 53.28700 43.09500
H  51.60500 53.11200 43.02000
H  50.26900 55.14500 44.41000
H  51.84100 54.50300 45.03400
H  50.35900 54.13700 45.77000
H  45.16800 52.78400 42.19700
H  45.85200 52.66800 43.81500
H  44.34600 52.09700 43.59100
H  44.23600 47.79000 39.95400
H  41.90800 44.32700 41.29600
H  40.68600 45.30900 40.78600
H  41.37500 45.56200 42.32500
Mg 36.62800 49.44200 25.12300
C  36.39200 47.63400 28.11600
C  35.15200 52.15900 26.75100
C  36.15500 51.05300 22.21000
C  37.77000 46.69100 23.55900
N  35.80700 49.77900 27.23500
C  35.92100 48.94300 28.29000
C  35.53400 49.62700 29.60200
C  35.12000 51.05000 29.15900
C  35.34000 51.00100 27.57200
C  33.59100 51.43700 29.55200
C  36.76800 49.72300 30.61400
C  36.51900 49.21000 32.05100
H  35.03600 49.15700 32.47800
N  35.79500 51.33500 24.64000
C  35.38100 52.31400 25.41900
C  35.30900 53.61900 24.70700
C  35.41700 53.26900 23.32200
C  35.76800 51.82300 23.35100
C  34.97100 54.92700 25.33700
C  35.30000 54.12200 22.05600
O  35.48900 53.71700 20.93400
C  35.08100 55.69200 22.17700
N  36.83700 48.92300 23.19900
C  36.63300 49.75700 22.14900
C  37.02300 49.09700 20.83400
C  37.82700 47.83000 21.33100
C  37.54700 47.82000 22.79200
C  35.82600 48.81900 19.84000
C  39.34800 47.78800 20.87200
C  40.25700 48.66600 21.68700
N  37.12400 47.61800 25.72700
C  37.64900 46.61100 24.95800
C  37.94400 45.41700 25.85100
C  37.48500 45.83300 27.06000
C  36.98100 47.13900 26.92500
C  38.61600 44.08500 25.54500
C  37.33100 45.31400 28.42300
O  37.70900 44.30200 29.00000
C  36.62000 46.50500 29.17500
C  35.33900 46.06100 29.81600
O  34.24900 46.09200 29.28500
O  35.59000 45.58400 31.06100
C  34.58100 44.66200 31.50500
H  34.74000 53.06700 27.19700
H  36.13700 51.49100 21.21000
H  38.24800 45.86900 23.02200
H  34.75300 48.93300 29.91300
H  35.74600 51.80300 29.63700
H  33.05900 50.64300 30.07400
H  32.93500 51.70100 28.72200
H  33.65200 52.18400 30.34300
H  37.12600 50.73900 30.77800
H  37.57200 49.17300 30.12500
H  37.00800 49.82200 32.80900
H  36.84500 48.17300 32.12200
H  34.00800 55.19800 24.90500
H  35.82700 55.55500 25.09000
H  34.95800 54.93200 26.42700
H  34.08400 55.78100 22.60700
H  35.01000 56.11900 21.17700
H  35.74100 56.26400 22.82800
H  37.72500 49.84200 20.45900
H  37.37900 46.91000 20.95600
H  34.87500 49.30400 20.06100
H  35.57100 47.76100 19.88400
H  36.17900 49.04700 18.83500
H  39.32800 48.07700 19.82100
H  39.70000 46.75700 20.92300
H  40.76100 49.33200 20.98700
H  41.11100 48.09600 22.05300
H  39.79500 49.26500 22.47200
H  37.99100 43.39200 24.98100
H  39.01900 43.54200 26.40000
H  39.45600 44.34200 24.89900
H  37.40400 46.73400 29.89700
H  33.91900 44.21500 30.76300
H  34.04700 45.22200 32.27200
H  35.17600 43.95200 32.08100

