158

Mg 41.47200 9.13800 29.85800
C  43.27200 10.30300 32.72400
C  39.10900 7.93500 32.06000
C  39.72100 8.15100 27.27400
C  44.01000 10.40100 27.89300
N  41.23400 9.14300 32.16800
C  42.07700 9.66700 33.09200
C  41.52700 9.59000 34.48800
C  40.42000 8.52200 34.25200
C  40.21300 8.50300 32.75800
C  40.62800 7.11100 34.84700
C  40.91200 10.87500 35.04700
C  40.92400 10.89100 36.59400
H  41.71700 11.93100 37.43900
N  39.70900 8.18100 29.70900
C  38.83600 7.84900 30.70800
C  37.64600 7.22100 30.14600
C  37.74400 7.44900 28.74700
C  39.09000 7.88700 28.50500
C  36.64600 6.59500 31.05700
C  36.69200 7.34500 27.62800
O  36.93700 7.60300 26.42900
C  35.20100 7.10100 28.08200
N  41.92000 9.24300 27.92000
C  41.02100 8.69000 27.00200
C  41.46500 8.97300 25.54400
C  42.72800 9.81400 25.72600
C  42.90400 9.87200 27.25300
C  41.54000 7.72700 24.65400
C  42.62300 11.28900 25.08400
C  41.64600 12.25100 25.73800
N  43.33800 10.03700 30.19600
C  44.28100 10.49400 29.28700
C  45.46600 10.98800 29.89200
C  45.04400 11.02800 31.27100
C  43.75600 10.45300 31.42300
C  46.71000 11.42100 29.21100
C  45.44000 11.40300 32.63900
O  46.41000 12.00300 33.04800
C  44.33000 10.97200 33.60300
C  44.90000 10.15200 34.79700
O  45.34400 9.03100 34.72500
O  44.69100 10.88900 35.99500
C  45.13600 10.11000 37.14300
H  38.31500 7.90100 32.80900
H  39.22400 7.95800 26.32100
H  44.84500 10.67100 27.24200
H  42.28400 9.02800 35.03500
H  39.47700 8.87300 34.67100
H  39.69600 6.81200 35.32600
H  41.35300 7.20200 35.65600
H  41.06700 6.40900 34.13700
H  39.89100 11.12100 34.75600
H  41.46200 11.74000 34.67600
H  41.23500 9.91900 36.97800
H  39.84700 10.97700 36.74100
H  35.71500 7.13400 30.88100
H  36.70000 6.73600 32.13600
H  36.61400 5.51500 30.91400
H  34.84000 7.94300 28.67200
H  35.34700 6.18300 28.65200
H  34.64600 6.84900 27.17800
H  40.67100 9.59900 25.13700
H  43.56400 9.28100 25.27300
H  42.48600 7.68800 24.11300
H  40.75900 7.82600 23.90000
H  41.37900 6.80500 25.21100
H  42.24900 11.12900 24.07300
H  43.64300 11.66900 25.03200
H  41.48600 11.89000 26.75400
H  40.75300 12.17400 25.11800
H  42.05800 13.25900 25.77600
H  46.87300 10.82300 28.31500
H  47.47700 11.51700 29.98000
H  46.47200 12.42200 28.85200
H  43.97300 11.93800 33.95800
H  46.21500 9.97200 37.07600
H  44.65900 9.14800 37.33300
H  44.93800 10.66300 38.06200
Mg 6.80400 53.92800 39.52200
C  5.95100 50.51900 39.87100
C  9.89800 53.12600 38.69700
C  7.11100 57.07700 38.23700
C  3.37700 54.48700 39.91200
N  7.73200 52.01400 39.03400
C  7.23700 50.76900 39.30600
C  8.31300 49.73400 39.23800
C  9.71000 50.53800 39.13600
C  9.13100 51.98900 39.01500
C  10.60200 50.36800 40.44800
C  8.14600 48.93400 37.89200
C  7.87400 49.70200 36.60000
H  6.45600 49.71500 36.11300
N  8.29800 54.99300 38.68300
C  9.56400 54.48800 38.51100
C  10.46200 55.56800 38.23200
C  9.71200 56.72500 37.87000
C  8.29500 56.27600 38.22100
C  11.87600 55.28600 37.97500
C  10.22200 58.09800 37.34400
O  11.40100 58.39100 37.31200
C  9.33800 59.19500 37.11700
N  5.41200 55.46300 38.95000
C  5.81700 56.75300 38.66700
C  4.72200 57.79300 38.73000
C  3.50800 56.98300 39.23700
C  4.08900 55.53000 39.31800
C  5.11300 59.15000 39.53500
C  2.31200 57.09700 38.25900
C  1.12100 57.91200 38.79600
N  5.01400 52.77400 39.96900
C  3.72900 53.21100 40.22600
C  2.94600 52.16200 40.67500
C  3.82000 51.04200 40.73300
C  5.02200 51.49000 40.14400
C  1.48600 52.36700 41.05000
C  3.88500 49.59600 40.96100
O  3.05800 48.78200 41.40100
C  5.32300 49.21300 40.38100
C  5.00900 48.24900 39.26800
O  4.19700 48.34500 38.34100
O  5.70300 47.12400 39.56600
C  5.38300 45.96000 38.73700
H  10.89500 52.71000 38.53600
H  7.23900 58.12800 37.97100
H  2.33100 54.71900 40.12400
H  8.34500 49.15500 40.16100
H  10.21800 50.24100 38.21800
H  10.43100 49.36500 40.83800
H  10.37700 51.07100 41.24900
H  11.64000 50.54000 40.16400
H  7.46600 48.09000 38.01300
H  9.09200 48.40700 37.76900
H  8.55200 49.22100 35.89400
H  8.20100 50.73900 36.68100
H  12.26500 54.67800 38.79300
H  12.46900 56.19300 38.09300
H  12.11000 54.82400 37.01600
H  8.74600 58.91400 36.24600
H  9.95800 60.07400 36.94200
H  8.68300 59.41200 37.96100
H  4.49400 58.13800 37.72200
H  3.16600 57.20700 40.24700
H  5.23600 59.99900 38.86300
H  5.96600 58.79600 40.11400
H  4.29800 59.41800 40.20800
H  1.79500 56.17600 37.98700
H  2.60700 57.51500 37.29600
H  1.19100 57.98000 39.88200
H  0.15600 57.47700 38.53400
H  1.15900 58.95400 38.47700
H  1.22700 51.58100 41.76000
H  0.83000 52.25600 40.18600
H  1.24700 53.38100 41.36900
H  6.00200 48.71200 41.07100
H  4.31500 45.91300 38.52300
H  5.64500 45.05300 39.28200
H  5.91700 45.95400 37.78700

