158

Mg 8.14600 3.17200 27.11300
C  9.74100 1.84000 29.94200
C  6.16500 5.09000 29.17100
C  6.60000 4.22100 24.36700
C  9.72600 0.57800 25.24900
N  7.91400 3.33000 29.28500
C  8.73800 2.78100 30.19900
C  8.57400 3.48400 31.58900
C  7.25500 4.30000 31.38500
C  7.11200 4.31900 29.83900
C  5.90200 3.66400 31.97300
C  9.82700 4.32000 32.09600
C  9.52500 5.04500 33.42300
H  10.53700 4.94300 34.49900
N  6.65600 4.55400 26.80400
C  5.93300 5.20800 27.77100
C  5.08500 6.18800 27.15400
C  5.19300 5.97200 25.74400
C  6.18600 4.85200 25.59800
C  4.09300 7.13400 27.85000
C  4.48200 6.67600 24.62200
O  4.71900 6.48700 23.44800
C  3.42200 7.62600 24.84800
N  8.18500 2.51400 25.11100
C  7.40600 3.10900 24.13000
C  7.54000 2.47300 22.73500
C  8.62600 1.32900 23.03000
C  8.89000 1.50200 24.55100
C  6.20200 2.06500 22.03700
C  9.83800 1.31700 22.06200
C  9.84600 0.23500 21.00100
N  9.47300 1.52800 27.45000
C  10.00500 0.61200 26.62800
C  10.94500 -0.26900 27.38600
C  10.89600 0.19400 28.66900
C  9.95600 1.26900 28.69000
C  11.67100 -1.38100 26.88900
C  11.40000 -0.01700 30.02000
O  12.19300 -0.81400 30.43100
C  10.76000 1.06300 30.89600
C  10.05000 0.34800 31.97100
O  8.87400 -0.12200 31.88800
O  10.84300 0.46900 33.12400
C  10.10100 -0.09200 34.33900
H  5.61200 5.81300 29.77300
H  6.07400 4.53500 23.46300
H  10.15400 -0.21500 24.63300
H  8.47600 2.71100 32.35100
H  7.35500 5.33900 31.70000
H  5.49800 4.12500 32.87400
H  6.08300 2.61600 32.21400
H  5.14600 3.56900 31.19400
H  10.07900 5.10900 31.38800
H  10.69200 3.66600 32.20900
H  8.53500 4.85500 33.83700
H  9.56500 6.11500 33.22100
H  3.09600 6.91100 27.47000
H  4.21700 8.18000 27.57100
H  4.07000 7.07700 28.93900
H  2.63500 7.16900 25.44900
H  2.78800 7.68000 23.96300
H  3.74500 8.52100 25.38000
H  8.01500 3.22400 22.10500
H  8.12600 0.36200 22.98800
H  5.34200 2.20700 22.69200
H  6.37300 1.02900 21.74200
H  6.11100 2.63900 21.11500
H  10.77600 1.15000 22.59200
H  9.94300 2.24900 21.50700
H  9.93800 0.71900 20.02900
H  8.85600 -0.22000 21.02800
H  10.60400 -0.54500 21.07700
H  12.69500 -1.10200 26.64100
H  11.27500 -1.57100 25.89200
H  11.53700 -2.19500 27.60200
H  11.41300 1.85300 31.26600
H  9.53700 -0.98400 34.06600
H  9.33900 0.58400 34.72700
H  10.81700 -0.33800 35.12300
Mg 16.64700 51.31400 27.09700
C  18.74300 50.15300 29.74200
C  14.39100 52.16300 29.31900
C  14.88500 52.36000 24.49200
C  19.15200 50.19100 24.88900
N  16.63200 51.25000 29.22600
C  17.56000 50.77800 30.16900
C  17.20900 51.05900 31.61600
C  15.70600 51.43800 31.48400
C  15.49900 51.61900 29.91400
C  14.64900 50.56000 32.16900
C  18.04500 52.23900 32.17800
C  18.37200 52.26600 33.67000
H  17.19600 51.79100 34.56300
N  14.89400 52.22500 26.89700
C  14.08100 52.50400 27.98000
C  12.98700 53.27900 27.55400
C  13.00400 53.33300 26.08500
C  14.27500 52.61300 25.75300
C  12.01600 53.96400 28.44700
C  12.02100 53.83400 25.01600
O  12.21100 53.77200 23.81000
C  10.80700 54.67500 25.52700
N  17.00800 51.21100 24.91900
C  16.09400 51.81400 24.04100
C  16.59700 51.86700 22.62900
C  17.98100 51.15800 22.75600
C  18.13400 50.92200 24.27400
C  15.66800 51.19300 21.59900
C  19.22800 51.87100 22.15900
C  19.68800 51.27100 20.80900
N  18.45600 50.29500 27.22200
C  19.31200 49.81600 26.26800
C  20.33800 49.05700 26.82900
C  20.20500 49.22800 28.22000
C  19.07600 49.99600 28.38100
C  21.45400 48.48600 26.02500
C  20.81100 48.89900 29.53500
O  21.81200 48.25100 29.74000
C  19.85200 49.53000 30.59300
C  19.32000 48.50700 31.53300
O  18.44000 47.70400 31.31700
O  20.07200 48.53300 32.71100
C  19.76700 47.43000 33.65600
H  13.62900 52.39200 30.06600
H  14.30700 52.83500 23.69600
H  19.96400 49.93700 24.20400
H  17.39500 50.18200 32.23600
H  15.66000 52.43900 31.91200
H  14.06800 50.01100 31.42800
H  13.96700 51.19200 32.73800
H  15.22000 49.89700 32.81900
H  17.53900 53.19900 32.07400
H  18.94700 52.32300 31.57200
H  18.59700 53.31100 33.88000
H  19.27200 51.67600 33.84100
H  11.10000 53.38000 28.53900
H  11.81200 55.00300 28.18900
H  12.39000 53.97200 29.47100
H  11.17700 55.60600 25.95500
H  10.27300 54.13800 26.31100
H  10.15800 54.88200 24.67700
H  16.76200 52.88700 22.28100
H  17.87400 50.16300 22.32300
H  15.00300 51.94300 21.17200
H  15.12800 50.48000 22.22200
H  16.15700 50.53000 20.88500
H  20.05900 51.74100 22.85200
H  19.23900 52.95700 22.06600
H  20.17600 52.08900 20.27900
H  18.87200 50.88100 20.20000
H  20.45900 50.52900 21.01500
H  21.08100 48.10500 25.07400
H  21.92800 47.70100 26.61400
H  22.09400 49.35800 25.88700
H  20.33200 50.21700 31.29000
H  20.13500 46.50500 33.21400
H  18.68600 47.36300 33.78100
H  20.32000 47.78400 34.52600

