158

Mg -2.35000 17.38700 27.70200
C  -2.56800 15.08700 30.27900
C  -2.93300 19.94100 29.72100
C  -2.39700 19.45400 24.85500
C  -2.10700 14.68200 25.34600
N  -2.90800 17.42900 29.73100
C  -2.78700 16.44700 30.68300
C  -2.92400 16.98700 32.18300
C  -3.05800 18.52400 31.94300
C  -2.96000 18.65000 30.36900
C  -4.22300 19.19100 32.65800
C  -1.78200 16.63800 33.24000
C  -1.39200 17.64600 34.40700
H  -1.08100 16.96200 35.67800
N  -2.54400 19.37400 27.36400
C  -2.74200 20.26000 28.37800
C  -2.75600 21.63700 27.86500
C  -2.38600 21.49500 26.46700
C  -2.42200 20.05300 26.14300
C  -3.01100 22.86000 28.64700
C  -1.98300 22.56800 25.45100
O  -1.63800 22.31500 24.27800
C  -1.87900 23.96200 25.88200
N  -2.44600 17.13000 25.40400
C  -2.40900 18.18500 24.54700
C  -2.19300 17.66200 23.05800
C  -1.81300 16.19300 23.29400
C  -2.17300 15.93400 24.75400
C  -3.43100 17.79000 22.22600
C  -0.32100 15.93300 23.03200
C  0.71600 16.46000 24.05100
N  -2.50100 15.32300 27.61700
C  -2.33200 14.36100 26.68700
C  -2.27900 13.09700 27.37000
C  -2.47600 13.28000 28.73300
C  -2.59600 14.66100 28.87400
C  -1.92400 11.79900 26.70600
C  -2.40600 12.60900 29.96300
O  -1.97700 11.52900 30.25900
C  -2.56900 13.73100 31.07200
C  -1.53500 13.63400 32.12200
O  -0.36200 13.98000 32.00100
O  -2.13000 13.16100 33.27600
C  -1.30000 13.17600 34.49200
H  -2.94400 20.74500 30.46000
H  -2.42700 20.07900 23.95900
H  -1.76200 13.89000 24.67800
H  -3.82100 16.54500 32.61800
H  -2.16700 19.12200 32.13300
H  -4.76500 18.52700 33.33100
H  -4.93500 19.42000 31.86500
H  -3.85600 20.11600 33.10200
H  -0.83600 16.49800 32.71700
H  -2.16800 15.74100 33.72500
H  -2.14900 18.41100 34.57800
H  -0.43400 18.08600 34.12700
H  -2.26100 23.65000 28.68800
H  -3.29600 22.50800 29.63800
H  -3.89600 23.30400 28.19200
H  -2.79400 24.27600 26.38400
H  -1.53000 24.58500 25.05800
H  -1.06600 23.97300 26.60700
H  -1.39600 18.28300 22.64800
H  -2.36200 15.45800 22.70500
H  -4.17300 18.42200 22.71400
H  -3.89500 16.84600 21.94100
H  -3.13400 18.29500 21.30600
H  -0.08700 16.38500 22.06800
H  -0.03500 14.93100 22.71200
H  1.59500 16.92300 23.60100
H  1.04500 15.85200 24.89400
H  0.29400 17.33400 24.54800
H  -1.13500 11.82100 25.95300
H  -2.79500 11.35600 26.22400
H  -1.68400 10.99700 27.40400
H  -3.55100 13.66200 31.53800
H  -1.17300 12.15700 34.85700
H  -1.73700 13.81200 35.26200
H  -0.26600 13.50700 34.39700
Mg 45.15200 4.80200 46.62300
C  43.04400 7.73900 46.43100
C  42.24800 2.96400 46.69800
C  47.19800 2.34500 46.76500
C  47.92400 7.05600 46.63600
N  42.93800 5.36600 46.37300
C  42.26200 6.55800 46.38500
C  40.75100 6.46500 46.36400
C  40.56800 4.93000 46.53900
C  42.00100 4.36300 46.63500
C  39.58400 4.50400 47.63200
C  40.09100 7.07000 45.13000
C  40.94700 7.18900 43.85400
H  40.30900 7.18400 42.43500
N  44.75200 2.95600 46.79100
C  43.45700 2.31500 46.69100
C  43.73300 0.88700 46.64200
C  45.15400 0.69200 46.79000
C  45.77700 2.05100 46.76700
C  42.60200 -0.14300 46.66000
C  45.89200 -0.64100 46.85800
O  45.17500 -1.66300 46.77900
C  47.41200 -0.77100 46.97100
N  47.22500 4.72500 46.50700
C  47.84000 3.51800 46.68800
C  49.38300 3.61800 46.72200
C  49.59500 5.14800 46.69400
C  48.16600 5.65400 46.51400
C  49.98800 2.86900 47.98900
C  50.66900 5.69200 45.67300
C  51.77600 6.64300 46.20400
N  45.45000 6.90700 46.50900
C  46.63800 7.64500 46.61400
C  46.30200 9.09000 46.69800
C  44.96800 9.13700 46.54400
C  44.44700 7.82500 46.43900
C  47.27600 10.21900 46.80500
C  43.80600 9.96400 46.56400
O  43.66800 11.15400 46.61200
C  42.53100 9.07100 46.45200
C  41.60800 9.29200 47.72300
O  41.67600 8.66500 48.79800
O  40.79400 10.40800 47.54700
C  39.84200 10.76900 48.62400
H  41.31400 2.39800 46.69600
H  47.93000 1.53600 46.72800
H  48.75200 7.76300 46.71500
H  40.48500 7.02000 47.26300
H  40.23400 4.50100 45.59400
H  40.07600 3.80200 48.30500
H  38.70000 4.01600 47.22200
H  39.15800 5.35400 48.16700
H  39.68700 8.03300 45.44200
H  39.27000 6.47700 44.72600
H  41.74300 6.44800 43.92300
H  41.35700 8.19900 43.87400
H  42.55600 -0.72100 45.73700
H  41.58600 0.24200 46.75100
H  42.83300 -0.79100 47.50500
H  47.59600 -1.84500 46.95100
H  47.70000 -0.32300 47.92100
H  47.86900 -0.35200 46.07400
H  49.76300 3.22100 45.78100
H  49.88700 5.57300 47.65500
H  49.07100 2.69700 48.55300
H  50.61200 3.58600 48.52100
H  50.49200 1.91900 47.81000
H  50.11800 6.13000 44.84100
H  51.20800 4.83900 45.26100
H  52.72800 6.17400 45.95400
H  51.85200 6.87300 47.26700
H  51.76500 7.55700 45.61100
H  46.75900 11.14100 46.53800
H  48.03100 10.10100 46.02700
H  47.82900 10.15800 47.74200
H  41.96400 9.38800 45.57800
H  40.36500 11.37000 49.36700
H  39.45700 9.91100 49.17500
H  38.92600 11.26800 48.30600

