158

Mg -10.53100 40.15500 43.17000
C  -9.94400 36.91500 42.29600
C  -7.63500 41.25000 41.58900
C  -11.65900 43.43600 43.21400
C  -13.87700 39.27900 44.15700
N  -9.02900 39.20300 42.01800
C  -8.91600 37.80100 41.82100
C  -7.68300 37.49700 41.02000
C  -6.87900 38.85400 41.00700
C  -7.90300 39.84100 41.60100
C  -5.47800 38.86100 41.69900
C  -7.93800 36.84400 39.59100
C  -6.90000 35.83600 39.17400
H  -5.73500 36.29200 38.35800
N  -9.68400 42.06900 42.60600
C  -8.49300 42.27600 42.00100
C  -8.34300 43.67300 41.73400
C  -9.49900 44.33100 42.14300
C  -10.32800 43.27700 42.69200
C  -7.04700 44.26000 41.08300
C  -9.75400 45.84400 42.14600
O  -8.89300 46.54500 41.64000
C  -10.92000 46.52000 42.69300
N  -12.50700 41.17200 43.78800
C  -12.62300 42.51900 43.70900
C  -14.04000 42.95700 43.98900
C  -14.82500 41.61000 44.53800
C  -13.71300 40.61600 44.10500
C  -14.26700 44.20400 44.84900
C  -16.28200 41.30000 43.91900
C  -16.37900 40.53400 42.68300
N  -11.69800 38.47200 43.32000
C  -12.96800 38.27500 43.74900
C  -13.32100 36.82200 43.62200
C  -12.11600 36.28800 43.04800
C  -11.19400 37.30500 42.81800
C  -14.62600 36.27200 44.00900
C  -11.42100 35.02200 42.72600
O  -11.87000 33.88100 42.79300
C  -10.06000 35.45400 42.00700
C  -8.98400 34.64000 42.60700
O  -8.34100 34.82800 43.62200
O  -8.80300 33.58200 41.75600
C  -7.64900 32.68100 42.02100
H  -6.79000 41.60000 40.99200
H  -12.20700 44.37900 43.16700
H  -14.88200 39.04500 44.51300
H  -7.12100 36.81300 41.65700
H  -6.69500 39.12700 39.96800
H  -4.83800 38.01800 41.43900
H  -5.42800 39.05000 42.77100
H  -5.09700 39.72500 41.15400
H  -8.02700 37.67800 38.89500
H  -8.93800 36.41200 39.64200
H  -7.40800 35.04400 38.62400
H  -6.47200 35.36100 40.05700
H  -6.25800 44.57300 41.76700
H  -7.35300 45.08300 40.43700
H  -6.59500 43.61900 40.32600
H  -10.79800 47.60300 42.68400
H  -11.09100 46.27700 43.74200
H  -11.73600 46.24000 42.02600
H  -14.50600 43.15100 43.02200
H  -14.93700 41.54800 45.62000
H  -13.40600 44.48200 45.45600
H  -14.88800 43.88700 45.68700
H  -14.75100 45.04300 44.34700
H  -16.81300 42.23200 43.72800
H  -16.98700 40.84500 44.61600
H  -17.02000 41.07500 41.98700
H  -16.75300 39.57300 43.03700
H  -15.48700 40.25700 42.12200
H  -14.87400 35.29800 43.58800
H  -15.41400 37.00700 43.84300
H  -14.58100 36.11600 45.08700
H  -10.08800 35.23800 40.93900
H  -7.53200 31.96700 41.20600
H  -7.86800 32.04100 42.87600
H  -6.69300 33.15900 42.23500
Mg 0.08200 43.52400 26.63400
C  2.16100 42.73900 29.29500
C  -2.66400 42.50100 28.55800
C  -1.92400 44.03600 24.01100
C  2.84000 44.19900 24.61300
N  -0.20400 42.75800 28.70200
C  0.77500 42.68500 29.60400
C  0.23900 42.50300 30.98700
C  -1.29200 42.07800 30.70500
C  -1.41900 42.43100 29.24500
C  -1.71000 40.62000 30.94300
C  0.48100 43.79700 31.85700
C  1.22800 43.52700 33.17300
H  0.97500 42.26800 33.98000
N  -1.99600 43.30300 26.30000
C  -2.94300 42.82900 27.17200
C  -4.21900 42.77400 26.56700
C  -3.96000 43.15900 25.20700
C  -2.56100 43.48700 25.11700
C  -5.54300 42.47900 27.31300
C  -4.89800 43.26600 24.06100
O  -4.74600 43.76500 22.96900
C  -6.32300 42.65200 24.23700
N  0.49600 44.01900 24.52700
C  -0.57200 44.39700 23.83600
C  -0.14000 45.09200 22.56500
C  1.38600 45.42000 22.87000
C  1.61200 44.49100 24.02700
C  -0.31500 44.43500 21.25600
C  1.52100 47.00000 23.17600
C  1.68000 47.96800 22.06500
N  2.03800 43.49300 26.83000
C  3.08300 43.70900 25.93000
C  4.35400 43.67900 26.59800
C  4.03600 43.12100 27.86400
C  2.63000 43.07500 28.00700
C  5.65500 43.82600 25.92600
C  4.59500 42.70500 29.15000
O  5.80300 42.50500 29.39700
C  3.38200 42.58900 30.17700
C  3.50400 41.22800 30.75100
O  3.35600 40.22200 30.10900
O  3.95800 41.26600 32.03400
C  4.39700 39.99000 32.50700
H  -3.39600 41.97500 29.17400
H  -2.54800 44.08700 23.11700
H  3.72400 44.42700 24.01300
H  0.71000 41.61400 31.40700
H  -1.92400 42.69800 31.34200
H  -2.47100 40.56200 31.72100
H  -0.91000 40.04200 31.40800
H  -2.10000 40.09600 30.07100
H  -0.50600 44.19000 32.10100
H  1.06300 44.55100 31.32700
H  0.93200 44.30100 33.88100
H  2.28500 43.61400 32.92200
H  -5.98800 41.50500 27.10900
H  -6.38400 43.12300 27.05500
H  -5.33700 42.54800 28.38100
H  -6.84200 43.33500 24.90900
H  -6.28200 41.66500 24.69800
H  -6.68900 42.57000 23.21300
H  -0.74400 45.99900 22.52800
H  1.97000 45.16700 21.98400
H  -1.01100 45.03700 20.67100
H  -0.75700 43.43900 21.25600
H  0.57600 44.17500 20.68600
H  2.41200 47.11900 23.79300
H  0.64800 47.24500 23.78200
H  0.97600 48.77900 22.25300
H  1.31900 47.54400 21.12900
H  2.66600 48.41700 21.94300
H  5.83500 44.86500 25.65000
H  5.61300 43.20600 25.03000
H  6.44000 43.46900 26.59400
H  3.39100 43.40900 30.89500
H  3.61700 39.24900 32.68000
H  4.93900 40.09800 33.44700
H  5.11200 39.64800 31.75900

