158

Mg 49.59500 46.71300 42.87600
C  46.16600 47.17100 42.00900
C  49.48000 43.62100 41.30600
C  52.98900 46.50800 43.07700
C  49.80300 50.16200 43.51900
N  47.95100 45.54200 41.81600
C  46.66200 45.87500 41.67400
C  45.91200 44.74500 40.92900
C  47.00200 43.58700 40.75300
C  48.23200 44.24000 41.45200
C  46.58300 42.28900 41.39700
C  45.48700 45.21900 39.41600
C  44.03800 44.76300 38.99900
H  43.35100 45.40200 37.78800
N  51.03700 45.16900 42.41800
C  50.80600 44.04400 41.71700
C  52.03100 43.37900 41.35200
C  53.06100 44.06600 42.10300
C  52.36300 45.35000 42.53500
C  52.11000 42.19400 40.40800
C  54.48300 43.58500 42.18400
O  54.87700 42.51500 41.68400
C  55.54300 44.36200 43.06900
N  51.08000 48.08100 43.46900
C  52.44700 47.72500 43.54600
C  53.36900 48.85500 43.58900
C  52.39500 50.09000 43.76700
C  51.00000 49.48400 43.61300
C  54.57200 48.90300 44.61200
C  52.69800 51.22400 42.66900
C  52.75700 52.66300 43.26500
N  48.26600 48.31400 42.90800
C  48.52600 49.64500 43.21500
C  47.29400 50.42400 43.20900
C  46.32100 49.46000 42.72700
C  46.97100 48.22900 42.58000
C  47.01300 51.81000 43.53000
C  44.95000 49.26800 42.36900
O  43.99400 50.05600 42.52900
C  44.77400 47.74500 41.88200
C  43.78300 47.11500 42.77600
O  43.92500 46.85700 43.95800
O  42.71700 46.67700 42.00800
C  41.80700 45.85900 42.77700
H  49.53600 42.65500 40.79900
H  54.07000 46.45200 43.22200
H  49.82300 51.25200 43.58100
H  45.03100 44.38600 41.46200
H  47.21100 43.36900 39.70600
H  45.78500 42.47200 42.11600
H  47.36800 41.73700 41.91500
H  46.18900 41.55200 40.69600
H  46.15200 44.88500 38.62000
H  45.49300 46.30800 39.39200
H  43.37600 44.84000 39.86200
H  44.04100 43.68200 38.85700
H  51.31400 41.54800 40.77900
H  52.88700 41.43300 40.47500
H  51.97400 42.64300 39.42400
H  55.22000 44.53000 44.09700
H  55.64200 45.38400 42.70200
H  56.48000 43.80900 43.01000
H  53.91900 48.91400 42.65000
H  52.56000 50.38800 44.80300
H  54.49500 48.03100 45.26100
H  54.39800 49.71700 45.31600
H  55.54400 48.97500 44.12400
H  51.87400 51.21000 41.95500
H  53.59300 51.01800 42.08200
H  52.83900 52.57800 44.34800
H  51.77800 53.11800 43.11300
H  53.55700 53.19600 42.75000
H  47.73400 52.56300 43.21000
H  46.66000 51.90400 44.55700
H  46.08400 52.03700 43.00700
H  44.41400 47.87400 40.86100
H  41.80000 46.25500 43.79300
H  41.95100 44.77900 42.73700
H  40.81300 46.00500 42.35500
Mg -0.26100 33.97700 26.74000
C  -2.31900 32.39400 29.05400
C  1.15700 35.76300 29.23000
C  1.05300 36.03700 24.33600
C  -1.82400 32.17000 24.22900
N  -0.57700 34.09200 28.91100
C  -1.39300 33.26400 29.59000
C  -1.25700 33.67800 31.11200
C  -0.23400 34.88300 31.08400
C  0.28600 34.82700 29.66900
C  -0.72200 36.26200 31.48800
C  -0.81900 32.47700 31.96300
C  -0.35600 32.72300 33.41800
H  -0.72700 31.84200 34.57800
N  1.08700 35.68200 26.77500
C  1.57400 36.18900 27.88300
C  2.52400 37.19900 27.51200
C  2.52600 37.35100 26.08000
C  1.50500 36.39800 25.64100
C  3.28600 37.96000 28.45600
C  3.26000 38.35000 25.16600
O  3.16900 38.31200 23.92400
C  4.28200 39.36900 25.64200
N  -0.60800 34.26600 24.67800
C  0.17500 35.10700 23.90000
C  0.08600 34.77500 22.42800
C  -0.80600 33.47800 22.33400
C  -1.06000 33.24000 23.82200
C  -0.40800 35.93800 21.51700
C  -0.12300 32.20600 21.72900
C  0.95300 31.55900 22.60800
N  -1.78500 32.66000 26.60100
C  -2.29700 31.96700 25.52200
C  -3.35800 31.00300 25.93300
C  -3.32900 31.12700 27.33200
C  -2.43800 32.16400 27.68000
C  -4.06100 30.01100 25.13700
C  -3.93700 30.58400 28.57600
O  -4.79700 29.74700 28.72500
C  -3.17800 31.32000 29.77600
C  -4.16900 31.81600 30.73500
O  -4.88300 32.78500 30.58200
O  -3.98400 31.13600 31.93900
C  -4.87500 31.50000 33.05000
H  1.58900 36.47500 29.93600
H  1.72700 36.55600 23.65200
H  -2.25100 31.56800 23.42400
H  -2.17700 34.06800 31.54800
H  0.66100 34.69600 31.67700
H  -1.41000 36.18300 32.33100
H  -1.26700 36.66400 30.63500
H  0.16400 36.84100 31.74900
H  0.01300 32.02100 31.42700
H  -1.57700 31.70000 32.05700
H  -0.53100 33.76600 33.68200
H  0.72200 32.56600 33.46200
H  2.84400 38.92200 28.71500
H  4.31000 38.16200 28.14000
H  3.38100 37.37300 29.36900
H  4.01900 39.68500 26.65100
H  4.20000 40.26700 25.02800
H  5.27200 38.91300 25.63800
H  1.07800 34.42700 22.14100
H  -1.67600 33.55600 21.68300
H  -0.09900 36.90900 21.90400
H  -1.49300 35.86100 21.45000
H  -0.13200 35.74400 20.48000
H  0.27400 32.39300 20.73100
H  -0.81100 31.36200 21.68200
H  1.86600 31.35300 22.04900
H  0.64700 30.60600 23.03800
H  1.28900 32.29600 23.33700
H  -3.54300 29.73700 24.21800
H  -5.01500 30.32200 24.71300
H  -4.30200 29.21600 25.84300
H  -2.48500 30.61200 30.23000
H  -4.16600 31.65500 33.86300
H  -5.62700 30.75000 33.29200
H  -5.45700 32.41500 32.93700

