158

Mg 24.08200 -4.63500 45.96200
C  26.38600 -2.48000 44.35200
C  21.72500 -3.53200 43.83200
C  22.13400 -7.33000 46.86800
C  26.81400 -6.11100 47.68900
N  24.10600 -3.17800 44.25700
C  25.08400 -2.38000 43.82700
C  24.74300 -1.67200 42.63100
C  23.13600 -1.77000 42.59800
C  22.89200 -2.86000 43.64700
C  22.19000 -0.54800 42.97400
C  25.42500 -2.27600 41.34900
C  26.22600 -1.33300 40.50100
H  25.84700 -1.27400 39.02500
N  22.13600 -5.28700 45.51200
C  21.34200 -4.66300 44.64400
C  20.05800 -5.30900 44.64400
C  20.08500 -6.41000 45.56600
C  21.45300 -6.36500 46.10000
C  19.00300 -5.04800 43.59700
C  19.03000 -7.43000 45.78800
O  18.02500 -7.46100 45.05700
C  19.01900 -8.43200 46.89700
N  24.45800 -6.60000 47.06600
C  23.47600 -7.51400 47.24300
C  24.03000 -8.65600 48.11400
C  25.33200 -8.08900 48.66400
C  25.58600 -6.85000 47.76600
C  23.22000 -9.33200 49.23900
C  26.50300 -9.09300 48.57800
C  27.20600 -9.31400 49.93800
N  26.16800 -4.27400 46.12800
C  27.10200 -4.95800 46.88500
C  28.43000 -4.32500 46.71500
C  28.16300 -3.36400 45.73800
C  26.76000 -3.32200 45.48500
C  29.77900 -4.71500 47.25500
C  28.80700 -2.36200 44.91000
O  29.95100 -2.11600 44.76200
C  27.66000 -1.81700 43.95000
C  27.59200 -0.33000 44.02600
O  27.41400 0.30400 45.07700
O  27.70900 0.26300 42.85000
C  27.73000 1.74300 42.91600
H  20.96600 -3.16000 43.14000
H  21.49900 -8.10600 47.30100
H  27.67600 -6.34000 48.31800
H  24.97000 -0.61600 42.77000
H  22.82000 -2.06200 41.59600
H  22.49200 0.34200 42.42100
H  22.18000 -0.33900 44.04400
H  21.23500 -0.99500 42.69900
H  24.64000 -2.70500 40.72500
H  26.02100 -3.12700 41.68000
H  27.28700 -1.52900 40.65800
H  25.97000 -0.32000 40.80900
H  18.63800 -5.96300 43.13100
H  19.28800 -4.44100 42.73800
H  18.09000 -4.61000 43.99900
H  19.27900 -8.01100 47.86900
H  19.77800 -9.15500 46.59700
H  18.02200 -8.84700 47.04700
H  24.29100 -9.47500 47.44300
H  25.20300 -7.64500 49.65200
H  23.03000 -10.38200 49.01300
H  22.21400 -8.91600 49.18000
H  23.66800 -9.24300 50.22900
H  27.19400 -8.80800 47.78600
H  26.10500 -10.08600 48.36700
H  27.53600 -8.37700 50.38700
H  28.09700 -9.85200 49.61500
H  26.63500 -9.99700 50.56700
H  30.56200 -4.32300 46.60600
H  29.89100 -5.79300 47.13700
H  29.97000 -4.32600 48.25500
H  27.91500 -2.04700 42.91600
H  28.76000 2.06100 43.07900
H  27.06000 2.15200 43.67200
H  27.34800 1.99000 41.92600
Mg 28.32900 56.64200 40.69300
C  26.71800 53.68000 39.81600
C  31.27200 55.34600 39.32300
C  29.83900 59.53000 41.42400
C  25.16600 58.03000 41.36600
N  28.90700 54.70300 39.67900
C  28.05000 53.67700 39.39200
C  28.73800 52.51500 38.78700
C  30.22600 52.92300 38.83300
C  30.17800 54.39600 39.39200
C  31.32500 51.96800 39.58700
C  28.16000 51.93500 37.38100
C  27.67700 53.08600 36.45800
H  27.94400 53.01400 34.94800
N  30.34200 57.37100 40.36200
C  31.34000 56.71300 39.78300
C  32.50400 57.63300 39.70600
C  32.15200 58.83700 40.38500
C  30.73600 58.61300 40.78900
C  33.86100 57.22200 39.09200
C  33.05100 60.01900 40.58300
O  34.22300 59.89900 40.27000
C  32.67000 61.27600 41.32000
N  27.59000 58.54800 41.03400
C  28.41500 59.50400 41.50500
C  27.64800 60.75200 42.06200
C  26.14900 60.36400 41.83900
C  26.24600 58.87500 41.39100
C  28.01500 61.02800 43.52900
C  25.46800 61.20300 40.71100
C  26.31100 61.54500 39.51100
N  26.29200 56.00000 40.75200
C  25.12100 56.65300 41.01500
C  23.92500 55.76100 40.87500
C  24.53700 54.60000 40.45400
C  25.96900 54.79100 40.34300
C  22.53400 56.09400 41.26100
C  24.31600 53.21900 40.05700
O  23.29000 52.59500 39.99000
C  25.72000 52.52400 39.81700
C  25.93000 51.51300 40.87500
O  25.74500 51.69200 42.08200
O  26.58900 50.50900 40.31700
C  27.35000 49.58900 41.20000
H  32.25900 55.00400 39.00200
H  30.36900 60.38700 41.84600
H  24.24200 58.31400 41.87300
H  28.63000 51.66400 39.45900
H  30.51400 53.06200 37.79100
H  32.22000 51.87200 38.97300
H  30.79900 51.06000 39.88200
H  31.66100 52.47900 40.49000
H  27.33500 51.26400 37.62400
H  28.93900 51.35500 36.88600
H  28.21800 54.00500 36.68300
H  26.62700 53.29800 36.65800
H  34.21800 58.01300 38.43300
H  33.80700 56.22400 38.65800
H  34.60800 57.07100 39.87200
H  32.23500 60.97800 42.27400
H  31.97200 61.87300 40.73400
H  33.52900 61.82700 41.70300
H  27.89900 61.67000 41.53100
H  25.59700 60.36900 42.77900
H  27.13100 61.10200 44.16100
H  28.51300 61.98700 43.67400
H  28.54000 60.21500 44.03200
H  25.14200 62.13100 41.17900
H  24.57200 60.77400 40.26100
H  27.15500 60.88300 39.31700
H  26.68300 62.54700 39.72600
H  25.69500 61.53800 38.61200
H  22.25900 57.10500 40.96000
H  22.49400 55.97000 42.34400
H  21.91200 55.32500 40.80400
H  25.53200 51.98600 38.88800
H  28.38000 49.45900 40.86700
H  26.85900 48.63000 41.36200
H  27.47200 50.06300 42.17400

