158

Mg 17.47900 -0.28000 27.89100
C  16.43600 1.71700 30.54700
C  19.52700 -1.97200 30.06700
C  19.09100 -1.82400 25.24800
C  16.03700 1.89900 25.77700
N  17.94700 -0.04200 30.05100
C  17.19900 0.63700 30.94800
C  17.50100 0.25200 32.39600
C  18.64500 -0.80200 32.22400
C  18.79100 -0.91800 30.68200
C  19.99200 -0.43900 32.89400
C  16.25100 -0.39500 33.14100
C  15.98200 -0.03100 34.62400
H  17.20700 0.55900 35.42500
N  18.88100 -1.91200 27.69700
C  19.58200 -2.48500 28.72500
C  20.49500 -3.51600 28.25000
C  20.36500 -3.52100 26.77700
C  19.41700 -2.38300 26.52300
C  21.28600 -4.40000 29.19300
C  21.01600 -4.40500 25.77200
O  20.84500 -4.20500 24.56100
C  22.08000 -5.35400 26.11900
N  17.60900 -0.04100 25.78200
C  18.19700 -0.77500 24.89100
C  17.72700 -0.42000 23.45100
C  16.64400 0.67600 23.66100
C  16.73400 0.84500 25.13900
C  18.87000 0.12500 22.46800
C  15.27600 0.31400 23.03900
C  14.91200 1.08400 21.70900
N  16.41400 1.50100 28.01700
C  15.82400 2.25200 27.07700
C  15.16300 3.43500 27.67700
C  15.41300 3.27200 29.05900
C  16.14700 2.02200 29.17800
C  14.49700 4.50500 26.84700
C  15.13100 3.75100 30.40100
O  14.35000 4.69800 30.78000
C  15.67300 2.74500 31.36000
C  16.67900 3.52700 32.10900
O  17.66300 4.04000 31.65600
O  16.22200 3.65800 33.42300
C  16.87200 4.58700 34.31100
H  19.94100 -2.72600 30.74000
H  19.61500 -2.32200 24.43000
H  15.35000 2.37200 25.07200
H  17.85300 1.18900 32.82700
H  18.39000 -1.83000 32.48400
H  20.42100 -1.33400 33.34400
H  19.84800 0.41600 33.55400
H  20.79700 -0.02800 32.28300
H  16.36300 -1.47800 33.19000
H  15.27500 -0.21400 32.69000
H  15.69400 -0.89000 35.22900
H  15.04100 0.51800 34.66600
H  20.64300 -5.18700 29.58600
H  21.63800 -3.72800 29.97500
H  22.15900 -4.88500 28.75600
H  22.81300 -4.58000 26.34500
H  22.44500 -5.89900 25.24900
H  21.71100 -5.91900 26.97500
H  17.38700 -1.41600 23.16700
H  16.93900 1.61500 23.19400
H  19.87300 -0.16900 22.77600
H  18.93000 1.21200 22.53300
H  18.63000 -0.28100 21.48600
H  14.55200 0.50000 23.83300
H  15.23200 -0.75800 22.84500
H  15.74700 1.53600 21.17400
H  14.26000 1.87700 22.07600
H  14.45300 0.44800 20.95100
H  13.50500 4.24300 26.48100
H  15.08200 4.92600 26.02900
H  14.37600 5.30200 27.58100
H  14.88800 2.38300 32.02400
H  17.61300 5.20600 33.80400
H  17.55500 4.02900 34.95100
H  16.18900 5.19100 34.90900
Mg -10.96100 39.11200 40.18000
C  -10.17100 35.62200 39.98600
C  -7.78600 39.79600 39.17000
C  -12.03700 42.24700 39.87300
C  -14.32800 38.05900 41.02200
N  -9.21600 37.81700 39.51000
C  -9.09100 36.45200 39.55300
C  -7.68400 36.06600 39.05300
C  -6.85000 37.38700 39.23700
C  -8.02300 38.40800 39.32100
C  -5.85300 37.49800 40.41700
C  -7.59600 35.30500 37.69400
C  -7.00000 35.98500 36.51500
H  -7.79600 37.05500 35.72400
N  -10.01200 40.78900 39.54300
C  -8.69500 40.86700 39.32000
C  -8.41900 42.28700 39.20900
C  -9.56300 43.02500 39.36800
C  -10.60000 42.05000 39.60600
C  -6.98200 42.78200 38.98100
C  -9.70400 44.54100 39.44000
O  -8.69900 45.22500 39.29100
C  -10.90800 45.22300 39.73700
N  -12.98400 39.93600 40.22300
C  -13.06800 41.28900 40.09400
C  -14.50200 41.82300 40.29000
C  -15.20700 40.48800 40.94700
C  -14.17500 39.39500 40.57300
C  -14.63000 43.04300 41.18200
C  -16.66200 40.22800 40.48900
C  -17.73300 40.75000 41.37700
N  -12.03800 37.26200 40.59300
C  -13.35400 37.04100 41.02000
C  -13.50500 35.56700 41.31500
C  -12.26200 35.00100 40.86700
C  -11.42800 36.08800 40.45600
C  -14.67800 34.82500 41.90400
C  -11.55400 33.70600 40.69400
O  -11.83400 32.59100 41.02600
C  -10.26200 34.09700 39.90800
C  -9.07800 33.31100 40.47200
O  -8.66500 33.32000 41.57700
O  -8.40400 32.73800 39.41500
C  -7.34200 31.86900 39.76400
H  -6.74900 40.09400 39.00400
H  -12.39900 43.27500 39.80000
H  -15.35400 37.82900 41.31400
H  -7.26700 35.30000 39.70600
H  -6.30500 37.62400 38.32300
H  -6.04700 38.38000 41.02800
H  -4.92400 37.69300 39.88100
H  -5.74800 36.62700 41.06400
H  -8.59500 34.90500 37.51600
H  -6.99100 34.42300 37.90300
H  -6.86900 35.17200 35.80100
H  -5.98100 36.31500 36.71900
H  -7.21100 43.56700 38.26000
H  -6.40000 41.97400 38.53700
H  -6.50500 43.17000 39.88100
H  -11.29400 44.93100 40.71400
H  -11.51900 44.83100 38.92300
H  -10.84200 46.30700 39.64000
H  -15.00400 41.94300 39.33000
H  -15.31400 40.57100 42.02800
H  -15.14700 42.79500 42.10900
H  -15.21700 43.78300 40.63900
H  -13.69900 43.48200 41.54100
H  -16.76600 39.14400 40.44700
H  -16.85800 40.65800 39.50700
H  -17.32800 41.16900 42.29900
H  -18.41900 39.93100 41.58900
H  -18.28400 41.52700 40.84700
H  -14.72600 34.99100 42.98000
H  -14.49100 33.75400 41.82700
H  -15.54800 35.25100 41.40400
H  -10.51400 33.68200 38.93300
H  -6.64000 31.80100 38.93300
H  -7.84400 30.91000 39.89300
H  -6.82900 32.16000 40.68000

