158

Mg 1.53500 8.68200 27.25900
C  2.20000 10.51100 30.21000
C  1.19100 5.82400 29.07100
C  1.10700 7.10400 24.39900
C  1.75900 11.81900 25.56100
N  1.86100 8.19400 29.38800
C  1.97600 9.11300 30.50000
C  1.85400 8.38400 31.84900
C  1.69800 6.92400 31.38900
C  1.60400 6.90600 29.85500
C  2.87800 5.92200 31.78100
C  0.69600 8.99900 32.75300
C  1.20100 9.27800 34.23700
H  2.15800 8.22200 34.82600
N  1.20800 6.77300 26.80000
C  1.00100 5.68100 27.65400
C  0.60600 4.51800 26.90000
C  0.62000 4.86400 25.55300
C  1.00700 6.30900 25.51300
C  0.35700 3.18500 27.60000
C  0.32100 4.03700 24.27300
O  0.28000 4.52000 23.13200
C  0.13900 2.52600 24.42300
N  1.44900 9.40500 25.36200
C  1.29500 8.50000 24.33300
C  1.21700 9.16500 22.94400
C  1.07100 10.65600 23.35000
C  1.51500 10.64800 24.86500
C  2.52100 8.83600 22.20800
C  -0.30000 11.25700 23.11500
C  -0.46500 12.22300 21.90500
N  1.94000 10.80600 27.74300
C  2.05100 11.93500 26.95900
C  2.31700 13.08100 27.80800
C  2.54500 12.57200 29.04400
C  2.20600 11.19600 28.97700
C  2.38400 14.53700 27.36000
C  2.90400 12.87900 30.39900
O  3.26700 13.97200 30.86300
C  2.56700 11.59400 31.21500
C  3.65100 11.29100 32.17100
O  4.58900 10.51100 31.98300
O  3.34100 11.99900 33.36700
C  4.32000 11.93100 34.46700
H  1.12700 4.94000 29.70900
H  1.06400 6.60900 23.42700
H  1.62200 12.75700 25.01800
H  2.82300 8.41100 32.34700
H  0.74700 6.49300 31.70200
H  3.71500 5.91800 31.08300
H  2.45600 4.91700 31.75000
H  3.22500 6.07700 32.80200
H  -0.07600 8.23100 32.80500
H  0.38900 9.91200 32.24300
H  0.37900 9.35800 34.94800
H  1.78700 10.19100 34.33800
H  0.74600 2.28900 27.11500
H  -0.70600 3.12300 27.83200
H  0.88500 3.16500 28.55300
H  1.17100 2.21100 24.57400
H  -0.25200 2.12400 23.48800
H  -0.66700 2.40700 25.14700
H  0.34100 8.90400 22.35000
H  1.80800 11.19500 22.75400
H  2.30700 8.29400 21.28700
H  3.21800 8.23200 22.78900
H  3.11500 9.73600 22.04500
H  -0.48400 11.85900 24.00500
H  -1.17900 10.61600 23.05600
H  -1.21300 11.89600 21.18300
H  0.43800 12.25400 21.29600
H  -0.72100 13.22000 22.26400
H  1.77300 15.19400 27.97800
H  2.01200 14.52000 26.33500
H  3.36900 14.96800 27.17400
H  1.61900 11.84600 31.68800
H  3.72300 11.75700 35.36200
H  4.86100 12.87700 34.46400
H  4.94100 11.04200 34.35200
Mg 9.02400 4.42500 28.04100
C  10.35600 2.80000 30.91200
C  7.46000 6.52000 30.22700
C  7.64100 5.76400 25.37800
C  10.52000 1.95000 26.00500
N  8.94200 4.56300 30.36900
C  9.57600 3.85500 31.29800
C  9.31700 4.41600 32.75600
C  8.42800 5.64000 32.40100
C  8.29900 5.60700 30.89100
C  6.98100 5.42200 33.07400
C  10.66000 4.70000 33.59000
C  10.61200 5.65700 34.80000
H  11.12800 5.18900 36.12700
N  7.81300 6.02200 27.77500
C  7.18500 6.71100 28.83000
C  6.34800 7.65800 28.26100
C  6.40600 7.49400 26.85800
C  7.30200 6.35100 26.61100
C  5.57000 8.72400 29.02100
C  5.68000 8.26300 25.79300
O  5.78900 8.02900 24.58300
C  4.56400 9.33000 26.16400
N  9.20500 3.95600 25.88200
C  8.34600 4.64700 25.09500
C  8.64500 4.24900 23.66700
C  9.52200 2.94600 23.80200
C  9.74400 2.93100 25.29600
C  7.31800 4.07200 22.86100
C  10.76200 2.92900 22.90500
C  10.76800 1.82500 21.79200
N  10.25300 2.78900 28.31500
C  10.74800 1.85600 27.38600
C  11.58400 0.89100 28.12100
C  11.42700 1.24700 29.47800
C  10.63700 2.39400 29.52800
C  12.22700 -0.35600 27.60400
C  11.78600 0.84600 30.82900
O  12.50000 -0.08000 31.19700
C  11.22400 1.86700 31.76600
C  10.34100 1.23100 32.75900
O  9.23300 0.86800 32.52900
O  10.96300 1.18900 33.94800
C  10.12900 0.47200 34.95200
H  6.83300 7.18100 30.83000
H  7.29500 6.34400 24.52100
H  11.00800 1.18700 25.39600
H  8.72600 3.75300 33.38700
H  8.95300 6.52500 32.76100
H  6.63600 6.36500 33.49900
H  7.07900 4.64800 33.83400
H  6.28300 5.12500 32.29200
H  11.40400 4.97200 32.84100
H  10.85700 3.80500 34.18000
H  9.60700 5.96900 35.08300
H  11.13200 6.57100 34.51400
H  5.94300 8.84000 30.03900
H  4.52800 8.41500 28.93800
H  5.60200 9.74000 28.62800
H  3.87100 8.95300 26.91500
H  3.96900 9.64400 25.30600
H  5.02200 10.25100 26.52500
H  9.20300 5.01300 23.12500
H  8.95800 2.03100 23.62400
H  7.31400 3.13800 22.29900
H  7.24200 4.94600 22.21500
H  6.47600 4.15600 23.54800
H  11.63700 2.64100 23.48900
H  10.98800 3.88800 22.43900
H  11.40600 1.06900 22.24900
H  11.21700 2.24000 20.89000
H  9.79400 1.37300 21.60300
H  11.47800 -1.08800 27.30400
H  12.96100 -0.69300 28.33600
H  12.70800 -0.00500 26.69100
H  12.06000 2.38100 32.24000
H  9.21500 1.03300 35.14500
H  10.61300 0.44600 35.92800
H  9.90400 -0.54900 34.64600

