158

Mg 0.93800 44.30300 24.75100
C  2.91200 43.92200 27.63300
C  -1.87800 43.78700 26.92200
C  -0.95100 43.80100 22.15800
C  3.73600 44.33100 22.77600
N  0.59800 43.88300 26.98200
C  1.52400 43.88800 27.92500
C  0.93800 43.89200 29.35000
C  -0.58100 43.59800 29.07100
C  -0.66200 43.75200 27.55000
C  -1.10300 42.15500 29.49500
C  1.19500 45.14300 30.22200
C  1.21800 44.94600 31.74900
H  1.09700 43.54000 32.35000
N  -1.14400 44.00800 24.55000
C  -2.12400 43.83300 25.52600
C  -3.47200 43.75900 24.86400
C  -3.22600 43.93800 23.41800
C  -1.69300 43.90600 23.35300
C  -4.78800 43.63900 25.65100
C  -4.12700 44.12700 22.20100
O  -3.67400 44.47100 21.12200
C  -5.61900 44.03800 22.40000
N  1.28700 44.16000 22.70200
C  0.39800 43.86800 21.83500
C  0.93800 43.79900 20.38100
C  2.38300 44.29100 20.54600
C  2.48900 44.38500 22.10000
C  0.64300 42.42500 19.72400
C  2.78700 45.54500 19.88200
C  4.18300 45.56200 19.13400
N  2.98800 44.30200 25.09400
C  4.05500 44.41300 24.19600
C  5.35500 44.40400 25.00600
C  4.89300 44.20900 26.33100
C  3.47800 44.10500 26.34500
C  6.70000 44.55800 24.35000
C  5.34200 44.05500 27.65900
O  6.51800 44.07000 28.08100
C  4.15100 43.89300 28.54700
C  4.34500 42.65200 29.29600
O  4.06400 41.49900 28.94300
O  4.74500 43.00400 30.52000
C  4.74300 41.90500 31.55500
H  -2.73700 43.80400 27.59600
H  -1.49200 43.67800 21.21800
H  4.59400 44.33100 22.10100
H  1.44900 43.06300 29.84000
H  -1.20200 44.40000 29.47000
H  -1.21800 41.53900 28.60300
H  -2.04700 42.29800 30.02100
H  -0.41400 41.66400 30.18200
H  0.39000 45.87000 30.11600
H  2.18200 45.53800 29.97900
H  0.43600 45.61600 32.10600
H  2.15800 45.38800 32.07900
H  -5.44600 44.50000 25.53600
H  -4.74800 43.63700 26.74100
H  -5.35200 42.74900 25.37500
H  -5.77500 43.01800 22.75100
H  -6.01800 44.13600 21.39100
H  -6.03100 44.77300 23.09200
H  0.31600 44.39500 19.71300
H  3.09200 43.52100 20.24200
H  0.22100 41.85400 20.55100
H  1.64100 42.05300 19.49200
H  -0.06000 42.38600 18.89200
H  2.93300 46.29800 20.65700
H  2.02100 45.91500 19.20100
H  4.01400 45.62300 18.05900
H  4.85700 44.73800 19.37000
H  4.85500 46.38000 19.39400
H  6.87800 44.24300 23.32200
H  7.25200 43.85300 24.97200
H  7.10000 45.57200 24.35300
H  4.26000 44.72500 29.24200
H  5.76900 41.55400 31.65800
H  3.96800 41.15100 31.41800
H  4.48300 42.44400 32.46600
Mg -11.03900 16.44400 42.84400
C  -7.79900 15.22900 42.29700
C  -9.97700 19.47300 41.57500
C  -14.31100 17.43000 42.55900
C  -12.04200 13.35900 44.08000
N  -9.14000 17.18500 41.77500
C  -7.96400 16.51200 41.88300
C  -6.88300 17.37800 41.35100
C  -7.48400 18.84300 41.37100
C  -8.96400 18.48700 41.68200
C  -6.79000 19.77300 42.46300
C  -6.43700 16.91800 39.91100
C  -4.92400 17.01900 39.55700
H  -4.31400 15.87200 38.66500
N  -11.98500 18.21800 42.05100
C  -11.40900 19.32000 41.52800
C  -12.39600 20.31200 41.12700
C  -13.69600 19.76200 41.54300
C  -13.40100 18.42400 42.16300
C  -11.88800 21.66000 40.62300
C  -14.95200 20.45200 41.35000
O  -14.96100 21.56500 40.84900
C  -16.19700 19.85100 41.88600
N  -12.91900 15.54600 43.20800
C  -14.10500 16.16200 43.05100
C  -15.32100 15.12300 43.30000
C  -14.56000 13.98400 43.87400
C  -13.05500 14.34700 43.82400
C  -16.40700 15.68300 44.25400
C  -14.95800 12.53900 43.31300
C  -14.83100 11.37600 44.30100
N  -10.22400 14.65800 43.15600
C  -10.69700 13.46000 43.69900
C  -9.64100 12.50200 43.81800
C  -8.48600 13.13400 43.26200
C  -8.86000 14.45400 42.86000
C  -9.74300 11.15700 44.41100
C  -7.10500 12.95100 42.94900
O  -6.40000 11.99000 43.12800
C  -6.59300 14.32400 42.35200
C  -5.59000 14.82600 43.27100
O  -5.71400 14.96800 44.45000
O  -4.42000 14.93700 42.60700
C  -3.38400 15.62600 43.35200
H  -9.46000 20.38700 41.27800
H  -15.40100 17.48900 42.51900
H  -12.38100 12.43400 44.54900
H  -6.08500 17.24300 42.08200
H  -7.35300 19.43600 40.46600
H  -6.06300 19.16500 43.00100
H  -7.61200 20.09200 43.10400
H  -6.37900 20.61800 41.91200
H  -7.06400 17.55000 39.28200
H  -6.77200 15.90700 39.67600
H  -4.36100 17.15800 40.48100
H  -4.83600 17.98800 39.06600
H  -10.91200 21.54800 40.15200
H  -11.76300 22.47000 41.34200
H  -12.63100 21.99000 39.89700
H  -16.95100 20.63300 41.97500
H  -16.01100 19.31400 42.81700
H  -16.66900 19.19000 41.15900
H  -15.89700 15.04300 42.37800
H  -14.75600 13.92900 44.94400
H  -16.97500 14.92800 44.79700
H  -17.18500 16.15600 43.65600
H  -15.95600 16.37100 44.97000
H  -14.35700 12.25400 42.45000
H  -15.98000 12.61200 42.94200
H  -15.83800 10.97600 44.41800
H  -14.41400 11.65400 45.26900
H  -14.15900 10.66900 43.81400
H  -10.12400 11.31200 45.42000
H  -8.79200 10.62600 44.35700
H  -10.57300 10.74800 43.83600
H  -6.31000 14.16200 41.31200
H  -2.37400 15.24100 43.21100
H  -3.46500 15.39000 44.41300
H  -3.40700 16.70300 43.18800

