158

Mg 49.68300 35.38700 26.68100
C  47.61000 34.16400 29.28400
C  50.06400 38.24600 28.60700
C  51.21700 36.85600 24.06900
C  48.92900 32.56900 24.80100
N  48.92200 36.11000 28.68300
C  48.22000 35.37400 29.57700
C  48.26200 35.99000 30.88200
C  48.67800 37.44600 30.60000
C  49.24000 37.32800 29.15300
C  47.50100 38.49500 30.77900
C  49.28400 35.30500 31.79600
C  49.14600 35.42100 33.29600
H  47.95500 36.19500 33.89800
N  50.53900 37.30300 26.38400
C  50.65400 38.28200 27.30200
C  51.38700 39.37200 26.75100
C  51.88600 38.90100 25.45800
C  51.19800 37.59400 25.25400
C  51.77700 40.48200 27.56500
C  52.76700 39.54600 24.42700
O  53.15100 38.94600 23.41500
C  53.30900 40.98600 24.62700
N  49.85700 34.85900 24.63300
C  50.72600 35.58900 23.78900
C  51.00700 34.73800 22.51400
C  50.42500 33.31300 22.92700
C  49.65200 33.62400 24.17800
C  50.31500 35.39500 21.21400
C  51.45100 32.07700 22.92400
C  50.96700 30.76500 22.19700
N  48.58400 33.70000 27.00300
C  48.32000 32.60000 26.12900
C  47.55500 31.59200 26.73700
C  47.21800 32.14000 27.95900
C  47.84600 33.40900 28.05400
C  47.08900 30.27400 26.17800
C  46.44700 31.86400 29.19200
O  45.80200 30.86200 29.56800
C  46.57800 33.24800 30.01900
C  47.06100 32.82800 31.38200
O  48.08300 32.26300 31.57500
O  46.09300 32.86000 32.36100
C  46.41600 32.23400 33.66600
H  50.22800 39.04700 29.33100
H  51.61000 37.35200 23.17900
H  48.80900 31.67100 24.19200
H  47.24600 35.89400 31.26700
H  49.54400 37.68300 31.21800
H  47.23000 38.86200 29.78900
H  47.74000 39.37400 31.37700
H  46.66500 37.99600 31.26900
H  50.27400 35.69500 31.55900
H  49.33300 34.25100 31.52500
H  50.05600 35.93300 33.60900
H  49.08600 34.43100 33.74600
H  51.62900 40.38400 28.64000
H  51.24100 41.36000 27.20500
H  52.85100 40.56600 27.39400
H  52.59400 41.61500 25.15700
H  53.49700 41.26300 23.58900
H  54.27100 40.99000 25.14000
H  52.07000 34.61500 22.30600
H  49.74900 33.06600 22.10800
H  49.72000 36.24400 21.54900
H  49.68200 34.67300 20.69800
H  51.04600 35.88600 20.57200
H  51.59500 31.81200 23.97100
H  52.36200 32.49000 22.49200
H  49.93100 30.85700 21.87100
H  51.04600 29.92200 22.88300
H  51.55800 30.52400 21.31300
H  47.69600 29.38300 26.33400
H  46.78100 30.46400 25.15000
H  46.18400 30.00300 26.72300
H  45.65100 33.80600 30.15000
H  45.82600 32.57400 34.51700
H  47.46600 32.26800 33.95500
H  46.28600 31.17000 33.46900
Mg 9.43700 47.90900 26.07400
C  7.42700 47.69900 28.90100
C  11.92500 49.01800 28.09500
C  11.15300 48.48200 23.40300
C  6.61700 46.92300 24.02400
N  9.54500 48.58600 28.27000
C  8.67500 48.26900 29.26000
C  9.23700 48.81400 30.69100
C  10.78200 49.01500 30.41500
C  10.73400 48.92900 28.78100
C  11.23000 50.50400 30.88200
C  8.94800 47.91700 31.89600
C  9.64600 48.17900 33.31200
H  8.84300 47.91100 34.56500
N  11.32600 48.58000 25.78500
C  12.23100 48.86600 26.70800
C  13.48600 49.08500 26.09700
C  13.29400 49.01200 24.70500
C  11.84600 48.72800 24.58100
C  14.78100 49.36100 26.91800
C  14.29700 49.07300 23.60500
O  13.99900 48.92600 22.45100
C  15.76200 49.16500 23.90500
N  8.89800 47.88000 24.04300
C  9.88700 48.00000 23.14700
C  9.36900 47.94000 21.71300
C  8.02600 47.14800 21.95100
C  7.85900 47.29000 23.43100
C  9.27300 49.30500 21.03700
C  7.98000 45.66300 21.49100
C  9.22600 44.68300 21.75600
N  7.44500 47.35100 26.37700
C  6.46800 46.91700 25.51000
C  5.33200 46.45600 26.22700
C  5.62100 46.80100 27.60300
C  6.97500 47.29200 27.61200
C  4.07200 46.02200 25.58300
C  5.10800 46.87500 28.96100
O  3.96400 46.73400 29.39500
C  6.30700 47.24400 29.86800
C  6.77100 46.00200 30.56600
O  7.51100 45.13900 30.10800
O  6.21800 46.01900 31.83900
C  6.61000 44.89900 32.71400
H  12.84800 49.17000 28.65800
H  11.70200 48.57900 22.46400
H  5.70600 46.57400 23.53400
H  8.75000 49.77300 30.87000
H  11.40300 48.18000 30.73700
H  10.44900 51.00000 31.45900
H  11.23200 51.15200 30.00500
H  12.21400 50.54000 31.35000
H  9.08800 46.86500 31.64700
H  7.89100 48.04800 32.12600
H  9.99300 49.20800 33.41100
H  10.59000 47.64100 33.40000
H  14.59200 48.98700 27.92400
H  15.06600 50.40900 27.00800
H  15.62500 48.77200 26.56100
H  16.01000 49.85500 24.71100
H  16.24900 49.39900 22.95900
H  15.97500 48.12600 24.15500
H  10.15100 47.37800 21.20300
H  7.19500 47.73100 21.55500
H  9.53700 50.11700 21.71400
H  8.27500 49.57900 20.69700
H  10.02200 49.22800 20.24800
H  7.82200 45.72300 20.41500
H  7.19200 45.12100 22.01500
H  10.05900 45.34700 21.98800
H  9.49200 44.13500 20.85200
H  9.00300 44.06200 22.62300
H  4.40400 45.56200 24.65200
H  3.48300 46.92500 25.42200
H  3.43700 45.36700 26.17900
H  5.94800 47.94800 30.61900
H  7.61600 45.08700 33.08800
H  6.49500 43.95100 32.18900
H  6.00500 44.88500 33.62100

