158

Mg 35.99700 48.92600 25.62200
C  36.41400 47.06000 28.44600
C  34.97000 51.61200 27.24100
C  35.67100 50.35100 22.66900
C  36.81000 45.93500 23.76200
N  35.72200 49.25700 27.63900
C  36.05400 48.45300 28.64900
C  35.90600 49.21100 29.99000
C  35.36200 50.63600 29.59600
C  35.27700 50.50400 28.08600
C  33.93900 50.84400 30.25100
C  37.33800 49.20400 30.68800
C  37.31400 49.09700 32.18100
H  36.00800 49.19700 32.96700
N  35.28800 50.70500 25.05500
C  35.00200 51.70100 25.90200
C  34.66000 52.86100 25.14800
C  34.74400 52.52200 23.79800
C  35.28700 51.13700 23.81100
C  34.16100 54.23200 25.71700
C  34.45800 53.33300 22.54700
O  34.38800 52.87000 21.39600
C  34.24300 54.81700 22.69100
N  36.18700 48.19600 23.44800
C  36.05700 49.06200 22.44800
C  36.38700 48.51400 21.06400
C  36.99300 47.12800 21.47400
C  36.64300 47.05500 22.97900
C  35.17500 48.53500 20.10700
C  38.51100 46.93100 21.28400
C  39.01100 45.59500 20.63200
N  36.49800 46.86700 26.00100
C  36.77500 45.74100 25.16200
C  37.00800 44.52400 25.96900
C  36.88100 45.03800 27.29100
C  36.61000 46.44100 27.20900
C  37.18200 43.13300 25.38300
C  37.01400 44.62500 28.66900
O  37.36600 43.58800 29.21100
C  36.66300 45.97400 29.49700
C  35.47600 45.68600 30.30200
O  34.34900 45.73600 29.96300
O  35.86100 45.23900 31.53700
C  34.66700 44.99600 32.40100
H  34.68700 52.51000 27.79400
H  35.66500 50.84200 21.69300
H  37.02600 45.09800 23.09600
H  35.18700 48.71900 30.64500
H  36.02300 51.46100 29.86100
H  33.13100 50.75600 29.52500
H  33.84000 51.89900 30.50700
H  33.64600 50.27300 31.13200
H  37.75300 50.15100 30.34400
H  38.01100 48.45400 30.27300
H  37.93800 49.87900 32.61500
H  37.76500 48.14900 32.47400
H  34.79600 55.02900 25.32800
H  34.24200 54.45400 26.78200
H  33.26200 54.57500 25.20600
H  33.30200 55.14100 23.13400
H  34.14700 55.11700 21.64800
H  35.07500 55.28900 23.21500
H  37.00700 49.28000 20.59800
H  36.36300 46.48500 20.86000
H  34.30700 48.87900 20.67000
H  34.96200 47.55600 19.67800
H  35.25800 49.38100 19.42400
H  38.96100 47.05300 22.26900
H  38.98400 47.73000 20.71400
H  39.62800 45.05800 21.35200
H  39.63800 45.84500 19.77600
H  38.14300 45.02300 20.30300
H  37.90700 43.15300 24.56900
H  36.24900 42.74100 24.97800
H  37.42100 42.47800 26.22000
H  37.50100 46.30800 30.11000
H  33.81500 45.66200 32.26300
H  35.13700 45.14400 33.37300
H  34.36500 43.96100 32.24000
Mg 16.60000 52.78300 26.99800
C  18.44700 51.22600 29.57600
C  14.21500 53.78000 29.30500
C  14.73600 54.15100 24.59100
C  18.79000 51.29800 24.68700
N  16.39900 52.43200 29.12900
C  17.38100 51.95400 29.99400
C  17.05700 52.29700 31.43600
C  15.61800 53.00900 31.33600
C  15.35100 53.09400 29.80900
C  14.41000 52.25500 32.03400
C  18.20300 53.29500 31.98200
C  18.22600 53.33400 33.54500
H  17.17400 52.59100 34.31600
N  14.70700 53.83200 26.94300
C  13.87100 54.11000 27.97300
C  12.70300 54.83700 27.48900
C  12.83500 55.02800 26.09800
C  14.11800 54.30300 25.82100
C  11.55800 55.03900 28.39900
C  11.93700 55.79200 25.18500
O  12.11300 55.82600 23.97400
C  10.77700 56.60600 25.82200
N  16.69800 52.70800 24.91500
C  15.89900 53.49600 24.14800
C  16.26800 53.22100 22.66700
C  17.64200 52.49800 22.71300
C  17.76100 52.20000 24.22000
C  15.19800 52.21500 22.11800
C  18.85800 53.30500 22.29500
C  20.09000 52.64400 21.62300
N  18.29100 51.47900 27.03300
C  19.08600 51.02800 26.06100
C  20.24800 50.41000 26.62700
C  20.03900 50.35000 28.01200
C  18.78600 51.04800 28.24500
C  21.33200 49.71300 25.86000
C  20.51900 49.95600 29.33700
O  21.48900 49.31300 29.72700
C  19.45900 50.47700 30.37800
C  18.94800 49.38600 31.29600
O  18.08500 48.60800 30.99700
O  19.69700 49.25000 32.48200
C  19.06700 48.50300 33.58700
H  13.46100 54.10700 30.02500
H  14.11500 54.58700 23.80600
H  19.47000 50.76900 24.01600
H  17.00700 51.47800 32.15400
H  15.50200 54.04800 31.64500
H  13.87300 51.49000 31.47400
H  13.75600 53.00100 32.48600
H  14.83900 51.71300 32.87800
H  17.99100 54.29500 31.60500
H  19.22400 53.01300 31.72400
H  18.33200 54.39200 33.78700
H  19.13600 52.83000 33.87000
H  11.64000 55.98500 28.93400
H  11.56000 54.37300 29.26200
H  10.59200 55.01300 27.89400
H  10.05700 55.93300 26.28700
H  10.42700 57.32000 25.07600
H  11.21800 57.21600 26.61000
H  16.26800 54.15000 22.09800
H  17.70100 51.57400 22.13700
H  14.65900 51.77000 22.95400
H  15.60500 51.44300 21.46400
H  14.49600 52.80000 21.52500
H  19.15100 53.82800 23.20600
H  18.53300 54.16700 21.71300
H  19.92300 51.59400 21.38100
H  20.93900 52.56500 22.30300
H  20.37400 53.13000 20.69000
H  21.51900 50.10700 24.86100
H  21.05400 48.66800 25.72400
H  22.26800 49.74100 26.41800
H  20.08400 51.12400 30.99400
H  19.13600 47.42400 33.44800
H  18.03800 48.83300 33.72700
H  19.70700 48.75700 34.43200

