158

Mg 16.95100 -1.68900 27.83400
C  16.09200 0.54400 30.56100
C  19.12400 -3.13100 30.04100
C  18.18000 -3.49800 25.15100
C  15.47900 0.48900 25.71000
N  17.44600 -1.35200 30.09600
C  16.92100 -0.49100 30.96900
C  17.33400 -0.77600 32.39000
C  18.30100 -2.00900 32.23500
C  18.28500 -2.17500 30.69700
C  19.72800 -1.72000 32.93700
C  16.17300 -0.99100 33.38500
C  16.19200 0.04900 34.59700
H  17.60400 0.54500 35.14100
N  18.51200 -3.09500 27.66600
C  19.22000 -3.62600 28.65700
C  19.87200 -4.75400 28.20700
C  19.62400 -4.89800 26.80600
C  18.76000 -3.82600 26.45600
C  20.70500 -5.66200 29.12900
C  20.28600 -5.82600 25.80700
O  20.05300 -5.80100 24.59800
C  21.21300 -6.88300 26.37300
N  16.96700 -1.37900 25.74300
C  17.40500 -2.36100 24.87000
C  17.39000 -1.76800 23.41900
C  16.29500 -0.61900 23.58500
C  16.25700 -0.46100 25.10600
C  18.62600 -1.21900 22.71700
C  14.89100 -1.02800 22.98900
C  14.08400 0.00600 22.23200
N  15.92300 0.11300 28.01800
C  15.35200 0.90100 27.08600
C  14.60100 1.94400 27.62700
C  14.89800 1.85600 29.06400
C  15.75400 0.74000 29.17300
C  13.71600 2.81700 26.89200
C  14.67900 2.50600 30.31900
O  13.95500 3.43800 30.54900
C  15.41700 1.68100 31.41700
C  16.33400 2.65200 32.09100
O  17.43000 2.96600 31.75900
O  15.69700 3.13300 33.17000
C  16.30700 4.21300 33.93500
H  19.76800 -3.67400 30.73600
H  18.42700 -4.16200 24.32000
H  14.81700 1.09100 25.08300
H  17.93600 0.09200 32.65800
H  18.00700 -2.89000 32.80600
H  19.61100 -0.78100 33.47900
H  20.47400 -1.52400 32.16600
H  20.00600 -2.54100 33.59700
H  16.29500 -2.00200 33.77200
H  15.23200 -0.90000 32.84300
H  15.78600 -0.55100 35.41300
H  15.41100 0.77500 34.37100
H  20.22100 -6.63600 29.05500
H  20.55300 -5.56500 30.20500
H  21.77700 -5.72400 28.94700
H  21.67000 -7.40000 25.52900
H  20.70200 -7.63900 26.96900
H  22.08800 -6.44500 26.85300
H  16.92900 -2.49800 22.75300
H  16.57100 0.35800 23.18700
H  19.07400 -0.40600 23.28800
H  18.36800 -0.97100 21.68700
H  19.33300 -2.04000 22.60600
H  14.28800 -1.48200 23.77600
H  15.02800 -1.78700 22.21800
H  13.65400 -0.40900 21.32000
H  14.63500 0.92500 22.03200
H  13.34500 0.33400 22.96200
H  12.68500 2.46600 26.93700
H  14.03900 3.01900 25.87100
H  13.81300 3.70400 27.51800
H  14.63400 1.32800 32.08900
H  17.37200 4.10400 34.14200
H  15.81700 4.29300 34.90600
H  16.39800 5.16000 33.40200
Mg 9.98300 47.44800 25.33400
C  7.73100 47.82900 27.94600
C  12.25800 49.07800 27.17400
C  11.89200 47.36400 22.72600
C  7.11700 46.69400 23.26100
N  10.01300 48.18400 27.32900
C  9.00800 48.14700 28.30700
C  9.48500 48.56900 29.64400
C  10.78700 49.36900 29.30000
C  11.02100 48.82500 27.87600
C  10.78200 50.89600 29.53100
C  9.76900 47.31500 30.62300
C  9.89500 47.70200 32.09000
H  9.71300 46.58000 33.06800
N  11.90000 48.03400 24.95000
C  12.64200 48.73000 25.81900
C  14.01500 48.93600 25.22400
C  13.97900 48.39000 23.91900
C  12.56800 47.90500 23.82400
C  15.17200 49.50800 25.98300
C  15.01500 48.35000 22.83800
O  14.80700 47.90500 21.66800
C  16.37000 48.74900 23.23300
N  9.50000 47.16000 23.31800
C  10.56000 46.96900 22.42600
C  10.09600 46.27600 21.07600
C  8.57700 45.95000 21.37700
C  8.36500 46.61500 22.73100
C  10.27700 47.14700 19.77300
C  8.31500 44.42800 21.40900
C  8.83500 43.53800 22.52300
N  7.89700 47.23100 25.52300
C  6.84900 46.90900 24.66800
C  5.56700 46.97800 25.25900
C  5.90300 47.30300 26.56300
C  7.27500 47.43900 26.69200
C  4.12800 46.85400 24.61900
C  5.25900 47.48600 27.82300
O  4.08100 47.16800 28.09900
C  6.44300 47.77300 28.82000
C  6.34800 46.73200 29.92500
O  6.50600 45.49500 29.74400
O  6.16400 47.41000 31.13700
C  6.05300 46.58200 32.28800
H  12.98000 49.59200 27.81200
H  12.45100 47.26600 21.79300
H  6.36000 46.32600 22.56500
H  8.75900 49.18100 30.18000
H  11.59400 49.01800 29.94300
H  11.58800 51.18800 30.20300
H  9.80700 51.25000 29.86700
H  11.02200 51.47300 28.63800
H  10.71000 46.91300 30.24700
H  9.10500 46.46900 30.44800
H  9.15700 48.48300 32.27400
H  10.86900 48.12000 32.34500
H  14.91000 49.48100 27.04000
H  15.47200 50.51500 25.69200
H  16.09600 48.93000 25.99800
H  16.97400 48.69200 22.32700
H  16.82600 48.04200 23.92500
H  16.20600 49.77200 23.57200
H  10.66300 45.37500 20.84000
H  7.98400 46.31200 20.53700
H  11.09600 46.73500 19.18300
H  10.53900 48.15000 20.10900
H  9.43200 47.20500 19.08700
H  8.71700 44.00900 20.48700
H  7.24200 44.27600 21.29200
H  9.53500 42.81600 22.10100
H  8.02600 42.86300 22.80100
H  9.20900 44.20400 23.30000
H  3.90500 45.97700 24.01200
H  4.14500 47.70200 23.93500
H  3.40700 47.09300 25.40100
H  6.21800 48.71300 29.32400
H  5.29800 45.83100 32.05600
H  5.86800 47.11300 33.22200
H  7.06600 46.18500 32.35000

