158

Mg 17.33700 52.97000 26.08400
C  19.36700 51.66700 28.68700
C  14.91800 53.68500 28.46700
C  15.38300 54.08500 23.65000
C  19.53400 51.55200 23.80200
N  17.15200 52.63000 28.30200
C  18.16000 52.20500 29.14100
C  17.72700 52.33400 30.67700
C  16.22000 52.60500 30.44700
C  16.06400 53.05200 28.96100
C  15.16900 51.49800 30.75000
C  18.56500 53.45900 31.41300
C  19.07700 53.13900 32.85200
H  18.10200 52.40400 33.71100
N  15.45400 53.74700 26.09900
C  14.68400 54.10800 27.15600
C  13.51200 54.90100 26.76400
C  13.52100 54.82200 25.34600
C  14.86900 54.31600 24.95500
C  12.50900 55.55900 27.77400
C  12.38600 55.26200 24.34200
O  12.41200 55.21500 23.13200
C  11.12400 55.69200 24.93100
N  17.38700 52.75600 24.00900
C  16.46400 53.34300 23.20900
C  16.85800 53.37800 21.75600
C  18.17700 52.45500 21.75300
C  18.39800 52.22300 23.31000
C  15.75600 52.75800 20.82100
C  19.36800 53.13900 20.97600
C  20.31400 53.92500 21.75300
N  19.18100 51.91400 26.11600
C  19.98800 51.42100 25.12100
C  21.14300 50.86500 25.65900
C  20.99700 50.89100 27.09000
C  19.79100 51.52700 27.29600
C  22.22300 50.41500 24.79400
C  21.56000 50.56800 28.38400
O  22.61900 50.10100 28.72500
C  20.50300 51.03100 29.43000
C  20.00400 49.82500 30.17700
O  19.26800 49.04400 29.75700
O  20.43900 49.76900 31.52500
C  19.63300 48.96500 32.36600
H  14.20300 53.99200 29.23300
H  14.80900 54.54100 22.84100
H  20.19700 51.21000 23.00400
H  17.97000 51.39500 31.17500
H  15.93900 53.40600 31.13000
H  14.20700 51.91400 31.05000
H  15.60400 50.83900 31.50100
H  14.92700 50.95400 29.83700
H  18.03200 54.40300 31.52500
H  19.48200 53.57200 30.83400
H  19.28800 54.07500 33.37100
H  20.01900 52.59100 32.82400
H  11.53700 55.90600 27.42400
H  13.10600 56.42400 28.06500
H  12.31800 55.02700 28.70600
H  10.80600 54.90700 25.61700
H  10.40300 55.89200 24.13900
H  11.17200 56.62100 25.49900
H  17.13600 54.36200 21.37700
H  17.95000 51.49200 21.29400
H  15.48000 53.51100 20.08300
H  14.93000 52.47000 21.47300
H  16.13300 51.90300 20.26100
H  19.03900 53.82500 20.19500
H  19.94200 52.31600 20.54900
H  20.44100 54.92800 21.34500
H  21.34600 53.61300 21.59500
H  20.09800 54.11300 22.80400
H  22.34000 50.97800 23.86800
H  21.97800 49.38800 24.52100
H  23.16200 50.44800 25.34500
H  20.89200 51.71400 30.18400
H  19.93100 47.97100 32.03300
H  18.56000 49.00900 32.17700
H  19.77700 49.10800 33.43700
Mg -11.08200 38.48000 41.98600
C  -9.47500 35.59500 40.81400
C  -8.53900 40.29100 40.46900
C  -13.03000 41.20500 42.13400
C  -13.85300 36.46100 42.73700
N  -9.19300 37.95900 40.68200
C  -8.74100 36.72100 40.42900
C  -7.45500 36.80700 39.55600
C  -7.17700 38.34400 39.50400
C  -8.32700 38.92700 40.30300
C  -5.83000 38.84400 40.05900
C  -7.69900 36.28400 38.03800
C  -6.66000 35.27600 37.60100
H  -5.83200 35.72200 36.39400
N  -10.78300 40.41700 41.61900
C  -9.67900 41.00200 40.95500
C  -9.84500 42.42100 40.89400
C  -11.12500 42.67800 41.39500
C  -11.74400 41.39800 41.67300
C  -8.77100 43.38500 40.45500
C  -11.76000 44.17300 41.42800
O  -11.10900 45.14300 41.06200
C  -13.20000 44.35000 41.90900
N  -13.12700 38.77200 42.42800
C  -13.70300 39.99500 42.47500
C  -15.20900 39.89200 42.73800
C  -15.45000 38.35300 43.02400
C  -14.07500 37.78300 42.75000
C  -15.60900 40.83500 43.89200
C  -16.55600 37.77500 42.06200
C  -17.67100 36.99800 42.77200
N  -11.53600 36.46000 41.99100
C  -12.62700 35.78600 42.52500
C  -12.40100 34.38800 42.29600
C  -11.27900 34.24700 41.58800
C  -10.70700 35.54900 41.42800
C  -13.28900 33.23700 42.72800
C  -10.37700 33.26800 41.00600
O  -10.36300 32.05100 40.89800
C  -9.15600 34.13900 40.55500
C  -8.03700 33.60200 41.38400
O  -7.01600 33.13400 40.90900
O  -8.28700 33.65000 42.75600
C  -7.22900 33.09600 43.59400
H  -7.82000 40.93400 39.95700
H  -13.75200 42.02300 42.15100
H  -14.69000 35.78200 42.91600
H  -6.73800 36.17300 40.07700
H  -7.51800 38.76100 38.55600
H  -5.29600 39.24800 39.19800
H  -5.27500 38.05800 40.57100
H  -5.98500 39.62400 40.80400
H  -7.71400 37.13100 37.35200
H  -8.66300 35.77400 38.02400
H  -7.20800 34.35100 37.42200
H  -6.02000 35.10200 38.46600
H  -9.18600 44.03500 39.68400
H  -7.88900 42.84600 40.10800
H  -8.43500 43.97000 41.31100
H  -13.50800 43.85400 42.82900
H  -13.84900 43.99300 41.10900
H  -13.33300 45.43100 41.86200
H  -15.72600 40.22300 41.83700
H  -15.71500 38.21100 44.07100
H  -16.10300 40.34500 44.73200
H  -16.35400 41.49800 43.45200
H  -14.69700 41.29100 44.27700
H  -16.17900 37.08600 41.30600
H  -17.01300 38.57500 41.48000
H  -18.59100 37.37000 42.32300
H  -17.60600 37.08500 43.85700
H  -17.66200 35.92300 42.59200
H  -12.90800 32.22200 42.83900
H  -14.08300 33.29600 41.98400
H  -13.54200 33.55100 43.74000
H  -8.97600 33.97100 39.49300
H  -6.24800 33.22000 43.13600
H  -7.42500 32.10400 44.00000
H  -7.17800 33.70800 44.49400

