158

Mg 7.79100 2.68400 27.58300
C  9.06100 0.97900 30.34200
C  5.58500 4.47800 29.77600
C  6.02700 3.65200 24.90100
C  9.31800 0.11900 25.54600
N  7.32800 2.67800 29.82100
C  8.14100 2.00000 30.73000
C  7.85700 2.43400 32.17400
C  6.67500 3.54500 31.95700
C  6.52000 3.59000 30.46400
C  5.39400 3.21500 32.77400
C  9.23900 3.01800 32.72500
C  9.47800 2.75500 34.16000
H  9.37900 3.89800 35.12800
N  6.25700 4.07000 27.34900
C  5.45500 4.63200 28.33800
C  4.66600 5.66800 27.67100
C  4.79100 5.47300 26.26800
C  5.74200 4.35600 26.08000
C  3.75700 6.59400 28.50600
C  4.19600 6.28200 25.04400
O  4.32400 5.98500 23.81500
C  3.32400 7.48800 25.32600
N  7.55200 1.79100 25.46100
C  6.81300 2.52000 24.58800
C  7.08400 2.04700 23.08300
C  8.17100 0.89400 23.36300
C  8.42300 0.94000 24.87500
C  5.86500 1.61500 22.29400
C  9.49500 0.97200 22.60800
C  9.86600 -0.17600 21.73100
N  9.01600 0.98800 27.80300
C  9.56000 0.03700 26.88800
C  10.34100 -0.87600 27.62600
C  10.19600 -0.54600 28.98700
C  9.39500 0.59500 29.02300
C  11.02000 -1.99300 27.00000
C  10.58800 -0.91100 30.34300
O  11.30400 -1.74600 30.82700
C  9.90400 0.09300 31.18200
C  9.09300 -0.66300 32.19200
O  8.12800 -1.32500 31.91500
O  9.68900 -0.47500 33.41400
C  8.76700 -1.04900 34.48100
H  4.99400 5.13300 30.42000
H  5.55200 4.09000 24.02100
H  9.88400 -0.61800 24.97200
H  7.52300 1.47600 32.57300
H  7.06000 4.55300 32.10600
H  4.68400 2.78800 32.06600
H  5.03900 4.13400 33.24100
H  5.59400 2.49100 33.56400
H  9.18600 4.10700 32.69400
H  10.07000 2.75300 32.07200
H  10.48100 2.36600 34.33200
H  8.73200 2.03200 34.49100
H  4.14600 6.87800 29.48400
H  2.85600 5.99900 28.65000
H  3.42000 7.50300 28.00700
H  3.92100 8.04500 26.04800
H  2.36200 7.19700 25.74700
H  3.38700 8.19300 24.49800
H  7.55900 2.78400 22.43500
H  7.64100 -0.04800 23.22300
H  4.95600 1.69200 22.89000
H  6.02900 0.58100 21.99100
H  5.61600 2.32400 21.50300
H  10.36500 1.15200 23.23900
H  9.54900 1.89500 22.03100
H  10.38400 0.20700 20.85200
H  9.03600 -0.80000 21.40100
H  10.59400 -0.83200 22.20800
H  11.57900 -2.45500 27.81300
H  11.70600 -1.56900 26.26600
H  10.28900 -2.71300 26.63300
H  10.71100 0.65600 31.64900
H  7.70300 -1.19000 34.29100
H  8.93200 -0.38400 35.32900
H  9.22300 -1.98400 34.80800
Mg -11.72800 37.29500 42.92100
C  -9.60700 35.04600 41.14600
C  -10.12500 39.96700 41.35900
C  -14.40500 39.27300 43.41800
C  -13.75100 34.46000 43.75100
N  -10.15400 37.41900 41.46700
C  -9.30900 36.40100 40.92800
C  -8.06500 36.98000 40.20700
C  -8.04300 38.39500 40.76300
C  -9.55500 38.66300 41.19000
C  -7.06700 38.54400 42.02600
C  -8.00500 36.95900 38.65900
C  -6.60300 37.19200 37.98600
H  -6.05700 36.14400 37.02600
N  -12.15600 39.39500 42.62000
C  -11.33900 40.25300 41.99100
C  -11.95100 41.54800 41.98800
C  -13.13500 41.45700 42.74600
C  -13.29500 39.95500 42.91300
C  -11.36800 42.89500 41.42100
C  -14.18500 42.54900 43.03500
O  -13.96200 43.70700 42.65700
C  -15.40500 42.21100 43.82100
N  -13.83800 36.94200 43.40600
C  -14.66800 37.91400 43.66000
C  -15.95700 37.44600 44.41400
C  -15.67700 35.91000 44.61200
C  -14.30900 35.68900 43.91900
C  -16.26400 38.26200 45.74600
C  -16.74500 34.99400 44.13200
C  -17.58700 34.31300 45.21300
N  -11.58600 35.15800 42.74400
C  -12.41400 34.15200 43.24500
C  -11.75500 32.86400 43.00500
C  -10.61300 33.19700 42.26700
C  -10.61200 34.56700 42.06200
C  -12.20300 31.58100 43.51000
C  -9.41300 32.61900 41.64600
O  -9.06900 31.42300 41.61400
C  -8.70600 33.78200 40.84300
C  -7.28100 33.87900 41.08300
O  -6.42900 33.44800 40.30900
O  -7.13500 34.32800 42.35500
C  -5.76300 34.13800 42.94000
H  -9.45300 40.72000 40.94100
H  -15.36800 39.72400 43.66400
H  -14.30900 33.60200 44.13000
H  -7.17800 36.52700 40.64900
H  -7.73500 39.06400 39.96000
H  -6.26300 39.22500 41.74700
H  -6.63800 37.60600 42.37800
H  -7.66800 38.99900 42.81400
H  -8.84500 37.50600 38.23100
H  -8.13600 35.88900 38.49500
H  -5.87600 37.06800 38.78900
H  -6.79800 38.14400 37.49400
H  -11.06400 43.56900 42.22100
H  -12.00300 43.44300 40.72500
H  -10.49000 42.61500 40.83800
H  -15.82600 43.13600 44.21400
H  -15.17600 41.64700 44.72500
H  -16.10600 41.73200 43.13700
H  -16.66300 37.69700 43.62300
H  -15.45900 35.78000 45.67200
H  -16.92900 37.61800 46.32200
H  -16.78700 39.17000 45.44600
H  -15.33600 38.50900 46.26200
H  -16.36200 34.28500 43.39800
H  -17.35300 35.63300 43.49200
H  -18.63500 34.61200 45.18100
H  -17.13900 34.34600 46.20600
H  -17.72400 33.24600 45.03600
H  -11.30200 31.05200 43.82200
H  -12.71600 31.07800 42.69100
H  -12.86400 31.70000 44.36900
H  -8.82400 33.64900 39.76700
H  -5.83200 34.67700 43.88600
H  -4.99800 34.61400 42.32700
H  -5.55500 33.12000 43.27000

