158

Mg 47.17800 24.67600 28.21000
C  48.39500 26.86700 30.60000
C  46.66100 22.38000 30.83100
C  46.04900 22.40400 25.91600
C  48.11800 26.76200 25.77600
N  47.48900 24.60000 30.48500
C  47.89200 25.69500 31.18900
C  47.64900 25.44700 32.66100
C  47.39400 23.92900 32.80900
C  47.23400 23.56600 31.28700
C  48.54200 23.14700 33.46800
C  46.57100 26.43900 33.13600
C  46.90500 27.19800 34.51300
H  45.87900 27.14900 35.59200
N  46.31100 22.75900 28.37800
C  46.30600 21.97100 29.54300
C  45.88300 20.69000 29.19300
C  45.58900 20.67000 27.75800
C  45.95200 22.00100 27.28100
C  45.65400 19.56300 30.19400
C  45.08800 19.56400 26.95300
O  44.79300 19.68100 25.80900
C  44.78100 18.18800 27.59700
N  47.31500 24.44900 26.10700
C  46.75800 23.48000 25.35000
C  46.98400 23.83900 23.84000
C  47.41100 25.32700 23.89300
C  47.63400 25.52400 25.37000
C  47.91500 22.93300 22.90000
C  46.45000 26.33700 23.17900
C  46.81100 26.90300 21.69800
N  48.01700 26.44000 28.20000
C  48.33800 27.22600 27.08900
C  48.95700 28.45200 27.51300
C  48.99600 28.31900 28.89900
C  48.42200 27.11700 29.22500
C  49.45500 29.56300 26.65200
C  49.39400 29.02100 30.12300
O  49.97600 30.03400 30.30300
C  48.77800 28.16000 31.26900
C  49.73900 28.07500 32.37900
O  50.77200 27.44000 32.36400
O  49.22400 28.80700 33.45800
C  49.97800 28.82500 34.70600
H  46.42800 21.66300 31.62200
H  45.53400 21.81800 25.15200
H  48.35800 27.45700 24.96800
H  48.65200 25.67200 33.02200
H  46.50000 23.68500 33.38400
H  49.47200 23.71100 33.54100
H  48.86800 22.36500 32.78300
H  48.20500 22.58700 34.34100
H  45.59600 26.00500 33.35900
H  46.27200 27.14200 32.35900
H  46.96800 28.24800 34.22900
H  47.87700 26.77600 34.77000
H  44.59700 19.29700 30.19100
H  46.02400 19.70700 31.20900
H  46.08900 18.69200 29.70400
H  45.76400 17.86900 27.94400
H  44.54400 17.51200 26.77600
H  43.92300 18.18700 28.26900
H  45.98200 23.80500 23.41100
H  48.35000 25.67900 23.46600
H  48.79400 23.45100 22.51700
H  47.32900 22.63700 22.02900
H  48.27800 22.14700 23.56100
H  46.31500 27.21900 23.80500
H  45.44200 25.92500 23.13100
H  47.67900 26.38900 21.28500
H  47.02400 27.96400 21.82700
H  45.99100 27.00600 20.98700
H  49.63900 29.18400 25.64600
H  50.30600 30.05400 27.12300
H  48.62700 30.26800 26.58500
H  47.84600 28.61700 31.60100
H  51.04900 28.66100 34.59000
H  49.62200 28.06000 35.39600
H  49.93900 29.86700 35.02400
Mg 47.94000 34.71500 26.75600
C  46.09000 33.49400 29.39800
C  48.62800 37.51300 28.69600
C  49.57200 36.04200 24.13800
C  47.03300 31.92600 24.82300
N  47.29500 35.39900 28.79700
C  46.70500 34.64100 29.73100
C  46.87600 35.20900 31.18200
C  47.38600 36.62700 30.86300
C  47.79300 36.55500 29.32400
C  46.45600 37.79200 31.15200
C  47.96600 34.37000 31.86500
C  48.23200 34.61000 33.31300
H  47.35600 35.56000 34.12600
N  49.00900 36.54200 26.42500
C  49.23800 37.53200 27.35000
C  50.11500 38.57600 26.77900
C  50.28500 38.12900 25.41200
C  49.62000 36.84300 25.24800
C  50.52400 39.74400 27.62400
C  51.09000 38.74500 24.38200
O  51.33500 38.30500 23.24900
C  51.66300 40.10400 24.69600
N  48.23200 34.13100 24.76500
C  48.99000 34.78500 23.89500
C  49.18500 34.09700 22.49800
C  48.66200 32.62300 22.89700
C  47.95500 32.89700 24.30300
C  48.34100 34.84900 21.33900
C  49.78500 31.56900 23.07800
C  49.95900 30.49900 22.04100
N  46.81200 33.03500 26.96100
C  46.41100 32.04500 26.10400
C  45.51100 31.12600 26.69700
C  45.34900 31.63400 27.98200
C  46.22100 32.77400 28.13100
C  44.97300 29.88400 26.10800
C  44.71300 31.41400 29.17600
O  44.01400 30.47000 29.59400
C  45.13000 32.55600 30.19800
C  45.58500 31.82900 31.49500
O  46.41700 30.97200 31.66500
O  44.73900 32.27100 32.52700
C  44.97900 31.85600 33.97000
H  48.80700 38.39300 29.31800
H  50.22700 36.29600 23.30200
H  46.88500 31.06000 24.17500
H  45.98000 35.19000 31.80200
H  48.29800 36.86400 31.41100
H  45.99100 38.10000 30.21600
H  46.90400 38.66700 31.62300
H  45.68000 37.40500 31.81200
H  48.86400 34.52400 31.26700
H  47.77100 33.31100 31.69700
H  49.21900 35.06300 33.41500
H  48.22700 33.61800 33.76500
H  49.86000 40.54200 27.29300
H  51.49000 40.16400 27.34400
H  50.58500 39.59500 28.70200
H  51.95500 40.59300 23.76700
H  52.44900 40.05100 25.45000
H  50.78200 40.66700 25.00600
H  50.22600 34.08800 22.17200
H  47.92000 32.32600 22.15600
H  47.35100 34.46600 21.58600
H  48.69900 34.49100 20.37400
H  48.57500 35.89200 21.55700
H  49.58700 30.93300 23.94100
H  50.74300 32.05300 23.26700
H  49.81200 29.56400 22.58200
H  50.96700 30.47700 21.62600
H  49.25600 30.63600 21.22000
H  45.63900 29.02200 26.13800
H  44.76000 30.09500 25.06000
H  44.05100 29.60500 26.61700
H  44.26500 33.15600 30.48000
H  45.96300 31.43500 34.17600
H  44.15200 31.26600 34.36600
H  45.00200 32.85700 34.40000

