158

Mg -2.53600 18.09100 26.23100
C  -2.87300 15.92900 28.88100
C  -3.32100 20.68400 28.28500
C  -2.73200 20.16500 23.53500
C  -2.35100 15.27600 24.03300
N  -3.12400 18.28000 28.36200
C  -3.17100 17.20700 29.29300
C  -3.43300 17.71200 30.75900
C  -3.45300 19.29600 30.46800
C  -3.33800 19.47400 28.92100
C  -4.72400 20.00000 31.01400
C  -2.40100 17.21800 31.75000
C  -2.29700 17.82700 33.16300
H  -2.13000 16.90100 34.40500
N  -2.85500 20.19900 25.90500
C  -3.12900 21.02700 26.92900
C  -3.21600 22.35800 26.35600
C  -3.39900 22.19600 24.95900
C  -2.94700 20.81300 24.71900
C  -3.36000 23.56900 27.23300
C  -3.73600 23.22400 23.96600
O  -3.73900 22.88000 22.80700
C  -4.08000 24.64300 24.27600
N  -2.41400 17.76600 24.07400
C  -2.42200 18.80400 23.19200
C  -2.54400 18.36000 21.74000
C  -2.47000 16.77300 21.89300
C  -2.45900 16.55700 23.44100
C  -3.73200 18.91900 20.92500
C  -1.30200 16.20700 21.03300
C  -1.71400 15.82700 19.64100
N  -2.48600 16.07400 26.36600
C  -2.36800 15.08600 25.40600
C  -2.12400 13.81700 26.13100
C  -2.42600 14.09000 27.50900
C  -2.57900 15.45100 27.55600
C  -1.83300 12.45300 25.48800
C  -2.60300 13.52200 28.80600
O  -2.63300 12.37500 29.15200
C  -2.70900 14.68700 29.78100
C  -1.39300 14.65500 30.45500
O  -0.34000 15.14400 30.00200
O  -1.48900 14.03600 31.62900
C  -0.24000 13.71000 32.34500
H  -3.49100 21.45300 29.04100
H  -2.76100 20.77100 22.62700
H  -2.28100 14.39900 23.38600
H  -4.43300 17.42200 31.08200
H  -2.58200 19.77100 30.91800
H  -5.38000 19.29800 31.52900
H  -5.40000 20.38100 30.24900
H  -4.33200 20.74400 31.70800
H  -1.39100 17.18000 31.34000
H  -2.81100 16.26100 32.07200
H  -3.16200 18.47500 33.30700
H  -1.43100 18.49000 33.16800
H  -4.39400 23.72900 27.54000
H  -3.00900 24.49100 26.76900
H  -2.68300 23.44600 28.07800
H  -4.20400 25.13600 23.31200
H  -3.17700 25.13800 24.63400
H  -4.92000 24.91500 24.91500
H  -1.60400 18.61000 21.24900
H  -3.45800 16.51100 21.51400
H  -3.30000 19.33100 20.01300
H  -4.26300 19.65400 21.52900
H  -4.43800 18.15400 20.60000
H  -1.04200 15.30400 21.58500
H  -0.50500 16.94700 20.96400
H  -1.28800 14.84400 19.43900
H  -1.16600 16.48500 18.96600
H  -2.78200 15.88000 19.43000
H  -1.08800 12.62900 24.71200
H  -2.72900 11.93800 25.14200
H  -1.41400 11.91700 26.34100
H  -3.55800 14.51100 30.44200
H  -0.40100 12.63200 32.36800
H  -0.28200 14.24100 33.29600
H  0.70700 13.83600 31.82100
Mg 17.53700 -0.58600 27.95900
C  16.38800 1.63200 30.48100
C  19.16800 -2.42700 30.32500
C  18.85600 -2.47200 25.49800
C  15.94700 1.51300 25.58700
N  17.74000 -0.41200 30.13600
C  17.18500 0.54800 30.96100
C  17.48900 0.25100 32.38700
C  18.64200 -0.82500 32.23700
C  18.64100 -1.21400 30.78700
C  20.03600 -0.28600 32.57400
C  16.24200 -0.13000 33.21200
C  16.48300 -0.02500 34.78700
H  17.84100 0.50900 35.35800
N  18.84700 -2.22000 27.91600
C  19.26500 -2.92200 29.00800
C  19.96700 -4.16600 28.65400
C  19.99200 -4.14600 27.22800
C  19.23000 -2.94300 26.77100
C  20.53300 -5.21900 29.69200
C  20.59500 -5.15400 26.23000
O  20.66800 -4.89300 25.05300
C  21.04800 -6.52700 26.71700
N  17.40200 -0.55400 25.87400
C  18.10000 -1.36100 25.07100
C  18.03700 -0.84300 23.60600
C  17.02100 0.26000 23.68500
C  16.68000 0.39900 25.13500
C  19.39600 -0.55200 22.89600
C  15.75400 0.27200 22.78700
C  14.45200 -0.51400 23.24400
N  16.31500 1.12600 27.97600
C  15.73400 1.85300 26.93200
C  14.92400 2.98200 27.49100
C  15.19800 2.89800 28.93500
C  16.02200 1.80400 29.13700
C  14.05400 3.94300 26.62100
C  14.97900 3.57400 30.15600
O  14.37400 4.55700 30.40800
C  15.65900 2.68600 31.22600
C  16.61800 3.49700 32.03000
O  17.68700 3.87000 31.70200
O  16.04300 3.90100 33.18900
C  16.81000 4.71900 34.05100
H  19.59200 -2.93400 31.19400
H  19.18000 -2.88600 24.54000
H  15.54100 2.22400 24.86400
H  17.84000 1.12500 32.93500
H  18.37400 -1.67800 32.86100
H  19.97600 0.70000 33.03500
H  20.69200 -0.33500 31.70400
H  20.42600 -1.01400 33.28500
H  15.85800 -1.09900 32.89300
H  15.58100 0.71300 33.01200
H  16.41100 -1.06000 35.12200
H  15.63000 0.54300 35.15900
H  19.80500 -6.02100 29.56300
H  20.43700 -4.85500 30.71500
H  21.54600 -5.53800 29.44500
H  20.26100 -6.98300 27.31800
H  21.91600 -6.43600 27.36900
H  21.18000 -7.12700 25.81700
H  17.59300 -1.66200 23.04100
H  17.48700 1.16800 23.30200
H  19.35900 0.22000 22.12800
H  19.72700 -1.47800 22.42500
H  20.13400 -0.24600 23.63800
H  16.01300 -0.19100 21.83500
H  15.38700 1.28500 22.61900
H  13.78600 0.30500 23.51600
H  14.64400 -1.20500 24.06600
H  13.97400 -1.06200 22.43200
H  13.81600 3.46800 25.66900
H  14.64100 4.78500 26.25600
H  13.19200 4.26000 27.20700
H  14.78600 2.52700 31.85800
H  16.63700 5.74000 33.71100
H  17.80600 4.28800 34.16000
H  16.33300 4.56000 35.01800

