158

Mg -2.71400 17.03900 26.91800
C  -3.07600 14.74100 29.50500
C  -3.08600 19.59900 29.36900
C  -2.61800 19.36100 24.47800
C  -3.10900 14.59700 24.48700
N  -2.80600 17.16200 29.24000
C  -3.02400 16.05900 29.99800
C  -3.25500 16.47300 31.45900
C  -3.35000 18.08400 31.35000
C  -3.10700 18.33000 29.85700
C  -4.81700 18.61800 31.80700
C  -2.19000 15.93400 32.44600
C  -1.66900 16.84200 33.61100
H  -1.31600 16.10500 34.92300
N  -2.80100 19.21300 26.99200
C  -2.99400 20.05200 28.03600
C  -2.87000 21.36900 27.57300
C  -2.56800 21.32400 26.16000
C  -2.65100 19.89100 25.79700
C  -2.93400 22.62200 28.47600
C  -2.22700 22.48200 25.21400
O  -1.83200 22.26000 24.07100
C  -2.28500 23.86200 25.63400
N  -2.75700 16.95700 24.75000
C  -2.68700 18.07100 24.02600
C  -2.91400 17.79100 22.54600
C  -3.11500 16.18200 22.50800
C  -2.92900 15.88100 23.99100
C  -4.19400 18.51900 21.91600
C  -2.21100 15.48000 21.53300
C  -1.00700 14.66600 22.07600
N  -2.97700 15.09400 26.90000
C  -3.06600 14.14600 25.86700
C  -3.06600 12.75900 26.43300
C  -3.14700 13.02300 27.80600
C  -3.01400 14.42000 28.06500
C  -3.09900 11.41800 25.72700
C  -3.32200 12.33100 29.05100
O  -3.46300 11.13200 29.33800
C  -3.39400 13.45800 30.21600
C  -2.41200 12.99800 31.28100
O  -1.22800 13.19200 31.36300
O  -3.08900 12.31900 32.25000
C  -2.34200 12.07500 33.46200
H  -3.10300 20.33500 30.17500
H  -2.51200 20.06200 23.64700
H  -3.17500 13.84700 23.69600
H  -4.23600 16.05100 31.67800
H  -2.62200 18.58500 31.98800
H  -5.05500 19.41900 31.10700
H  -4.67400 18.93400 32.84000
H  -5.71300 18.00300 31.89200
H  -1.30800 15.72800 31.83900
H  -2.64100 15.01800 32.82600
H  -2.50700 17.51600 33.78500
H  -0.80600 17.43700 33.31200
H  -3.03800 22.43500 29.54500
H  -3.70900 23.31500 28.14600
H  -2.02100 23.21100 28.39600
H  -3.22000 24.13900 26.12000
H  -2.15300 24.50600 24.76500
H  -1.41200 24.12400 26.23200
H  -1.97900 18.13100 22.09900
H  -4.11300 15.87300 22.19500
H  -3.91700 19.07200 21.01800
H  -4.59600 19.27900 22.58600
H  -5.01900 17.90800 21.55000
H  -1.69900 16.34300 21.10700
H  -2.75100 14.83300 20.84200
H  -0.62300 15.20000 22.94600
H  -0.20100 14.57600 21.34800
H  -1.33200 13.66700 22.36500
H  -3.03900 11.64300 24.66200
H  -4.01100 10.83800 25.86900
H  -2.26200 10.77700 26.00400
H  -4.32900 13.51700 30.77400
H  -3.07400 12.00300 34.26700
H  -1.69700 12.91200 33.72700
H  -1.71000 11.20000 33.31300
Mg 46.84700 16.86300 28.04800
C  45.10100 16.20400 31.10500
C  49.10300 18.58200 30.02700
C  48.34300 17.90200 25.28000
C  44.16800 15.69200 26.34900
N  46.98600 17.33900 30.32800
C  46.27800 16.83700 31.42200
C  46.85400 17.38400 32.82200
C  48.00200 18.32700 32.31800
C  48.07300 18.03200 30.81000
C  48.01500 19.82700 32.82900
C  47.24500 16.15600 33.65600
C  46.55300 16.06100 35.06300
H  46.73300 17.21300 36.05900
N  48.49400 17.97200 27.69500
C  49.32100 18.51200 28.62400
C  50.50500 19.04200 27.96700
C  50.39300 18.87600 26.57600
C  49.06100 18.22600 26.43600
C  51.72200 19.51600 28.73900
C  51.30300 19.24200 25.44500
O  51.09900 19.09500 24.23100
C  52.53800 20.02200 25.73000
N  46.45000 16.68000 26.11400
C  47.09900 17.33300 25.11600
C  46.29700 17.20100 23.79200
C  45.10300 16.24600 24.07700
C  45.22500 16.22100 25.61200
C  45.96100 18.60500 23.24700
C  45.35000 14.82400 23.49300
C  44.59200 14.54600 22.23200
N  45.09000 15.94700 28.50600
C  44.09300 15.59300 27.72300
C  42.92800 15.15900 28.50400
C  43.30200 15.34800 29.87400
C  44.63300 15.82800 29.79800
C  41.65200 14.62000 27.89300
C  42.87300 15.22700 31.22300
O  41.82500 14.80900 31.64400
C  44.04700 15.82600 32.10300
C  43.50600 17.00500 32.81400
O  43.15300 18.00900 32.18200
O  43.24600 16.72200 34.13500
C  42.82100 17.91700 34.88400
H  49.83500 19.08300 30.66400
H  48.80300 18.11900 24.31300
H  43.35400 15.25500 25.76700
H  46.08200 17.98400 33.30400
H  48.85500 17.78600 32.72900
H  48.52700 20.14200 33.73800
H  46.96400 20.00400 33.05800
H  48.12200 20.46300 31.95000
H  48.29600 16.12000 33.94300
H  46.97300 15.23100 33.14800
H  47.00500 15.18700 35.53200
H  45.48200 15.86100 35.09400
H  52.59400 18.88600 28.56600
H  51.62000 19.51700 29.82400
H  51.92500 20.53800 28.41900
H  53.17100 19.64200 26.53200
H  52.34300 21.01600 26.13200
H  53.21300 20.18600 24.88900
H  46.97500 16.84000 23.01900
H  44.13000 16.66300 23.81700
H  46.49100 19.32000 23.87700
H  44.88600 18.78200 23.20700
H  46.30300 18.70300 22.21700
H  44.99200 14.07700 24.20200
H  46.43400 14.72500 23.42900
H  44.06000 13.61400 22.42400
H  45.24300 14.39300 21.37100
H  43.94800 15.36600 21.91500
H  40.95100 14.48700 28.71700
H  41.90600 13.65500 27.45500
H  41.25100 15.38100 27.22400
H  44.34400 15.12300 32.88100
H  41.89200 18.31100 34.47200
H  43.55700 18.71400 34.77600
H  42.55100 17.76700 35.93000

