158

Mg 9.29700 3.70000 27.37300
C  10.54200 2.11800 30.22000
C  7.32500 5.62000 29.33600
C  7.60800 4.66300 24.52600
C  10.88900 1.09600 25.50200
N  8.96700 3.83000 29.51900
C  9.64100 3.14800 30.51200
C  9.39700 3.77400 31.88700
C  8.25800 4.86500 31.56400
C  8.09800 4.75600 30.02800
C  6.89600 4.85500 32.34900
C  10.68700 4.50600 32.47600
C  11.47800 3.90400 33.59100
H  11.34200 4.60700 34.93300
N  7.81700 5.04700 26.96000
C  7.15700 5.79500 27.92800
C  6.32000 6.72300 27.21400
C  6.26900 6.33800 25.89700
C  7.24700 5.26600 25.73200
C  5.58800 7.86300 27.91500
C  5.34900 6.91300 24.82600
O  5.39400 6.49700 23.66800
C  4.42200 8.03800 25.02400
N  9.11700 2.89300 25.31200
C  8.46800 3.55600 24.30500
C  8.74600 2.96900 22.91900
C  9.85800 1.92600 23.29400
C  10.01200 2.02000 24.82700
C  7.49900 2.31000 22.14400
C  11.18900 2.16100 22.46600
C  11.64000 0.85800 21.73300
N  10.51500 1.95400 27.75500
C  11.09400 1.03900 26.87900
C  11.89400 0.11300 27.59100
C  11.73200 0.54900 28.95100
C  10.85700 1.59600 28.96900
C  12.70800 -0.97000 26.97400
C  12.13500 0.28400 30.27600
O  12.93500 -0.56200 30.67400
C  11.33100 1.28200 31.20900
C  10.58100 0.38900 32.16000
O  9.69200 -0.39500 31.87800
O  11.28200 0.51700 33.37700
C  10.46900 0.17700 34.61500
H  6.67700 6.31100 29.87900
H  7.12100 5.01700 23.61500
H  11.25500 0.43900 24.71000
H  9.05800 2.97400 32.54600
H  8.60300 5.88700 31.71800
H  6.12700 4.48200 31.67300
H  6.51100 5.84400 32.59500
H  6.92900 4.23800 33.24600
H  10.46300 5.55000 32.69300
H  11.39400 4.52600 31.64600
H  12.53300 4.02500 33.34400
H  11.26100 2.86500 33.84000
H  4.52300 7.63200 27.88200
H  5.67000 8.79900 27.36200
H  5.85800 8.03600 28.95700
H  3.86800 8.10100 24.08800
H  5.00100 8.91000 25.32700
H  3.65200 7.72100 25.72900
H  9.13900 3.75300 22.27100
H  9.50700 0.94100 22.98700
H  6.53400 2.32700 22.65100
H  7.65400 1.24700 21.96100
H  7.49300 2.98100 21.28500
H  12.02000 2.27600 23.16200
H  11.21000 3.02400 21.80100
H  12.44700 1.19200 21.08200
H  10.92000 0.49700 20.99800
H  12.04300 0.08700 22.38900
H  12.64000 -0.92600 25.88700
H  12.12700 -1.87900 27.12800
H  13.75500 -1.01900 27.27000
H  12.07300 1.88500 31.73100
H  11.10000 -0.48100 35.21300
H  9.45800 -0.22100 34.52500
H  10.49100 1.03900 35.28200
Mg -2.35600 35.35300 26.38800
C  -3.46400 33.54200 29.20000
C  -0.95800 37.65600 28.54500
C  -1.34300 37.04900 23.63300
C  -4.09500 33.12000 24.40000
N  -2.24700 35.50200 28.70300
C  -2.57700 34.56700 29.65500
C  -2.03600 34.93300 31.08200
C  -1.44800 36.36500 30.79500
C  -1.53900 36.55900 29.25100
C  -2.16300 37.51300 31.63800
C  -1.14800 33.90000 31.88900
C  -1.78700 33.18200 33.04700
H  -1.08600 33.25200 34.39400
N  -1.31600 37.26600 26.10900
C  -0.73700 38.00400 27.14100
C  0.00700 39.05000 26.51700
C  0.07500 38.68500 25.08700
C  -0.85000 37.59700 24.84200
C  0.86100 40.02000 27.35200
C  0.97100 39.27200 24.02100
O  1.04900 38.73800 22.88400
C  1.84400 40.55100 24.30100
N  -2.60200 35.01700 24.26300
C  -2.20100 35.99700 23.37500
C  -2.63900 35.61300 21.98600
C  -3.27000 34.15500 22.06700
C  -3.43400 34.13400 23.61200
C  -3.55200 36.69200 21.20200
C  -2.54700 32.94800 21.46600
C  -1.70300 32.21000 22.41600
N  -3.49400 33.73200 26.64300
C  -4.13800 32.92600 25.79700
C  -4.95500 31.96100 26.44100
C  -4.65600 32.17900 27.81100
C  -3.79600 33.25000 27.85100
C  -5.68700 30.82600 25.69700
C  -4.88800 31.66100 29.15000
O  -5.54600 30.67900 29.37300
C  -4.24300 32.58000 30.13400
C  -5.34200 33.25400 30.88700
O  -6.01000 34.12500 30.40700
O  -5.50100 32.70700 32.16500
C  -6.50400 33.33800 32.99900
H  -0.32900 38.27300 29.19000
H  -1.00400 37.38700 22.65200
H  -4.57100 32.42100 23.70900
H  -2.97500 34.98600 31.63300
H  -0.38900 36.39300 31.05300
H  -1.39600 38.03000 32.21600
H  -2.93000 37.12700 32.31000
H  -2.55900 38.11400 30.82000
H  -0.18400 34.28500 32.22000
H  -0.94500 33.06400 31.21900
H  -1.89800 32.14700 32.72300
H  -2.82900 33.50000 33.03100
H  0.26500 40.14300 28.25600
H  0.98300 40.99900 26.88800
H  1.83800 39.54600 27.44900
H  1.13400 41.32700 24.58900
H  2.48500 40.74200 23.44000
H  2.51100 40.32700 25.13300
H  -1.74300 35.48400 21.37800
H  -4.26800 34.19400 21.63000
H  -4.62100 36.49000 21.26500
H  -3.27000 36.92300 20.17500
H  -3.49600 37.56100 21.85800
H  -1.99500 33.24600 20.57500
H  -3.31600 32.22800 21.18600
H  -1.29800 32.72000 23.28900
H  -0.73200 31.95900 21.98900
H  -2.09800 31.29700 22.86200
H  -6.50500 30.39900 26.27700
H  -5.03000 29.95700 25.68900
H  -5.98000 31.04500 24.67000
H  -3.58200 31.98500 30.76400
H  -7.50300 32.94000 32.82300
H  -6.56800 34.41900 32.87900
H  -6.19900 33.22000 34.03900

