158

Mg 47.20400 34.41600 27.67700
C  45.53700 32.62600 30.13100
C  47.51200 37.07900 29.95400
C  48.27500 36.25700 25.24700
C  46.24300 31.84500 25.36700
N  46.59300 34.74600 29.82300
C  45.96400 33.79900 30.63800
C  45.96400 34.25400 32.04900
C  46.32500 35.82400 31.95800
C  46.95100 35.86800 30.51900
C  45.15000 36.85000 32.20300
C  46.97000 33.41400 32.94300
C  46.72800 33.35600 34.50100
H  45.88200 34.51200 35.13700
N  47.77700 36.36400 27.58700
C  47.99400 37.31900 28.64000
C  48.60400 38.47100 28.13100
C  48.95500 38.16700 26.77300
C  48.33800 36.90000 26.49900
C  49.03400 39.63700 29.10300
C  49.77500 38.94200 25.83000
O  49.95400 38.68300 24.63000
C  50.43100 40.25000 26.29100
N  47.23700 34.07300 25.61100
C  47.73300 35.07300 24.80500
C  47.69500 34.57800 23.31200
C  46.94500 33.21300 23.34900
C  46.79200 33.00700 24.84400
C  47.04900 35.64500 22.45200
C  47.60600 32.04600 22.56900
C  48.73900 31.25900 23.31300
N  46.37200 32.46900 27.67900
C  45.95800 31.58600 26.74000
C  45.41600 30.39000 27.33600
C  45.14000 30.84000 28.65300
C  45.70800 32.10200 28.81000
C  44.96900 29.09200 26.67800
C  44.42200 30.50800 29.82400
O  43.79400 29.53400 30.10100
C  44.42100 31.70800 30.74400
C  44.38100 31.27700 32.12900
O  45.22700 30.58400 32.64400
O  43.21800 31.73800 32.70700
C  43.17000 31.75300 34.21300
H  47.43400 37.87500 30.69700
H  48.74800 36.74300 24.39100
H  46.06600 30.96700 24.74300
H  44.93400 34.19100 32.40200
H  47.09700 36.14700 32.65700
H  44.18500 36.34500 32.22700
H  44.99800 37.53300 31.36800
H  45.42300 37.29700 33.16000
H  48.01500 33.71600 32.86900
H  46.92800 32.40700 32.52700
H  47.68000 33.44400 35.02500
H  46.09400 32.52600 34.81500
H  48.54200 40.55100 28.77000
H  50.11700 39.76100 29.11600
H  48.79000 39.46800 30.15200
H  49.79100 40.86800 26.91900
H  50.63200 40.99100 25.51700
H  51.39500 40.00000 26.73600
H  48.73300 34.47600 22.99500
H  45.91800 33.37100 23.02000
H  47.84700 36.19400 21.95200
H  46.32600 36.22300 23.02900
H  46.50200 35.15300 21.64800
H  48.04800 32.45200 21.65900
H  46.90100 31.35500 22.10800
H  48.39800 30.29200 23.68100
H  49.19800 31.76900 24.16000
H  49.72100 31.23800 22.84100
H  44.37200 29.39100 25.81700
H  44.48200 28.46200 27.42300
H  45.87600 28.66000 26.25500
H  43.42100 32.06200 30.49400
H  42.33800 31.12500 34.53100
H  42.90300 32.77800 34.47000
H  44.07500 31.49800 34.76600
Mg -4.87700 24.89000 26.59500
C  -3.34800 26.31000 29.38000
C  -6.30500 22.46500 28.60600
C  -6.23900 23.42600 23.88900
C  -3.08200 27.14700 24.58300
N  -4.83000 24.44800 28.72800
C  -4.28200 25.30000 29.63100
C  -4.80600 24.95900 31.06400
C  -5.47500 23.49100 30.91400
C  -5.58700 23.48000 29.31800
C  -4.76900 22.35000 31.73200
C  -5.81600 26.11200 31.48800
C  -6.01000 26.16600 32.99100
H  -5.52200 25.03000 33.88400
N  -6.00600 23.16300 26.28900
C  -6.50300 22.26500 27.26100
C  -7.30100 21.25300 26.59600
C  -7.29100 21.52300 25.22600
C  -6.46700 22.74700 25.05700
C  -8.00800 20.19000 27.41000
C  -8.03400 20.84800 24.01100
O  -7.86500 21.17000 22.86800
C  -8.97900 19.68100 24.32500
N  -4.78000 25.27300 24.56600
C  -5.49900 24.56400 23.66000
C  -5.07000 25.00900 22.26800
C  -4.05700 26.19600 22.44800
C  -3.98100 26.16900 23.97900
C  -4.47000 23.88800 21.27700
C  -4.35300 27.61700 21.86400
C  -3.08800 28.26700 21.10700
N  -3.50300 26.42100 26.94300
C  -2.86300 27.24700 26.01200
C  -2.06800 28.31100 26.70700
C  -2.23200 27.93100 28.10500
C  -3.07700 26.76500 28.08200
C  -1.13200 29.35400 26.09200
C  -1.76100 28.21000 29.48300
O  -1.02200 29.12400 29.88500
C  -2.63800 27.27400 30.35200
C  -1.62900 26.61500 31.26100
O  -0.67900 25.91000 30.95900
O  -1.99700 26.96900 32.56300
C  -1.08500 26.49700 33.59600
H  -6.78400 21.80000 29.32700
H  -6.61200 23.00800 22.95200
H  -2.41000 27.66600 23.89600
H  -3.89000 24.91900 31.65400
H  -6.50100 23.56600 31.27300
H  -5.35100 21.82300 32.48800
H  -3.85500 22.77400 32.14800
H  -4.52700 21.57900 31.00000
H  -6.83500 25.86300 31.19000
H  -5.33500 27.07000 31.29200
H  -7.08300 26.17800 33.18200
H  -5.61800 27.10900 33.37000
H  -9.03700 19.94700 27.14600
H  -8.17200 20.38900 28.46900
H  -7.39100 19.29200 27.45900
H  -8.35700 18.92700 24.80800
H  -9.36600 19.38000 23.35200
H  -9.83200 19.97500 24.93600
H  -5.98400 25.39500 21.81700
H  -3.05800 25.98100 22.07000
H  -3.43700 23.66000 21.53800
H  -4.48300 24.27700 20.25800
H  -5.14600 23.03500 21.33200
H  -4.71200 28.30900 22.62700
H  -5.17300 27.48000 21.15900
H  -3.23300 28.28100 20.02700
H  -2.12900 27.76200 21.23200
H  -2.84100 29.25200 21.50100
H  -0.26200 29.45300 26.74000
H  -1.58700 30.31400 25.85100
H  -0.71700 28.93400 25.17500
H  -3.32000 27.84500 30.98100
H  -1.63400 26.22600 34.49800
H  -0.38500 27.32800 33.68800
H  -0.53300 25.61100 33.28500

