158

Mg 24.74600 0.67000 29.97700
C  26.94000 0.35700 32.85600
C  22.11600 0.76800 32.17300
C  22.95300 1.22000 27.33300
C  27.60800 0.37100 27.96400
N  24.59200 0.36600 32.26500
C  25.56900 0.40300 33.19900
C  24.98800 0.46700 34.58500
C  23.48600 0.18100 34.39400
C  23.31000 0.46300 32.84000
C  23.06500 -1.30200 34.66800
C  25.41200 1.70700 35.33000
C  24.69100 2.02800 36.62400
H  25.59900 2.03300 37.81100
N  22.78300 0.85500 29.77300
C  21.87300 0.92900 30.75200
C  20.56300 1.19700 30.13800
C  20.78600 1.22400 28.75500
C  22.21000 1.08300 28.53900
C  19.30200 1.12400 30.93400
C  19.78700 1.53000 27.69000
O  20.07500 1.55400 26.47400
C  18.30600 1.79900 27.91800
N  25.18100 0.60900 27.93100
C  24.26300 0.96300 26.97900
C  24.86900 1.13300 25.53700
C  26.35200 0.94100 25.82500
C  26.36900 0.59700 27.34800
C  24.38400 0.10000 24.57700
C  27.21700 2.16300 25.47400
C  26.98100 3.47200 26.24000
N  26.79900 0.34800 30.32100
C  27.83900 0.22800 29.37400
C  29.08600 -0.06700 30.11100
C  28.77000 0.06800 31.48000
C  27.40700 0.28900 31.53100
C  30.36700 -0.14000 29.41400
C  29.35400 0.06600 32.76200
O  30.53800 -0.02100 33.07300
C  28.21600 0.27900 33.68500
C  28.19900 -0.91000 34.57000
O  27.85000 -2.02000 34.22100
O  28.53400 -0.50900 35.80500
C  28.55100 -1.55600 36.85700
H  21.21900 0.85400 32.78900
H  22.34300 1.68900 26.55800
H  28.53500 0.40900 27.38700
H  25.43500 -0.34000 35.16500
H  22.89800 0.84100 35.03300
H  22.49900 -1.79800 33.88000
H  22.66300 -1.66400 35.61400
H  24.01300 -1.83900 34.62800
H  25.34900 2.55400 34.64700
H  26.46800 1.63700 35.59200
H  23.94400 1.26800 36.85100
H  24.22000 2.98800 36.41300
H  18.92400 2.13400 31.09700
H  19.32300 0.50200 31.82900
H  18.57700 0.56000 30.34800
H  17.91500 0.78700 28.01800
H  17.81500 2.35700 27.12000
H  18.12400 2.37600 28.82500
H  24.63200 2.12900 25.16500
H  26.84700 0.16300 25.24400
H  24.67100 0.61000 23.65700
H  23.30000 0.03200 24.66300
H  24.92300 -0.82000 24.80000
H  26.91300 2.46600 24.47200
H  28.29800 2.06400 25.38000
H  27.89500 3.60600 26.81800
H  26.15300 3.60200 26.93800
H  26.77600 4.30100 25.56300
H  30.36300 -0.82600 28.56700
H  30.92600 -0.72400 30.14600
H  30.88900 0.78800 29.18100
H  28.38100 1.17700 34.28100
H  28.40200 -2.58600 36.53400
H  27.79800 -1.38200 37.62600
H  29.58600 -1.43200 37.17300
Mg 42.89600 41.99800 27.43100
C  41.86300 44.37200 29.87500
C  44.05600 40.10000 30.01700
C  43.97500 39.80500 25.10500
C  42.00500 44.29800 25.01900
N  42.90500 42.22300 29.66400
C  42.41000 43.22200 30.39200
C  42.47300 42.91900 31.89400
C  43.39100 41.64600 31.98800
C  43.47800 41.28000 30.47500
C  44.80200 41.76000 32.52700
C  41.08500 42.61100 32.56000
C  40.72400 43.41300 33.73500
H  40.25000 42.64500 35.01100
N  43.84800 40.07900 27.52200
C  44.20600 39.52100 28.68900
C  44.81100 38.21600 28.32600
C  44.68400 38.12100 26.94900
C  44.12100 39.35500 26.46800
C  45.16500 37.19100 29.37700
C  45.04100 36.96200 26.02400
O  44.66300 36.93800 24.85300
C  45.74800 35.81000 26.53300
N  43.20600 42.07700 25.38200
C  43.52800 41.02800 24.57200
C  43.31900 41.31800 23.06100
C  42.51000 42.63900 23.09200
C  42.63900 43.09400 24.63400
C  44.58700 41.47800 22.26500
C  41.12500 42.41400 22.52000
C  40.18900 41.32500 23.21600
N  42.24300 44.02800 27.36300
C  41.83000 44.80100 26.34500
C  41.25400 46.04400 26.79100
C  41.21000 45.90700 28.21000
C  41.82300 44.64300 28.49200
C  40.79700 47.16600 25.95100
C  40.79200 46.47600 29.42900
O  40.26700 47.57100 29.57100
C  41.15000 45.56000 30.48800
C  42.10800 46.35500 31.33400
O  43.33500 46.36200 31.19900
O  41.34300 47.04500 32.26300
C  41.98700 48.09500 33.03700
H  44.43400 39.34500 30.71000
H  44.02300 39.14200 24.23800
H  41.55000 44.92000 24.24500
H  42.88700 43.74300 32.47400
H  42.99800 40.82800 32.59200
H  44.77900 42.82200 32.76900
H  45.57700 41.51600 31.80000
H  44.80700 41.23400 33.48100
H  41.11300 41.56700 32.87500
H  40.22500 42.62200 31.89000
H  39.94300 44.12500 33.46900
H  41.47500 44.14900 34.02300
H  44.38000 37.30100 30.12600
H  46.12300 37.60700 29.68900
H  45.09300 36.14700 29.07300
H  45.99900 35.26600 25.62200
H  45.27700 35.01400 27.11100
H  46.64900 36.15400 27.04000
H  42.78700 40.43200 22.71300
H  43.01100 43.45400 22.56900
H  44.73700 40.70100 21.51500
H  45.41700 41.41100 22.96700
H  44.64000 42.41900 21.71600
H  41.37600 42.12100 21.50100
H  40.65000 43.39400 22.56700
H  39.91900 40.65600 22.39900
H  39.25700 41.63600 23.68900
H  40.80000 40.81100 23.95700
H  40.53300 46.67600 25.01400
H  41.41300 48.02600 25.68800
H  39.84300 47.48200 26.37300
H  40.26600 45.11800 30.94600
H  42.80300 48.49600 32.43500
H  42.47600 47.50900 33.81400
H  41.39900 48.83000 33.58700

