158

Mg 24.39700 -5.08700 45.73500
C  26.92100 -2.92600 44.70200
C  22.24700 -3.57500 43.53700
C  22.18100 -7.65400 46.23800
C  26.85100 -6.97900 47.34100
N  24.63200 -3.65100 44.04900
C  25.76300 -2.86400 43.91700
C  25.50000 -1.85000 42.79300
C  23.99900 -1.72600 42.76200
C  23.54500 -3.03000 43.42900
C  23.55900 -0.47200 43.52300
C  26.04700 -2.32200 41.44200
C  26.21800 -1.30200 40.45600
H  25.50400 -1.50100 39.07200
N  22.41200 -5.50300 45.10800
C  21.73100 -4.72700 44.22200
C  20.39100 -5.21900 44.01800
C  20.38300 -6.49000 44.72100
C  21.65600 -6.60900 45.48800
C  19.34100 -4.45000 43.30200
C  19.24200 -7.39400 44.56200
O  18.21000 -7.13100 44.04100
C  19.30500 -8.76900 45.19700
N  24.54800 -7.09400 46.62400
C  23.48900 -7.90500 46.78800
C  23.85200 -9.25800 47.40700
C  25.32500 -9.07900 47.82800
C  25.60300 -7.61100 47.20700
C  22.87700 -9.72000 48.60300
C  26.27900 -10.14300 47.14800
C  27.51900 -10.49300 47.95700
N  26.39300 -4.87100 46.20200
C  27.26800 -5.67500 46.96700
C  28.48200 -4.95500 47.15000
C  28.41000 -3.91300 46.21600
C  27.12300 -3.88700 45.68200
C  29.51700 -5.53600 48.05300
C  29.11900 -2.74200 45.59500
O  30.24800 -2.32500 45.82400
C  28.17800 -2.12700 44.52600
C  27.90300 -0.68300 44.84700
O  27.46400 -0.22400 45.88500
O  28.34700 0.11700 43.84200
C  28.06800 1.53700 43.93600
H  21.67100 -2.83600 42.97600
H  21.47200 -8.45700 46.45000
H  27.62200 -7.57400 47.83500
H  26.03400 -0.93300 43.03900
H  23.68400 -1.60300 41.72600
H  22.81100 0.15700 43.04000
H  24.39300 0.20200 43.71900
H  23.04800 -0.75400 44.44300
H  25.36700 -3.06400 41.02400
H  26.96000 -2.85800 41.70200
H  27.26400 -1.32100 40.15300
H  26.08900 -0.28100 40.81800
H  18.84700 -5.06000 42.54600
H  19.89000 -3.76100 42.66000
H  18.64300 -3.85000 43.88700
H  19.27100 -8.66900 46.28200
H  20.25700 -9.22600 44.92700
H  18.59200 -9.51400 44.84500
H  23.70700 -10.03900 46.66100
H  25.53600 -8.94700 48.89000
H  21.98700 -9.09300 48.54200
H  23.41900 -9.66500 49.54700
H  22.75400 -10.80200 48.65600
H  26.59800 -9.76600 46.17600
H  25.80300 -11.10100 46.94000
H  28.17200 -11.10700 47.33700
H  27.17900 -11.17000 48.74100
H  27.95600 -9.70700 48.57300
H  30.32900 -4.85400 48.30700
H  29.98400 -6.41200 47.60200
H  29.10000 -5.76700 49.03300
H  28.70400 -2.18900 43.57400
H  28.94900 2.01000 44.37100
H  27.29500 1.79900 44.65700
H  27.70800 1.78800 42.93800
Mg 16.73700 52.56400 26.36900
C  18.21300 51.24300 29.22800
C  14.00200 53.21500 28.38800
C  14.95600 53.58500 23.53500
C  18.94900 50.86300 24.41000
N  16.30800 52.32600 28.52800
C  17.11200 51.94400 29.50900
C  16.50000 52.24300 30.85000
C  15.02500 52.57700 30.56500
C  15.14000 52.73800 29.07600
C  14.08500 51.37400 31.01900
C  17.37900 53.40700 31.45800
C  17.49200 53.40200 32.98600
H  16.43700 52.58800 33.73100
N  14.84300 53.37700 26.00200
C  13.87900 53.57000 27.00800
C  12.73500 54.23600 26.36600
C  12.98300 54.27400 24.97900
C  14.32600 53.70000 24.76600
C  11.51100 54.70800 27.11100
C  12.01900 54.66700 23.78400
O  12.33700 54.57800 22.60600
C  10.56500 55.20100 24.07500
N  16.91900 52.36800 24.31900
C  16.14300 52.86300 23.33300
C  16.64100 52.55800 21.90900
C  18.07600 51.98900 22.30600
C  18.00000 51.70700 23.76600
C  15.60800 51.46700 21.23000
C  19.30000 52.94600 21.88700
C  20.47500 52.23900 21.22400
N  18.27000 51.24300 26.68900
C  19.06000 50.61100 25.76700
C  20.05400 49.85600 26.48100
C  19.74300 50.04700 27.82000
C  18.62600 50.87100 27.88900
C  21.28900 49.26100 25.87000
C  20.23100 49.88300 29.20000
O  21.21600 49.29400 29.52700
C  19.20900 50.69800 30.16300
C  18.56300 49.71500 31.09700
O  17.73600 48.85600 30.74400
O  19.06000 49.91700 32.38800
C  18.62100 49.02200 33.44200
H  13.13700 53.35000 29.04100
H  14.45600 53.94300 22.63300
H  19.71600 50.41400 23.77700
H  16.56000 51.28700 31.37100
H  14.64000 53.44800 31.09600
H  14.58400 50.65200 31.66600
H  13.73100 50.86400 30.12300
H  13.26000 51.83400 31.56300
H  16.79800 54.29300 31.20000
H  18.37800 53.46000 31.02500
H  17.45700 54.36500 33.49400
H  18.50600 53.10600 33.25800
H  10.63800 54.12200 26.82300
H  11.28900 55.71800 26.76500
H  11.75600 54.73100 28.17300
H  10.03000 54.44000 24.64300
H  10.15200 55.16600 23.06700
H  10.65300 56.11400 24.66500
H  16.62900 53.35900 21.16900
H  18.17500 51.01100 21.83600
H  14.86300 51.01300 21.88300
H  16.19600 50.68600 20.74800
H  15.07500 51.99700 20.44000
H  19.62600 53.34800 22.84600
H  18.98200 53.80900 21.30100
H  20.55800 52.66600 20.22400
H  20.18600 51.19600 21.09400
H  21.41600 52.22700 21.77300
H  21.67800 49.85100 25.04000
H  21.02100 48.24700 25.57400
H  22.14500 49.20500 26.54300
H  19.69700 51.51500 30.69500
H  19.37100 48.80400 34.20200
H  18.06200 48.19500 33.00400
H  17.90400 49.55400 34.06800

