158

Mg 46.93000 16.33100 28.92500
C  44.78600 15.69500 31.56600
C  49.09600 17.62200 31.25700
C  49.01700 17.06600 26.43500
C  44.61300 15.02700 26.74300
N  46.71600 16.90800 31.06400
C  45.90700 16.33500 31.91900
C  46.18300 16.77100 33.37600
C  47.43000 17.73000 33.19400
C  47.82800 17.41900 31.73700
C  47.19600 19.25800 33.37700
C  46.53600 15.48700 34.19800
C  46.02100 15.50400 35.66400
H  46.04100 16.85300 36.36300
N  48.78700 17.22100 28.84300
C  49.56200 17.55900 29.91700
C  50.90300 17.74500 29.47900
C  50.95100 17.55300 28.01200
C  49.55800 17.23800 27.66700
C  52.06900 17.99400 30.39100
C  52.12800 17.73400 27.05700
O  51.98100 17.56500 25.86000
C  53.42500 18.31300 27.48100
N  46.82300 15.91000 26.82800
C  47.74400 16.49300 25.98800
C  47.26500 16.48900 24.53700
C  45.93200 15.62200 24.68100
C  45.74900 15.47500 26.14600
C  47.04100 17.94500 24.07600
C  46.08000 14.25100 23.93700
C  44.81400 13.80700 23.24700
N  45.04400 15.48900 29.04200
C  44.28700 14.94500 28.11100
C  43.11600 14.35900 28.74900
C  43.22000 14.63900 30.11700
C  44.45300 15.31800 30.24000
C  41.87800 13.75800 28.10000
C  42.61600 14.53400 31.45200
O  41.56700 14.05400 31.74700
C  43.63100 15.15200 32.43000
C  42.99900 16.12600 33.39700
O  42.86100 17.33800 33.12400
O  42.52500 15.48600 34.52100
C  41.78300 16.35800 35.44200
H  49.83200 17.92800 32.00400
H  49.70500 17.48500 25.69700
H  43.93800 14.59600 26.00000
H  45.37500 17.41300 33.72700
H  48.22500 17.48100 33.89700
H  46.17500 19.49100 33.68100
H  47.39100 19.88400 32.50600
H  47.83000 19.58700 34.20100
H  47.59700 15.24500 34.13500
H  46.06800 14.61600 33.74000
H  46.71500 14.85800 36.20000
H  45.04400 15.02500 35.59500
H  53.04400 18.23500 29.96700
H  52.21200 17.13400 31.04500
H  51.69000 18.85600 30.94000
H  54.02500 18.44100 26.58000
H  54.00500 17.74600 28.20900
H  53.22200 19.31200 27.86600
H  48.04700 16.03400 23.92900
H  45.08900 16.15600 24.24400
H  46.31800 17.96000 23.26000
H  48.02900 18.25400 23.73300
H  46.82600 18.64000 24.88800
H  46.54100 13.57100 24.65300
H  46.80200 14.48300 23.15400
H  44.77500 14.18400 22.22500
H  43.85600 14.02100 23.72000
H  44.82000 12.72500 23.11600
H  41.50500 14.28800 27.22400
H  41.08800 13.76900 28.85000
H  42.18400 12.73800 27.86700
H  44.02600 14.44200 33.15600
H  40.91800 16.73900 34.89800
H  42.46600 16.99700 36.00200
H  41.35600 15.64700 36.14900
Mg -10.64600 40.00700 42.45900
C  -10.14100 36.65600 41.30700
C  -7.67500 40.90300 41.09900
C  -11.53400 43.24500 42.79600
C  -14.03700 39.16300 42.94700
N  -9.18800 38.92400 41.21300
C  -9.10300 37.55000 41.02600
C  -7.82500 37.18100 40.28300
C  -6.92700 38.51600 40.42000
C  -7.94300 39.53400 40.89500
C  -5.84500 38.36000 41.46500
C  -8.05300 36.74100 38.81900
C  -7.36600 35.50800 38.31700
H  -6.22400 35.61100 37.32100
N  -9.67500 41.87600 42.12500
C  -8.44800 41.97300 41.49900
C  -8.12500 43.36600 41.41000
C  -9.19400 44.09900 42.07100
C  -10.17000 43.09700 42.40100
C  -6.88200 43.85300 40.69100
C  -9.32800 45.54000 42.27100
O  -8.69400 46.34700 41.61500
C  -10.27000 46.16800 43.23600
N  -12.48100 41.12800 42.63000
C  -12.51300 42.34800 43.00600
C  -13.95000 42.85000 43.22800
C  -14.79200 41.54000 43.13100
C  -13.68500 40.54900 42.84100
C  -14.05800 43.59800 44.55800
C  -15.77500 41.37900 41.95000
C  -17.12400 40.72500 42.31500
N  -11.80100 38.21100 42.47900
C  -13.16600 38.02100 42.73000
C  -13.41400 36.59400 42.58100
C  -12.22100 36.02300 42.10800
C  -11.30600 37.09400 41.91600
C  -14.70000 35.92500 42.95700
C  -11.66900 34.76100 41.76200
O  -11.97300 33.65200 41.84200
C  -10.31000 35.20100 41.11100
C  -9.17400 34.32500 41.59500
O  -8.60500 34.41100 42.66900
O  -8.73400 33.43600 40.65800
C  -7.50600 32.55700 40.94800
H  -6.64300 41.19800 40.89800
H  -11.86100 44.26900 42.98800
H  -15.07200 38.89900 43.17300
H  -7.28500 36.40600 40.82600
H  -6.35400 38.80000 39.53700
H  -4.97000 39.00500 41.38700
H  -5.49200 37.32900 41.48200
H  -6.22600 38.69100 42.43100
H  -7.59200 37.57800 38.29500
H  -9.07500 36.80500 38.44600
H  -8.11200 34.85400 37.86600
H  -6.89400 34.97700 39.14400
H  -7.21100 44.79200 40.24400
H  -6.47200 43.13900 39.97700
H  -6.04700 44.17100 41.31500
H  -11.19300 46.38500 42.69800
H  -9.86400 46.89200 43.94200
H  -10.55300 45.42800 43.98400
H  -14.18300 43.53700 42.41500
H  -15.18900 41.24900 44.10400
H  -13.12100 44.08000 44.83600
H  -14.40100 42.88200 45.30600
H  -14.84800 44.33100 44.39500
H  -15.36700 40.89700 41.06100
H  -16.06400 42.36100 41.57700
H  -17.08000 40.28200 43.31000
H  -17.49600 40.01600 41.57500
H  -17.90700 41.48400 42.31400
H  -14.75800 34.86800 42.70000
H  -15.43200 36.33900 42.26400
H  -14.92500 36.09200 44.01000
H  -10.42700 34.96100 40.05500
H  -7.17000 32.46000 41.98000
H  -6.57700 32.94000 40.52500
H  -7.68500 31.67200 40.33700

