158

Mg 26.35700 -0.04300 29.41600
C  28.16500 -0.31500 32.41900
C  23.48200 0.23600 31.27500
C  24.71800 -0.20500 26.62400
C  29.35200 -0.45400 27.67800
N  25.88900 0.08400 31.59200
C  26.81300 0.00200 32.64100
C  26.15200 0.01400 34.05100
C  24.58200 0.08000 33.59400
C  24.64400 0.05800 32.07600
C  23.74700 -1.13900 34.15900
C  26.62400 1.30200 34.83300
C  25.84100 1.89200 36.00600
H  26.62200 2.39100 37.20800
N  24.34400 0.03200 28.92200
C  23.35500 0.35800 29.83700
C  22.13100 0.69000 29.10500
C  22.40000 0.44900 27.69400
C  23.83900 -0.04100 27.71800
C  20.82800 1.01600 29.81600
C  21.54400 0.79100 26.45700
O  22.04000 0.80500 25.31600
C  20.06900 1.15000 26.60800
N  26.98000 -0.40200 27.42800
C  26.10500 -0.37900 26.45600
C  26.84200 -0.41300 25.08400
C  28.33200 -0.08300 25.45800
C  28.19700 -0.31800 26.95500
C  26.63600 -1.79600 24.31700
C  28.65500 1.40600 25.14800
C  29.65500 1.63100 23.96700
N  28.33300 -0.29700 29.86700
C  29.43600 -0.52900 29.09300
C  30.55400 -0.87800 29.91900
C  30.12000 -0.83500 31.24500
C  28.77400 -0.42000 31.16400
C  31.90400 -1.28900 29.53200
C  30.53800 -0.89000 32.67000
O  31.66900 -1.04400 33.17200
C  29.27400 -0.44000 33.45100
C  29.05600 -1.44600 34.51700
O  28.57900 -2.56200 34.44000
O  29.41700 -0.88400 35.69900
C  29.39500 -1.75500 36.86800
H  22.59100 0.40200 31.88300
H  24.22600 -0.09000 25.65600
H  30.20600 -0.49100 26.99900
H  26.50400 -0.89100 34.54700
H  24.14200 1.00100 33.97700
H  22.84800 -0.80600 34.67800
H  24.36300 -1.70700 34.85600
H  23.50400 -1.79600 33.32400
H  26.89500 2.08100 34.12100
H  27.59500 1.05000 35.25900
H  25.05900 1.23200 36.37900
H  25.29300 2.78400 35.70300
H  20.14800 0.25500 29.43300
H  20.52700 2.02100 29.52300
H  20.79000 0.95000 30.90300
H  19.55400 1.24900 25.65300
H  19.98100 2.11000 27.11800
H  19.49800 0.45000 27.21800
H  26.32900 0.30600 24.44500
H  29.00300 -0.83500 25.04500
H  27.57000 -2.26700 24.00900
H  25.95600 -1.57000 23.49700
H  26.22400 -2.56000 24.97700
H  29.22400 1.83500 25.97300
H  27.76300 2.01300 24.99100
H  30.61700 1.80700 24.44900
H  29.31200 2.46400 23.35300
H  29.73500 0.79300 23.27500
H  32.09600 -1.34100 28.46000
H  32.01400 -2.27300 29.98700
H  32.58200 -0.61000 30.04800
H  29.40800 0.52700 33.93700
H  29.37600 -2.84200 36.78900
H  28.47900 -1.50000 37.40100
H  30.22600 -1.38700 37.47000
Mg 41.51200 8.28600 28.96600
C  43.27400 9.75700 31.51100
C  39.24700 6.95700 31.11600
C  39.70400 6.87400 26.27200
C  43.92000 9.37100 26.71000
N  41.33000 8.36700 31.04200
C  42.17200 8.95800 31.95600
C  41.65900 8.90500 33.35300
C  40.38000 8.03800 33.17400
C  40.27700 7.80600 31.71400
C  40.44600 6.73000 33.94400
C  41.44700 10.19600 34.29700
C  41.10700 9.95900 35.75500
H  41.50800 11.07800 36.70500
N  39.65400 7.12500 28.71900
C  38.93100 6.69600 29.73900
C  37.86500 5.91600 29.29200
C  37.88800 5.92800 27.88700
C  39.07100 6.67800 27.57100
C  36.72500 5.34800 30.22300
C  36.96100 5.27800 26.96600
O  37.26700 5.12700 25.78700
C  35.56600 4.76500 27.38100
N  41.82300 7.94500 26.80300
C  40.85900 7.50200 25.92400
C  41.35100 7.64900 24.44100
C  42.49200 8.76200 24.64800
C  42.85500 8.57400 26.14700
C  41.89100 6.34300 23.85300
C  42.03400 10.18800 24.34500
C  40.56900 10.57400 24.52800
N  43.32100 9.23500 29.08000
C  44.19800 9.62800 28.10500
C  45.26200 10.41900 28.63800
C  44.92300 10.58800 30.02700
C  43.76400 9.85500 30.19800
C  46.36800 11.06300 27.87200
C  45.31500 11.08900 31.28200
O  46.17000 11.87200 31.55500
C  44.22600 10.50100 32.33000
C  44.82400 9.62500 33.32900
O  45.33000 8.49100 33.19900
O  44.62600 10.17200 34.61200
C  45.05600 9.31000 35.68700
H  38.52400 6.61300 31.85900
H  39.09800 6.58800 25.41000
H  44.53100 9.81800 25.92300
H  42.39500 8.30600 33.89000
H  39.47000 8.53000 33.51700
H  39.46500 6.54600 34.38300
H  41.25400 6.82400 34.67000
H  40.65100 5.94900 33.21100
H  40.54300 10.67600 33.92000
H  42.29000 10.88600 34.27000
H  41.60500 9.02600 36.01900
H  40.01800 9.92600 35.72500
H  35.79100 5.85400 29.97800
H  37.00700 5.35300 31.27600
H  36.70800 4.30000 29.92400
H  34.97100 5.49600 27.92900
H  35.87400 3.93600 28.01900
H  35.06100 4.35000 26.50900
H  40.60800 8.04500 23.74900
H  43.26800 8.51500 23.92300
H  42.97500 6.31600 23.74300
H  41.37800 6.33300 22.89200
H  41.53900 5.63600 24.60500
H  42.28500 10.28900 23.28900
H  42.60100 10.95000 24.88100
H  40.41400 11.56400 24.95600
H  39.97400 9.95600 25.20100
H  40.02500 10.66100 23.58700
H  46.11200 11.27600 26.83400
H  47.18400 10.34600 27.95700
H  46.65300 11.93500 28.46100
H  43.62800 11.28700 32.79100
H  44.77900 9.93900 36.53200
H  46.14300 9.22700 35.72800
H  44.51300 8.37400 35.55900

