158

Mg 47.46300 16.36800 28.66800
C  45.47000 16.55600 31.44100
C  49.94700 17.70100 30.31600
C  49.13100 16.40900 25.71900
C  44.50900 15.51900 26.79600
N  47.57100 17.20900 30.49200
C  46.72700 17.15100 31.62300
C  47.28800 17.68400 32.99300
C  48.51000 18.43200 32.35600
C  48.71800 17.67000 30.99400
C  48.42100 19.95200 32.10800
C  47.82900 16.49300 33.90100
C  48.43900 16.80500 35.27400
H  48.25700 18.27700 35.73400
N  49.35100 16.93000 28.14100
C  50.25600 17.35600 28.94200
C  51.48400 17.58500 28.25100
C  51.31400 17.03100 26.97500
C  49.90700 16.71600 26.90800
C  52.67900 18.15100 28.99600
C  52.26300 16.96900 25.83100
O  51.89700 16.63500 24.70900
C  53.75000 17.24900 26.02600
N  46.88800 16.08500 26.45500
C  47.76300 16.29900 25.51400
C  47.09000 16.09700 24.14100
C  45.54600 15.71500 24.47400
C  45.62500 15.73800 25.99500
C  47.24600 17.30600 23.29600
C  45.20900 14.19200 24.04500
C  44.06800 14.11200 22.92700
N  45.40700 15.98700 29.00700
C  44.37700 15.67800 28.17700
C  43.21900 15.33200 28.99000
C  43.50800 15.73700 30.30500
C  44.89100 16.12800 30.19200
C  41.95800 14.68800 28.47100
C  43.11800 15.87300 31.64400
O  42.03500 15.71400 32.16200
C  44.29600 16.46900 32.42800
C  43.87100 17.74400 32.84400
O  43.92500 18.75400 32.12300
O  43.40400 17.64900 34.12800
C  42.92200 18.95100 34.60900
H  50.73500 18.12600 30.94100
H  49.52900 16.30500 24.70700
H  43.59100 15.21500 26.29000
H  46.59500 18.24800 33.61700
H  49.38500 18.29900 32.99200
H  47.39200 20.16500 32.39500
H  48.54300 20.20900 31.05600
H  49.12600 20.45500 32.77100
H  48.51900 15.90900 33.29200
H  46.96100 15.88300 34.15200
H  49.51400 16.65700 35.17600
H  48.03900 16.10000 36.00300
H  52.70500 17.95100 30.06700
H  52.71000 19.22600 28.81400
H  53.59100 17.76700 28.54000
H  54.19100 16.88500 25.09800
H  54.25900 16.62700 26.76200
H  54.04300 18.29800 26.09100
H  47.61500 15.25400 23.69200
H  44.75900 16.31700 24.01900
H  46.23200 17.66200 23.11900
H  47.74700 16.92100 22.40800
H  47.83800 18.10700 23.73700
H  44.93400 13.64800 24.94900
H  46.04700 13.67300 23.57900
H  43.53300 15.04100 22.72600
H  43.39600 13.36200 23.34600
H  44.38600 13.55200 22.04800
H  41.14900 14.73800 29.20100
H  42.12000 13.66100 28.14600
H  41.71400 15.36600 27.65300
H  44.51500 15.83000 33.28300
H  43.86200 19.50200 34.65500
H  42.46100 18.81900 35.58800
H  42.25300 19.46900 33.92100
Mg -11.76400 16.91300 40.81700
C  -8.59000 15.54900 40.13800
C  -10.68400 19.90100 39.89900
C  -15.00200 17.86900 40.87600
C  -13.00300 13.50100 40.90000
N  -9.83900 17.57700 39.85600
C  -8.63400 16.92500 39.88900
C  -7.43300 17.89100 39.64000
C  -8.18800 19.29200 39.97000
C  -9.67300 18.96300 39.82200
C  -7.89400 19.84600 41.43100
C  -6.88400 17.76400 38.27400
C  -5.43100 18.14100 38.11000
H  -4.49500 17.07700 37.40600
N  -12.75500 18.70300 40.41900
C  -12.12000 19.80500 40.00100
C  -13.14100 20.88800 39.80600
C  -14.39900 20.25500 40.13200
C  -14.11600 18.89500 40.52000
C  -12.75600 22.24100 39.20000
C  -15.76400 20.98400 40.03200
O  -15.80300 22.12600 39.64200
C  -17.04800 20.34200 40.35400
N  -13.68500 15.83200 40.81300
C  -14.83400 16.49400 41.04600
C  -16.04100 15.53200 41.38900
C  -15.42900 14.14700 41.06500
C  -13.90800 14.45900 40.92900
C  -16.55400 15.65000 42.81300
C  -15.99100 13.33100 39.85900
C  -16.80900 12.06000 40.08700
N  -11.06500 14.88100 40.68300
C  -11.62300 13.65300 40.86600
C  -10.52600 12.67200 40.88400
C  -9.31900 13.36100 40.69800
C  -9.71200 14.70100 40.42600
C  -10.65300 11.25900 41.14800
C  -7.83100 13.26100 40.59300
O  -7.24300 12.17600 40.72900
C  -7.26200 14.63500 40.28600
C  -6.31800 14.97900 41.41600
O  -6.53200 15.00500 42.64200
O  -5.05900 15.20200 40.84300
C  -4.01900 15.85800 41.70000
H  -10.30400 20.92300 39.83800
H  -16.04100 18.18700 40.99000
H  -13.49000 12.52400 40.92100
H  -6.62500 17.81800 40.36800
H  -7.79500 20.00200 39.24300
H  -7.46000 20.84200 41.52200
H  -7.29700 19.10300 41.96000
H  -8.81300 19.85800 42.01700
H  -7.59200 18.33000 37.66900
H  -6.96700 16.72500 37.95300
H  -5.12700 18.45200 39.10900
H  -5.37800 19.09000 37.57600
H  -12.83600 22.20100 38.11400
H  -11.74900 22.51700 39.51100
H  -13.45700 23.03200 39.46700
H  -17.22000 19.55700 39.61800
H  -17.90400 21.01300 40.27500
H  -17.04000 20.01800 41.39400
H  -16.84300 15.67500 40.66500
H  -15.62900 13.44900 41.87800
H  -15.97700 16.49700 43.18300
H  -16.22900 14.83300 43.45600
H  -17.63000 15.77100 42.93900
H  -15.14900 13.06100 39.22200
H  -16.70300 13.96900 39.33600
H  -17.18800 11.91100 41.09800
H  -16.38300 11.07000 39.92500
H  -17.70100 11.97500 39.46500
H  -11.47000 10.87200 40.54000
H  -10.92100 11.10900 42.19400
H  -9.73000 10.70800 40.96400
H  -6.67000 14.43700 39.39200
H  -4.18300 16.91900 41.51600
H  -2.98400 15.54900 41.55100
H  -4.15500 15.67800 42.76600

