158

Mg 16.83500 -1.06200 27.68500
C  15.88700 1.09700 30.19300
C  18.59000 -2.85800 30.08900
C  18.39300 -2.78800 25.23500
C  15.46900 1.09800 25.30100
N  17.20600 -0.85600 29.89000
C  16.71500 0.11600 30.70900
C  17.08100 -0.13600 32.21100
C  18.17000 -1.25600 32.00000
C  18.00600 -1.67500 30.52500
C  19.63700 -0.84600 32.17800
C  15.80800 -0.53500 33.09100
C  16.38200 -0.83500 34.50600
H  17.58200 -0.13300 35.10200
N  18.19100 -2.71100 27.64300
C  18.68500 -3.36800 28.76700
C  19.34800 -4.55800 28.29200
C  19.24800 -4.57700 26.87700
C  18.59800 -3.36000 26.53100
C  20.02700 -5.57300 29.20800
C  19.87700 -5.56800 25.91700
O  19.83400 -5.50800 24.68600
C  20.55600 -6.79000 26.37200
N  17.03000 -0.78000 25.59800
C  17.72600 -1.66700 24.78800
C  17.63800 -1.30800 23.30300
C  16.61000 -0.12200 23.32000
C  16.37100 0.10200 24.84300
C  19.00200 -0.92300 22.70000
C  15.32300 -0.40100 22.48000
C  14.07400 -0.79400 23.30200
N  15.83000 0.73600 27.73400
C  15.29400 1.46900 26.66600
C  14.53500 2.54300 27.12100
C  14.74100 2.46200 28.54500
C  15.61300 1.40700 28.85400
C  13.84700 3.60100 26.35900
C  14.39700 3.12100 29.80700
O  13.75000 4.11500 30.06000
C  15.09900 2.20700 30.99100
C  16.00100 3.06900 31.75400
O  17.23100 3.22500 31.55800
O  15.26500 3.62300 32.82000
C  16.10000 4.44100 33.70300
H  19.22500 -3.47900 30.72500
H  18.80800 -3.36500 24.40500
H  14.98500 1.67300 24.50900
H  17.48500 0.75900 32.68400
H  18.01300 -2.11900 32.64800
H  20.07600 -1.58900 32.84400
H  19.77800 0.11000 32.68100
H  20.25700 -0.87600 31.28200
H  15.54700 -1.53200 32.73500
H  14.95300 0.13400 33.18400
H  16.40900 -1.92100 34.58700
H  15.55100 -0.49100 35.12200
H  21.09200 -5.34100 29.19400
H  19.77000 -6.59200 28.91800
H  19.63200 -5.53100 30.22300
H  20.90500 -7.37600 25.52200
H  19.79600 -7.35900 26.90900
H  21.48900 -6.61400 26.90800
H  17.39100 -2.16100 22.67000
H  17.11500 0.73900 22.88200
H  19.21500 0.14600 22.70700
H  19.17000 -1.29100 21.68800
H  19.80900 -1.29500 23.33100
H  15.30300 -1.13500 21.67400
H  15.09900 0.56000 22.01700
H  14.30500 -1.49800 24.10100
H  13.31400 -1.25000 22.66700
H  13.62300 0.10100 23.73000
H  14.46300 3.56200 25.46000
H  13.82900 4.60100 26.79200
H  12.84100 3.20900 26.21300
H  14.31100 1.80900 31.63000
H  16.56200 5.23300 33.11300
H  16.80000 3.73600 34.15100
H  15.59800 4.97800 34.50800
Mg -10.53900 39.71700 40.46700
C  -9.22800 36.80800 39.10100
C  -7.44400 41.31400 39.69300
C  -12.06600 42.55900 40.58900
C  -13.50700 38.06700 41.19100
N  -8.57800 39.08000 39.43400
C  -8.25300 37.83000 38.99600
C  -6.81400 37.77400 38.48300
C  -6.20900 39.04400 39.03900
C  -7.50000 39.90700 39.44300
C  -5.28400 38.72600 40.21600
C  -6.67100 37.76100 36.86700
C  -5.88700 36.59300 36.15600
H  -6.62200 35.75800 35.10300
N  -9.78300 41.75000 40.35600
C  -8.53700 42.18200 40.01600
C  -8.57700 43.60000 39.93500
C  -9.95600 44.00400 40.03800
C  -10.68900 42.76200 40.39600
C  -7.35300 44.35900 39.57900
C  -10.50600 45.38000 39.85300
O  -9.76600 46.34900 39.62800
C  -11.94900 45.73100 40.02000
N  -12.45200 40.25500 41.08400
C  -12.83300 41.46800 40.97800
C  -14.33400 41.67100 41.29700
C  -14.75000 40.24800 41.72100
C  -13.52500 39.46100 41.35000
C  -14.76000 42.74200 42.38300
C  -16.13700 39.66600 41.18200
C  -17.18300 39.21500 42.17700
N  -11.31500 37.80800 40.22700
C  -12.57500 37.29200 40.43400
C  -12.56900 35.89800 40.05900
C  -11.26600 35.65900 39.51600
C  -10.55600 36.84500 39.65300
C  -13.60300 34.92500 40.28000
C  -10.49300 34.62800 38.84700
O  -10.66600 33.56000 38.32000
C  -9.09200 35.35700 38.69700
C  -8.07800 34.63200 39.56000
O  -8.10300 34.62600 40.77200
O  -7.10500 33.96400 38.84400
C  -5.94700 33.48000 39.65700
H  -6.47000 41.78000 39.53000
H  -12.63900 43.48700 40.53800
H  -14.45600 37.57600 41.41800
H  -6.39900 36.82600 38.82400
H  -5.76900 39.61600 38.22200
H  -5.34400 37.76200 40.72200
H  -5.42500 39.45000 41.01800
H  -4.28900 38.96900 39.84300
H  -6.20900 38.68500 36.51800
H  -7.67000 37.80500 36.43400
H  -5.62300 35.79100 36.84600
H  -4.95900 37.01100 35.76800
H  -7.03200 44.20400 38.54800
H  -6.53300 44.01400 40.20900
H  -7.38500 45.43300 39.76100
H  -12.48700 45.09800 39.31400
H  -12.23200 46.73400 39.69800
H  -12.17900 45.53100 41.06700
H  -14.96800 41.84500 40.42700
H  -14.80500 40.34200 42.80600
H  -13.90800 42.74300 43.06300
H  -15.61500 42.49100 43.01100
H  -14.79200 43.80500 42.14300
H  -15.96100 38.94200 40.38600
H  -16.60200 40.50400 40.66200
H  -18.03500 39.88900 42.08200
H  -16.79100 39.17100 43.19300
H  -17.51600 38.20100 41.95500
H  -14.28600 34.95100 39.43100
H  -14.14800 35.11800 41.20400
H  -13.20800 33.91100 40.21900
H  -8.77100 35.22800 37.66300
H  -5.15500 33.34600 38.92100
H  -6.10300 32.51500 40.13800
H  -5.47000 34.14800 40.37500

