158

Mg 53.54500 23.78000 44.40400
C  50.96100 26.00400 43.68300
C  51.51300 21.14100 43.27100
C  56.28800 21.75500 44.12200
C  55.47800 26.47400 45.29000
N  51.46800 23.61000 43.68800
C  50.63600 24.65600 43.35400
C  49.31500 24.11800 42.87900
C  49.46300 22.56200 43.11700
C  50.91200 22.39500 43.42200
C  48.52800 21.90700 44.11000
C  49.11500 24.48100 41.32100
C  47.69400 24.82000 40.94500
H  47.30300 24.17900 39.50800
N  53.86100 21.65600 43.76700
C  52.89300 20.82800 43.26300
C  53.47900 19.51400 42.95000
C  54.82900 19.70400 43.07700
C  55.10100 21.05200 43.69000
C  52.69000 18.33500 42.63200
C  55.83600 18.62000 42.85500
O  55.55500 17.43200 42.56700
C  57.32400 18.91300 42.91600
N  55.62400 24.04100 44.67000
C  56.49800 23.10200 44.53600
C  57.90800 23.63800 44.75800
C  57.67100 25.12400 45.24800
C  56.14300 25.24300 45.05400
C  58.74300 22.79300 45.75300
C  58.38000 26.15300 44.41700
C  59.03900 27.30700 45.13600
N  53.34400 25.85500 44.54300
C  54.15000 26.80800 45.03900
C  53.47700 28.09000 45.16700
C  52.22000 27.78900 44.55900
C  52.17100 26.43400 44.24600
C  53.91300 29.46300 45.71500
C  50.96800 28.35000 44.16800
O  50.49800 29.47600 44.32100
C  50.17400 27.21500 43.42500
C  49.89500 27.66700 42.06500
O  50.72900 27.86700 41.17700
O  48.51900 27.80300 41.92800
C  48.14600 28.38800 40.60400
H  50.91700 20.22900 43.19300
H  57.15700 21.09500 44.08200
H  56.17100 27.29300 45.49800
H  48.51200 24.52200 43.49500
H  49.20300 21.99100 42.22600
H  47.63500 22.49400 44.32900
H  48.98500 21.78900 45.09300
H  48.15000 20.95500 43.73800
H  49.29700 23.50400 40.87400
H  49.83500 25.21900 40.96900
H  47.52500 25.89500 41.00700
H  47.01600 24.39400 41.68400
H  51.86100 18.55600 41.96000
H  52.32600 17.77400 43.49300
H  53.30500 17.63900 42.06100
H  57.71700 19.79700 42.41400
H  57.74600 18.13000 42.28500
H  57.62500 18.92700 43.96300
H  58.32900 23.60000 43.75400
H  57.70800 25.23000 46.33200
H  58.23600 21.89100 46.09800
H  58.96700 23.43900 46.60100
H  59.63900 22.40600 45.26600
H  57.82800 26.59900 43.58900
H  59.22000 25.63200 43.95900
H  60.12800 27.26400 45.15000
H  58.55600 27.50800 46.09200
H  58.82600 28.19800 44.54600
H  54.61400 29.82900 44.96400
H  54.60200 29.40100 46.55700
H  53.09000 30.16800 45.83600
H  49.33200 27.09100 44.10500
H  47.05600 28.39300 40.59800
H  48.42200 27.87000 39.68500
H  48.52500 29.39900 40.75400
Mg 17.47600 53.42200 25.65600
C  19.04400 52.13400 28.50900
C  14.85300 54.23300 27.71200
C  15.57800 53.97700 22.96600
C  19.98600 52.00000 23.69300
N  17.08700 53.21400 27.86800
C  17.86700 52.83200 28.83100
C  17.30300 53.05200 30.24500
C  15.90000 53.60800 29.92100
C  15.94600 53.73100 28.40200
C  14.65800 52.74300 30.43200
C  18.21700 54.00000 30.99000
C  18.39300 53.66600 32.44000
H  17.51900 54.36000 33.43900
N  15.61800 54.26400 25.39700
C  14.59100 54.42500 26.35700
C  13.36800 54.85300 25.69800
C  13.62200 54.82500 24.29800
C  14.97300 54.38200 24.18100
C  12.12600 55.10800 26.49700
C  12.65600 55.28800 23.19600
O  13.10500 55.42600 22.05700
C  11.19800 55.46800 23.54600
N  17.70600 52.87700 23.69800
C  16.82500 53.39900 22.75400
C  17.38700 53.16300 21.31400
C  18.81800 52.57700 21.54200
C  18.87700 52.53200 23.06200
C  16.53900 52.25200 20.40400
C  19.98700 53.37400 20.85000
C  20.89600 52.47200 20.01100
N  19.18700 52.26200 26.00200
C  20.16900 51.79700 25.11500
C  21.19400 51.18000 25.86800
C  20.74500 51.16200 27.21700
C  19.52000 51.92600 27.17800
C  22.47500 50.70700 25.39500
C  21.00200 50.74600 28.61500
O  22.00100 50.17300 29.01600
C  19.97100 51.40000 29.47000
C  19.30400 50.34600 30.30600
O  18.67200 49.35200 29.94900
O  19.50800 50.66400 31.64000
C  18.87100 49.83400 32.70300
H  14.07300 54.59300 28.38600
H  15.06500 54.14800 22.01700
H  20.72200 51.52900 23.03900
H  17.31200 52.08200 30.74300
H  15.83200 54.60300 30.36000
H  14.83000 52.25500 31.39100
H  14.28200 52.05800 29.67300
H  14.00900 53.54200 30.79100
H  17.93100 55.05000 30.92900
H  19.23600 54.02400 30.60300
H  19.42700 53.89200 32.70000
H  18.31700 52.62700 32.76100
H  12.08300 54.47200 27.38100
H  11.12600 55.01200 26.07400
H  12.29100 56.09100 26.93900
H  11.06400 56.33100 24.19900
H  10.85300 54.58500 24.08500
H  10.62300 55.49700 22.62000
H  17.36300 54.12400 20.80100
H  18.83000 51.52900 21.24600
H  16.41400 51.25400 20.82400
H  17.13700 52.21000 19.49400
H  15.60200 52.75100 20.15600
H  20.69700 53.78700 21.56700
H  19.47600 54.14500 20.27500
H  21.77000 52.97700 19.59900
H  20.41500 52.03600 19.13500
H  21.23200 51.63300 20.62000
H  22.74500 51.13700 24.43100
H  22.47900 49.62600 25.25300
H  23.13600 51.12700 26.15400
H  20.42500 52.17000 30.09300
H  17.81700 49.75200 32.43700
H  19.03000 50.43200 33.60000
H  19.38500 48.88000 32.81900

