158

Mg 55.56600 24.69600 44.12800
C  52.92500 26.96800 43.13100
C  53.82700 22.27900 42.75900
C  58.27300 22.88400 44.46100
C  57.13500 27.49200 45.44900
N  53.76300 24.75600 42.77200
C  52.75900 25.71200 42.62800
C  51.42600 25.09300 42.13100
C  51.67300 23.60500 42.59300
C  53.19200 23.51700 42.67200
C  50.94000 23.13900 43.93500
C  51.11900 25.29800 40.63400
C  52.20100 25.71100 39.56000
H  51.77600 26.13600 38.19400
N  55.94300 22.81300 43.70100
C  55.13300 21.92100 43.09600
C  55.73300 20.62200 42.97100
C  57.02800 20.71200 43.54200
C  57.13100 22.18200 43.94300
C  55.08100 19.43600 42.29500
C  58.00000 19.65400 43.66400
O  57.75300 18.64100 43.04400
C  59.15100 19.79000 44.59800
N  57.44500 25.18000 44.78200
C  58.42200 24.21500 44.77800
C  59.76300 24.77800 45.23100
C  59.38000 26.25600 45.74100
C  57.93800 26.39300 45.30100
C  60.66700 23.94500 46.22100
C  60.32900 27.27600 45.12200
C  60.67800 28.60200 45.92500
N  55.14700 26.77500 44.30000
C  55.91600 27.74500 44.91800
C  55.17900 28.94800 44.85800
C  54.04300 28.70800 44.08900
C  54.05700 27.32600 43.83100
C  55.62400 30.22700 45.50900
C  52.84200 29.32000 43.56300
O  52.48400 30.49800 43.43400
C  51.94400 28.13500 43.24700
C  51.16500 28.37400 42.03300
O  51.45200 28.93200 40.97300
O  49.85800 28.02300 42.32000
C  48.94400 28.39500 41.23200
H  53.17700 21.48500 42.38500
H  59.20400 22.32800 44.59800
H  57.56900 28.38200 45.90900
H  50.58000 25.41300 42.73900
H  51.33200 22.89700 41.83700
H  51.52600 23.33600 44.83300
H  50.77600 22.06400 43.87100
H  49.87800 23.38400 43.94400
H  50.16500 25.80800 40.50300
H  50.69000 24.35400 40.29600
H  52.76100 24.77600 39.52100
H  52.95300 26.43200 39.88100
H  55.63900 19.15300 41.40200
H  54.09100 19.66500 41.90300
H  54.96600 18.71000 43.10000
H  58.74000 20.23600 45.50400
H  59.89500 20.45000 44.15100
H  59.45500 18.81600 44.98000
H  60.39900 24.80000 44.34600
H  59.41100 26.30700 46.83000
H  60.29500 22.92100 46.18600
H  60.50500 24.42300 47.18800
H  61.74500 23.94800 46.06400
H  59.92300 27.66500 44.18800
H  61.33300 26.94300 44.85900
H  60.75300 28.25100 46.95400
H  59.98000 29.39900 45.66600
H  61.67900 28.90600 45.61900
H  55.30200 30.15400 46.54800
H  55.23900 31.15200 45.07900
H  56.71200 30.21900 45.44800
H  51.30500 28.01300 44.12200
H  47.96600 28.04700 41.56300
H  49.16100 27.84800 40.31400
H  48.99800 29.48300 41.26900
Mg 42.12400 40.97400 26.37000
C  41.21900 43.28100 28.94000
C  42.89600 38.66700 28.81000
C  43.15400 39.03700 23.99400
C  41.61300 43.63100 24.02200
N  42.07000 41.01000 28.61100
C  41.59200 41.97800 29.45800
C  41.64200 41.54200 30.92300
C  42.25600 40.09500 30.77800
C  42.54800 39.91400 29.32100
C  43.54200 39.93400 31.54300
C  40.21800 41.57900 31.47200
C  40.02600 42.35700 32.83700
H  39.07800 41.81200 33.91900
N  42.87600 39.09700 26.39700
C  43.05600 38.27200 27.47800
C  43.58700 37.01100 27.00100
C  43.73400 37.13200 25.59700
C  43.17300 38.42800 25.20800
C  43.90600 35.84100 27.95600
C  44.27400 36.04300 24.62400
O  44.18700 36.20400 23.40100
C  44.81000 34.74800 25.17300
N  42.19400 41.23100 24.34700
C  42.66500 40.24000 23.53500
C  42.55600 40.64300 22.07000
C  41.68600 41.93900 22.12700
C  41.87000 42.32800 23.56100
C  43.93800 40.78000 21.36900
C  40.17200 41.64600 21.70000
C  39.36800 40.41800 22.38200
N  41.50000 43.02000 26.41700
C  41.45300 43.93000 25.39600
C  40.95800 45.21600 25.90200
C  40.86200 45.05800 27.36500
C  41.22600 43.62900 27.61100
C  40.65200 46.36400 25.05000
C  40.50200 45.64100 28.60700
O  40.21400 46.80100 28.81600
C  40.64900 44.45800 29.63100
C  41.54900 44.91400 30.79400
O  42.79500 44.81100 30.81400
O  40.80800 45.64700 31.66800
C  41.66700 46.14200 32.84600
H  43.00500 37.92000 29.59900
H  43.62300 38.47300 23.18600
H  41.28800 44.34100 23.25700
H  42.25800 42.21700 31.51800
H  41.51900 39.30700 30.92900
H  43.58800 38.92800 31.96100
H  43.62500 40.66300 32.34900
H  44.42900 39.98700 30.91300
H  39.88800 40.58000 31.75700
H  39.48600 41.97600 30.76800
H  39.49700 43.26800 32.55600
H  41.01300 42.44200 33.29100
H  43.22700 35.04800 27.64200
H  43.53900 35.91900 28.97900
H  44.97100 35.62800 27.85400
H  44.00300 34.16700 25.62000
H  45.65300 34.97400 25.82500
H  45.16000 34.27400 24.25600
H  42.00500 39.82100 21.61400
H  42.05900 42.62500 21.36600
H  44.24200 41.82400 21.29200
H  43.80500 40.29600 20.40100
H  44.57400 40.20300 22.04100
H  40.12400 41.55700 20.61400
H  39.53800 42.52300 21.83200
H  38.89800 39.85700 21.57400
H  38.68100 40.91800 23.06500
H  40.04600 39.80900 22.98000
H  41.30500 46.40300 24.17800
H  40.66100 47.27800 25.64300
H  39.62600 46.20700 24.71700
H  39.69900 44.08700 30.01600
H  41.87700 45.32900 33.54100
H  40.90800 46.78900 33.28400
H  42.47800 46.74200 32.43300

