158

Mg 2.18400 -2.43500 43.94800
C  5.47200 -1.18200 43.24500
C  1.04400 0.08900 41.92400
C  -0.71700 -4.06600 43.97400
C  3.76700 -5.24000 45.38700
N  3.20000 -0.68600 42.59500
C  4.49600 -0.42600 42.55800
C  4.80000 0.70300 41.51800
C  3.32900 1.28800 41.21300
C  2.48300 0.27400 41.98400
C  3.02400 2.81100 41.54700
C  5.45500 0.14700 40.29200
C  6.65300 0.98100 39.69300
H  6.30700 1.77900 38.37100
N  0.33000 -1.97100 43.16100
C  0.11000 -0.89400 42.36100
C  -1.34300 -1.00000 41.98600
C  -1.89800 -2.11200 42.73500
C  -0.75200 -2.76700 43.33100
C  -2.03200 -0.04200 41.02400
C  -3.34700 -2.38000 42.84900
O  -4.18800 -1.62500 42.45200
C  -3.86400 -3.54500 43.56200
N  1.61300 -4.29200 44.61200
C  0.31000 -4.74600 44.54700
C  0.19300 -6.13500 45.03300
C  1.66400 -6.60900 45.31500
C  2.45200 -5.29200 45.08400
C  -0.77500 -6.19900 46.29100
C  2.16500 -7.70700 44.39500
C  2.63400 -8.98600 45.07000
N  4.13800 -3.02800 44.38700
C  4.59200 -4.18200 45.02800
C  6.08900 -4.06000 45.15000
C  6.42900 -2.86200 44.50600
C  5.24000 -2.29400 44.02800
C  7.03000 -5.03100 45.90100
C  7.52600 -2.05800 44.19300
O  8.71900 -2.27600 44.38800
C  6.99300 -0.94300 43.25700
C  7.32000 0.35100 43.97200
O  6.91400 0.61100 45.07500
O  8.08900 1.14200 43.16600
C  8.64400 2.34200 43.78600
H  0.65200 0.88500 41.28700
H  -1.60100 -4.70600 43.94100
H  4.20500 -6.11100 45.87900
H  5.40200 1.44800 42.03800
H  3.04800 1.27700 40.16000
H  2.83900 3.40300 40.65000
H  3.95600 3.20400 41.95200
H  2.13600 2.88400 42.17600
H  4.76000 0.39000 39.48900
H  5.56500 -0.93700 40.25400
H  7.44900 0.28200 39.43400
H  7.11100 1.60300 40.46200
H  -2.14100 0.89100 41.57800
H  -2.96900 -0.48400 40.68600
H  -1.42300 0.05100 40.12500
H  -4.95300 -3.58800 43.54500
H  -3.55000 -3.48000 44.60300
H  -3.48000 -4.48100 43.15500
H  -0.28500 -6.78100 44.29600
H  1.88700 -6.85400 46.35400
H  -1.77000 -6.38300 45.88500
H  -0.81800 -5.21200 46.75200
H  -0.40500 -7.03300 46.88700
H  3.03800 -7.43900 43.80000
H  1.37700 -8.10400 43.75400
H  2.81500 -8.79800 46.12800
H  3.57600 -9.35900 44.66700
H  1.90000 -9.78800 44.98800
H  6.87900 -6.00200 45.42900
H  6.79600 -5.08400 46.96400
H  8.09300 -4.81800 45.78900
H  7.52100 -1.02100 42.30600
H  7.87800 3.11300 43.87400
H  9.48300 2.74300 43.21800
H  8.91600 2.03100 44.79400
Mg 36.00300 1.97200 31.12700
C  33.61600 3.14900 33.44500
C  38.25300 1.89200 33.61600
C  38.17700 1.24900 28.78500
C  33.57000 2.68000 28.66300
N  35.94400 2.62300 33.28300
C  34.86800 2.87500 34.05600
C  35.13800 2.89900 35.56400
C  36.70400 2.67900 35.50900
C  37.01900 2.34600 34.04000
C  37.50300 3.72500 36.35400
C  34.21700 1.88200 36.40800
C  33.84000 2.28600 37.88100
H  34.68500 3.38300 38.52900
N  37.97800 1.56800 31.13300
C  38.77700 1.54300 32.28300
C  40.14000 1.07200 31.83800
C  40.07100 0.83600 30.42700
C  38.67600 1.23500 30.06800
C  41.31300 1.00500 32.82900
C  41.15300 0.25300 29.55800
O  40.88100 0.01700 28.40200
C  42.63200 -0.03700 30.12200
N  35.88500 1.88000 29.00400
C  36.94500 1.51300 28.22100
C  36.55300 1.26200 26.73600
C  35.00300 1.68300 26.75600
C  34.73100 2.08300 28.24000
C  37.48300 2.04100 25.79000
C  33.93300 0.74100 26.08600
C  33.39000 -0.31200 27.03700
N  33.98100 2.79000 31.06300
C  33.17500 2.97400 29.96300
C  31.89500 3.57200 30.37900
C  31.96800 3.61100 31.80100
C  33.27800 3.16500 32.08700
C  30.70700 3.73600 29.58700
C  31.31900 3.86600 33.06000
O  30.20700 4.28400 33.19000
C  32.38900 3.65000 34.19600
C  32.51500 4.95200 34.94300
O  33.21700 5.90500 34.60600
O  31.78400 5.01200 36.07000
C  31.59300 6.31400 36.74600
H  38.92800 1.73300 34.45900
H  38.83000 0.88800 27.98800
H  32.81200 2.89200 27.90600
H  34.92600 3.91100 35.90800
H  36.84600 1.70400 35.97700
H  38.09600 3.07200 36.99500
H  36.80800 4.27500 36.98900
H  38.10400 4.37600 35.72000
H  34.74300 0.93000 36.33700
H  33.24200 1.70700 35.95500
H  34.05900 1.41200 38.49500
H  32.79000 2.57100 37.81900
H  42.25100 1.44700 32.49400
H  41.47300 -0.03200 33.12200
H  41.03700 1.51700 33.75100
H  43.21400 -0.43200 29.29000
H  42.62600 -0.73800 30.95700
H  43.04700 0.94100 30.36800
H  36.74600 0.21900 26.48500
H  34.92400 2.60200 26.17600
H  36.85000 2.37900 24.97000
H  38.22000 1.28100 25.53000
H  37.89300 2.90400 26.31400
H  34.45500 0.24900 25.26500
H  33.14000 1.40700 25.74800
H  33.89700 -0.30500 28.00300
H  33.43100 -1.28200 26.54000
H  32.35800 0.02900 27.12000
H  30.40200 2.78400 29.15300
H  30.76400 4.57800 28.89700
H  29.88000 4.01500 30.24000
H  31.96200 2.97200 34.93600
H  31.62000 7.22700 36.15100
H  32.33400 6.51900 37.51900
H  30.62600 6.34700 37.24700

