158

Mg 1.76700 -0.89000 43.85000
C  5.08700 -0.47300 43.22700
C  1.14100 2.07400 42.22900
C  -1.48100 -1.64500 43.79300
C  2.43900 -4.07700 45.14200
N  2.98200 0.55400 42.82700
C  4.35300 0.61300 42.80300
C  4.83200 1.90600 42.13100
C  3.57600 2.72900 42.03700
C  2.46400 1.72400 42.39400
C  3.58800 3.91300 43.04300
C  5.43600 1.61400 40.72100
C  6.50900 2.62800 40.19600
H  6.29500 3.17000 38.87300
N  0.02600 0.17300 43.10900
C  0.02300 1.38000 42.51800
C  -1.33900 1.72300 42.12600
C  -2.15300 0.67600 42.55600
C  -1.21500 -0.36000 43.20300
C  -1.72900 2.90600 41.26200
C  -3.66100 0.60200 42.28800
O  -4.29100 1.48800 41.75800
C  -4.45300 -0.53200 42.89600
N  0.64600 -2.57300 44.35200
C  -0.67500 -2.63700 44.34500
C  -1.19900 -3.90600 44.94700
C  0.08000 -4.71000 45.42700
C  1.14800 -3.71600 44.93400
C  -2.28400 -3.75000 46.04000
C  0.29900 -6.16100 44.99600
C  -0.94400 -7.02100 44.80200
N  3.47200 -2.03100 44.27900
C  3.63500 -3.26700 44.73500
C  5.01500 -3.58600 44.89000
C  5.68200 -2.49200 44.26800
C  4.64400 -1.59700 43.93900
C  5.67300 -4.80500 45.46300
C  6.94500 -2.01700 43.82700
O  8.04400 -2.47400 43.95500
C  6.60500 -0.61200 43.20900
C  7.29300 0.36600 44.00100
O  7.00700 0.64800 45.17900
O  8.18900 1.06700 43.25200
C  8.71300 2.37300 43.76700
H  1.02600 3.05900 41.77300
H  -2.51700 -1.95700 43.93900
H  2.62100 -5.04700 45.60800
H  5.56800 2.35700 42.79700
H  3.44800 3.09300 41.01700
H  2.84500 3.70500 43.81400
H  3.23600 4.78300 42.48800
H  4.55900 4.12000 43.49100
H  4.63400 1.66700 39.98400
H  5.80900 0.59100 40.76600
H  7.40100 2.00100 40.20000
H  6.60500 3.31500 41.03600
H  -2.44400 3.59100 41.71700
H  -2.17100 2.52600 40.34100
H  -0.80200 3.41600 41.00200
H  -5.52500 -0.36200 42.79000
H  -4.20700 -0.53800 43.95800
H  -4.21800 -1.46200 42.37800
H  -1.59100 -4.31800 44.01700
H  0.09700 -4.80600 46.51300
H  -2.05500 -4.17400 47.01700
H  -3.21500 -4.23600 45.74800
H  -2.50600 -2.68900 46.15200
H  0.91000 -6.55500 45.80900
H  0.88900 -6.22100 44.08100
H  -0.81000 -8.04100 45.16300
H  -1.34000 -7.02200 43.78700
H  -1.66700 -6.49400 45.42500
H  5.54500 -5.52400 44.65400
H  5.21000 -5.09900 46.40500
H  6.73600 -4.65000 45.64600
H  7.04900 -0.59000 42.21300
H  7.87600 2.98400 44.10300
H  9.12500 2.89400 42.90300
H  9.48800 2.16800 44.50600
Mg 46.95100 34.75300 26.71600
C  45.20900 33.27700 29.47800
C  47.28300 37.57700 28.69900
C  48.07500 36.37000 24.05600
C  46.45800 31.90200 24.81200
N  46.42500 35.29900 29.05600
C  45.64200 34.58600 29.89500
C  45.29800 35.38700 31.13500
C  45.94600 36.84600 30.80400
C  46.52400 36.60300 29.40800
C  44.95700 38.10600 30.85900
C  45.91700 34.80100 32.43200
C  45.84400 35.71000 33.66200
H  47.07000 36.28800 34.20900
N  47.59300 36.69200 26.47800
C  47.77700 37.65500 27.41800
C  48.51900 38.77200 26.82100
C  48.80300 38.32700 25.51200
C  48.11400 37.11900 25.25800
C  48.82500 39.99100 27.62800
C  49.79300 39.02800 24.53600
O  49.99100 38.57700 23.34900
C  50.53900 40.16900 25.04100
N  47.16900 34.23200 24.69400
C  47.66400 35.09000 23.78100
C  47.70200 34.35800 22.34200
C  47.51200 32.79300 22.67100
C  47.03200 32.93200 24.17900
C  46.60800 35.00300 21.43800
C  48.67700 31.82400 22.49100
C  49.86600 31.84400 23.45100
N  46.08300 32.96900 26.97100
C  46.02800 31.87400 26.18200
C  45.32300 30.75700 26.90400
C  44.91700 31.31100 28.09000
C  45.46700 32.62000 28.16900
C  44.86400 29.46100 26.27700
C  44.23200 31.03400 29.30900
O  43.58500 29.99600 29.66700
C  44.32700 32.31600 30.21600
C  44.75700 31.90900 31.51700
O  45.91800 31.73200 31.82500
O  43.69900 31.73100 32.32600
C  44.02900 31.12200 33.64400
H  47.46600 38.41800 29.37100
H  48.49500 36.92400 23.21400
H  46.45700 30.85500 24.49900
H  44.22000 35.35000 31.29100
H  46.69900 37.07700 31.55700
H  45.44700 38.88200 31.44700
H  44.02800 37.80100 31.34100
H  44.64500 38.40900 29.85900
H  46.91700 34.42300 32.21900
H  45.28800 33.97600 32.76700
H  45.53000 35.09600 34.50600
H  45.10700 36.49200 33.47600
H  48.39500 40.86200 27.13400
H  49.90300 40.12800 27.70100
H  48.34100 39.97700 28.60500
H  49.84500 40.84900 25.53500
H  51.15500 40.60300 24.25400
H  51.19400 39.60400 25.70400
H  48.67100 34.50200 21.86400
H  46.78500 32.30000 22.02600
H  46.08000 35.83400 21.90700
H  45.85500 34.27000 21.15000
H  47.12200 35.27900 20.51800
H  49.16900 32.12500 21.56600
H  48.30000 30.82700 22.26600
H  50.81600 31.52400 23.02300
H  49.55200 31.24500 24.30700
H  49.97900 32.87500 23.78700
H  43.84800 29.34100 26.65400
H  45.49800 28.66600 26.66900
H  44.77300 29.55400 25.19500
H  43.31400 32.71800 30.22900
H  43.20600 30.62900 34.16200
H  44.18300 31.99900 34.27300
H  44.88500 30.44900 33.70400

