158

Mg 17.54500 -2.33900 27.83000
C  16.68600 -0.23500 30.49900
C  19.58100 -4.11600 30.11500
C  18.84400 -3.96500 25.24100
C  15.78300 -0.14400 25.74900
N  18.07700 -2.16400 30.02800
C  17.44100 -1.32200 30.93200
C  17.89100 -1.56600 32.35400
C  18.96400 -2.70000 32.13900
C  18.88100 -3.06900 30.63000
C  20.43500 -2.33200 32.51300
C  16.82300 -1.96400 33.40900
C  16.96400 -1.21700 34.80900
H  18.40800 -0.94000 35.24000
N  18.83000 -3.93000 27.67300
C  19.56400 -4.54500 28.75800
C  20.27500 -5.66300 28.26000
C  19.97000 -5.71200 26.89100
C  19.23600 -4.50600 26.50600
C  21.17300 -6.54400 29.10900
C  20.46600 -6.65400 25.85100
O  20.28200 -6.50800 24.62700
C  21.34200 -7.87200 26.36200
N  17.16600 -2.26000 25.84600
C  17.92500 -2.92600 24.93400
C  17.61800 -2.60400 23.39500
C  16.51900 -1.45800 23.64900
C  16.43100 -1.27800 25.15100
C  18.91200 -2.08500 22.51300
C  15.12100 -1.60500 22.97600
C  14.85000 -0.88800 21.65600
N  16.51800 -0.49100 28.00200
C  15.76800 0.19100 27.08000
C  15.07400 1.33200 27.68500
C  15.45800 1.17300 29.10900
C  16.27900 0.08400 29.16100
C  14.19200 2.25900 27.02200
C  15.12900 1.66700 30.36700
O  14.33600 2.51100 30.70000
C  16.08900 0.84100 31.34000
C  17.10000 1.72000 32.02400
O  18.21500 1.99600 31.51000
O  16.59800 2.15700 33.22000
C  17.41200 3.17300 33.87800
H  20.06600 -4.75500 30.85600
H  19.18000 -4.39000 24.29300
H  15.32900 0.52700 25.01700
H  18.35300 -0.61800 32.62700
H  18.69400 -3.62700 32.64600
H  20.38100 -1.32000 32.91600
H  21.12700 -2.29700 31.67100
H  20.71000 -3.10400 33.23200
H  16.77200 -3.00900 33.71500
H  15.87300 -1.78900 32.90300
H  16.59800 -1.79100 35.66000
H  16.50700 -0.23600 34.67700
H  21.08200 -7.61100 28.90800
H  20.88200 -6.48500 30.15800
H  22.15700 -6.16800 28.83100
H  21.73400 -8.50600 25.56700
H  20.63700 -8.54800 26.84400
H  22.15100 -7.43000 26.94500
H  17.13400 -3.46900 22.94100
H  16.97400 -0.54800 23.25900
H  18.75300 -1.10300 22.06700
H  18.97000 -2.88800 21.77800
H  19.76400 -1.99900 23.18700
H  14.44200 -1.13700 23.68800
H  14.81500 -2.65000 22.92100
H  13.89600 -0.39000 21.82800
H  14.92900 -1.50000 20.75700
H  15.57100 -0.07500 21.57500
H  13.17700 2.15900 27.40700
H  14.22300 2.08000 25.94700
H  14.53700 3.28100 27.17500
H  15.47400 0.40400 32.12600
H  17.20700 4.08800 33.32300
H  18.45400 2.87400 34.00000
H  16.93000 3.33100 34.84200
Mg 43.53500 2.99100 46.77200
C  42.88700 6.24900 45.52700
C  40.32100 2.18200 45.88000
C  44.34700 -0.26200 47.44500
C  47.01800 3.93200 47.04100
N  41.88900 4.02100 45.75000
C  41.81400 5.37300 45.43400
C  40.37500 5.79900 44.94800
C  39.60500 4.49300 45.19000
C  40.65000 3.55600 45.75100
C  38.32900 4.67100 46.02800
C  40.49400 6.12400 43.45100
C  39.73800 7.30500 42.93100
H  38.73500 7.09900 41.73800
N  42.53900 1.16300 46.72000
C  41.21700 1.05700 46.28500
C  40.88200 -0.31800 46.26400
C  41.94800 -1.08300 46.69700
C  43.01500 -0.08900 47.03300
C  39.70100 -0.88400 45.57100
C  42.02000 -2.57500 46.76000
O  40.98500 -3.18900 46.60000
C  43.25400 -3.22700 47.10500
N  45.34900 2.00100 47.16000
C  45.39200 0.63500 47.52500
C  46.69800 0.27900 48.13100
C  47.62600 1.53700 47.84000
C  46.63300 2.60000 47.35500
C  46.59500 -0.06700 49.64100
C  48.81300 1.24900 46.88400
C  48.65200 0.44200 45.59600
N  44.79100 4.70500 46.36700
C  46.12200 4.91500 46.51400
C  46.35800 6.33000 46.15400
C  45.10900 6.92700 45.91400
C  44.21400 5.88400 45.96700
C  47.69600 6.99400 45.97900
C  44.47700 8.19700 45.58200
O  44.96600 9.28900 45.40100
C  42.98800 7.76200 45.27700
C  42.13900 8.49000 46.25900
O  41.90300 8.09700 47.37300
O  41.74800 9.67100 45.73500
C  40.79700 10.44300 46.51300
H  39.26600 1.93900 45.74000
H  44.88300 -1.20400 47.57300
H  48.04700 4.29400 47.07600
H  40.02100 6.67000 45.49900
H  39.25100 4.11700 44.23100
H  37.45200 4.79100 45.39200
H  38.32600 5.53600 46.69000
H  38.12800 3.78000 46.62300
H  40.08900 5.31500 42.84300
H  41.54000 6.29700 43.19900
H  40.45800 8.07000 42.63900
H  39.09600 7.78600 43.66900
H  38.96900 -1.36100 46.22400
H  39.98900 -1.50100 44.71900
H  39.02900 -0.11300 45.19300
H  43.30100 -3.17600 48.19300
H  44.07800 -2.78400 46.54600
H  43.24700 -4.25200 46.73300
H  47.11200 -0.59600 47.63000
H  48.00700 1.93300 48.78100
H  45.62700 0.23700 50.03900
H  47.40900 0.45200 50.14600
H  46.76700 -1.13800 49.75600
H  49.66900 0.85900 47.43400
H  49.11100 2.25900 46.60200
H  49.11500 0.87400 44.70800
H  47.59300 0.58800 45.38200
H  49.05200 -0.56100 45.74100
H  48.29500 6.82900 46.87400
H  47.56900 8.05400 45.75700
H  48.22200 6.60800 45.10600
H  42.82300 8.11300 44.25800
H  41.23200 11.09200 47.27300
H  40.06900 9.78300 46.98600
H  40.16400 11.00500 45.82700

