158

Mg -2.36100 16.33900 26.86400
C  -2.96600 14.15800 29.45900
C  -2.35100 18.89500 29.07300
C  -2.05000 18.40400 24.21000
C  -2.76200 13.60700 24.58700
N  -2.57900 16.43800 29.04100
C  -2.69700 15.39200 29.91700
C  -2.62700 15.94800 31.37400
C  -2.83600 17.51600 31.18100
C  -2.59800 17.67800 29.66200
C  -4.15500 18.07600 31.61200
C  -1.35700 15.53000 32.11000
C  -0.88400 16.22400 33.39100
H  -0.50300 15.43100 34.58400
N  -2.20200 18.47800 26.70800
C  -2.24200 19.30300 27.73800
C  -1.96500 20.69200 27.22700
C  -1.70900 20.59400 25.86100
C  -1.99000 19.10200 25.52400
C  -1.99700 21.93100 28.10600
C  -1.31700 21.54500 24.79400
O  -1.23500 21.22200 23.62400
C  -0.85300 22.88800 25.18100
N  -2.52700 16.04800 24.71000
C  -2.21800 17.07200 23.81300
C  -2.25400 16.62900 22.38000
C  -2.29200 15.09400 22.56300
C  -2.55600 14.89000 24.03200
C  -3.43500 17.08600 21.49700
C  -1.16600 14.32000 21.87400
C  0.32300 14.43800 22.39400
N  -2.79100 14.31900 26.98600
C  -2.84500 13.36200 25.99500
C  -2.98000 12.06100 26.57000
C  -3.07500 12.30800 27.95000
C  -2.92800 13.73300 28.13100
C  -3.18000 10.77000 25.87800
C  -3.21800 11.63700 29.22300
O  -3.27300 10.44000 29.49300
C  -3.16700 12.90300 30.31000
C  -2.09500 12.42300 31.21800
O  -0.92700 12.72900 31.12300
O  -2.69800 11.66400 32.16800
C  -1.82400 11.24100 33.27100
H  -2.45300 19.69400 29.81100
H  -1.96500 19.04300 23.32900
H  -2.64300 12.78100 23.88200
H  -3.42600 15.54200 31.99400
H  -2.02100 18.17000 31.49300
H  -4.91000 17.29900 31.49100
H  -4.36000 19.03200 31.13000
H  -4.09200 18.32000 32.67200
H  -0.54800 15.40100 31.39100
H  -1.60100 14.52700 32.46100
H  -1.71800 16.77900 33.82100
H  -0.16600 16.96700 33.04300
H  -0.93900 22.18900 28.15900
H  -2.49300 21.70600 29.05000
H  -2.56700 22.65600 27.52500
H  -1.48600 23.53200 25.79100
H  -0.56700 23.52500 24.34500
H  0.04600 22.64900 25.74900
H  -1.38400 17.10400 21.92800
H  -3.14400 14.64800 22.05000
H  -4.27700 16.39400 21.47200
H  -3.22600 17.64200 20.58300
H  -3.83500 17.90600 22.09400
H  -1.03100 14.60000 20.82900
H  -1.48100 13.27900 21.94200
H  0.47600 15.41400 22.85400
H  0.81100 14.46800 21.42000
H  0.74700 13.64900 23.01500
H  -3.15400 10.92900 24.80000
H  -4.12300 10.49600 26.35100
H  -2.55000 10.03800 26.38400
H  -4.07000 12.97800 30.91600
H  -1.42100 10.25600 33.03500
H  -2.49700 11.15100 34.12400
H  -1.05700 11.98100 33.50000
Mg -10.77500 37.27200 42.01800
C  -8.51500 34.73500 41.47300
C  -8.89500 39.45200 40.13800
C  -13.25800 39.46000 42.31400
C  -12.83800 34.86500 43.54600
N  -9.00900 37.01900 40.81600
C  -8.23800 35.87300 40.66400
C  -6.93700 36.16000 39.94500
C  -7.06600 37.70400 39.61800
C  -8.44700 38.10800 40.20300
C  -5.90700 38.58700 40.12100
C  -6.72700 35.14400 38.78900
C  -5.25000 34.84200 38.66600
H  -4.36200 35.33200 37.52800
N  -11.06300 39.25200 41.29400
C  -10.15400 39.92300 40.56600
C  -10.67900 41.25100 40.40600
C  -11.91700 41.34200 41.08900
C  -12.12800 39.99900 41.60000
C  -9.99000 42.40000 39.77400
C  -12.66400 42.57300 41.37900
O  -12.23000 43.61300 40.95000
C  -13.92900 42.59000 42.09100
N  -12.87200 37.12700 42.60100
C  -13.69100 38.20200 42.72700
C  -15.01700 37.92400 43.37300
C  -14.88900 36.38900 43.60900
C  -13.40400 36.09900 43.21600
C  -15.24800 38.74000 44.63900
C  -15.96900 35.47700 42.83100
C  -16.86000 34.50300 43.65000
N  -10.73000 35.21500 42.51000
C  -11.57600 34.39800 43.25100
C  -10.94100 33.09800 43.54800
C  -9.75300 33.21700 42.77300
C  -9.65000 34.50800 42.29800
C  -11.54500 31.93900 44.25600
C  -8.45700 32.56100 42.45800
O  -7.98200 31.52500 42.84300
C  -7.65400 33.49500 41.60500
C  -6.25300 33.60000 42.09400
O  -5.33600 32.78400 41.88700
O  -6.17900 34.78800 42.86600
C  -4.79400 35.04800 43.33600
H  -8.40000 40.12100 39.43000
H  -14.06100 40.19500 42.39700
H  -13.39500 34.07300 44.05200
H  -6.12000 36.01100 40.65000
H  -7.16000 37.83500 38.54000
H  -5.36300 39.04700 39.29600
H  -5.13200 38.01400 40.63000
H  -6.43800 39.23400 40.82000
H  -7.08400 35.58600 37.85900
H  -7.39400 34.28400 38.84800
H  -5.21700 33.75500 38.58700
H  -4.70600 35.24000 39.52300
H  -8.98600 42.20000 39.39800
H  -9.72100 43.04500 40.61000
H  -10.58700 43.01800 39.10400
H  -14.29700 43.61600 42.10700
H  -13.75300 42.30400 43.12800
H  -14.64100 41.93100 41.59400
H  -15.86200 38.12800 42.71500
H  -14.94500 36.06500 44.64800
H  -14.35600 39.19900 45.06500
H  -15.90400 38.13400 45.26400
H  -15.89000 39.59400 44.42500
H  -15.51100 34.79400 42.11600
H  -16.65900 36.15800 42.33300
H  -17.87900 34.87800 43.54900
H  -16.55200 34.49400 44.69500
H  -16.76700 33.48700 43.26500
H  -12.45100 32.24900 44.77800
H  -10.87300 31.50500 44.99500
H  -11.83600 31.17000 43.54000
H  -7.61400 32.83700 40.73600
H  -4.79800 35.91100 44.00100
H  -4.21400 35.15600 42.41900
H  -4.51200 34.30200 44.07900

