158

Mg 7.75600 2.17600 28.13800
C  9.42600 0.97700 30.99400
C  5.89100 4.13300 30.12500
C  5.98600 2.97300 25.45100
C  9.66500 0.03900 26.21000
N  7.62500 2.37700 30.37600
C  8.50600 1.97800 31.30600
C  8.25500 2.78100 32.66400
C  7.03700 3.66500 32.29000
C  6.79000 3.35900 30.84400
C  5.76400 3.29700 33.17300
C  9.53100 3.62500 33.12500
C  10.14400 3.41800 34.52400
H  9.80900 4.50600 35.58200
N  6.26600 3.53300 27.86400
C  5.62100 4.26800 28.76300
C  4.51000 5.08000 28.12900
C  4.52900 4.64400 26.75100
C  5.61700 3.67900 26.65600
C  3.65100 6.03500 28.96000
C  3.66200 5.17000 25.59100
O  3.69800 4.79700 24.41500
C  2.75200 6.27700 26.00800
N  7.79100 1.59000 26.09000
C  7.00200 2.08800 25.13600
C  7.14800 1.43900 23.78300
C  8.45900 0.61200 24.00900
C  8.69100 0.73900 25.57700
C  6.00600 0.57000 23.34400
C  9.69200 1.26500 23.24300
C  9.99700 0.80900 21.81700
N  9.18800 0.72600 28.46800
C  9.89900 -0.02500 27.60000
C  10.75800 -0.96400 28.24200
C  10.62200 -0.48900 29.57900
C  9.65200 0.47400 29.66100
C  11.48400 -2.02400 27.54900
C  11.09200 -0.80200 30.86900
O  11.85300 -1.70100 31.25300
C  10.47300 0.23100 31.81400
C  10.01800 -0.41800 33.09900
O  8.88900 -0.82000 33.33200
O  10.98700 -0.15200 34.11100
C  10.49000 -0.42800 35.47800
H  5.37700 4.79400 30.82600
H  5.25600 3.03700 24.64100
H  10.11300 -0.61900 25.46300
H  8.03400 1.95800 33.34400
H  7.27800 4.70500 32.51200
H  6.10300 2.63400 33.96800
H  4.89600 2.88600 32.65600
H  5.39600 4.21900 33.62200
H  9.40900 4.68400 32.90100
H  10.21500 3.29800 32.34200
H  11.23200 3.35200 34.52400
H  9.82800 2.45600 34.92700
H  3.80300 5.91700 30.03300
H  2.60800 5.80400 28.73900
H  3.84500 7.08000 28.72000
H  3.22300 7.04100 26.62600
H  1.88900 5.85700 26.52400
H  2.34300 6.67400 25.07900
H  7.28200 2.31500 23.14700
H  8.27000 -0.42900 23.74700
H  5.73100 0.98100 22.37200
H  5.17700 0.62600 24.04900
H  6.16600 -0.50200 23.22900
H  10.55900 1.13400 23.88900
H  9.56000 2.34300 23.16100
H  9.34700 0.06600 21.35500
H  11.04100 0.49600 21.81200
H  9.82500 1.67700 21.18100
H  10.77400 -2.84700 27.45900
H  12.46100 -2.24400 27.97800
H  11.61400 -1.76400 26.49800
H  11.25300 0.92600 32.12500
H  9.83500 0.38700 35.78500
H  11.36400 -0.51000 36.12400
H  9.92500 -1.36100 35.47700
Mg 7.04900 53.43700 41.91900
C  6.22700 50.00300 41.18500
C  10.28300 52.79900 40.68900
C  7.73700 56.69500 41.87600
C  3.60700 54.01800 42.32300
N  8.11100 51.61800 40.85000
C  7.57300 50.34500 40.91100
C  8.71300 49.34300 40.35700
C  10.01700 50.17200 40.46800
C  9.45100 51.62500 40.71600
C  11.00900 49.67100 41.56100
C  8.31600 48.78400 38.94100
C  7.42400 49.66000 38.05900
H  7.15900 49.14900 36.71200
N  8.80900 54.60100 41.38200
C  10.02000 54.18200 40.96300
C  10.96000 55.24000 40.92000
C  10.13600 56.36600 41.17900
C  8.79200 55.93400 41.49300
C  12.44400 55.01200 40.44400
C  10.63200 57.78300 41.04100
O  11.81500 58.02400 40.78900
C  9.73500 59.00100 41.08400
N  5.81200 55.11300 41.96900
C  6.40600 56.40200 42.13800
C  5.29900 57.37900 42.43800
C  4.04500 56.52600 42.62400
C  4.47900 55.13700 42.26700
C  5.52300 58.49200 43.50300
C  2.80800 57.05700 41.77600
C  1.40700 56.94400 42.41900
N  5.33200 52.30000 41.90100
C  3.97500 52.68200 42.09000
C  3.11900 51.51600 42.05800
C  4.05200 50.41500 41.84500
C  5.31100 50.99900 41.59300
C  1.62300 51.48000 42.33400
C  4.12500 49.01000 41.82700
O  3.26600 48.20700 42.13800
C  5.56700 48.61500 41.33300
C  5.39400 47.68400 40.11800
O  4.93000 47.99800 39.03100
O  5.59400 46.42300 40.54700
C  5.18900 45.31100 39.62300
H  11.33800 52.56400 40.53300
H  7.72100 57.78500 41.82200
H  2.52500 54.15000 42.39000
H  8.66200 48.53700 41.08900
H  10.56400 50.15300 39.52500
H  11.96900 49.30900 41.19500
H  10.57300 48.81100 42.07000
H  11.26700 50.41500 42.31500
H  7.76100 47.86300 39.12000
H  9.17800 48.42800 38.37700
H  7.98200 50.59400 37.99300
H  6.48400 49.93800 38.53800
H  12.41500 54.41700 39.53000
H  12.90900 54.39800 41.21500
H  13.10400 55.87600 40.36900
H  10.36800 59.88700 41.03700
H  9.40500 59.03000 42.12300
H  9.00700 58.99300 40.27300
H  5.24400 57.85200 41.45800
H  3.86900 56.44500 43.69600
H  5.55300 59.50300 43.09700
H  6.43900 58.36600 44.08000
H  4.67500 58.51600 44.18800
H  2.80400 56.66200 40.76100
H  3.02400 58.08400 41.48100
H  0.73100 56.44100 41.72700
H  1.01400 57.94300 42.61000
H  1.43900 56.40300 43.36500
H  1.48400 51.93400 43.31500
H  1.21800 50.46800 42.33500
H  1.14400 52.25700 41.73800
H  5.99200 48.03300 42.15100
H  5.68400 44.35600 39.79900
H  5.43700 45.64300 38.61500
H  4.11100 45.15000 39.66600

