158

Mg -2.34900 17.14800 26.00600
C  -2.34800 15.04300 29.03700
C  -2.75800 19.87400 28.18500
C  -2.33800 19.01600 23.43700
C  -2.54600 14.16400 24.20700
N  -2.66600 17.35500 28.42700
C  -2.57800 16.40400 29.43400
C  -2.61400 17.09700 30.83500
C  -2.93200 18.56800 30.48500
C  -2.66100 18.65500 28.91200
C  -4.32800 19.09400 30.91200
C  -1.55300 16.80300 31.88700
C  -1.56500 17.49400 33.23500
H  -2.12700 16.69000 34.43400
N  -2.53300 19.20400 25.77500
C  -2.63700 20.16800 26.78200
C  -2.44500 21.44400 26.15100
C  -2.18900 21.15400 24.69300
C  -2.34200 19.75700 24.59600
C  -2.61600 22.76600 26.82300
C  -1.90900 22.13000 23.49000
O  -1.82700 21.75900 22.36400
C  -1.79200 23.61100 23.76800
N  -2.55600 16.64000 24.03000
C  -2.49200 17.62700 23.13400
C  -2.59200 17.03100 21.72800
C  -2.27400 15.51000 21.99800
C  -2.50200 15.40900 23.48100
C  -3.87500 17.32800 20.94600
C  -0.81700 14.97100 21.71800
C  0.34800 15.90400 22.10100
N  -2.43400 15.07800 26.45400
C  -2.44900 13.92300 25.59700
C  -2.33200 12.75900 26.35700
C  -2.27300 13.14000 27.63300
C  -2.34300 14.54100 27.69800
C  -2.44600 11.33900 25.83600
C  -2.10700 12.61900 28.93800
O  -2.09700 11.44400 29.28400
C  -2.13900 13.85500 29.92600
C  -0.83100 13.97800 30.68400
O  0.17500 14.65700 30.28900
O  -0.93500 13.29700 31.87000
C  0.17600 13.50100 32.78800
H  -2.98200 20.72200 28.83500
H  -2.36000 19.57500 22.49900
H  -2.32900 13.25400 23.64400
H  -3.53200 16.64700 31.21400
H  -2.16400 19.17000 30.97000
H  -4.86800 19.30900 29.98900
H  -4.29300 20.09300 31.34600
H  -4.87300 18.39800 31.54900
H  -0.60400 16.87700 31.35700
H  -1.72200 15.74000 32.05800
H  -1.99900 18.49300 33.20000
H  -0.49600 17.61600 33.41200
H  -2.48900 22.77600 27.90600
H  -3.55800 23.18400 26.46800
H  -1.77800 23.43000 26.61300
H  -1.76700 24.17100 22.83300
H  -0.95100 23.75000 24.44700
H  -2.70100 23.86500 24.31300
H  -1.75600 17.47900 21.19200
H  -2.92500 14.84400 21.43200
H  -4.52600 16.45800 21.03400
H  -3.80600 17.67000 19.91300
H  -4.34800 18.18100 21.43300
H  -0.59000 14.84400 20.65900
H  -0.65400 14.02600 22.23600
H  1.04800 15.90700 21.26600
H  0.93900 15.52700 22.93500
H  0.12200 16.96700 22.18700
H  -1.96700 10.66800 26.54900
H  -1.94800 11.26700 24.86900
H  -3.48000 11.02300 25.69700
H  -2.97200 13.67000 30.60500
H  -0.11100 14.34000 33.42100
H  1.09600 13.69800 32.23800
H  0.35200 12.54900 33.29100
Mg 40.79300 9.01800 29.70100
C  42.39700 10.77800 32.19800
C  38.65000 7.81000 31.95700
C  39.16900 7.39500 27.10700
C  43.24300 10.18100 27.37200
N  40.63400 9.19800 31.81700
C  41.32900 10.02600 32.63700
C  40.82600 9.87600 34.06100
C  39.70000 8.79700 33.97200
C  39.62800 8.59900 32.48300
C  39.73400 7.44100 34.81500
C  40.36900 11.24200 34.72500
C  39.39500 11.17100 35.98300
H  39.63000 12.10900 37.17800
N  39.12000 7.74900 29.56800
C  38.33900 7.39000 30.63900
C  37.21000 6.61600 30.15600
C  37.33700 6.48700 28.77200
C  38.64200 7.18100 28.40400
C  36.22900 5.98700 31.06500
C  36.45200 5.82900 27.71900
O  36.58800 6.03800 26.51400
C  35.20700 5.09700 28.24000
N  41.23800 8.64000 27.60700
C  40.42200 8.02600 26.79100
C  40.85800 8.23700 25.35600
C  41.99600 9.25200 25.40000
C  42.21000 9.36800 26.88500
C  41.24200 6.83500 24.86700
C  41.60900 10.60500 24.62200
C  40.57300 11.47100 25.31500
N  42.50700 10.19100 29.72900
C  43.35600 10.57600 28.72700
C  44.37000 11.33300 29.32100
C  44.02500 11.50200 30.70500
C  42.89500 10.77400 30.90700
C  45.60300 11.70100 28.67000
C  44.39100 12.14300 31.95700
O  45.32900 12.87000 32.20900
C  43.29300 11.66900 32.90600
C  43.94200 11.03100 34.08000
O  44.49300 9.93800 34.08700
O  43.69100 11.78500 35.17300
C  43.96100 11.23000 36.46000
H  37.94200 7.49000 32.72500
H  38.70800 6.88100 26.26100
H  43.85400 10.64700 26.59600
H  41.62200 9.55100 34.73100
H  38.79100 9.28000 34.32800
H  38.97800 7.39600 35.59900
H  40.71200 7.44400 35.29700
H  39.60500 6.55700 34.19000
H  39.78900 11.73000 33.94200
H  41.19500 11.88800 35.02300
H  39.44700 10.18300 36.43900
H  38.36300 11.40600 35.72200
H  35.23300 6.37000 30.84100
H  36.40900 6.23200 32.11100
H  36.17000 4.90700 30.93200
H  35.30500 4.29700 28.97500
H  34.81900 4.61500 27.34300
H  34.50100 5.87600 28.52800
H  40.01000 8.51700 24.73200
H  42.99700 8.98600 25.06100
H  40.83600 6.08400 25.54500
H  42.32500 6.76400 24.77000
H  40.63200 6.60000 23.99500
H  41.20300 10.50300 23.61500
H  42.52100 11.18700 24.48900
H  40.56000 11.36000 26.39900
H  39.59500 11.18600 24.92500
H  40.76700 12.52400 25.11200
H  45.66600 12.78600 28.59600
H  45.73300 11.24800 27.68600
H  46.32500 11.23600 29.34100
H  42.74600 12.55600 33.22700
H  44.70000 11.82400 36.99700
H  44.36400 10.21800 36.49500
H  43.08500 11.28300 37.10600

