158

Mg 47.88600 23.87600 28.71200
C  49.00900 26.04800 31.19800
C  47.36900 21.60300 31.15200
C  47.19800 21.79900 26.28800
C  49.06500 26.29900 26.29100
N  48.22000 23.84800 30.87600
C  48.50900 24.93000 31.69400
C  48.26300 24.52900 33.18700
C  48.07100 22.99000 33.10400
C  47.92900 22.78700 31.65900
C  49.11500 22.14800 33.79900
C  47.06700 25.30400 33.92200
C  47.51000 26.29800 35.02500
H  46.46300 26.57400 36.12100
N  47.24500 22.01100 28.72700
C  46.97600 21.24200 29.84800
C  46.40400 19.99500 29.40800
C  46.36800 20.00900 27.98400
C  46.97800 21.29800 27.58100
C  45.97300 18.96400 30.34400
C  45.88500 18.94400 26.99800
O  45.85800 19.15500 25.77800
C  45.51000 17.57300 27.48400
N  48.28800 23.96500 26.62600
C  47.72800 23.00900 25.83300
C  47.72900 23.39000 24.34500
C  48.04600 24.93000 24.42100
C  48.50000 25.10400 25.88600
C  48.82600 22.54900 23.57800
C  46.89200 25.85000 23.96900
C  45.58400 25.79000 24.73900
N  48.82400 25.88400 28.67400
C  49.28400 26.69600 27.64000
C  49.88000 27.88900 28.20500
C  49.73700 27.77100 29.60100
C  49.14200 26.46800 29.83800
C  50.54400 28.99200 27.45100
C  50.11900 28.32300 30.93900
O  50.68200 29.35000 31.29000
C  49.54400 27.29300 31.99100
C  50.60600 26.98900 32.95900
O  51.49700 26.18500 32.83800
O  50.36800 27.72200 34.09200
C  51.21500 27.43800 35.30300
H  46.97300 20.99500 31.96800
H  46.84000 21.21700 25.43700
H  49.40400 26.91000 25.45200
H  49.14700 24.74600 33.78600
H  47.14600 22.58200 33.51400
H  49.95300 22.68200 34.24700
H  49.44400 21.36700 33.11300
H  48.71000 21.64300 34.67600
H  46.30400 24.60400 34.26200
H  46.63700 25.93500 33.14500
H  47.74300 27.25200 34.55300
H  48.43400 25.92500 35.46700
H  46.79000 18.24200 30.33800
H  45.02800 18.64700 29.90400
H  45.82200 19.32300 31.36200
H  46.27100 17.21800 28.17900
H  45.34400 16.78000 26.75400
H  44.66400 17.66900 28.16400
H  46.74600 23.28800 23.88500
H  48.90600 25.09500 23.77200
H  49.81300 23.01100 23.55600
H  48.47700 22.45800 22.54900
H  48.69600 21.53700 23.96300
H  46.65600 25.60500 22.93300
H  47.30400 26.85800 23.91600
H  45.53900 26.79700 25.15500
H  45.67100 24.91100 25.37800
H  44.74100 25.64200 24.06500
H  49.95600 29.34800 26.60500
H  51.47300 28.62000 27.02000
H  50.74300 29.89100 28.03500
H  48.76100 27.79600 32.55900
H  52.19700 27.07600 34.99700
H  50.61700 26.82000 35.97200
H  51.35200 28.42300 35.75000
Mg 16.72700 51.45300 26.10300
C  18.63600 50.06700 28.71800
C  14.33400 52.58100 28.42300
C  14.99900 52.63600 23.59200
C  19.19700 50.15700 23.89100
N  16.40800 51.10000 28.30700
C  17.47300 50.75900 29.09200
C  17.12600 51.24500 30.56400
C  15.52700 51.41200 30.41000
C  15.39500 51.77200 28.97200
C  14.75900 50.13300 30.83800
C  17.95900 52.44600 31.05500
C  17.38600 53.03100 32.37500
H  16.55300 52.11900 33.30600
N  14.91500 52.46700 25.98400
C  14.10000 52.82400 27.04600
C  13.03000 53.62400 26.47100
C  13.13600 53.56500 25.09800
C  14.37900 52.89500 24.79600
C  11.99200 54.36400 27.28800
C  12.27100 54.31100 23.98500
O  12.67300 54.26100 22.86200
C  11.00800 55.15500 24.38000
N  17.11500 51.39900 24.03000
C  16.23100 52.01400 23.18900
C  16.66900 51.94400 21.67900
C  18.03500 51.27300 21.80700
C  18.19100 50.92100 23.30000
C  15.71400 51.25600 20.65500
C  19.27300 52.13400 21.21400
C  19.65700 53.45000 21.93900
N  18.51900 50.20700 26.18500
C  19.34700 49.75000 25.21700
C  20.38000 48.95100 25.85400
C  20.19600 49.13200 27.15200
C  18.98000 49.87600 27.37500
C  21.57400 48.37900 25.20300
C  20.81200 48.90500 28.49700
O  21.83800 48.36400 28.88700
C  19.78000 49.49300 29.58000
C  19.43200 48.41100 30.47500
O  19.30200 47.20300 30.17200
O  19.20600 48.91700 31.74700
C  18.66200 47.93700 32.67000
H  13.52300 52.87100 29.09500
H  14.58200 52.87800 22.61200
H  19.87000 49.77100 23.12300
H  17.35900 50.36900 31.16900
H  15.03300 52.17900 31.00600
H  14.07900 50.34500 31.66400
H  15.30400 49.24400 31.15400
H  14.05900 49.79300 30.07500
H  17.88900 53.23500 30.30600
H  18.99800 52.11400 31.06600
H  16.77500 53.92900 32.28500
H  18.23600 53.25700 33.01900
H  11.80200 55.40900 27.04300
H  12.49700 54.47200 28.24800
H  11.08300 53.78300 27.44200
H  11.19300 56.02600 25.00800
H  10.35800 54.50600 24.96700
H  10.57700 55.47500 23.43200
H  16.81200 52.96800 21.33400
H  18.06700 50.39200 21.16400
H  14.94700 51.96900 20.35300
H  15.21700 50.44300 21.18600
H  16.29300 50.96800 19.77700
H  18.93400 52.46300 20.23200
H  20.07500 51.39700 21.16600
H  18.77900 53.49200 22.58400
H  19.77100 54.32100 21.29400
H  20.53900 53.26100 22.55000
H  22.49600 48.61600 25.73400
H  21.66600 48.65500 24.15200
H  21.65100 47.29300 25.17500
H  20.31100 50.29400 30.09500
H  18.93400 48.45700 33.58800
H  19.25000 47.01900 32.67600
H  17.59400 47.76900 32.53000

