158

Mg 1.72600 8.86900 26.51400
C  2.43100 10.59100 29.53500
C  1.90500 5.90400 28.45300
C  1.41800 7.06700 23.69600
C  2.11900 11.78800 24.74400
N  2.24600 8.34500 28.68900
C  2.28800 9.26000 29.73100
C  2.18600 8.50700 31.12000
C  2.25800 7.01300 30.73200
C  2.14100 7.04900 29.17800
C  3.56800 6.18500 31.11200
C  0.90600 8.95100 31.94800
C  1.28400 8.96600 33.40600
H  2.42500 8.13600 33.93200
N  1.64000 6.76100 26.15300
C  1.57000 5.70600 27.04900
C  1.50500 4.45800 26.34300
C  1.25200 4.77000 24.98100
C  1.42600 6.25600 24.85100
C  1.65700 3.07500 27.14000
C  1.04100 3.87800 23.79400
O  0.85400 4.27200 22.63100
C  1.01600 2.41300 23.95800
N  1.84700 9.33400 24.54000
C  1.65800 8.44000 23.53600
C  1.77800 9.19600 22.08800
C  1.61200 10.72400 22.47400
C  1.81500 10.63000 24.01100
C  3.06600 8.93800 21.22100
C  0.22500 11.41100 22.25100
C  0.02900 12.31300 21.00800
N  2.13500 10.78400 26.96300
C  2.32500 11.88000 26.10100
C  2.82600 12.99300 26.87000
C  2.75300 12.55900 28.23500
C  2.46400 11.18400 28.23100
C  2.88600 14.38100 26.26900
C  2.82300 12.98800 29.55200
O  3.12900 14.07200 30.00800
C  2.60400 11.72700 30.40500
C  3.67200 11.57900 31.36300
O  4.80100 11.13200 31.16400
O  3.28800 12.01000 32.60900
C  4.25700 11.92200 33.72000
H  1.87700 4.98900 29.04800
H  1.17100 6.58700 22.74700
H  2.21700 12.65800 24.09000
H  3.20000 8.76000 31.42800
H  1.39700 6.51200 31.17400
H  4.09300 5.86200 30.21300
H  3.24700 5.31800 31.68800
H  4.22400 6.80600 31.72200
H  0.05100 8.28600 31.83100
H  0.55100 9.90700 31.56500
H  0.50200 8.80100 34.14700
H  1.65400 9.98000 33.55900
H  0.97800 3.05400 27.99200
H  2.64100 3.15900 27.60000
H  1.64400 2.17200 26.52900
H  0.25200 2.09200 24.66600
H  1.96000 2.11100 24.41200
H  0.90400 1.89200 23.00800
H  0.86100 8.89500 21.58300
H  2.39200 11.37900 22.08500
H  3.40800 7.91900 21.40200
H  3.87900 9.54800 21.61400
H  2.92100 8.98200 20.14100
H  -0.02500 11.75100 23.25600
H  -0.43600 10.57400 22.03100
H  -0.88900 12.00800 20.50400
H  0.86200 12.22500 20.31200
H  -0.01300 13.37600 21.24300
H  3.29200 14.20700 25.27300
H  3.57600 14.90400 26.93200
H  1.96400 14.96000 26.32300
H  1.68600 11.91200 30.96200
H  4.45500 12.83500 34.28100
H  5.22200 11.55300 33.37100
H  3.89000 11.10900 34.34700
Mg 48.32300 45.39400 42.14500
C  44.95100 46.16100 41.16000
C  47.80100 42.26500 40.82600
C  51.50500 44.85500 42.32100
C  48.82000 48.88000 42.50100
N  46.63200 44.46300 41.06300
C  45.38400 44.94700 40.75100
C  44.52500 43.92600 40.06600
C  45.31400 42.61600 40.32900
C  46.67500 43.17400 40.73800
C  44.72800 41.68700 41.42600
C  44.22100 44.08400 38.55700
C  43.05900 43.24700 37.99800
H  43.34500 42.51000 36.64500
N  49.49900 43.77800 41.80100
C  49.08300 42.54000 41.25000
C  50.22300 41.62900 41.17700
C  51.35200 42.37500 41.66800
C  50.79900 43.73000 42.06900
C  50.11200 40.20300 40.67600
C  52.67400 41.78100 42.01300
O  52.91000 40.59700 41.80600
C  53.73300 42.49600 42.73200
N  49.95500 46.67600 42.42200
C  51.21600 46.15600 42.48600
C  52.25400 47.21100 42.54300
C  51.40300 48.54500 42.46200
C  49.96100 48.00600 42.55100
C  53.44800 47.26300 43.58100
C  51.61000 49.56800 41.26500
C  51.57800 51.10100 41.60900
N  47.09300 47.16500 42.10700
C  47.45600 48.45000 42.42100
C  46.20300 49.17000 42.54700
C  45.18000 48.37400 41.98900
C  45.80300 47.15100 41.70200
C  46.01900 50.52100 43.12600
C  43.80300 48.24400 41.67500
O  42.85600 48.95300 41.75900
C  43.66600 46.84800 40.88100
C  42.51400 45.96700 41.39300
O  41.52700 45.61300 40.74600
O  42.81000 45.52400 42.66800
C  41.97100 44.54200 43.24900
H  47.67800 41.25200 40.43700
H  52.59200 44.74600 42.30600
H  48.74700 49.94700 42.72500
H  43.56300 43.95800 40.57700
H  45.29700 42.00800 39.42400
H  45.30500 41.69000 42.35100
H  44.53300 40.72100 40.96000
H  43.70000 42.02500 41.55400
H  45.08300 43.76100 37.97300
H  43.96200 45.12400 38.36100
H  42.21400 43.87100 37.70600
H  42.81700 42.52000 38.77400
H  49.26300 39.93300 40.04900
H  49.85200 39.63200 41.56700
H  50.95900 39.76000 40.15200
H  53.36600 43.02800 43.61000
H  54.15100 43.24200 42.05700
H  54.50000 41.78500 43.03800
H  52.70800 47.06300 41.56300
H  51.48200 49.05300 43.42300
H  54.41800 47.14300 43.09900
H  53.31700 46.39400 44.22600
H  53.51000 48.11200 44.26200
H  50.72400 49.35500 40.66700
H  52.48000 49.23400 40.69900
H  52.58100 51.47400 41.40100
H  51.22600 51.16400 42.63900
H  50.85400 51.61400 40.97500
H  46.53400 50.63700 44.08000
H  44.96800 50.75200 43.29700
H  46.44000 51.23700 42.42000
H  43.43600 47.08500 39.84200
H  42.03100 44.42600 44.33100
H  42.18500 43.58400 42.77500
H  40.91600 44.80400 43.16300

