158

Mg 35.27500 1.47700 29.05200
C  32.90700 2.28000 31.59700
C  37.58000 1.20800 31.42400
C  37.45900 1.26500 26.57600
C  32.96000 2.65400 26.77500
N  35.22600 1.73700 31.21900
C  34.18000 2.04900 32.10200
C  34.60700 1.99100 33.60200
C  36.17800 1.88100 33.42700
C  36.33900 1.52600 31.96300
C  36.93400 3.13700 33.90900
C  34.06700 0.80400 34.49000
C  34.19700 1.03900 36.00900
H  35.00800 2.18500 36.63400
N  37.26000 1.15200 29.01400
C  38.04100 0.99400 30.12200
C  39.40200 0.77700 29.73400
C  39.35400 0.67200 28.24900
C  37.96800 1.08600 27.87400
C  40.54000 0.55300 30.70500
C  40.59100 0.20800 27.31500
O  40.47800 0.24400 26.09200
C  41.90000 -0.29100 27.82700
N  35.14500 1.81700 26.91300
C  36.20600 1.60200 26.16200
C  36.04400 2.04500 24.71900
C  34.54600 2.41100 24.71300
C  34.17200 2.22000 26.17800
C  37.03500 3.11700 24.27900
C  33.70800 1.56800 23.69900
C  33.46800 0.03000 24.07000
N  33.28600 2.14200 29.11300
C  32.45800 2.49700 28.03300
C  31.08800 2.71100 28.51200
C  31.23000 2.73800 29.91100
C  32.54500 2.32500 30.22100
C  29.93200 2.99900 27.69500
C  30.56000 3.03100 31.15900
O  29.42100 3.43100 31.39700
C  31.60000 2.72300 32.28700
C  31.72700 4.04300 33.00700
O  32.32700 4.99600 32.59200
O  31.23200 3.86300 34.27100
C  31.51600 4.95100 35.18900
H  38.31200 1.12600 32.23000
H  38.17100 1.15500 25.75500
H  32.32500 2.84700 25.90800
H  34.47100 2.95900 34.08500
H  36.54500 0.92700 33.80700
H  36.31800 3.77000 34.54800
H  37.47000 3.69400 33.14100
H  37.64300 2.70700 34.61700
H  34.44200 -0.17100 34.17800
H  33.00700 0.71300 34.25500
H  34.35400 0.12800 36.58700
H  33.15800 1.20300 36.29300
H  40.22200 0.20400 31.68800
H  41.02600 1.51600 30.86300
H  41.25100 -0.06900 30.16200
H  41.63800 -1.12600 28.47700
H  42.31800 0.59500 28.30600
H  42.61400 -0.52700 27.03800
H  36.17500 1.28800 23.94600
H  34.30800 3.46200 24.54800
H  37.70500 2.78900 23.48400
H  37.59100 3.41000 25.16900
H  36.56000 3.99400 23.83800
H  34.44100 1.50900 22.89500
H  32.80100 2.06100 23.34800
H  34.15400 -0.21600 24.88100
H  33.76000 -0.62000 23.24600
H  32.40600 -0.09800 24.27900
H  30.05700 3.84100 27.01400
H  29.01000 2.98200 28.27700
H  30.14800 2.12700 27.07700
H  31.12700 1.97100 32.91900
H  30.98200 5.85100 34.88300
H  32.56100 5.12200 34.93300
H  31.42800 4.64200 36.23100
Mg 29.24200 58.87700 41.10300
C  26.08300 57.45600 40.46800
C  30.80600 56.20100 39.67500
C  32.04900 60.62600 41.39000
C  27.44700 61.95800 41.79800
N  28.48500 57.11100 40.04300
C  27.16300 56.66700 40.01900
C  27.10000 55.36700 39.26400
C  28.59200 54.94000 39.18100
C  29.38500 56.15400 39.64800
C  28.94300 53.73000 40.04200
C  26.40700 55.66100 37.85400
C  25.08900 55.02300 37.42300
H  25.03000 54.40500 36.05900
N  31.19200 58.43600 40.63300
C  31.67400 57.26100 40.11800
C  33.17100 57.41000 40.06100
C  33.52900 58.73300 40.56300
C  32.22800 59.31000 40.94700
C  34.09900 56.42500 39.39900
C  35.00600 59.23500 40.71000
O  35.84900 58.42200 40.53600
C  35.36400 60.61900 41.06900
N  29.64100 61.01000 41.27500
C  30.88000 61.38900 41.57900
C  30.89500 62.90100 41.94400
C  29.42000 63.34500 41.78900
C  28.75100 62.03200 41.56600
C  31.57300 63.30600 43.28000
C  29.24200 64.49500 40.75800
C  28.42500 65.64400 41.35800
N  27.21900 59.57000 41.23800
C  26.67400 60.82400 41.54600
C  25.23000 60.73600 41.64700
C  24.93700 59.44200 41.27200
C  26.21200 58.77100 41.01200
C  24.30800 61.78900 41.80500
C  23.85800 58.52700 41.03600
O  22.63000 58.69600 41.13900
C  24.58300 57.16300 40.46800
C  24.25000 56.09600 41.48600
O  24.62800 56.15400 42.62300
O  23.69900 54.96700 40.89600
C  23.68100 53.75700 41.74300
H  31.26600 55.23700 39.44700
H  32.98700 61.08900 41.70400
H  26.93600 62.89300 42.03500
H  26.46000 54.63100 39.75000
H  28.87300 54.60200 38.18400
H  29.96100 53.58100 40.40300
H  28.61900 52.73400 39.74000
H  28.26400 53.69100 40.89400
H  27.10200 55.42600 37.04800
H  26.21000 56.73200 37.82400
H  24.39700 55.86400 37.37000
H  24.79800 54.29600 38.18000
H  33.58400 55.46400 39.38900
H  34.96500 56.23800 40.03400
H  34.40000 56.71900 38.39400
H  35.01600 61.32800 40.31800
H  36.43900 60.78400 41.14200
H  35.02700 60.82100 42.08500
H  31.53500 63.33400 41.17500
H  28.96000 63.62300 42.73800
H  31.91700 62.39400 43.76900
H  30.84100 63.76000 43.94800
H  32.45800 63.89800 43.04500
H  28.75900 64.05600 39.88500
H  30.16500 64.94200 40.39100
H  28.99800 66.54000 41.12100
H  28.21300 65.67300 42.42600
H  27.48500 65.61700 40.80700
H  24.39600 62.49800 40.98200
H  24.51500 62.26000 42.76600
H  23.26900 61.46200 41.81800
H  24.12700 56.85200 39.52800
H  22.62700 53.55000 41.93100
H  24.30400 53.77800 42.63700
H  24.17300 53.00700 41.12500

