158

Mg 49.96300 46.55300 43.33200
C  46.73900 46.95900 42.34200
C  50.00800 43.45900 41.73800
C  53.25600 46.53200 43.67700
C  49.96900 49.99100 44.47600
N  48.58700 45.41800 42.09300
C  47.30300 45.77100 41.89600
C  46.54300 44.75900 41.04000
C  47.55100 43.56600 40.94800
C  48.77700 44.14200 41.66900
C  47.02300 42.22400 41.47200
C  45.98100 45.32700 39.67000
C  44.65900 44.74000 39.29700
H  44.61400 43.72200 38.09400
N  51.41300 45.12500 42.94400
C  51.22900 43.97000 42.24400
C  52.49500 43.26700 42.24300
C  53.47100 44.05700 42.94600
C  52.76200 45.29400 43.25700
C  52.65700 41.91200 41.48800
C  54.93900 43.80800 43.14300
O  55.41500 42.77900 42.72800
C  55.88300 44.69000 44.06700
N  51.44700 48.03400 44.03500
C  52.74400 47.75200 44.08800
C  53.51000 49.01600 44.60700
C  52.49600 50.15400 44.66300
C  51.19700 49.40500 44.38800
C  54.11600 48.71300 46.01200
C  52.77700 51.35900 43.66200
C  53.26100 52.64200 44.35200
N  48.61900 48.15600 43.51500
C  48.76500 49.46900 43.96600
C  47.44000 50.11200 43.93600
C  46.61900 49.15600 43.25900
C  47.43700 48.00700 43.03500
C  47.07600 51.38500 44.46600
C  45.29500 48.90800 42.70500
O  44.24800 49.61100 42.73600
C  45.30300 47.43800 42.17000
C  44.27500 46.69800 42.96600
O  44.15700 46.58400 44.19100
O  43.42100 46.05700 42.07100
C  42.57700 44.97100 42.54500
H  50.07900 42.51600 41.19300
H  54.34000 46.59800 43.78600
H  49.89900 51.05800 44.69900
H  45.65300 44.39800 41.55400
H  47.71600 43.40200 39.88300
H  46.06100 42.33300 41.97300
H  47.77300 41.74400 42.10100
H  46.89200 41.48700 40.68000
H  46.74500 45.10800 38.92400
H  45.99000 46.41700 39.69400
H  43.93800 45.55100 39.19400
H  44.21400 44.13300 40.08500
H  53.11700 42.12100 40.52200
H  51.72300 41.35100 41.46100
H  53.37700 41.27300 42.00000
H  56.50400 43.92800 44.53900
H  55.28500 45.14400 44.85800
H  56.48200 45.34900 43.44000
H  54.35000 49.21000 43.94000
H  52.45400 50.56500 45.67200
H  54.44100 49.59500 46.56500
H  54.94100 48.04000 45.77700
H  53.30700 48.23700 46.56500
H  51.80900 51.60900 43.22800
H  53.44800 51.03000 42.86800
H  54.34200 52.77900 44.32200
H  52.98000 52.54200 45.40000
H  52.82900 53.55400 43.94000
H  47.44200 52.21500 43.86100
H  47.39600 51.51800 45.49900
H  46.00000 51.53200 44.37600
H  45.00500 47.47900 41.12200
H  42.13700 45.08500 43.53600
H  43.14200 44.03900 42.54300
H  41.75000 44.83700 41.84700
Mg -4.41200 26.10500 25.59600
C  -3.10200 27.30400 28.58700
C  -6.41100 24.01600 27.55800
C  -5.16800 24.33500 22.77400
C  -2.03700 27.82400 23.91600
N  -4.48000 25.50100 27.78800
C  -3.96400 26.27500 28.75000
C  -4.50300 25.87000 30.11100
C  -5.18700 24.53700 29.83200
C  -5.45600 24.68100 28.31300
C  -4.30900 23.27400 30.18800
C  -5.43100 26.92400 30.79700
C  -5.89800 26.63800 32.25700
H  -5.34400 25.52000 33.03600
N  -5.68600 24.47700 25.16200
C  -6.52100 23.85300 26.12600
C  -7.27900 22.86300 25.44300
C  -6.89500 22.85400 24.07700
C  -5.87000 23.89500 23.95600
C  -8.19500 21.92500 26.18600
C  -7.39900 21.90000 22.95300
O  -6.95600 22.01800 21.73900
C  -8.60100 20.99400 23.27100
N  -3.76400 26.13700 23.59200
C  -4.13700 25.30200 22.55800
C  -3.38700 25.58500 21.28500
C  -2.53400 26.83300 21.70300
C  -2.76100 26.92300 23.15500
C  -2.62500 24.33200 20.78700
C  -2.76200 28.06600 20.90600
C  -1.54100 28.85700 20.35500
N  -2.93200 27.38000 26.13700
C  -2.06600 28.11600 25.30300
C  -1.44300 29.15600 26.07300
C  -1.81900 28.86300 27.41600
C  -2.65200 27.72900 27.39000
C  -0.47600 30.23300 25.55500
C  -1.58000 29.21100 28.72500
O  -0.87500 30.04800 29.27000
C  -2.44800 28.27600 29.59000
C  -1.61800 27.56400 30.61900
O  -0.88000 26.59400 30.44000
O  -1.87700 28.05700 31.86800
C  -1.26700 27.40200 33.02700
H  -7.15100 23.52300 28.19200
H  -5.41400 23.79600 21.85600
H  -1.49900 28.60400 23.37400
H  -3.63100 25.68600 30.73800
H  -6.03900 24.39800 30.49800
H  -4.82800 22.69700 30.95400
H  -3.31700 23.32100 30.63800
H  -4.06500 22.50900 29.45100
H  -6.40000 26.92900 30.29700
H  -5.17400 27.96000 30.57800
H  -6.98700 26.66900 32.22900
H  -5.57000 27.49500 32.84600
H  -8.27000 22.21700 27.23300
H  -7.88900 20.88700 26.05300
H  -9.20300 22.08100 25.80400
H  -8.39600 20.15500 23.93600
H  -8.92700 20.52500 22.34200
H  -9.41700 21.59400 23.67200
H  -4.16200 25.87500 20.57500
H  -1.49100 26.52400 21.77000
H  -2.94500 24.06200 19.78100
H  -2.70600 23.45400 21.42800
H  -1.55700 24.53000 20.70000
H  -3.35300 28.77600 21.48500
H  -3.28900 27.67600 20.03500
H  -1.43800 29.81200 20.87000
H  -1.66200 28.92900 19.27400
H  -0.57700 28.36100 20.46600
H  -0.26400 30.03500 24.50400
H  0.43200 30.09300 26.14100
H  -0.92500 31.20400 25.76200
H  -3.22200 28.82900 30.12300
H  -1.40600 26.32200 32.98500
H  -1.76200 27.82900 33.89900
H  -0.21200 27.64200 33.16300

