158

Mg 2.11100 -1.37200 46.42900
C  5.34000 -0.17300 45.45900
C  0.83900 1.07800 44.28900
C  -0.87900 -2.78200 46.70600
C  3.71500 -4.31700 47.51100
N  2.97000 0.25900 45.04500
C  4.28300 0.51400 44.88300
C  4.52500 1.64300 43.90800
C  3.03100 2.35200 43.87900
C  2.20500 1.20400 44.49100
C  2.75200 3.74000 44.65800
C  5.11100 1.25800 42.44800
C  6.33100 2.05500 41.97800
H  7.38100 1.31500 41.13800
N  0.21000 -0.82800 45.71500
C  -0.12500 0.11900 44.81500
C  -1.49700 0.18400 44.67300
C  -2.08300 -0.81200 45.46600
C  -0.94500 -1.50200 46.04600
C  -2.17200 1.12800 43.74200
C  -3.57800 -0.94600 45.67900
O  -4.49000 -0.21700 45.29600
C  -4.13200 -2.17900 46.42100
N  1.49400 -3.27100 46.88000
C  0.16900 -3.60100 46.99800
C  0.01600 -4.98700 47.70200
C  1.48900 -5.54300 47.58500
C  2.32500 -4.29200 47.30600
C  -0.34400 -4.91900 49.16500
C  1.72900 -6.47400 46.34800
C  1.46900 -7.96300 46.64000
N  4.15500 -2.02000 46.80600
C  4.65300 -3.25500 47.19100
C  6.01000 -3.24600 47.24100
C  6.34200 -1.98600 46.61400
C  5.18100 -1.38800 46.24100
C  6.78700 -4.43800 47.69800
C  7.41200 -1.13500 46.18800
O  8.65800 -1.23400 46.37600
C  6.79100 0.12400 45.46300
C  7.19800 1.41000 46.14200
O  6.93800 1.70300 47.29400
O  7.74900 2.22400 45.20000
C  8.17000 3.56100 45.73600
H  0.37700 1.92300 43.77400
H  -1.79700 -3.30300 46.98600
H  4.12400 -5.25700 47.88600
H  5.17700 2.38900 44.36200
H  2.75400 2.55800 42.84500
H  3.59900 3.96400 45.30600
H  1.78700 3.71400 45.16300
H  2.95900 4.51800 43.92200
H  4.36400 1.51400 41.69600
H  5.15800 0.16900 42.47600
H  6.79800 2.56400 42.82200
H  6.04300 2.91900 41.37900
H  -3.23000 0.97900 43.52900
H  -1.53500 1.16200 42.85800
H  -2.01100 2.15300 44.07900
H  -3.59100 -2.43900 47.33100
H  -4.12200 -3.04300 45.75600
H  -5.15800 -1.98900 46.73700
H  -0.72000 -5.54900 47.12900
H  1.80900 -5.99500 48.52400
H  -0.54400 -3.86500 49.35400
H  0.35200 -5.40500 49.84900
H  -1.32500 -5.35900 49.34600
H  2.61300 -6.38600 45.71600
H  0.93400 -6.20200 45.65400
H  2.35800 -8.59300 46.63600
H  0.90100 -8.42900 45.83500
H  0.98100 -8.14400 47.59800
H  7.25400 -4.84900 46.80200
H  6.25200 -5.19500 48.27000
H  7.49900 -4.08700 48.44500
H  7.15500 0.10700 44.43600
H  7.27200 4.02700 46.14200
H  8.59500 4.11600 44.89900
H  8.87900 3.39400 46.54600
Mg 45.17500 5.26800 47.15000
C  43.15700 8.15200 46.51600
C  42.60700 3.27900 46.21000
C  47.39500 2.69400 47.10200
C  47.96800 7.44000 47.07600
N  43.11900 5.72200 46.41600
C  42.46100 6.93900 46.31200
C  41.05600 6.77100 45.81500
C  40.87400 5.20700 45.90700
C  42.28400 4.63300 46.18100
C  39.76100 4.80100 46.91800
C  40.78700 7.59400 44.48100
C  40.20200 6.74700 43.32800
H  39.90900 7.60500 42.08500
N  45.00800 3.23900 46.81400
C  43.82600 2.58600 46.51700
C  44.06000 1.18100 46.65600
C  45.44700 0.96000 46.87300
C  46.04400 2.29600 46.92500
C  42.96600 0.17500 46.27500
C  46.06500 -0.40600 46.86200
O  45.34600 -1.38100 46.79000
C  47.57800 -0.58800 46.91100
N  47.40700 5.12200 47.05400
C  48.04500 3.92500 47.10300
C  49.61800 4.00900 47.09300
C  49.77800 5.55000 46.89900
C  48.29200 6.14000 47.05600
C  50.28400 3.20900 48.25600
C  50.50000 6.10600 45.61300
C  49.97500 5.56400 44.26500
N  45.49100 7.34400 47.07600
C  46.72300 8.10500 47.09000
C  46.41900 9.49300 47.06100
C  45.05200 9.53500 46.92800
C  44.51000 8.27000 46.87700
C  47.41300 10.53600 47.00600
C  43.95400 10.44500 46.72800
O  43.91500 11.69100 46.66800
C  42.69100 9.53300 46.46000
C  41.64900 9.88500 47.48500
O  41.52700 9.31600 48.57300
O  40.90900 10.99700 47.03200
C  39.83700 11.36400 47.97800
H  41.76400 2.65400 45.90800
H  48.18600 1.94100 47.11800
H  48.80000 8.14400 47.14500
H  40.43200 7.19000 46.60500
H  40.55300 4.79400 44.95100
H  39.31700 5.65800 47.42400
H  40.09700 4.10100 47.68400
H  38.99500 4.26600 46.35700
H  41.63800 8.19000 44.15300
H  39.94600 8.23600 44.74500
H  39.31900 6.21600 43.68500
H  41.02500 6.08700 43.05400
H  42.05100 0.61400 46.67300
H  43.06000 -0.75000 46.84300
H  42.91500 -0.14700 45.23500
H  47.80500 -1.65100 46.82600
H  47.95800 -0.23800 47.87100
H  48.11100 -0.11500 46.08600
H  49.83400 3.51000 46.14900
H  50.30900 5.78200 47.82200
H  51.20900 3.71700 48.53100
H  50.55500 2.20500 47.93100
H  49.65200 2.97800 49.11300
H  51.57100 5.91700 45.68800
H  50.50000 7.19500 45.64200
H  48.95600 5.20800 44.41300
H  50.59200 4.69100 44.05500
H  50.07700 6.14600 43.34900
H  48.19200 10.55400 47.76800
H  46.83800 11.46100 47.00000
H  47.93000 10.46000 46.04900
H  42.27100 9.86500 45.51100
H  39.35100 12.21100 47.49500
H  40.15800 11.67300 48.97200
H  39.09900 10.56200 47.96700

