158

Mg 25.47800 0.73400 29.92300
C  27.60400 0.66200 32.83900
C  22.88300 0.49400 32.12300
C  23.48100 0.58400 27.25700
C  28.24800 0.47000 27.95800
N  25.36700 0.65500 32.21100
C  26.28500 0.72300 33.18900
C  25.70300 0.81700 34.59700
C  24.19600 0.66500 34.29800
C  24.13100 0.61600 32.79100
C  23.60600 -0.65900 34.77800
C  26.18500 2.10200 35.32100
C  25.37800 2.41800 36.60100
H  26.09900 2.66800 37.91200
N  23.40900 0.60700 29.71700
C  22.48300 0.50500 30.75700
C  21.13500 0.38500 30.18100
C  21.34900 0.46000 28.77900
C  22.79400 0.59300 28.54100
C  19.88800 0.31500 31.02400
C  20.25300 0.52300 27.65800
O  20.53600 0.58600 26.46300
C  18.82400 0.59100 28.01400
N  25.84300 0.66300 27.87700
C  24.87400 0.75500 26.97700
C  25.36700 0.77900 25.58200
C  26.90000 0.92000 25.80100
C  27.01200 0.65700 27.30500
C  24.91400 -0.31800 24.57300
C  27.65200 2.12400 25.31000
C  28.76300 1.85900 24.31300
N  27.49300 0.55900 30.26300
C  28.47600 0.37000 29.31900
C  29.73500 0.19600 29.95400
C  29.45600 0.28900 31.33300
C  28.04400 0.58300 31.51200
C  30.99500 -0.09000 29.26600
C  30.00800 0.24700 32.71700
O  31.11600 -0.11300 33.09900
C  28.94700 0.71200 33.67600
C  29.01100 -0.09500 34.89500
O  28.53700 -1.17700 35.01700
O  29.83800 0.54500 35.78700
C  29.80900 -0.06300 37.13300
H  22.07700 0.57300 32.85600
H  22.90400 0.59200 26.33000
H  29.04200 0.55000 27.21200
H  26.11400 0.00500 35.19600
H  23.67200 1.53600 34.69100
H  24.22400 -1.10800 35.55600
H  23.36400 -1.39800 34.01500
H  22.64300 -0.49000 35.26000
H  26.06100 3.01900 34.74400
H  27.25300 1.96600 35.49100
H  24.82000 1.50200 36.79700
H  24.75200 3.29200 36.41600
H  19.35400 1.26300 30.96800
H  20.19100 0.09400 32.04800
H  19.22300 -0.47700 30.67900
H  18.14200 0.81400 27.19400
H  18.70100 1.48300 28.62800
H  18.43600 -0.29900 28.51000
H  25.02600 1.72100 25.15200
H  27.43200 0.10200 25.31500
H  24.38400 -1.03600 25.19900
H  25.74300 -0.87700 24.13900
H  24.24100 0.10300 23.82600
H  28.05300 2.79400 26.07000
H  26.95500 2.75800 24.76200
H  28.31600 1.83400 23.31900
H  29.28100 0.90300 24.39900
H  29.37100 2.75300 24.44900
H  31.61200 0.54200 29.90400
H  31.08800 0.29300 28.25000
H  31.23000 -1.14800 29.38600
H  29.10200 1.77600 33.85700
H  30.44400 -0.93100 36.95600
H  28.82200 -0.23500 37.56200
H  30.44700 0.48700 37.82500
Mg 17.18100 53.23900 26.92900
C  19.12600 51.65700 29.28400
C  15.04100 54.17800 29.45800
C  14.97900 54.32900 24.62700
C  19.11000 51.70600 24.39400
N  17.04500 52.76400 29.07100
C  17.93300 52.13300 29.86500
C  17.53800 52.28800 31.26900
C  16.02800 52.69900 31.18100
C  16.02200 53.30800 29.79100
C  15.04300 51.54300 31.27200
C  18.53700 53.35100 31.90100
C  18.91800 53.11700 33.30700
H  17.87100 52.44200 34.14700
N  15.36800 54.18900 26.98900
C  14.67400 54.59800 28.15000
C  13.50600 55.27000 27.81600
C  13.33600 55.21900 26.37400
C  14.62900 54.53000 25.88200
C  12.70800 55.94100 28.86100
C  12.19400 55.62300 25.52600
O  12.08800 55.37900 24.33800
C  11.14000 56.50300 26.16500
N  17.12500 53.02800 24.92400
C  16.08200 53.65500 24.14700
C  16.39600 53.53500 22.58200
C  17.86200 52.93900 22.59600
C  18.03900 52.49300 24.02000
C  15.44500 52.51600 21.86500
C  18.97800 53.88000 22.12300
C  19.98900 53.33500 21.12700
N  18.82900 51.88300 26.80800
C  19.54400 51.45400 25.71000
C  20.74900 50.71800 26.15800
C  20.66400 50.81700 27.57500
C  19.46700 51.59500 27.90200
C  21.76300 50.03000 25.26800
C  21.26800 50.42400 28.85100
O  22.17100 49.65200 29.11800
C  20.40700 51.07000 30.00400
C  20.07600 49.96900 30.92900
O  19.34300 49.05500 30.61700
O  20.60500 50.17700 32.16900
C  19.97000 49.34100 33.26500
H  14.36900 54.39500 30.29000
H  14.33800 54.75400 23.85200
H  19.81600 51.29300 23.67100
H  17.64500 51.33300 31.78400
H  15.80600 53.47100 31.91800
H  15.56100 50.58700 31.34600
H  14.40700 51.58000 30.38700
H  14.35500 51.57800 32.11700
H  18.09900 54.34700 31.84100
H  19.51400 53.35100 31.41700
H  19.02100 54.09100 33.78500
H  19.76900 52.43600 33.27900
H  12.24900 56.85700 28.48700
H  13.30200 56.23600 29.72600
H  11.83900 55.31700 29.07200
H  11.62100 57.46700 26.33000
H  10.78900 55.96600 27.04500
H  10.31400 56.61300 25.46200
H  16.40300 54.50600 22.08700
H  17.92800 51.99100 22.06100
H  16.00200 51.59100 21.71400
H  15.11900 52.96900 20.92900
H  14.51700 52.34800 22.41100
H  19.48700 54.24700 23.01400
H  18.66000 54.83600 21.70700
H  19.71000 53.61100 20.11000
H  20.01000 52.25000 21.22000
H  20.98800 53.70300 21.36200
H  22.38200 50.82500 24.85300
H  21.25300 49.55100 24.43200
H  22.45100 49.34100 25.75700
H  21.03700 51.85700 30.41800
H  20.48900 48.38400 33.20300
H  18.90700 49.31200 33.02700
H  20.09500 49.72900 34.27600

