158

Mg -3.22600 16.69500 27.03400
C  -3.63000 14.79700 30.03100
C  -4.23300 19.46000 29.01100
C  -3.49700 18.60900 24.30600
C  -3.50300 13.82400 25.23900
N  -3.62400 17.09700 29.37100
C  -3.66100 16.12300 30.38700
C  -3.73000 16.78000 31.74400
C  -4.11600 18.23000 31.35500
C  -4.04800 18.30000 29.81300
C  -5.41300 18.69300 31.94600
C  -2.39500 16.53900 32.45700
C  -1.89200 17.51900 33.54100
H  -1.40300 16.91300 34.98800
N  -3.41100 18.70100 26.74700
C  -3.76500 19.74100 27.66400
C  -3.66700 21.02300 26.98500
C  -3.32700 20.76200 25.64100
C  -3.46000 19.28300 25.49100
C  -4.03300 22.30600 27.71200
C  -2.93300 21.68500 24.48300
O  -2.73000 21.31500 23.27400
C  -2.59200 23.05900 24.83400
N  -3.65600 16.23200 24.98900
C  -3.64300 17.23500 24.05000
C  -3.73100 16.64800 22.63500
C  -3.63600 15.07400 22.92800
C  -3.59200 15.01200 24.46000
C  -4.96900 17.15100 21.74500
C  -2.46600 14.40400 22.19100
C  -1.05400 14.31700 22.85300
N  -3.44000 14.69500 27.47500
C  -3.43200 13.62800 26.61300
C  -3.48200 12.42100 27.37900
C  -3.51200 12.82600 28.70300
C  -3.53900 14.27900 28.73900
C  -3.52600 10.98300 26.83600
C  -3.55400 12.33200 30.08000
O  -3.56200 11.22700 30.52500
C  -3.58200 13.63800 30.99400
C  -2.29900 13.53800 31.61300
O  -1.20200 13.82600 31.17800
O  -2.49700 13.01200 32.90400
C  -1.49400 13.08700 33.93300
H  -4.54700 20.31900 29.60800
H  -3.52000 19.23300 23.41000
H  -3.58400 12.83700 24.77900
H  -4.50600 16.32200 32.35700
H  -3.40700 18.86800 31.88300
H  -6.18600 18.39300 31.23900
H  -5.32300 19.73400 32.25500
H  -5.36200 18.23300 32.93300
H  -1.68200 16.51200 31.63300
H  -2.48200 15.53300 32.86800
H  -2.60000 18.28600 33.85600
H  -1.07000 18.01300 33.02400
H  -3.09900 22.85800 27.82100
H  -4.54100 22.19800 28.67100
H  -4.65300 22.86500 27.01100
H  -3.33500 23.67300 25.34300
H  -2.40500 23.61300 23.91400
H  -1.68500 22.99700 25.43500
H  -2.81800 17.03100 22.18100
H  -4.51400 14.59800 22.49100
H  -4.63500 17.61800 20.81800
H  -5.59800 17.82600 22.32600
H  -5.62700 16.31200 21.52100
H  -2.36200 14.98000 21.27100
H  -2.79500 13.42900 21.83100
H  -0.38400 14.98000 22.30500
H  -0.78500 13.27200 22.69500
H  -1.02800 14.61100 23.90200
H  -4.52300 10.60100 26.61300
H  -3.11400 10.27500 27.55600
H  -3.00100 11.10500 25.88900
H  -4.35700 13.63100 31.76000
H  -1.70900 13.84000 34.69100
H  -0.52400 13.36500 33.52100
H  -1.50400 12.06400 34.30900
Mg -13.20400 15.88200 41.52600
C  -10.06300 14.26300 41.22000
C  -11.89000 18.56000 39.77600
C  -16.33500 17.18700 41.12600
C  -14.52300 12.74400 42.37400
N  -11.20100 16.31500 40.67300
C  -10.06700 15.53100 40.61600
C  -8.89700 16.24300 39.89600
C  -9.57100 17.62400 39.46100
C  -11.00100 17.47800 39.98200
C  -8.87300 18.80100 40.11100
C  -8.19700 15.46200 38.64600
C  -6.67300 15.85300 38.56800
H  -6.19200 16.38900 37.29400
N  -13.98600 17.67100 40.76300
C  -13.22600 18.65500 40.14700
C  -14.05400 19.80400 39.98100
C  -15.41100 19.48800 40.29100
C  -15.29300 18.05000 40.77700
C  -13.45600 21.12200 39.45000
C  -16.59000 20.28500 40.00400
O  -16.60200 21.45600 39.51400
C  -17.98600 19.77000 40.22000
N  -15.13900 15.12000 41.67500
C  -16.26500 15.84800 41.60500
C  -17.52300 14.95500 41.81400
C  -16.98900 13.66000 42.29400
C  -15.44600 13.82300 42.11000
C  -18.67100 15.53800 42.75100
C  -17.53900 12.31800 41.59300
C  -18.15500 11.13500 42.47000
N  -12.41600 13.97300 42.03700
C  -13.08300 12.82900 42.31500
C  -12.17800 11.75400 42.56000
C  -10.98200 12.32800 42.02800
C  -11.18800 13.64400 41.72900
C  -12.42800 10.36300 43.00400
C  -9.54400 11.91500 41.76800
O  -8.93000 10.85900 42.10200
C  -8.95300 13.22000 41.23200
C  -7.78400 13.51500 42.10300
O  -7.88300 14.04200 43.19400
O  -6.61100 13.19100 41.49600
C  -5.46000 13.75500 42.22800
H  -11.57400 19.44300 39.21700
H  -17.39100 17.46300 41.08400
H  -14.91500 11.77700 42.69800
H  -8.24400 16.47200 40.73800
H  -9.57000 17.84300 38.39300
H  -9.03200 19.72300 39.55300
H  -7.81600 18.53800 40.15900
H  -9.24300 18.94800 41.12500
H  -8.55500 15.92900 37.72800
H  -8.25800 14.38200 38.51000
H  -6.19400 14.93300 38.90400
H  -6.45300 16.70900 39.20600
H  -13.13000 21.01300 38.41600
H  -12.60900 21.58500 39.95600
H  -14.22500 21.89400 39.45200
H  -18.26500 19.89000 41.26600
H  -18.12600 18.82000 39.70400
H  -18.65500 20.33900 39.57400
H  -18.05300 14.69800 40.89700
H  -17.06800 13.55400 43.37600
H  -19.64000 15.43700 42.26400
H  -18.53100 16.59200 42.99100
H  -18.69600 15.02800 43.71300
H  -16.74400 11.80800 41.04900
H  -18.39500 12.50300 40.94400
H  -17.98400 11.12000 43.54700
H  -17.61500 10.25600 42.11800
H  -19.21500 10.91800 42.34100
H  -11.52800 9.77100 43.16900
H  -13.10200 10.02200 42.21800
H  -13.01100 10.42800 43.92300
H  -8.50900 13.00000 40.26100
H  -5.14400 13.07600 43.02000
H  -5.69400 14.75400 42.59700
H  -4.72900 13.91600 41.43600

