158

Mg 42.97000 41.21500 25.90300
C  41.87200 43.53500 28.41500
C  43.93200 39.18200 28.35300
C  43.97200 39.27000 23.50300
C  42.16600 43.75300 23.57900
N  42.74800 41.32500 28.11500
C  42.19600 42.29800 28.90400
C  42.40000 41.94400 30.38200
C  43.08800 40.54500 30.33600
C  43.32600 40.37100 28.84700
C  44.36700 40.30800 31.25200
C  41.12500 42.05000 31.24700
C  40.96600 41.20900 32.53500
H  40.74000 41.91100 33.86900
N  43.84300 39.43900 25.99000
C  44.26300 38.76800 27.08100
C  44.81500 37.53000 26.70500
C  44.88300 37.55400 25.22900
C  44.23900 38.83900 24.87100
C  45.31200 36.52200 27.62600
C  45.36900 36.47200 24.29500
O  45.20200 36.53200 23.07200
C  46.11400 35.21600 24.73600
N  43.09900 41.51000 23.83900
C  43.52800 40.51900 23.00400
C  43.14100 40.66500 21.53800
C  42.60900 42.10200 21.58900
C  42.63700 42.52100 23.10000
C  44.28600 40.46400 20.46100
C  41.21900 42.35800 20.86400
C  41.16100 43.29700 19.65700
N  42.12800 43.26600 25.93000
C  41.89300 44.14200 24.88800
C  41.48500 45.43200 25.42800
C  41.41100 45.22100 26.81800
C  41.83600 43.89800 27.08500
C  41.17200 46.63700 24.58600
C  41.11100 45.81700 28.07000
O  40.71200 46.96200 28.25700
C  41.31800 44.76600 29.23100
C  42.37900 45.45700 30.01800
O  43.48600 45.78000 29.58800
O  41.90500 45.78500 31.32800
C  42.82100 46.54300 32.18200
H  44.13100 38.43400 29.12200
H  44.11200 38.59600 22.65500
H  42.01500 44.53600 22.83300
H  43.15300 42.63300 30.76400
H  42.38500 39.76100 30.61800
H  45.20700 40.12800 30.58100
H  44.32800 39.40900 31.86700
H  44.61700 41.22900 31.77900
H  40.17700 41.91600 30.72600
H  41.19700 43.09000 31.56600
H  41.73600 40.45400 32.69400
H  40.10000 40.59300 32.29000
H  46.20700 36.91900 28.10400
H  45.32600 35.52400 27.18900
H  44.54100 36.58400 28.39400
H  46.43700 34.55500 23.93200
H  45.44000 34.64600 25.37500
H  46.96100 35.56800 25.32600
H  42.35400 39.94800 21.30500
H  43.28800 42.76400 21.05100
H  45.28500 40.66700 20.84700
H  44.31100 41.13400 19.60200
H  44.20500 39.46900 20.02300
H  40.61300 42.86900 21.61100
H  40.72800 41.44000 20.54000
H  42.19400 43.42100 19.33200
H  40.76200 44.27000 19.94600
H  40.58800 42.82300 18.86000
H  41.10900 47.52400 25.21600
H  40.20300 46.44900 24.12300
H  41.93900 46.85300 23.84300
H  40.41700 44.57600 29.81400
H  42.73000 46.05800 33.15400
H  42.26900 47.48100 32.23600
H  43.86000 46.61200 31.86100
Mg -11.70100 37.53900 42.44300
C  -9.33500 34.99000 41.66300
C  -9.56400 39.77100 40.85500
C  -14.05800 39.89700 42.43900
C  -13.74500 35.08300 43.66000
N  -9.69300 37.37700 41.35200
C  -8.97700 36.20600 41.06300
C  -7.73900 36.57200 40.24800
C  -7.71800 38.13100 40.18500
C  -9.14100 38.43400 40.81000
C  -6.39800 38.76000 40.85600
C  -7.86300 35.84600 38.89000
C  -6.67100 34.95600 38.39100
H  -5.66700 35.38700 37.26400
N  -11.71100 39.60900 41.92800
C  -10.72700 40.34200 41.36400
C  -11.12600 41.73000 41.32900
C  -12.49200 41.83600 41.70300
C  -12.79900 40.45500 42.03500
C  -10.29500 42.86000 40.84500
C  -13.35500 43.04400 41.87300
O  -12.79300 44.12300 41.67000
C  -14.78200 43.04200 42.34300
N  -13.67800 37.42800 42.83200
C  -14.47900 38.60500 42.78700
C  -15.88900 38.21200 43.25900
C  -15.79700 36.67700 43.67900
C  -14.35200 36.36700 43.36500
C  -16.44000 39.22600 44.28600
C  -16.89700 35.78700 42.94000
C  -18.04300 35.41800 43.82800
N  -11.62900 35.49900 42.65700
C  -12.49500 34.64200 43.27200
C  -11.91100 33.34200 43.46000
C  -10.70600 33.40300 42.80900
C  -10.56300 34.76600 42.33000
C  -12.53800 32.19500 44.15000
C  -9.50300 32.70700 42.46600
O  -9.06700 31.60400 42.72000
C  -8.55500 33.66700 41.65100
C  -7.24600 33.76900 42.26600
O  -6.23400 33.15600 41.96300
O  -7.11500 34.84700 43.14800
C  -5.77700 35.03100 43.75900
H  -8.89300 40.40400 40.27000
H  -14.84200 40.64500 42.57500
H  -14.37100 34.40000 44.23700
H  -6.84300 36.15300 40.70700
H  -7.68400 38.51800 39.16700
H  -5.84500 39.40000 40.16900
H  -5.72500 37.98400 41.21900
H  -6.79500 39.41600 41.63100
H  -7.95600 36.58700 38.09600
H  -8.81400 35.31600 38.96000
H  -7.18200 34.06500 38.02800
H  -6.16400 34.46500 39.22200
H  -9.52100 42.41000 40.22400
H  -9.83600 43.38200 41.68400
H  -10.84600 43.52900 40.18400
H  -15.34700 42.30100 41.77600
H  -14.97900 44.10600 42.21300
H  -14.67700 42.91300 43.42100
H  -16.50600 38.36900 42.37500
H  -15.88400 36.68000 44.76500
H  -16.51800 38.72600 45.25200
H  -17.41400 39.58600 43.95500
H  -15.89800 40.16600 44.38500
H  -16.32100 34.96500 42.51500
H  -17.36100 36.40400 42.17100
H  -19.01600 35.70400 43.42900
H  -18.09200 35.80500 44.84600
H  -18.02500 34.34600 44.02900
H  -13.44000 32.45700 44.70300
H  -11.76900 31.89300 44.86200
H  -12.71300 31.52100 43.31100
H  -8.42400 33.25200 40.65200
H  -5.04200 35.05500 42.95400
H  -5.45800 34.30500 44.50700
H  -5.84100 36.01600 44.22200

