158

Mg 48.46200 45.38000 42.63900
C  44.86000 45.27000 42.12300
C  48.41400 41.99300 42.26400
C  51.79700 45.52500 42.60400
C  48.18700 48.94000 42.51400
N  46.85400 43.83800 42.10200
C  45.47100 44.02800 42.03600
C  44.71300 42.70900 41.82600
C  45.85700 41.63600 41.94000
C  47.13700 42.49300 42.22200
C  45.57400 40.48600 43.03100
C  43.96400 42.70600 40.50300
C  44.69800 43.29000 39.30300
H  44.95100 42.35900 38.06400
N  50.00100 43.95500 42.44600
C  49.79100 42.55500 42.33300
C  51.11600 41.92500 42.30900
C  52.08500 42.90600 42.41300
C  51.31600 44.21000 42.53100
C  51.24900 40.43700 42.14300
C  53.63700 42.80700 42.37400
O  54.16300 41.73600 42.18800
C  54.56700 43.96600 42.75300
N  49.77300 46.93000 42.74300
C  51.09100 46.71200 42.71700
C  51.79800 48.11000 42.70500
C  50.64300 49.10000 42.83600
C  49.47100 48.28300 42.56100
C  52.97000 48.30600 43.68300
C  50.88700 50.43300 42.09000
C  50.76200 51.84900 42.74100
N  46.82200 46.85000 42.62200
C  46.92600 48.27200 42.53700
C  45.48100 48.78800 42.57100
C  44.66500 47.65400 42.37300
C  45.50800 46.52800 42.35900
C  45.02800 50.23200 42.37900
C  43.26000 47.17600 42.23700
O  42.16200 47.74800 42.26500
C  43.38000 45.64800 42.04400
C  42.53200 44.97000 43.03800
O  41.52900 44.34900 42.83700
O  43.02600 45.12900 44.33800
C  42.39100 44.27100 45.37100
H  48.34700 40.94800 42.57400
H  52.82700 45.76700 42.33200
H  48.16400 50.03100 42.53000
H  43.88500 42.69500 42.53400
H  45.95800 41.05900 41.02100
H  45.71700 39.46000 42.69200
H  44.52000 40.50100 43.30800
H  46.19900 40.65000 43.90800
H  43.03200 43.18500 40.80100
H  43.77500 41.66700 40.23000
H  45.68600 43.65900 39.57700
H  44.14900 44.12500 38.86800
H  50.38500 40.20000 41.52200
H  51.25500 40.11100 43.18300
H  52.11900 40.09800 41.58100
H  54.06300 44.43700 43.59700
H  54.50200 44.57300 41.85000
H  55.51900 43.51600 43.03600
H  52.23600 48.23200 41.71400
H  50.58100 49.39400 43.88400
H  52.81000 48.99000 44.51700
H  53.81600 48.58700 43.05500
H  53.29400 47.37100 44.14200
H  50.16100 50.40900 41.27700
H  51.91600 50.39100 41.73300
H  51.72100 52.35200 42.61300
H  50.61400 51.77100 43.81800
H  49.99500 52.51400 42.34400
H  43.96100 50.40700 42.24600
H  45.55500 50.71100 41.55300
H  45.44800 50.78200 43.22100
H  43.10600 45.52200 40.99600
H  41.30400 44.32900 45.30400
H  42.81000 44.49000 46.35300
H  42.68900 43.26400 45.07800
Mg 28.19400 56.02300 41.24500
C  25.88400 53.53100 40.02600
C  30.66100 54.09800 39.95800
C  30.11000 58.67100 41.75300
C  25.40600 57.90000 41.98200
N  28.22900 53.99800 40.20400
C  27.19000 53.21700 39.68900
C  27.69400 52.16800 38.81300
C  29.22800 52.11600 39.10400
C  29.41600 53.39100 39.88000
C  29.86800 50.79400 39.74400
C  27.25900 52.25000 37.28900
C  27.06400 53.53700 36.59800
H  27.16000 53.68500 35.08600
N  30.19300 56.29000 41.03000
C  31.04700 55.36000 40.47600
C  32.33500 56.05800 40.40900
C  32.22300 57.36000 40.98000
C  30.83200 57.47200 41.38600
C  33.42900 55.29700 39.93500
C  33.33700 58.40500 41.00200
O  34.42200 58.22600 40.48200
C  33.17200 59.71100 41.66000
N  27.77800 58.00400 41.77200
C  28.80300 58.87600 42.06200
C  28.28400 60.32400 42.28700
C  26.78900 60.07300 42.52400
C  26.61900 58.58300 42.04200
C  29.05600 61.09400 43.38500
C  25.94800 61.15500 41.73700
C  24.73200 61.60800 42.56900
N  26.05500 55.73200 41.20100
C  25.09800 56.54800 41.65300
C  23.78000 55.88000 41.62100
C  24.02900 54.64700 40.99400
C  25.44000 54.61100 40.80100
C  22.42200 56.39500 42.04200
C  23.50200 53.36900 40.43700
O  22.35600 52.96900 40.43000
C  24.69200 52.69300 39.72300
C  24.70500 51.32500 40.34200
O  25.37500 51.03200 41.31100
O  23.97100 50.38000 39.67200
C  23.98000 49.02500 40.27900
H  31.49200 53.45400 39.66600
H  30.74400 59.55200 41.87800
H  24.53500 58.50000 42.25400
H  27.27500 51.29700 39.31700
H  29.70400 52.23900 38.13100
H  30.56200 51.22200 40.46700
H  30.40900 50.19300 39.01200
H  29.04600 50.22900 40.18400
H  26.26200 51.81900 37.19100
H  27.79600 51.54600 36.65300
H  27.92600 54.16000 36.83800
H  26.10300 53.99700 36.83100
H  33.11200 54.86800 38.98400
H  33.73600 54.46600 40.57000
H  34.35900 55.83800 39.76200
H  32.55300 60.21500 40.91800
H  34.11300 60.26000 41.62900
H  32.72400 59.74100 42.65300
H  28.50200 60.66600 41.27600
H  26.63400 60.05800 43.60300
H  29.70100 60.37200 43.88700
H  28.35700 61.46100 44.13600
H  29.66400 61.86400 42.91100
H  25.55000 60.78500 40.79200
H  26.62300 61.98000 41.51200
H  23.92600 61.65800 41.83700
H  24.92000 62.55300 43.08000
H  24.57500 60.85500 43.34100
H  21.85200 56.42100 41.11300
H  22.50600 57.36900 42.52400
H  22.01900 55.59000 42.65700
H  24.57000 52.47300 38.66200
H  23.36600 48.29500 39.75100
H  23.62800 49.15600 41.30200
H  25.01800 48.71000 40.17600

