158

Mg 1.03600 8.18300 26.33500
C  1.60300 9.96000 29.36200
C  0.94700 5.32800 28.33900
C  0.71900 6.30700 23.56200
C  1.31300 11.06300 24.60900
N  1.24800 7.75000 28.58900
C  1.31500 8.61900 29.64200
C  1.19200 7.95700 30.94800
C  1.39700 6.48700 30.57600
C  1.14400 6.50100 29.07800
C  2.69100 5.78000 30.90100
C  -0.09400 8.41100 31.69200
C  0.01700 8.51800 33.22800
H  1.25400 7.93600 33.95300
N  0.83900 6.07500 26.02400
C  0.85100 5.11900 26.94400
C  0.55300 3.84500 26.28500
C  0.68300 4.11900 24.92500
C  0.74800 5.53800 24.77800
C  0.35400 2.52600 26.99600
C  0.60200 3.12400 23.66900
O  0.60100 3.53000 22.51200
C  0.57200 1.60900 23.86500
N  0.94000 8.60400 24.43000
C  0.82300 7.71300 23.41600
C  0.76300 8.45100 22.01500
C  0.83400 9.96000 22.39500
C  0.99700 9.85900 23.92100
C  1.71400 7.97000 20.87300
C  -0.46500 10.77400 21.91300
C  -1.73400 10.51600 22.74700
N  1.37700 10.10400 26.78600
C  1.51000 11.17100 25.96400
C  1.81800 12.37600 26.77200
C  1.83100 11.89000 28.06100
C  1.55800 10.53600 28.05200
C  2.04400 13.81900 26.21300
C  2.20000 12.28800 29.39000
O  2.57200 13.39800 29.84200
C  1.93400 11.01300 30.31900
C  3.15600 10.67200 31.07900
O  4.09000 9.87100 30.83900
O  3.17900 11.52100 32.18300
C  4.40600 11.54600 33.08100
H  0.82600 4.38700 28.88000
H  0.66400 5.89700 22.55100
H  1.22200 11.95700 23.98800
H  2.11800 8.15800 31.48600
H  0.60200 5.87500 31.00200
H  2.48100 5.07300 31.70300
H  3.45000 6.39800 31.38100
H  3.09700 5.17400 30.09100
H  -0.91200 7.72200 31.47700
H  -0.42800 9.37800 31.31800
H  -0.88000 8.07900 33.66400
H  0.08700 9.59800 33.35700
H  1.34400 2.08400 26.88100
H  -0.43600 1.95200 26.51200
H  0.01800 2.67100 28.02300
H  1.56500 1.18800 24.02300
H  0.31300 1.15500 22.90900
H  -0.13100 1.24800 24.61600
H  -0.26000 8.16900 21.76500
H  1.77900 10.39400 22.06700
H  2.42300 7.22000 21.22700
H  2.27900 8.88100 20.67800
H  1.23000 7.44200 20.05200
H  -0.54800 10.57000 20.84500
H  -0.27700 11.84200 22.02000
H  -1.58400 9.99900 23.69500
H  -2.40200 9.80800 22.25700
H  -2.18500 11.48900 22.94100
H  2.47100 13.72900 25.21400
H  2.76700 14.29800 26.87200
H  1.14300 14.42200 26.09400
H  1.08000 11.19900 30.96900
H  5.29300 11.02000 32.72900
H  4.13100 11.15700 34.06200
H  4.75800 12.57000 33.20800
Mg 26.92400 49.92300 26.23100
C  25.02500 51.08200 29.04900
C  29.43400 49.07900 28.41000
C  28.57800 48.82800 23.69400
C  24.40500 51.19700 24.17300
N  27.28100 50.38500 28.55100
C  26.23600 50.48700 29.46000
C  26.57500 49.88200 30.81400
C  28.02200 49.44800 30.66700
C  28.31100 49.62900 29.12000
C  29.13100 50.06500 31.50300
C  25.54500 48.79600 31.25300
C  25.02500 48.96000 32.66900
H  25.79200 49.83700 33.65600
N  28.79900 49.23700 26.02500
C  29.68900 48.91000 27.02600
C  30.85800 48.32000 26.43500
C  30.67700 48.34800 25.01400
C  29.28500 48.84100 24.88300
C  32.13100 47.79700 27.24200
C  31.69300 47.97400 23.94200
O  31.46400 48.14600 22.74900
C  33.03000 47.39600 24.30400
N  26.68900 50.26400 24.13600
C  27.43700 49.45800 23.26800
C  26.70200 49.36000 21.94500
C  25.44800 50.14500 22.03800
C  25.49000 50.50600 23.52400
C  27.65100 49.61500 20.68800
C  24.11400 49.51500 21.51200
C  23.36900 50.39000 20.43500
N  25.14700 50.97400 26.45400
C  24.18500 51.38900 25.58200
C  23.12500 52.11800 26.28900
C  23.42900 51.99700 27.64100
C  24.65100 51.29900 27.71100
C  22.02700 52.81500 25.65500
C  22.86400 52.30000 28.87600
O  21.90500 52.95400 29.18300
C  23.88100 51.70800 29.91100
C  24.40300 52.86300 30.72000
O  25.13800 53.74600 30.31800
O  23.69300 52.87500 31.92000
C  24.12200 54.03000 32.75000
H  30.20700 48.68600 29.07400
H  28.91600 48.11800 22.93700
H  23.52100 51.46000 23.58800
H  26.46400 50.66500 31.56500
H  28.06200 48.37000 30.82600
H  30.11200 50.08800 31.03100
H  29.30000 49.64700 32.49600
H  28.86900 51.10700 31.68600
H  25.93500 47.77900 31.20900
H  24.71800 48.80600 30.54300
H  25.03000 48.01400 33.21000
H  23.98300 49.26000 32.55800
H  33.00700 48.32600 26.86500
H  32.31100 46.72900 27.11900
H  32.18400 48.05200 28.30000
H  33.58700 48.15300 24.85600
H  33.52300 47.10400 23.37700
H  32.66800 46.57600 24.92500
H  26.35900 48.32700 21.87500
H  25.49700 51.18000 21.70100
H  28.63500 49.69600 21.15000
H  27.27400 50.45600 20.10500
H  27.61500 48.86300 19.89900
H  23.49700 49.30700 22.38600
H  24.40600 48.63800 20.93400
H  23.75500 51.38200 20.20000
H  22.29200 50.41500 20.60600
H  23.44100 49.82700 19.50500
H  21.78600 52.37600 24.68700
H  22.20900 53.85100 25.37100
H  21.17200 52.72600 26.32500
H  23.37700 50.92600 30.47900
H  24.00900 55.01100 32.28800
H  25.17200 53.96000 33.03500
H  23.53200 53.97900 33.66500

