158

Mg 17.19800 -2.42900 28.14300
C  16.39300 -0.19400 30.80600
C  19.16800 -4.08900 30.29000
C  18.59000 -3.86000 25.59900
C  15.69200 0.04400 26.02100
N  17.87900 -1.98600 30.28300
C  17.21400 -1.25300 31.24700
C  17.52500 -1.70500 32.64900
C  18.64400 -2.76300 32.36700
C  18.52100 -3.00600 30.85400
C  20.04800 -2.32900 32.81900
C  16.30300 -2.22000 33.48400
C  16.24200 -1.67200 34.92200
H  17.49200 -1.03900 35.58200
N  18.56800 -3.97500 27.97000
C  19.18100 -4.54500 28.96700
C  19.82600 -5.77200 28.48700
C  19.75700 -5.69000 27.06600
C  18.94600 -4.48000 26.83800
C  20.42300 -6.87000 29.35600
C  20.19800 -6.64000 25.98200
O  19.87700 -6.46600 24.81000
C  20.85600 -8.03400 26.33000
N  17.10800 -1.98500 26.14600
C  17.83400 -2.70400 25.26000
C  17.64200 -2.23800 23.74200
C  16.68100 -1.08400 23.96000
C  16.39800 -1.00600 25.44100
C  19.04700 -1.69300 23.13100
C  15.39200 -1.05200 23.08100
C  14.12500 -1.56900 23.63300
N  16.11700 -0.51400 28.31800
C  15.46000 0.29400 27.38400
C  14.85100 1.36200 28.03100
C  15.19700 1.23000 29.36500
C  15.99600 0.09500 29.48300
C  13.95000 2.52100 27.45500
C  15.05400 1.84000 30.63400
O  14.44800 2.90200 31.01100
C  15.67300 0.85000 31.65800
C  16.59500 1.69100 32.53700
O  17.69000 2.22900 32.31800
O  15.88100 1.98500 33.63600
C  16.30300 3.08600 34.44800
H  19.76200 -4.70100 30.97200
H  19.00300 -4.29100 24.68400
H  15.23600 0.76900 25.34400
H  17.78900 -0.79800 33.19300
H  18.43300 -3.69600 32.88900
H  20.20000 -1.30000 33.14400
H  20.70400 -2.57600 31.98400
H  20.40300 -3.01100 33.59200
H  16.27400 -3.30300 33.60600
H  15.44000 -2.03500 32.84400
H  16.00800 -2.44100 35.65800
H  15.43100 -0.94900 34.84800
H  20.56700 -6.59000 30.39900
H  21.40100 -7.06400 28.91300
H  19.71000 -7.69200 29.28500
H  20.17000 -8.62300 26.93900
H  21.84800 -7.86000 26.74800
H  20.98200 -8.61100 25.41400
H  17.15700 -3.03800 23.18300
H  17.19400 -0.13800 23.78400
H  18.92100 -0.76700 22.57100
H  19.36400 -2.35100 22.32200
H  19.93300 -1.62800 23.76200
H  15.54300 -1.72500 22.23700
H  15.18600 -0.07600 22.64100
H  14.34900 -2.45800 24.22300
H  13.39200 -1.81800 22.86600
H  13.70300 -0.91600 24.39800
H  12.93200 2.28400 27.14500
H  14.53300 3.02400 26.68400
H  13.86100 3.32200 28.18900
H  14.90700 0.40600 32.29400
H  15.99200 4.03500 34.01200
H  17.39300 3.09200 34.43800
H  15.80500 2.95300 35.40800
Mg -9.16800 41.51800 42.47800
C  -8.20600 38.15600 41.61800
C  -6.43200 42.61900 40.66800
C  -10.41900 44.50600 42.72000
C  -12.18800 39.99100 43.50800
N  -7.69000 40.53300 41.21900
C  -7.45400 39.19200 41.03800
C  -6.21600 38.99600 40.12600
C  -5.55300 40.29800 39.94900
C  -6.60900 41.23600 40.63500
C  -4.15200 40.42800 40.64900
C  -6.57800 38.41400 38.72100
C  -5.73000 37.24700 38.29100
H  -4.77400 37.57200 37.17600
N  -8.39500 43.41400 41.90700
C  -7.20700 43.64200 41.29500
C  -7.10700 45.11800 41.18900
C  -8.28300 45.72700 41.66700
C  -9.07600 44.56400 42.17600
C  -5.93500 45.71400 40.55700
C  -8.59900 47.23700 41.63100
O  -7.83400 47.98400 41.09700
C  -9.80700 47.85800 42.39300
N  -11.03800 42.11700 43.14000
C  -11.27900 43.43800 43.14900
C  -12.67700 43.66700 43.59700
C  -13.33400 42.29900 43.79200
C  -12.12000 41.39700 43.41500
C  -12.82500 44.69900 44.74800
C  -14.62900 41.98900 42.92000
C  -15.85000 41.43200 43.66800
N  -9.96300 39.53200 42.79500
C  -11.15600 39.05200 43.23800
C  -11.19000 37.67600 43.31500
C  -10.06600 37.24000 42.59600
C  -9.34800 38.41600 42.35000
C  -12.38000 36.84500 43.69100
C  -9.39900 36.06700 42.13800
O  -9.75900 34.92800 42.18800
C  -8.11000 36.62100 41.44500
C  -7.00700 36.04600 42.11900
O  -6.69200 36.30600 43.26600
O  -6.23900 35.25100 41.25500
C  -5.16000 34.44300 41.98100
H  -5.63700 43.02000 40.03500
H  -10.85700 45.49800 42.84500
H  -13.09500 39.48300 43.84400
H  -5.48900 38.40600 40.68600
H  -5.44700 40.46600 38.87700
H  -4.21300 40.82900 41.66000
H  -3.40600 41.02900 40.12900
H  -3.70500 39.44100 40.76200
H  -6.54000 39.17800 37.94400
H  -7.61700 38.09200 38.79300
H  -6.42800 36.47700 37.96200
H  -5.07700 36.79400 39.03700
H  -6.20000 46.56900 39.93500
H  -5.48300 45.04200 39.82900
H  -5.16700 45.85100 41.31800
H  -9.69600 47.38000 43.36600
H  -10.79200 47.63100 41.98500
H  -9.71100 48.94400 42.39600
H  -13.06600 44.15300 42.70200
H  -13.47900 42.20700 44.86900
H  -11.95000 45.33500 44.88200
H  -13.23100 44.22800 45.64400
H  -13.69800 45.27100 44.43600
H  -14.37800 41.27100 42.13900
H  -14.95400 42.93400 42.48500
H  -15.52900 41.48000 44.70800
H  -16.12300 40.41000 43.40600
H  -16.68600 42.10700 43.48400
H  -12.97600 37.26400 44.50100
H  -11.95500 35.89400 44.01400
H  -13.01900 36.60700 42.84000
H  -7.99300 36.48200 40.37100
H  -5.58900 33.86900 42.80200
H  -4.35800 35.11300 42.29200
H  -4.84800 33.77800 41.17600

