158

Mg 55.82900 22.63100 44.87900
C  53.73200 25.15700 43.90500
C  53.61200 20.34600 43.78300
C  58.44400 20.34200 44.59400
C  58.30000 24.96500 45.47100
N  53.95500 22.77500 43.87500
C  53.20200 23.84900 43.61400
C  51.69700 23.47500 43.28800
C  51.63800 21.96400 43.60100
C  53.15900 21.69400 43.79000
C  50.75500 21.44300 44.81400
C  51.06700 23.89200 41.89000
C  49.77100 24.67300 42.07400
H  48.83200 24.57100 40.88100
N  56.00900 20.53400 44.45800
C  54.95200 19.80600 43.88400
C  55.41600 18.43800 43.77600
C  56.77100 18.38700 44.03200
C  57.12100 19.73900 44.43400
C  54.53100 17.35800 43.40700
C  57.71900 17.16800 43.91100
O  57.35400 16.08300 43.40500
C  59.18000 17.18600 44.34800
N  58.11500 22.66300 44.99600
C  58.89700 21.58100 44.91200
C  60.37000 21.90300 45.12500
C  60.27800 23.45700 45.23900
C  58.81200 23.71200 45.26500
C  61.03800 21.26200 46.40400
C  61.06100 24.20400 44.12200
C  62.16500 25.19600 44.64200
N  55.94800 24.64400 44.90200
C  57.01100 25.42500 45.20000
C  56.58400 26.79800 45.30900
C  55.23900 26.81800 44.79300
C  54.95600 25.40100 44.56200
C  57.35300 27.97300 45.82900
C  54.06400 27.55300 44.40300
O  53.78300 28.77500 44.51900
C  53.12000 26.53600 43.69100
C  53.11200 26.95800 42.26300
O  54.01500 26.68100 41.44000
O  51.88100 27.56200 41.95200
C  51.78700 27.75900 40.58100
H  52.83700 19.58500 43.67700
H  59.25000 19.60600 44.55100
H  58.95900 25.79600 45.73200
H  51.16700 24.00700 44.07800
H  51.18000 21.45100 42.75600
H  50.05900 22.22900 45.11100
H  51.34500 21.16600 45.68700
H  50.20500 20.64700 44.31300
H  50.92800 22.99900 41.28100
H  51.74600 24.55800 41.35700
H  50.05000 25.69400 42.33600
H  49.25000 24.23100 42.92200
H  54.73600 16.81100 42.48700
H  53.48600 17.62200 43.24400
H  54.54900 16.58700 44.17800
H  59.81100 17.65800 43.59500
H  59.44500 16.14500 44.53100
H  59.28500 17.68700 45.31000
H  60.92500 21.59200 44.24000
H  60.69500 23.78800 46.19000
H  61.91100 20.64800 46.18600
H  60.23300 20.63200 46.78200
H  61.35400 22.08700 47.04300
H  60.31000 24.70800 43.51400
H  61.46700 23.47600 43.42000
H  62.38600 25.07200 45.70200
H  61.91600 26.21600 44.35100
H  63.11100 24.97800 44.14600
H  56.68200 28.56900 46.44700
H  57.61200 28.64200 45.00900
H  58.24500 27.67000 46.37700
H  52.13600 26.70600 44.12800
H  50.92500 28.39000 40.36500
H  51.71700 26.84100 39.99700
H  52.65500 28.25200 40.14500
Mg -11.56800 16.96400 40.81900
C  -8.24100 15.83600 40.61900
C  -10.36600 20.09300 39.61000
C  -14.65000 17.91800 40.26000
C  -12.61500 13.62500 41.08600
N  -9.54800 17.86700 40.17200
C  -8.28100 17.16700 40.21200
C  -7.06100 18.12600 39.88600
C  -7.80300 19.51500 39.74900
C  -9.35100 19.19400 39.98200
C  -7.48000 20.49300 40.92200
C  -6.26400 17.75300 38.64400
C  -4.78900 17.61000 38.82100
H  -4.23600 16.46800 37.99100
N  -12.40400 18.82100 40.14900
C  -11.78500 19.97000 39.69000
C  -12.75800 20.99700 39.44800
C  -14.02800 20.42800 39.67800
C  -13.77000 19.00300 39.99900
C  -12.41800 22.36000 39.00100
C  -15.46300 21.14800 39.55400
O  -15.57800 22.26200 39.10200
C  -16.70200 20.48300 40.00600
N  -13.36600 15.89000 40.64200
C  -14.50800 16.55000 40.58500
C  -15.82000 15.64000 40.54800
C  -15.11200 14.24300 40.92300
C  -13.60500 14.59300 40.94100
C  -17.02400 16.14400 41.50100
C  -15.48300 13.10200 39.96300
C  -15.10200 13.26600 38.49800
N  -10.71600 15.09700 40.97500
C  -11.23900 13.85500 41.11400
C  -10.09700 12.91800 41.47900
C  -8.89800 13.67700 41.24200
C  -9.31000 14.91900 40.86800
C  -10.22600 11.47000 41.87700
C  -7.42700 13.66900 41.38500
O  -6.72300 12.70700 41.72000
C  -6.96300 15.06500 40.92700
C  -6.27400 15.69000 42.09700
O  -6.72100 16.47800 42.93300
O  -4.95300 15.34100 42.08000
C  -4.23100 16.03800 43.09400
H  -10.02900 21.05500 39.21800
H  -15.69100 18.21000 40.11300
H  -12.94400 12.63200 41.39900
H  -6.39000 18.10200 40.74500
H  -7.60200 19.98800 38.78800
H  -6.53200 21.01600 40.79800
H  -7.45700 19.92000 41.84900
H  -8.27900 21.22000 41.06800
H  -6.50500 18.46400 37.85300
H  -6.62200 16.80400 38.24300
H  -4.59800 17.48700 39.88700
H  -4.27600 18.47800 38.40600
H  -13.06300 22.82800 38.25700
H  -11.42300 22.30300 38.56000
H  -12.39000 23.05100 39.84400
H  -17.07200 19.60300 39.48000
H  -17.53800 21.18000 40.06100
H  -16.41600 20.20000 41.01900
H  -16.19800 15.65300 39.52600
H  -15.38500 13.95600 41.93800
H  -16.73000 16.99700 42.11200
H  -17.27900 15.28000 42.11600
H  -17.93500 16.37600 40.95100
H  -16.56700 13.00400 40.01600
H  -15.06500 12.16100 40.32000
H  -15.98000 13.10300 37.87200
H  -14.32500 12.53800 38.26300
H  -14.67300 14.26400 38.41500
H  -10.80300 11.39300 42.79900
H  -9.21500 11.08300 42.00700
H  -10.69700 10.99500 41.01600
H  -6.23800 15.02700 40.11400
H  -4.33800 17.08300 42.80000
H  -3.17100 15.79500 43.02900
H  -4.54200 15.81700 44.11500

