158

Mg 25.77300 -7.33300 47.38800
C  28.08300 -4.94900 46.34300
C  23.47500 -6.03400 45.04300
C  23.82000 -10.16100 47.79800
C  28.27900 -8.78100 49.38900
N  25.85700 -5.74200 45.90700
C  26.91200 -4.88000 45.66100
C  26.51600 -3.75300 44.60700
C  24.99900 -4.10200 44.38700
C  24.69400 -5.33600 45.25500
C  24.02800 -2.89500 44.57000
C  27.35700 -3.90400 43.30400
C  27.86900 -2.51600 42.70700
H  27.66400 -2.23600 41.19700
N  23.90400 -8.00800 46.60600
C  23.13900 -7.30100 45.66200
C  21.98400 -8.06400 45.33600
C  22.02100 -9.31500 46.06600
C  23.28400 -9.19900 46.92400
C  20.99200 -7.68000 44.24000
C  21.01900 -10.41300 45.94700
O  20.15600 -10.41100 45.08300
C  21.10300 -11.48400 46.87400
N  26.03800 -9.16000 48.46400
C  25.01900 -10.09400 48.55100
C  25.49100 -11.28900 49.56800
C  26.65400 -10.50900 50.31200
C  27.11100 -9.47900 49.29900
C  24.35400 -11.79600 50.51100
C  27.74600 -11.55900 50.61300
C  28.55600 -12.20000 49.56600
N  27.84600 -6.97200 47.78700
C  28.74300 -7.62000 48.63200
C  30.01100 -6.84800 48.59800
C  29.78900 -5.72400 47.74400
C  28.42900 -5.92500 47.26200
C  31.24300 -7.10700 49.39500
C  30.31600 -4.52900 47.16300
O  31.36600 -3.94800 47.23500
C  29.27000 -4.03200 46.18300
C  28.84700 -2.70400 46.58900
O  28.18000 -2.38200 47.54100
O  29.51200 -1.84300 45.84700
C  29.06000 -0.46100 45.69500
H  22.83300 -5.52100 44.32500
H  23.28500 -11.10500 47.92100
H  28.97000 -9.18600 50.13100
H  26.68000 -2.74700 44.99400
H  24.75900 -4.44300 43.38000
H  24.57900 -1.95600 44.51200
H  23.61100 -3.00800 45.57100
H  23.25300 -2.89100 43.80400
H  26.74800 -4.44500 42.58000
H  28.23400 -4.54800 43.37700
H  28.92900 -2.57300 42.95500
H  27.53400 -1.69200 43.33700
H  21.30300 -7.95800 43.23400
H  20.94800 -6.59200 44.29000
H  19.97500 -8.03800 44.40000
H  21.25900 -11.18900 47.91100
H  21.85400 -12.16700 46.47700
H  20.17100 -12.04300 46.78700
H  25.88900 -12.04200 48.88700
H  26.25700 -9.93600 51.15100
H  24.38900 -11.34300 51.50200
H  24.34500 -12.88300 50.58500
H  23.37000 -11.57100 50.09900
H  27.39000 -12.37100 51.24800
H  28.33400 -11.00000 51.34100
H  28.49200 -11.60500 48.65500
H  28.36600 -13.24200 49.30900
H  29.58100 -12.25800 49.93400
H  31.72800 -6.14300 49.55100
H  31.84900 -7.71600 48.72400
H  31.06900 -7.46300 50.41000
H  29.63600 -3.98300 45.15800
H  27.98200 -0.42600 45.85700
H  29.37000 -0.06600 44.72700
H  29.57300 0.12500 46.45800
Mg 53.46400 24.39600 44.33300
C  50.58800 26.44200 43.84000
C  51.70300 21.64800 43.14200
C  56.24100 22.74200 44.35900
C  55.10600 27.37900 45.52900
N  51.44600 24.11900 43.33200
C  50.40400 25.10800 43.30600
C  49.08400 24.43200 43.03000
C  49.49000 22.92300 42.72100
C  50.98300 22.88300 43.09700
C  48.63900 21.96800 43.62000
C  48.19600 25.01200 41.85600
C  48.98600 25.46700 40.54300
H  48.62300 24.83800 39.23400
N  53.97200 22.42200 43.84000
C  53.08700 21.43400 43.53400
C  53.71800 20.17100 43.60000
C  55.11700 20.42400 43.95400
C  55.16400 21.88300 44.08600
C  52.99100 18.84600 43.31900
C  56.21900 19.38700 44.31100
O  55.98400 18.16900 44.08300
C  57.62000 19.81000 44.85300
N  55.44000 25.00000 44.80900
C  56.42700 24.07600 44.64400
C  57.78400 24.71100 44.92700
C  57.36500 26.16100 45.28700
C  55.84500 26.23200 45.26900
C  58.65900 24.04800 46.02100
C  57.98300 27.22700 44.28200
C  58.81400 28.30900 44.94800
N  52.94800 26.46700 44.67100
C  53.72100 27.52100 45.23100
C  52.79900 28.64700 45.47100
C  51.52700 28.23500 44.95000
C  51.72300 26.92200 44.44000
C  53.21100 29.99000 45.92800
C  50.15700 28.74400 44.58900
O  49.57200 29.81200 44.77700
C  49.44800 27.51700 44.01300
C  48.76900 28.08600 42.75600
O  49.40100 28.48800 41.76200
O  47.42700 28.13800 42.87000
C  46.65300 28.52700 41.66100
H  51.11500 20.76200 42.89200
H  57.23000 22.28200 44.40200
H  55.57900 28.24100 46.00500
H  48.52200 24.51900 43.96000
H  49.39200 22.55300 41.70000
H  47.78600 22.41200 44.13300
H  49.14600 21.43700 44.42600
H  48.24500 21.27300 42.87800
H  47.65800 25.90100 42.18400
H  47.47500 24.24700 41.56600
H  50.07200 25.39800 40.60000
H  48.62700 26.48700 40.40700
H  53.14600 18.51500 42.29200
H  51.93600 18.92400 43.58400
H  53.34100 18.07500 44.00500
H  58.02700 18.92100 45.33500
H  57.38000 20.56100 45.60600
H  58.24600 20.21200 44.05700
H  58.31100 24.64300 43.97500
H  57.62600 26.39800 46.31900
H  58.00900 23.67600 46.81300
H  59.29000 24.76600 46.54500
H  59.33900 23.30900 45.59800
H  57.17300 27.73500 43.75800
H  58.65500 26.71800 43.59000
H  58.34200 29.29000 44.88900
H  59.78900 28.47400 44.48900
H  58.86400 28.12200 46.02100
H  52.75900 30.79300 45.34600
H  54.27900 30.10900 45.74200
H  53.03400 29.97800 47.00300
H  48.68500 27.14500 44.69800
H  47.00000 27.90800 40.83400
H  46.85100 29.57700 41.44500
H  45.59800 28.31300 41.83400

