158

Mg 2.76000 -1.09800 44.19200
C  6.07600 -0.63700 43.45600
C  1.98100 1.39800 41.88400
C  -0.52500 -2.01400 44.54000
C  3.64600 -4.23100 45.71000
N  3.89300 0.10200 42.75200
C  5.24000 0.26600 42.79600
C  5.70600 1.54800 42.05600
C  4.38300 2.07200 41.41100
C  3.32200 1.15100 42.09000
C  4.16600 3.52800 41.75800
C  6.77900 1.30600 40.84500
C  7.67200 2.56600 40.52200
H  7.37800 3.39200 39.23900
N  0.99500 -0.17500 43.49000
C  0.88800 0.69600 42.53000
C  -0.59300 0.89500 42.26400
C  -1.28600 0.11200 43.10000
C  -0.31400 -0.75600 43.76500
C  -1.05900 1.87200 41.19800
C  -2.80600 -0.05100 43.19600
O  -3.60400 0.58800 42.50600
C  -3.50200 -1.06400 43.96600
N  1.70800 -2.84000 45.03700
C  0.34400 -2.93200 45.11000
C  -0.14200 -4.24300 45.66300
C  1.20300 -5.11800 45.84400
C  2.30000 -4.04200 45.49200
C  -0.95100 -4.01800 46.93100
C  1.35600 -6.37500 44.90700
C  2.33400 -7.50600 45.27800
N  4.44400 -2.20700 44.58900
C  4.65800 -3.37200 45.22800
C  6.08500 -3.60800 45.40300
C  6.69600 -2.53800 44.81000
C  5.64900 -1.74500 44.22900
C  6.81700 -4.75800 46.08500
C  7.94600 -1.83100 44.54800
O  9.06100 -2.13100 44.87700
C  7.59200 -0.58900 43.67000
C  7.97100 0.57600 44.41000
O  7.56100 0.69800 45.54300
O  8.68700 1.47500 43.67800
C  9.08700 2.75100 44.40900
H  1.71800 2.16700 41.15500
H  -1.55500 -2.37400 44.51100
H  3.82400 -5.19000 46.20000
H  6.19300 2.31400 42.66000
H  4.45600 1.95000 40.33000
H  4.99000 4.12200 41.36200
H  4.10400 3.63300 42.84100
H  3.23100 3.82600 41.28300
H  6.26100 0.92500 39.96500
H  7.48100 0.52500 41.13600
H  8.66200 2.11200 40.48200
H  7.75300 3.25300 41.36500
H  -0.50600 1.58500 40.30400
H  -0.88000 2.88100 41.57000
H  -2.11100 1.85000 40.91400
H  -4.52000 -0.76300 44.21300
H  -3.16400 -1.10600 45.00100
H  -3.43000 -2.07700 43.57100
H  -0.74000 -4.67700 44.86100
H  1.34500 -5.44200 46.87600
H  -2.01800 -4.15300 46.75800
H  -0.82900 -2.95700 47.14900
H  -0.70900 -4.73900 47.71200
H  1.79400 -5.98800 43.98700
H  0.34100 -6.71300 44.69900
H  1.77000 -8.42300 45.11100
H  2.42800 -7.53100 46.36400
H  3.33800 -7.46800 44.85500
H  6.21500 -5.29600 46.81800
H  7.50200 -4.16300 46.68900
H  7.31200 -5.47600 45.43200
H  7.99100 -0.67700 42.65900
H  9.03000 3.57700 43.70000
H  10.13500 2.68200 44.70000
H  8.32200 2.99800 45.14500
Mg 9.14600 47.89500 27.48900
C  7.08400 47.34500 30.28300
C  11.54700 48.91400 29.66000
C  11.12700 48.53800 24.88800
C  6.52200 47.28700 25.46100
N  9.27000 48.13300 29.70800
C  8.35700 47.69600 30.67900
C  8.95700 47.97400 32.07200
C  10.32500 48.65100 31.83300
C  10.38100 48.65600 30.28900
C  10.61400 50.03800 32.53200
C  8.93300 46.72100 33.09000
C  9.87600 46.60100 34.28900
H  9.28600 45.96700 35.61200
N  11.11000 48.68000 27.25800
C  11.94300 48.87900 28.26300
C  13.30600 49.10200 27.74800
C  13.20900 49.10500 26.31600
C  11.78800 48.75800 26.04900
C  14.48200 49.39300 28.59100
C  14.24900 49.37500 25.29000
O  13.99200 49.37500 24.10800
C  15.65000 49.51300 25.72600
N  8.85900 47.96200 25.48900
C  9.84200 48.07200 24.62900
C  9.49400 47.59100 23.20100
C  7.91900 47.33700 23.40500
C  7.77300 47.48300 24.90400
C  9.79200 48.66500 22.09100
C  7.38700 46.08300 22.71800
C  5.94400 46.08200 22.07800
N  7.14200 47.39600 27.71400
C  6.12700 47.24700 26.78700
C  4.82100 47.06100 27.45500
C  5.14800 47.05100 28.86700
C  6.57300 47.27200 28.94700
C  3.52700 46.87600 26.90300
C  4.62600 46.85300 30.21000
O  3.53900 46.65600 30.68100
C  5.85700 47.00300 31.18100
C  5.97600 45.80200 31.97600
O  6.66100 44.86800 31.68000
O  5.41000 45.94400 33.21100
C  5.49800 44.76700 34.15400
H  12.33400 49.26500 30.33000
H  11.71300 48.51500 23.96700
H  5.61900 47.23600 24.84900
H  8.26200 48.73200 32.43500
H  10.99500 47.85700 32.16300
H  10.85100 50.71300 31.70900
H  11.50100 50.09700 33.16400
H  9.85700 50.34200 33.25500
H  9.08600 45.77400 32.57400
H  7.88600 46.71400 33.39600
H  10.13600 47.62200 34.56500
H  10.62300 45.83500 34.08000
H  15.36100 48.78400 28.37900
H  14.09600 49.24700 29.60000
H  14.64400 50.46000 28.43200
H  15.66000 50.40700 26.35000
H  16.29100 49.46700 24.84600
H  15.98000 48.61000 26.24000
H  10.03700 46.67300 22.97500
H  7.38100 48.13300 22.89100
H  10.75300 48.45100 21.62200
H  9.90400 49.64200 22.56200
H  9.02200 48.85600 21.34400
H  7.42600 45.30000 23.47600
H  8.03300 45.74500 21.90800
H  5.33200 45.27300 22.47800
H  5.98400 45.94100 20.99800
H  5.48600 47.01900 22.39400
H  2.74900 47.15800 27.61200
H  3.39300 45.82400 26.64700
H  3.44000 47.34400 25.92200
H  5.62400 47.79600 31.89200
H  6.14600 43.92700 33.90300
H  4.51400 44.41600 34.46400
H  6.02100 45.20500 35.00400

