158

Mg 47.01600 24.40500 28.17300
C  47.59800 26.76100 30.61800
C  46.08200 22.28300 30.63900
C  46.74600 22.05600 25.79300
C  48.47600 26.59100 25.76200
N  46.73000 24.60300 30.39600
C  46.96200 25.63600 31.21000
C  46.61000 25.37400 32.64600
C  46.36900 23.83100 32.59600
C  46.40500 23.55200 31.14100
C  47.30500 22.97000 33.45700
C  45.51400 26.25100 33.19100
C  45.05200 26.00900 34.66200
H  45.47800 26.94800 35.74400
N  46.55400 22.36700 28.23100
C  46.08300 21.73400 29.34500
C  45.66500 20.39700 28.95100
C  45.73800 20.35100 27.51900
C  46.36400 21.62200 27.09400
C  45.04700 19.40500 29.94700
C  45.15800 19.22600 26.54400
O  45.16900 19.28400 25.31200
C  44.57100 18.01200 27.18900
N  47.57600 24.29600 26.06900
C  47.17800 23.26300 25.31200
C  47.42500 23.47800 23.85000
C  47.92900 24.99300 23.76800
C  48.03700 25.33800 25.29100
C  48.49100 22.54600 23.23000
C  46.86300 25.82400 23.10500
C  45.42100 26.05300 23.74600
N  47.76200 26.31200 28.10400
C  48.36500 27.04900 27.11200
C  48.89500 28.23200 27.69700
C  48.56500 28.25000 29.04600
C  47.91400 27.03000 29.22800
C  49.65800 29.32100 26.93100
C  48.59800 29.06700 30.31100
O  48.97200 30.21900 30.51900
C  47.92100 28.04800 31.33800
C  48.88600 27.80400 32.44200
O  49.99700 27.24600 32.46400
O  48.23800 28.26500 33.58900
C  49.04700 28.11600 34.83900
H  45.66100 21.71200 31.46900
H  46.52000 21.36800 24.97500
H  48.87300 27.29200 25.02500
H  47.47200 25.63400 33.26100
H  45.37600 23.65200 33.00800
H  48.21300 22.78000 32.88400
H  46.77700 22.07400 33.78500
H  47.49000 23.51500 34.38200
H  44.59800 25.96400 32.67600
H  45.64700 27.32000 33.02500
H  45.41300 25.00400 34.88400
H  43.96900 25.92100 34.58300
H  44.02500 19.13800 29.67800
H  45.20200 19.81900 30.94300
H  45.68000 18.51900 29.99200
H  43.58600 18.30300 27.55400
H  45.15600 17.61200 28.01800
H  44.46600 17.24400 26.42200
H  46.44900 23.38400 23.37400
H  48.92800 25.15700 23.36300
H  48.05900 21.88900 22.47600
H  48.89300 21.89500 24.00600
H  49.29500 23.14900 22.80800
H  46.69400 25.42600 22.10400
H  47.41200 26.76500 23.08700
H  45.25000 27.10800 23.96100
H  45.23500 25.48000 24.65500
H  44.64200 25.81300 23.02200
H  49.05900 30.22000 26.78900
H  49.96200 29.06000 25.91700
H  50.53800 29.56000 27.52800
H  46.99500 28.54900 31.61900
H  49.60900 27.18500 34.91300
H  48.48000 28.31200 35.74900
H  49.72400 28.97100 34.83500
Mg 26.67700 50.04300 26.92500
C  24.62300 51.33500 29.63200
C  28.94100 49.05300 29.40600
C  28.69500 49.22800 24.53700
C  24.38100 51.53700 24.70200
N  26.73700 50.18200 29.27100
C  25.68200 50.66800 30.11700
C  26.05200 50.43600 31.58300
C  27.49100 49.71700 31.47200
C  27.76900 49.62900 29.93200
C  28.59900 50.48300 32.20500
C  25.00300 49.58700 32.33800
C  24.37300 50.26300 33.66100
H  24.59200 49.48600 34.94700
N  28.48200 49.22800 26.95100
C  29.27400 48.84500 28.02200
C  30.53000 48.23400 27.63000
C  30.51800 48.28800 26.13900
C  29.17200 48.88100 25.80100
C  31.51900 47.57800 28.61700
C  31.52700 47.86400 25.18700
O  31.33200 48.06900 24.01800
C  32.81900 47.27200 25.56100
N  26.52000 50.36400 24.93200
C  27.51800 49.88200 24.12700
C  27.13900 49.99100 22.61700
C  25.79400 50.76000 22.71700
C  25.46900 50.85200 24.21000
C  28.17700 50.81600 21.73700
C  24.58400 50.03600 21.96900
C  24.05200 48.63500 22.34000
N  24.88400 51.16300 27.08000
C  24.09700 51.74300 26.08100
C  22.94500 52.54400 26.62600
C  23.17000 52.37300 28.05200
C  24.34500 51.56600 28.24500
C  21.82200 53.24000 25.80800
C  22.60100 52.67900 29.36200
O  21.57800 53.26100 29.67500
C  23.52800 52.04100 30.44400
C  23.93600 53.16300 31.33600
O  24.73400 54.04000 31.09100
O  23.20500 53.11500 32.53200
C  23.66000 54.00200 33.60100
H  29.54000 48.57700 30.18500
H  29.20500 48.87700 23.63800
H  23.70800 52.07600 24.03200
H  26.17300 51.39600 32.08600
H  27.62000 48.72500 31.90300
H  29.54900 50.00000 31.97700
H  28.56200 50.65100 33.28100
H  28.65700 51.43400 31.67700
H  25.47200 48.64200 32.61300
H  24.15500 49.35300 31.69300
H  23.31400 50.42300 33.46100
H  24.77500 51.27100 33.75900
H  31.38500 47.88700 29.65300
H  32.55400 47.86300 28.42800
H  31.37200 46.49800 28.60200
H  33.29200 47.70300 26.44400
H  33.53600 47.35400 24.74400
H  32.60500 46.21400 25.71500
H  26.89900 49.03300 22.15600
H  25.81600 51.77400 22.31500
H  29.07800 51.05400 22.30100
H  27.79900 51.76800 21.36500
H  28.34900 50.18700 20.86300
H  24.89700 49.95500 20.92800
H  23.84300 50.83600 21.98600
H  24.61300 48.22400 23.17900
H  24.20300 48.03300 21.44400
H  23.00100 48.74900 22.60400
H  21.38700 52.67100 24.98500
H  22.05500 54.22000 25.39100
H  21.04700 53.37400 26.56200
H  22.94900 51.30200 30.99800
H  22.88600 54.12900 34.35800
H  23.87900 54.96300 33.13500
H  24.53700 53.64200 34.13900

