158

Mg 25.37400 50.36500 26.73400
C  23.19800 51.49700 29.23100
C  27.66000 49.65400 29.23400
C  27.61600 49.88900 24.27000
C  23.30400 52.00900 24.44300
N  25.36000 50.47600 28.97300
C  24.33100 50.93200 29.80200
C  24.68100 50.73100 31.28800
C  26.15700 50.43300 31.21900
C  26.47200 50.24000 29.72900
C  27.12700 51.48500 31.89900
C  23.74600 49.64200 31.95200
C  23.06500 50.03200 33.24900
H  23.83800 50.95900 34.18700
N  27.31700 49.87800 26.78900
C  28.07600 49.48300 27.90100
C  29.26600 48.81900 27.44700
C  29.30000 48.87700 26.01700
C  28.04700 49.57000 25.61300
C  30.30200 48.14800 28.29700
C  30.30400 48.31700 25.05100
O  30.11900 48.44400 23.80800
C  31.55900 47.64500 25.56900
N  25.54800 50.99400 24.58400
C  26.56800 50.55500 23.78200
C  26.25800 50.94400 22.33300
C  24.83300 51.56800 22.43500
C  24.50300 51.48300 23.89700
C  27.25400 51.99900 21.68700
C  23.78300 50.96400 21.43900
C  23.26800 49.53400 21.70500
N  23.54600 51.33100 26.73700
C  22.80500 51.89700 25.73000
C  21.53900 52.41500 26.22400
C  21.70200 52.28800 27.60300
C  22.95400 51.64200 27.88700
C  20.44900 53.02400 25.36100
C  21.06800 52.58700 28.87100
O  19.94800 53.00800 29.11600
C  22.06800 52.10800 30.00200
C  22.40800 53.25400 30.84100
O  23.42900 53.94100 30.76500
O  21.35000 53.35700 31.74500
C  21.38000 54.49200 32.62900
H  28.39400 49.42200 30.00800
H  28.31100 49.58300 23.48600
H  22.76000 52.58500 23.69100
H  24.59300 51.70200 31.77500
H  26.26500 49.42800 31.62700
H  27.28200 51.10700 32.90900
H  26.65900 52.46600 31.98700
H  28.04600 51.54400 31.31600
H  24.15400 48.63400 32.01700
H  22.96000 49.52300 31.20600
H  22.79800 49.05000 33.64200
H  22.09000 50.42100 32.95700
H  29.99800 48.25300 29.33900
H  31.22200 48.73000 28.25600
H  30.33600 47.06600 28.16900
H  32.22000 47.27200 24.78700
H  31.25200 46.76200 26.12900
H  32.06300 48.38900 26.18600
H  26.38700 50.02700 21.75700
H  24.81900 52.64600 22.27800
H  26.86200 53.00700 21.82400
H  27.42500 51.73500 20.64300
H  28.23300 51.94900 22.16300
H  24.26400 51.12300 20.47400
H  22.90900 51.61100 21.51900
H  23.26000 48.88300 20.83100
H  22.30700 49.55500 22.21800
H  23.94800 49.07700 22.42500
H  20.68100 52.81800 24.31600
H  20.27000 54.08200 25.54900
H  19.52700 52.47900 25.56300
H  21.61300 51.34900 30.63900
H  21.63200 55.26100 31.89800
H  22.03700 54.34800 33.48700
H  20.39000 54.75100 33.00300
Mg 0.10300 43.93900 24.78600
C  2.31900 43.25400 27.39800
C  -2.51500 43.15600 26.93300
C  -1.91100 43.98400 22.11100
C  2.95700 44.54800 22.68800
N  -0.10000 43.12100 26.87800
C  0.95700 43.18500 27.79800
C  0.49600 43.12900 29.28500
C  -1.05900 42.92900 29.06800
C  -1.26600 43.01600 27.55600
C  -1.61000 41.62900 29.73700
C  0.79800 44.34500 30.16800
C  1.08700 44.16400 31.66800
H  0.87100 42.79000 32.33000
N  -1.92100 43.58600 24.51200
C  -2.86700 43.38800 25.50500
C  -4.19600 43.36400 24.92500
C  -4.03300 43.60200 23.52500
C  -2.56000 43.75700 23.30500
C  -5.48500 43.21900 25.82400
C  -5.11600 43.81400 22.49900
O  -4.74400 44.07600 21.36500
C  -6.55500 43.83700 22.79800
N  0.50100 44.25500 22.72400
C  -0.51600 44.28000 21.81500
C  0.00300 44.66800 20.35700
C  1.48000 45.02000 20.69400
C  1.67000 44.53900 22.10300
C  -0.22600 43.48300 19.46400
C  1.79900 46.53600 20.49100
C  2.59700 46.97700 19.25700
N  2.15900 43.86300 24.90700
C  3.18600 44.20700 23.98200
C  4.44800 44.02800 24.63400
C  4.18100 43.69700 25.96600
C  2.74900 43.61700 26.07900
C  5.83200 44.32900 24.09900
C  4.81500 43.34800 27.21900
O  5.97900 43.16300 27.50000
C  3.62500 43.27000 28.27400
C  3.76500 42.08700 29.09100
O  3.39300 40.94600 28.83300
O  4.41500 42.45200 30.18200
C  4.73400 41.36400 31.14300
H  -3.31000 42.95900 27.65500
H  -2.51500 43.98600 21.20100
H  3.84100 44.88600 22.14500
H  0.94200 42.26600 29.77900
H  -1.60700 43.74900 29.53400
H  -2.00200 41.03100 28.91400
H  -2.31200 41.84100 30.54300
H  -0.80900 41.04100 30.18700
H  0.08100 45.15400 30.03100
H  1.71700 44.75600 29.75200
H  0.31100 44.74600 32.16500
H  2.07600 44.54900 31.91200
H  -5.99600 44.16700 25.99000
H  -5.25000 42.97900 26.86000
H  -6.22500 42.50000 25.47200
H  -6.68000 42.85400 23.25200
H  -7.21700 43.91500 21.93600
H  -6.83700 44.61000 23.51400
H  -0.57800 45.48800 19.93500
H  2.11100 44.37000 20.08800
H  -0.99900 43.76900 18.75100
H  -0.56600 42.68900 20.12900
H  0.70400 43.24400 18.94900
H  2.25700 46.86600 21.42300
H  0.84900 47.07000 20.51600
H  2.13100 47.80700 18.72500
H  2.80100 46.12500 18.60800
H  3.50800 47.42300 19.65900
H  6.36900 44.97900 24.79000
H  5.78900 44.70600 23.07700
H  6.33000 43.36200 24.03100
H  3.64900 44.13100 28.94200
H  5.81300 41.21800 31.09700
H  4.42900 40.33900 30.93200
H  4.43200 41.78400 32.10200

