158

Mg 16.66100 -2.16000 27.31000
C  15.69100 -0.10400 30.03500
C  18.90400 -3.70900 29.40800
C  18.34500 -3.56800 24.54900
C  14.77700 -0.26300 25.07200
N  17.14100 -1.96200 29.54100
C  16.73500 -0.97600 30.41600
C  17.30500 -1.34200 31.84700
C  18.43600 -2.33800 31.49200
C  18.14400 -2.71700 30.10100
C  19.86600 -1.73600 31.69400
C  16.31000 -1.62600 33.00900
C  16.45800 -0.98800 34.40500
H  17.83500 -0.49100 35.05600
N  18.16500 -3.58800 27.03900
C  18.86900 -4.19700 28.05300
C  19.68800 -5.23300 27.52300
C  19.65000 -5.15600 26.06100
C  18.67800 -4.08700 25.85700
C  20.39200 -6.23800 28.41600
C  20.40400 -5.98100 25.00800
O  20.30300 -5.80700 23.77000
C  21.40900 -7.02500 25.44900
N  16.59600 -1.95500 25.28500
C  17.40100 -2.57600 24.32800
C  16.84000 -2.35800 22.82900
C  15.76800 -1.27900 22.99400
C  15.62400 -1.20300 24.57600
C  17.90900 -2.00900 21.77000
C  14.40400 -1.67000 22.26200
C  14.28100 -1.27600 20.76700
N  15.40900 -0.61900 27.48400
C  14.61100 0.06500 26.47100
C  13.84900 1.10200 27.16900
C  14.24700 0.95700 28.54900
C  15.22100 -0.01200 28.68200
C  12.78500 2.04800 26.50100
C  13.89600 1.61500 29.84700
O  13.13300 2.54000 30.15100
C  14.85600 0.88100 30.90300
C  15.68500 1.81100 31.64300
O  16.81900 2.07600 31.35800
O  14.92300 2.28500 32.70400
C  15.46600 3.35500 33.56400
H  19.61400 -4.16600 30.10200
H  18.82000 -3.88000 23.61700
H  14.13200 0.29700 24.39200
H  17.72400 -0.37300 32.11600
H  18.42800 -3.15200 32.21700
H  19.79400 -0.90100 32.39100
H  20.32800 -1.47400 30.74300
H  20.53200 -2.44400 32.18800
H  16.11900 -2.69300 33.12900
H  15.35000 -1.27500 32.62900
H  16.11600 -1.73300 35.12400
H  15.87000 -0.07900 34.53000
H  21.25200 -5.88200 28.98300
H  20.59500 -7.16200 27.87600
H  19.66800 -6.36700 29.22100
H  21.91700 -6.53400 26.27900
H  22.05500 -7.24800 24.60000
H  20.89200 -7.89400 25.85700
H  16.41500 -3.31900 22.54100
H  16.09600 -0.26600 22.76000
H  18.85800 -1.92200 22.29900
H  17.60800 -1.05300 21.34000
H  18.03600 -2.81700 21.05000
H  13.60300 -1.31300 22.90900
H  14.26600 -2.74700 22.35200
H  15.16000 -0.72700 20.43000
H  13.47700 -0.57500 20.54100
H  14.18800 -2.21500 20.22100
H  11.88500 2.22500 27.09100
H  12.34000 1.69900 25.56900
H  13.32400 2.97900 26.32600
H  14.18800 0.39000 31.61100
H  16.45900 3.01700 33.85900
H  14.87200 3.60700 34.44200
H  15.57600 4.17400 32.85300
Mg 46.50700 25.68800 28.64600
C  47.88300 27.78300 31.24200
C  45.57900 23.47100 31.21100
C  45.95500 23.49600 26.29800
C  48.09200 27.81300 26.34600
N  46.78900 25.65300 30.97900
C  47.16000 26.71600 31.74000
C  46.80300 26.43200 33.27100
C  46.40300 24.88700 33.18800
C  46.17100 24.67900 31.69500
C  47.41000 23.93300 33.84200
C  45.75200 27.49900 33.84000
C  46.21600 28.25900 35.13500
H  45.31200 28.02700 36.37100
N  45.75100 23.75300 28.74300
C  45.44000 23.00900 29.79900
C  44.89300 21.79100 29.29100
C  45.07600 21.72400 27.89200
C  45.66000 22.98500 27.59200
C  44.38800 20.60600 30.19400
C  44.56800 20.68400 26.87600
O  44.71500 20.96200 25.67700
C  43.85100 19.36400 27.28200
N  46.99700 25.68100 26.54600
C  46.61100 24.60900 25.81500
C  47.16700 24.81600 24.30600
C  47.52900 26.30100 24.31000
C  47.59900 26.65500 25.81800
C  48.27500 23.77600 23.84700
C  46.61700 27.17300 23.32400
C  47.33300 27.69100 22.04500
N  47.58700 27.47100 28.70200
C  48.14400 28.22600 27.72600
C  48.80500 29.41800 28.18800
C  48.79200 29.26400 29.61300
C  48.03400 28.09100 29.87100
C  49.47500 30.38200 27.22400
C  49.21100 29.91600 30.86700
O  49.88600 30.89300 31.05600
C  48.52000 28.92800 31.94900
C  49.51700 28.47500 33.04100
O  50.30800 27.56900 32.86100
O  49.30900 29.18500 34.21000
C  50.08700 28.64400 35.42700
H  45.25700 22.77800 31.99100
H  45.80900 22.89400 25.39900
H  48.39500 28.50700 25.56000
H  47.67900 26.52400 33.91200
H  45.46200 24.91600 33.73700
H  48.39700 24.28900 33.54600
H  47.29100 22.89600 33.53000
H  47.35600 24.03000 34.92600
H  44.84600 26.93000 34.04800
H  45.51500 28.26500 33.10200
H  46.27900 29.28800 34.78200
H  47.17000 27.95200 35.56200
H  43.41400 20.33500 29.78600
H  44.38100 20.86400 31.25300
H  44.97400 19.68900 30.12300
H  44.50700 18.81100 27.95400
H  43.84800 18.75100 26.38100
H  42.79200 19.46200 27.52400
H  46.40300 24.74200 23.53200
H  48.57800 26.46300 24.05900
H  47.71100 23.11700 23.18700
H  48.70000 23.30200 24.73200
H  49.09700 24.38600 23.47200
H  46.20300 27.98200 23.92700
H  45.81700 26.51100 22.99300
H  48.40300 27.49900 22.12300
H  47.21500 28.77200 22.11600
H  46.86500 27.40800 21.10200
H  49.68900 31.31900 27.73700
H  48.77000 30.57600 26.41600
H  50.28200 29.79800 26.78100
H  47.67600 29.41700 32.43400
H  50.64700 27.72600 35.24800
H  49.38900 28.38800 36.22500
H  50.73200 29.50000 35.62400

