158

Mg 30.10300 58.41000 40.17300
C  27.27300 56.67500 39.19800
C  31.97700 55.63800 39.37400
C  33.10000 60.39100 39.94000
C  28.31100 61.22100 40.55500
N  29.68500 56.35800 39.25600
C  28.43300 55.87800 39.10200
C  28.53300 54.31100 38.88100
C  30.08700 53.96100 39.15400
C  30.62000 55.38500 39.33300
C  30.37600 52.97600 40.28300
C  28.13800 53.91900 37.34000
C  28.70800 54.70700 36.20200
H  27.81400 55.53000 35.26600
N  32.25300 58.06900 39.88200
C  32.76600 56.79400 39.55200
C  34.19100 56.93300 39.41200
C  34.57900 58.25700 39.69200
C  33.30400 58.97000 39.83400
C  35.05900 55.77100 38.99100
C  36.03600 58.74500 39.59100
O  36.91400 57.96600 39.23200
C  36.50800 60.19800 39.99900
N  30.67000 60.51900 40.08800
C  31.88000 61.10200 40.06700
C  31.86800 62.65400 40.22600
C  30.39600 62.74100 40.77700
C  29.74300 61.43600 40.48300
C  32.93000 63.05200 41.28900
C  29.71800 63.95300 39.96800
C  29.41200 65.27000 40.74500
N  28.18600 58.88600 39.90200
C  27.57600 60.07800 40.18500
C  26.16100 59.89300 40.21800
C  25.96900 58.64400 39.65800
C  27.28600 58.07000 39.51800
C  25.14600 60.95300 40.50900
C  25.03100 57.72000 39.20300
O  23.79400 57.78100 39.13400
C  25.83800 56.34000 38.88600
C  25.28300 55.20600 39.68900
O  25.06400 55.23000 40.84100
O  24.84700 54.19400 38.89100
C  23.92000 53.20500 39.59600
H  32.51500 54.69400 39.26100
H  34.00200 61.00400 39.88000
H  27.73100 62.10700 40.82300
H  27.87600 53.86700 39.62900
H  30.53300 53.67500 38.20100
H  31.06000 53.34800 41.04600
H  30.88300 52.09200 39.89800
H  29.44400 52.62200 40.72400
H  27.07900 54.16900 37.29600
H  28.29400 52.85100 37.19200
H  29.36600 54.09800 35.58100
H  29.31200 55.48600 36.66700
H  35.81100 56.04100 38.24900
H  34.40500 54.98500 38.61400
H  35.42800 55.39000 39.94300
H  36.08500 60.91200 39.29200
H  37.58600 60.27400 39.86000
H  36.45300 60.54700 41.03000
H  32.12000 63.17800 39.30500
H  30.36200 62.77600 41.86600
H  32.64100 63.80200 42.02500
H  33.81300 63.40400 40.75600
H  33.21300 62.23000 41.94600
H  28.78000 63.70600 39.47100
H  30.29500 64.19900 39.07600
H  28.44200 65.68900 40.47600
H  30.13100 66.07700 40.60400
H  29.31700 65.00400 41.79800
H  25.19800 61.71700 39.73200
H  25.28900 61.56200 41.40200
H  24.09800 60.72500 40.70100
H  25.71500 56.11900 37.82600
H  23.84200 52.26400 39.05300
H  22.93700 53.65000 39.75800
H  24.24000 52.93100 40.60100
Mg -9.66000 40.27400 39.30300
C  -8.87900 36.99900 38.43500
C  -6.44100 41.15400 38.27200
C  -10.68400 43.54600 39.07100
C  -13.04600 39.36700 39.67200
N  -7.93200 39.20500 38.33700
C  -7.82700 37.84100 38.16700
C  -6.39000 37.50800 37.65500
C  -5.60200 38.80500 37.90200
C  -6.70800 39.80700 38.22100
C  -4.48200 38.63500 38.93800
C  -6.36700 36.93000 36.17800
C  -7.14900 37.75600 35.18900
H  -8.29400 37.00700 34.46200
N  -8.65800 42.04000 38.82500
C  -7.34100 42.23700 38.49600
C  -7.02000 43.64000 38.32900
C  -8.23300 44.35900 38.59700
C  -9.30000 43.30000 38.83200
C  -5.60300 44.03100 38.20300
C  -8.28900 45.85600 38.68900
O  -7.36800 46.58200 38.39100
C  -9.50600 46.61000 39.27600
N  -11.61500 41.31300 39.36100
C  -11.77900 42.67100 39.30800
C  -13.31200 43.11400 39.46800
C  -13.99300 41.73000 39.57700
C  -12.84500 40.71800 39.48300
C  -13.60100 44.18800 40.57200
C  -15.19100 41.34900 38.65900
C  -16.65100 41.28100 39.35600
N  -10.79300 38.58000 39.29100
C  -12.13900 38.36400 39.46600
C  -12.35100 36.94600 39.47100
C  -11.10800 36.39400 39.16700
C  -10.14600 37.42200 38.97300
C  -13.61900 36.26400 39.37400
C  -10.38300 35.15100 38.84500
O  -10.85500 33.97000 38.90200
C  -8.93100 35.46700 38.32500
C  -7.87900 34.74700 39.11300
O  -8.02100 34.32500 40.25500
O  -6.82800 34.45400 38.23900
C  -5.73600 33.81600 38.91300
H  -5.40100 41.39300 38.03900
H  -11.04200 44.57100 38.95500
H  -14.07600 39.03300 39.81300
H  -6.17800 36.73800 38.39600
H  -5.12900 39.25700 37.03000
H  -4.26900 37.58300 39.12700
H  -4.78400 39.12600 39.86300
H  -3.50500 38.99000 38.61000
H  -6.72200 35.90500 36.28200
H  -5.38000 36.80900 35.73000
H  -6.33400 38.01100 34.51100
H  -7.63600 38.67600 35.51200
H  -5.36300 45.08100 38.03500
H  -5.08500 43.42800 37.45800
H  -5.12900 43.83400 39.16400
H  -9.77600 45.97000 40.11500
H  -10.31200 46.70600 38.54800
H  -9.15700 47.54300 39.71900
H  -13.61100 43.49100 38.49000
H  -14.37500 41.60400 40.58900
H  -12.71500 44.77500 40.81700
H  -13.98500 43.69800 41.46700
H  -14.35700 44.91100 40.26400
H  -15.04000 40.37100 38.20100
H  -15.27700 42.04100 37.82200
H  -17.12300 40.37700 38.97000
H  -17.29700 42.02500 38.88900
H  -16.56500 41.22300 40.44100
H  -14.46100 36.94900 39.27600
H  -13.78700 35.66400 40.26900
H  -13.67900 35.67900 38.45600
H  -8.95000 35.09000 37.30300
H  -5.92800 32.77100 39.15600
H  -5.35300 34.38300 39.76200
H  -4.91400 33.93300 38.20700

