158

Mg 16.97600 -1.71700 28.20100
C  16.31900 0.50100 30.82100
C  18.72200 -3.72000 30.24600
C  17.95900 -3.45500 25.40700
C  15.20300 0.51000 26.02300
N  17.54900 -1.44000 30.30600
C  17.15000 -0.54100 31.21700
C  17.71400 -0.89600 32.59700
C  18.74200 -2.01400 32.37000
C  18.33100 -2.45300 30.93800
C  20.24600 -1.57900 32.37400
C  16.50100 -1.44800 33.47300
C  16.22800 -0.75300 34.88200
H  17.41800 0.05400 35.51000
N  18.06000 -3.43900 27.87200
C  18.73100 -4.10400 28.89800
C  19.35000 -5.29500 28.27000
C  19.07500 -5.24100 26.83600
C  18.25900 -4.07700 26.60400
C  20.13000 -6.33700 29.08500
C  19.62200 -6.20500 25.70900
O  19.51500 -5.97100 24.51500
C  20.47900 -7.39000 26.00300
N  16.74800 -1.40300 26.07600
C  17.26700 -2.29200 25.17000
C  17.16200 -1.82100 23.71100
C  16.09000 -0.63900 23.90500
C  15.92100 -0.53100 25.47000
C  18.60900 -1.35200 23.10900
C  14.71300 -0.89000 23.15900
C  14.34000 0.06400 22.09800
N  15.99600 0.12400 28.34700
C  15.20100 0.83500 27.43100
C  14.61800 2.01800 28.07600
C  14.95200 1.84900 29.38300
C  15.85500 0.76000 29.50000
C  13.73300 3.12700 27.48000
C  14.78400 2.44000 30.67100
O  14.15000 3.45700 31.08800
C  15.67500 1.62000 31.71600
C  16.69900 2.48300 32.30600
O  17.83200 2.63700 31.82800
O  16.17100 3.23400 33.34200
C  16.97900 4.30800 33.92500
H  19.40500 -4.32300 30.84800
H  18.22300 -4.00800 24.50300
H  14.69600 1.19700 25.34200
H  18.25100 -0.04200 33.01200
H  18.60100 -2.82200 33.08800
H  20.30600 -0.49100 32.39200
H  20.84400 -1.99200 31.56100
H  20.57400 -1.85600 33.37500
H  16.58000 -2.53500 33.51100
H  15.64300 -1.17200 32.86000
H  15.83600 -1.45200 35.62100
H  15.33300 -0.18000 34.64200
H  20.35400 -6.00500 30.09900
H  21.07000 -6.54500 28.57400
H  19.68900 -7.31700 29.26700
H  20.09600 -8.04000 26.79000
H  21.39300 -6.93500 26.38500
H  20.70000 -8.06700 25.17700
H  16.73000 -2.55600 23.03100
H  16.47200 0.34300 23.62600
H  18.78300 -1.89800 22.18100
H  19.41200 -1.58200 23.80900
H  18.77800 -0.29700 22.89200
H  13.92400 -0.94500 23.90900
H  14.62600 -1.86900 22.68700
H  15.23100 0.28200 21.51000
H  13.87000 0.99200 22.42300
H  13.64100 -0.44600 21.43500
H  14.14400 4.12800 27.61800
H  12.77300 3.07200 27.99200
H  13.49500 2.86100 26.45000
H  14.94000 1.26700 32.43900
H  17.81900 4.66700 33.33000
H  17.29100 3.83400 34.85600
H  16.31600 5.16000 34.06900
Mg 35.56700 48.47600 24.83600
C  35.84400 46.93500 27.94600
C  34.51900 51.27500 26.27000
C  34.88300 49.65200 21.78300
C  36.77800 45.52600 23.36400
N  35.24200 49.02900 26.97400
C  35.48700 48.30900 28.01100
C  35.07800 49.05000 29.30600
C  34.43100 50.38500 28.76200
C  34.75300 50.27500 27.22800
C  33.02500 50.65600 29.31700
C  36.34200 49.34300 30.25200
C  36.14000 49.13300 31.78500
H  34.66900 49.07800 32.28500
N  34.86000 50.25100 24.14800
C  34.49900 51.31800 24.89800
C  34.06300 52.41900 24.10400
C  34.16400 51.94000 22.76700
C  34.60000 50.52400 22.85000
C  33.67000 53.77000 24.66600
C  33.73600 52.77700 21.41600
O  34.13900 52.47400 20.28900
C  33.20600 54.20400 21.50700
N  35.87900 47.70200 22.82700
C  35.47800 48.40000 21.73700
C  35.98500 47.64600 20.46100
C  36.84600 46.54300 21.11800
C  36.45600 46.58600 22.51400
C  34.84200 47.07400 19.63900
C  38.38000 46.74600 21.03100
C  39.27400 45.50100 20.98100
N  36.10700 46.54300 25.43800
C  36.66700 45.48700 24.78900
C  36.93800 44.39400 25.63000
C  36.56100 44.95800 26.87600
C  36.19300 46.27400 26.73300
C  37.37800 42.97100 25.30000
C  36.49700 44.57000 28.30200
O  36.57100 43.49000 28.91000
C  35.98600 45.90200 29.04200
C  34.71300 45.61200 29.74200
O  33.55600 45.55800 29.27400
O  35.01500 45.31500 31.05300
C  33.91800 44.80800 31.83000
H  34.13300 52.15200 26.79400
H  34.61300 50.09100 20.82000
H  37.17900 44.62800 22.89100
H  34.36600 48.36000 29.76000
H  35.00300 51.18300 29.23500
H  32.69100 49.83000 29.94500
H  32.28600 50.67300 28.51600
H  33.15700 51.57900 29.88300
H  36.83200 50.29800 30.06300
H  37.10000 48.59500 30.01900
H  36.43700 50.09900 32.19500
H  36.69400 48.31700 32.24900
H  34.45400 54.51600 24.53800
H  33.44600 53.88300 25.72700
H  32.85300 54.03600 23.99600
H  32.21100 54.15900 21.94900
H  33.06500 54.54300 20.48100
H  33.93800 54.90300 21.91200
H  36.70400 48.26900 19.92800
H  36.57500 45.53500 20.80500
H  33.89200 47.14400 20.16900
H  35.06100 46.07000 19.27500
H  34.69500 47.59600 18.69300
H  38.65400 47.38700 21.86900
H  38.77200 47.37300 20.23000
H  38.59000 44.65200 20.96800
H  40.04000 45.52900 21.75600
H  39.90600 45.40900 20.09800
H  37.90100 43.03600 24.34600
H  36.55700 42.26200 25.18700
H  38.00500 42.61700 26.11800
H  36.69800 46.27400 29.77900
H  34.32500 44.56000 32.81000
H  33.55100 43.94300 31.27800
H  33.08900 45.46300 32.09900

