158

Mg 34.87500 1.29200 29.38700
C  32.67400 3.02900 31.47800
C  37.32300 1.28700 31.87500
C  37.08900 0.18800 27.13700
C  32.57100 2.07100 26.82400
N  34.94100 2.04600 31.34100
C  33.90200 2.59800 32.05800
C  34.20300 2.58100 33.55500
C  35.66300 2.22900 33.61900
C  36.05800 1.82400 32.19300
C  36.61600 3.29300 34.13400
C  33.25200 1.52500 34.30400
C  32.77200 1.90400 35.74600
H  33.54400 2.92500 36.51600
N  37.00100 0.85900 29.45600
C  37.80600 0.85300 30.61200
C  39.05100 0.23100 30.25000
C  38.97500 -0.16900 28.88000
C  37.65200 0.31200 28.41800
C  40.14900 -0.02800 31.21500
C  39.85600 -0.95800 28.00100
O  39.49000 -1.43800 26.93300
C  41.24700 -1.33000 28.47200
N  34.83200 1.20300 27.35000
C  35.86500 0.66500 26.64300
C  35.40900 0.46000 25.14600
C  33.99600 1.08800 25.06400
C  33.77600 1.42500 26.49600
C  36.50900 1.09000 24.17600
C  32.93100 0.11000 24.46800
C  32.48900 0.35000 23.01800
N  32.93000 2.19300 29.15400
C  32.21100 2.42400 28.09100
C  30.90900 3.13500 28.43900
C  31.09700 3.48000 29.77800
C  32.35800 2.84000 30.14600
C  29.88500 3.70000 27.50900
C  30.59200 4.17000 30.94400
O  29.57400 4.83800 31.11000
C  31.46800 3.70100 32.14300
C  31.75600 4.90400 32.98300
O  32.49500 5.79600 32.66300
O  31.12600 4.92300 34.15800
C  31.27500 6.16500 34.85400
H  38.08800 1.33100 32.65200
H  37.69000 -0.20700 26.31500
H  31.84500 2.15700 26.01300
H  34.00000 3.59800 33.89100
H  35.81800 1.42600 34.33900
H  37.22200 3.61000 33.28600
H  37.26300 2.83100 34.88000
H  36.00100 4.09800 34.53800
H  33.79700 0.58300 34.36300
H  32.38300 1.41600 33.65500
H  32.68800 0.99900 36.34700
H  31.83000 2.43400 35.60300
H  40.50500 -1.05800 31.23300
H  39.92500 0.03100 32.27900
H  40.91500 0.67200 30.88000
H  41.31600 -2.10700 29.23400
H  41.70400 -0.44600 28.91700
H  41.90200 -1.61400 27.64900
H  35.37900 -0.59700 24.88300
H  34.01300 2.05800 24.56800
H  36.06000 1.76500 23.44800
H  36.81500 0.21300 23.60500
H  37.28800 1.61400 24.73100
H  32.03100 0.13900 25.08200
H  33.33300 -0.90000 24.54300
H  31.40200 0.37400 22.94000
H  32.94200 -0.24100 22.22200
H  32.94400 1.32000 22.81500
H  30.36700 4.34500 26.77400
H  29.22300 4.41100 28.00400
H  29.34000 2.89200 27.02100
H  30.79400 3.08500 32.73800
H  30.53500 6.89700 34.53100
H  32.23000 6.64500 35.06900
H  30.89700 5.85100 35.82700
Mg 9.54000 47.77800 26.73900
C  7.70200 47.72200 29.67800
C  12.30500 48.90200 28.45300
C  11.21600 47.60300 23.93700
C  6.54900 47.10200 24.91600
N  9.94900 48.13400 28.93100
C  9.01700 48.15300 29.89100
C  9.61200 48.70100 31.22100
C  10.92800 49.39100 30.62200
C  11.09500 48.85100 29.19500
C  10.85200 50.96400 30.56900
C  9.96200 47.65100 32.27700
C  9.42900 47.80000 33.73100
H  9.47400 46.51200 34.65400
N  11.49500 48.07400 26.35500
C  12.49600 48.55400 27.16300
C  13.74800 48.34500 26.49300
C  13.48000 47.97600 25.11900
C  11.96700 47.83800 25.07200
C  15.05400 48.65900 27.20600
C  14.50100 47.74800 24.05600
O  14.15800 47.29400 22.97600
C  15.91400 47.80400 24.34900
N  8.92900 47.73300 24.69500
C  9.80700 47.46200 23.72900
C  9.20800 47.13800 22.38100
C  7.69800 47.09700 22.67200
C  7.70500 47.27100 24.18500
C  9.62900 48.09700 21.19500
C  7.06600 45.81300 22.12500
C  5.53000 45.98800 21.73900
N  7.43200 47.59300 27.18400
C  6.39100 47.19600 26.38800
C  5.23100 46.98800 27.16700
C  5.67700 47.16900 28.48600
C  7.06400 47.54500 28.43900
C  3.82400 46.60700 26.74800
C  5.31700 47.18000 29.82100
O  4.20500 46.95400 30.28000
C  6.59600 47.62300 30.65000
C  6.82600 46.56100 31.57400
O  7.09500 45.41900 31.23400
O  6.39500 46.92100 32.80500
C  6.29700 45.83300 33.72500
H  13.12000 49.38600 28.99600
H  11.67900 47.52300 22.95100
H  5.66000 46.87000 24.32600
H  8.93800 49.42400 31.68200
H  11.82500 49.17700 31.20400
H  11.70700 51.42400 31.06500
H  10.02000 51.42000 31.10600
H  10.79900 51.43500 29.58700
H  11.04000 47.49400 32.30000
H  9.60500 46.65400 32.02300
H  8.38200 48.09900 33.68400
H  10.02900 48.58700 34.18800
H  14.81300 48.66900 28.26900
H  15.30600 49.66600 26.87400
H  15.88500 47.97000 27.05400
H  16.59800 47.77100 23.50200
H  16.18100 46.88500 24.87000
H  16.16900 48.70200 24.91300
H  9.68900 46.18500 22.16000
H  7.26600 47.99300 22.22600
H  9.94100 47.56500 20.29600
H  10.31100 48.81800 21.64500
H  8.77800 48.74800 20.99300
H  7.17200 44.98500 22.82600
H  7.64900 45.46600 21.27200
H  5.39200 45.66700 20.70700
H  5.29100 47.04800 21.82300
H  4.91100 45.43400 22.44400
H  3.88900 46.01500 25.83600
H  3.20700 47.50300 26.67500
H  3.36800 46.01900 27.54500
H  6.39600 48.53200 31.21700
H  7.09400 45.13700 33.46200
H  5.25400 45.52200 33.67700
H  6.50600 46.24500 34.71200

