158

Mg 0.56500 8.67200 27.23400
C  1.33800 10.63700 29.93000
C  0.14400 5.97500 29.43400
C  0.04000 6.63200 24.59000
C  1.37800 11.33700 25.07100
N  0.92600 8.34500 29.43900
C  0.95900 9.38500 30.37600
C  0.85000 8.81700 31.82200
C  0.69800 7.26500 31.56400
C  0.54100 7.11100 30.02000
C  1.79300 6.34600 32.09700
C  -0.25100 9.44600 32.70200
C  0.09200 9.90500 34.12000
H  1.17800 9.20400 34.87800
N  0.04700 6.61300 27.06000
C  -0.12600 5.65500 28.03300
C  -0.57400 4.41600 27.51700
C  -0.73700 4.60400 26.10900
C  -0.26500 6.00500 25.80500
C  -0.52600 3.27300 28.50300
C  -1.23100 3.62500 25.12800
O  -1.58000 3.90900 23.98300
C  -1.30400 2.23500 25.55700
N  0.81100 8.89000 25.14700
C  0.51300 7.90300 24.29100
C  0.74800 8.43000 22.85900
C  0.74000 10.00200 23.03300
C  1.00800 10.05100 24.50100
C  2.08500 7.99600 22.15200
C  -0.68500 10.63400 22.79100
C  -1.24900 10.99200 21.37200
N  1.27300 10.66000 27.34400
C  1.48700 11.63800 26.43900
C  1.85200 12.83900 27.10300
C  1.79900 12.50700 28.45600
C  1.49800 11.11800 28.57500
C  2.23500 14.13800 26.41900
C  1.90900 13.08600 29.77600
O  2.07700 14.22100 30.12900
C  1.43400 11.90900 30.75400
C  2.59300 11.73800 31.75200
O  3.61300 11.11200 31.56500
O  2.26200 12.48900 32.85200
C  3.14900 12.55900 33.94400
H  0.16700 5.24200 30.24400
H  -0.14400 5.95800 23.75100
H  1.47200 12.09200 24.28700
H  1.78000 8.94700 32.37500
H  -0.26700 6.96400 31.97200
H  2.67300 6.86900 32.47100
H  2.04200 5.48800 31.47100
H  1.22800 5.92100 32.92700
H  -1.01800 8.71200 32.94900
H  -0.81200 10.29300 32.30800
H  -0.86100 9.75300 34.62700
H  0.25800 10.98200 34.09900
H  -0.54300 2.25800 28.10700
H  -1.42600 3.43900 29.09500
H  0.22600 3.27300 29.29100
H  -1.62200 1.56400 24.75800
H  -1.94000 2.03400 26.41900
H  -0.25200 2.06800 25.78900
H  -0.11400 8.13300 22.26100
H  1.50300 10.43400 22.38600
H  2.70000 8.74100 21.64800
H  1.75800 7.18100 21.50700
H  2.76700 7.58100 22.89400
H  -0.71100 11.58900 23.31400
H  -1.41100 10.01300 23.31500
H  -0.56300 10.59300 20.62500
H  -1.27700 12.08100 21.36900
H  -2.24100 10.55300 21.26700
H  1.32300 14.51900 25.96000
H  2.90200 13.84300 25.60800
H  2.80700 14.73100 27.13200
H  0.50600 12.25200 31.21200
H  3.06000 13.57400 34.33400
H  4.17700 12.26600 33.73000
H  2.67100 11.90300 34.67200
Mg 24.72500 -5.88100 45.41500
C  26.95600 -3.62700 43.90500
C  22.39200 -4.85400 43.03100
C  22.74800 -8.39100 46.23500
C  27.38600 -7.27300 47.12700
N  24.73400 -4.47000 43.64400
C  25.76500 -3.62500 43.23400
C  25.33800 -2.70900 42.11800
C  23.78000 -2.96100 42.03500
C  23.61200 -4.18700 42.93600
C  22.82700 -1.80600 42.46800
C  25.98200 -2.99200 40.77500
C  26.35100 -1.79300 39.81700
H  25.61300 -1.80400 38.51500
N  22.76900 -6.44600 44.85200
C  22.00000 -5.89900 43.89900
C  20.72700 -6.55300 43.89700
C  20.72200 -7.57900 44.88000
C  22.06000 -7.53600 45.42800
C  19.49300 -6.15400 43.01500
C  19.52400 -8.39200 45.20600
O  18.49600 -8.18200 44.58200
C  19.52600 -9.37500 46.28600
N  24.96900 -7.52100 46.64000
C  24.02400 -8.49800 46.70600
C  24.44500 -9.70600 47.49600
C  26.01900 -9.44200 47.67500
C  26.18300 -7.96900 47.11500
C  23.61800 -10.14300 48.71100
C  26.83700 -10.36400 46.72500
C  26.82900 -11.84300 47.05000
N  26.68500 -5.47600 45.62400
C  27.63600 -6.10100 46.46500
C  28.86100 -5.29000 46.38000
C  28.61600 -4.26300 45.45300
C  27.30800 -4.50700 44.97100
C  30.11800 -5.48400 47.15600
C  29.12400 -3.12600 44.78600
O  30.21900 -2.55100 44.84900
C  28.13100 -2.75100 43.61400
C  27.73200 -1.34500 43.59400
O  26.92300 -0.79600 44.29500
O  28.64300 -0.68200 42.86300
C  28.57000 0.72800 42.74000
H  21.58400 -4.43900 42.42500
H  22.15900 -9.27300 46.49500
H  28.27800 -7.68900 47.60000
H  25.29600 -1.66500 42.43000
H  23.40500 -3.01200 41.01300
H  22.06300 -2.27000 43.09300
H  22.28300 -1.41900 41.60600
H  23.42100 -1.05600 42.99000
H  25.34300 -3.61800 40.15300
H  26.82600 -3.65500 40.96500
H  27.42500 -1.97300 39.75900
H  26.15100 -0.82600 40.27700
H  19.24800 -6.85700 42.21900
H  19.71000 -5.24600 42.45200
H  18.69100 -6.00300 43.73800
H  20.00500 -8.92900 47.15800
H  20.13300 -10.21100 45.93800
H  18.53100 -9.81800 46.34900
H  24.25900 -10.46400 46.73500
H  26.34600 -9.56100 48.70800
H  24.20800 -10.46300 49.57100
H  22.95400 -10.94500 48.38800
H  22.95900 -9.32600 49.00400
H  27.88000 -10.05200 46.79400
H  26.51000 -10.33000 45.68600
H  26.40800 -12.36100 46.18800
H  26.21300 -11.96300 47.94100
H  27.83200 -12.17700 47.31500
H  29.85000 -5.24400 48.18500
H  30.95400 -4.83900 46.88700
H  30.47100 -6.51500 47.15600
H  28.61200 -2.96900 42.66000
H  27.60700 1.06000 42.35400
H  29.30700 1.16300 42.06300
H  28.53200 1.31000 43.66000

