158

Mg 44.83700 4.31200 47.40600
C  43.21200 7.29600 46.54600
C  41.85700 2.59800 46.52300
C  46.55000 1.48700 47.50000
C  47.84700 6.14500 47.83400
N  42.79200 4.88900 46.55100
C  42.37900 6.18300 46.34100
C  40.94500 6.21800 45.70900
C  40.46800 4.79800 46.07100
C  41.76200 4.04500 46.39700
C  39.32500 4.74900 47.19100
C  40.95000 6.55200 44.23400
C  39.85800 7.51800 43.76800
H  39.36900 7.52900 42.31400
N  44.28300 2.37900 46.99700
C  42.99500 1.84500 46.81800
C  43.15000 0.38100 46.87500
C  44.50900 0.10800 47.01200
C  45.14400 1.37800 47.21000
C  41.93800 -0.64400 46.67300
C  45.12200 -1.31800 46.77000
O  44.37500 -2.29000 46.55100
C  46.52200 -1.61500 46.77400
N  46.88400 3.87600 47.47300
C  47.25900 2.62500 47.72500
C  48.78400 2.57300 48.05200
C  49.23900 4.08700 48.16900
C  47.87900 4.70200 47.88600
C  49.24800 1.58900 49.18700
C  50.44000 4.66800 47.32700
C  50.50100 4.36500 45.85300
N  45.41800 6.31600 47.15300
C  46.66800 6.92900 47.40300
C  46.48900 8.37600 47.23000
C  45.12800 8.58200 46.91800
C  44.57900 7.30300 46.85000
C  47.57800 9.36800 47.24400
C  44.08200 9.54800 46.65600
O  44.13400 10.75400 46.54300
C  42.84600 8.72200 46.28000
C  41.83200 9.12600 47.26000
O  41.75100 8.76700 48.42100
O  41.05800 10.11300 46.71400
C  39.91900 10.68000 47.45500
H  40.98400 1.94700 46.43500
H  47.11400 0.56300 47.63900
H  48.78300 6.66600 48.04100
H  40.43700 6.90800 46.38200
H  39.98800 4.35600 45.19800
H  38.98300 5.70700 47.58200
H  39.77500 4.26000 48.05500
H  38.49100 4.17800 46.78300
H  40.71000 5.72500 43.56500
H  41.88600 6.97400 43.86900
H  40.34300 8.48300 43.91600
H  38.91300 7.45500 44.30700
H  42.03600 -1.04100 45.66200
H  40.97800 -0.13700 46.76600
H  42.00600 -1.35300 47.49800
H  46.89600 -1.55500 47.79600
H  47.12000 -0.94000 46.16100
H  46.70300 -2.58700 46.31400
H  49.22400 2.17600 47.13600
H  49.41100 4.21700 49.23700
H  50.11500 2.09400 49.61200
H  49.58800 0.64400 48.76300
H  48.36200 1.47800 49.81100
H  51.37600 4.35500 47.78900
H  50.45100 5.74600 47.48700
H  51.53200 4.07900 45.64700
H  50.19600 5.27900 45.34200
H  49.83800 3.52400 45.64800
H  47.18900 10.33800 47.55400
H  48.07800 9.42500 46.27700
H  48.30000 9.06700 48.00300
H  42.53000 8.93700 45.25900
H  39.30200 9.81600 47.70100
H  39.27100 11.38100 46.92900
H  40.25900 11.21100 48.34400
Mg 48.69500 36.10300 27.34700
C  46.84200 34.18800 29.42800
C  48.96100 38.47000 29.86800
C  50.30900 38.09700 25.08200
C  48.38200 33.61100 24.94300
N  48.08300 36.21500 29.51800
C  47.36700 35.29500 30.16200
C  47.37600 35.58300 31.66800
C  47.73500 37.10100 31.67300
C  48.33900 37.29400 30.27700
C  46.56600 38.07700 31.93000
C  48.41800 34.62900 32.32700
C  48.40500 34.42200 33.84200
H  47.54500 35.18800 34.84700
N  49.48800 38.08400 27.47300
C  49.47000 38.86900 28.60200
C  50.35900 40.06400 28.37400
C  50.59700 39.97800 26.93600
C  50.11900 38.68900 26.40400
C  50.81100 41.07700 29.43900
C  51.35800 41.06400 26.09400
O  51.70400 40.89500 24.91100
C  51.66300 42.30800 26.79400
N  49.08300 35.96600 25.30300
C  49.79000 36.87600 24.58300
C  50.27000 36.33200 23.27100
C  49.82600 34.80900 23.27300
C  49.08100 34.74200 24.58500
C  49.79500 37.20100 22.03400
C  50.99800 33.82200 22.94600
C  51.18300 33.40300 21.50700
N  47.88300 34.20300 27.14300
C  47.79400 33.34300 26.14700
C  46.98800 32.19700 26.44000
C  46.56000 32.48200 27.76600
C  47.13400 33.73800 28.12200
C  46.61000 31.04300 25.69300
C  45.71100 32.01000 28.80100
O  45.13300 30.94300 28.83700
C  45.78400 33.13700 29.91600
C  46.06400 32.37900 31.09800
O  46.85300 31.41700 31.31400
O  45.24800 32.90600 32.15000
C  45.10600 32.10100 33.39300
H  49.21900 39.10700 30.71700
H  50.90300 38.61700 24.32700
H  48.29700 32.83600 24.17900
H  46.36100 35.33500 31.98000
H  48.50100 37.26200 32.43100
H  46.72300 38.83200 32.70000
H  45.60400 37.69200 32.26800
H  46.47500 38.55600 30.95500
H  49.40300 35.00900 32.05700
H  48.44200 33.65100 31.84500
H  49.38500 34.31900 34.30700
H  48.00800 33.41300 33.95100
H  51.86200 41.35600 29.37100
H  50.59700 40.77500 30.46500
H  50.27400 42.02000 29.34300
H  50.79300 42.61400 27.37600
H  51.88100 43.06500 26.04000
H  52.42900 42.04300 27.52200
H  51.35900 36.31700 23.32700
H  49.03200 34.63400 22.54800
H  49.32600 36.56600 21.28200
H  50.62400 37.77500 21.61900
H  49.03800 37.92400 22.33800
H  50.90100 32.85800 23.44600
H  51.91300 34.24000 23.36500
H  51.38900 32.33300 21.50100
H  52.10200 33.88400 21.17300
H  50.26500 33.53100 20.93300
H  45.84300 31.35000 24.98300
H  46.15600 30.36600 26.41600
H  47.44000 30.47400 25.27300
H  44.75100 33.48300 29.92300
H  45.54600 31.11000 33.28400
H  44.06500 31.82200 33.55500
H  45.54400 32.61900 34.24600

