158

Mg -9.99200 39.72500 41.59100
C  -9.20100 36.52000 40.39400
C  -7.00300 40.77200 39.92300
C  -10.93400 42.81700 42.09700
C  -13.39000 38.57000 42.15500
N  -8.35500 38.73400 40.26300
C  -8.22300 37.38600 39.98300
C  -6.94200 37.02900 39.13900
C  -6.20200 38.44700 39.10000
C  -7.24300 39.41200 39.77400
C  -4.67900 38.49000 39.61600
C  -7.33300 36.47500 37.70400
C  -6.65500 35.15500 37.31700
H  -5.79800 35.11500 36.01700
N  -9.02700 41.44500 41.27600
C  -7.82000 41.71800 40.51600
C  -7.59600 43.08000 40.52000
C  -8.65700 43.73400 41.24300
C  -9.58800 42.65400 41.62800
C  -6.25800 43.72500 39.96700
C  -8.66100 45.22800 41.56500
O  -7.72200 45.93400 41.21700
C  -9.76300 45.80700 42.46700
N  -11.94900 40.49900 42.02300
C  -12.02500 41.90600 42.26900
C  -13.42400 42.38600 42.72400
C  -14.20600 40.99700 42.71100
C  -13.12700 39.94100 42.30800
C  -13.43300 43.10700 44.11600
C  -15.55200 40.88400 41.81500
C  -16.73100 40.22700 42.59400
N  -11.06300 37.90000 41.55000
C  -12.38200 37.60200 41.75700
C  -12.49600 36.15200 41.75400
C  -11.30500 35.67300 41.19700
C  -10.46300 36.80700 40.98800
C  -13.63300 35.29900 42.21500
C  -10.50400 34.49900 40.82300
O  -10.81400 33.32600 40.85100
C  -9.14000 34.97100 40.29000
C  -8.12100 34.41900 41.25000
O  -7.89400 34.84500 42.39200
O  -7.67800 33.20000 40.81200
C  -6.67100 32.68600 41.67300
H  -6.05900 40.94600 39.40400
H  -11.16200 43.84300 42.39500
H  -14.39800 38.17200 42.29100
H  -6.39300 36.24700 39.66400
H  -6.22700 38.98800 38.15400
H  -4.55100 38.94300 40.60000
H  -4.13400 39.09300 38.89000
H  -4.23900 37.51500 39.40900
H  -7.10800 37.23400 36.95500
H  -8.42000 36.47600 37.62200
H  -7.39200 34.37600 37.12100
H  -5.99200 34.78200 38.09800
H  -6.48300 44.49400 39.22800
H  -5.64600 43.06600 39.35200
H  -5.71100 44.14900 40.80900
H  -9.67900 45.31800 43.43700
H  -10.77300 45.64200 42.09000
H  -9.72500 46.89400 42.54100
H  -13.80800 43.16200 42.06200
H  -14.52400 40.83900 43.74100
H  -12.46000 43.44600 44.47200
H  -13.97800 42.48800 44.82900
H  -14.00300 44.00500 43.88000
H  -15.22300 40.13000 41.10000
H  -15.91000 41.79000 41.32700
H  -16.49800 39.19000 42.83600
H  -17.71600 40.38300 42.15400
H  -16.68100 40.74400 43.55200
H  -14.03400 34.68700 41.40700
H  -14.30000 36.04700 42.64300
H  -13.26000 34.59000 42.95400
H  -9.10000 34.52500 39.29700
H  -6.07700 31.95000 41.13300
H  -7.08100 32.24500 42.58100
H  -5.89700 33.38200 41.99500
Mg -5.59100 24.80200 25.29100
C  -3.61900 26.12900 27.85800
C  -6.55400 22.22500 27.40900
C  -6.77200 23.18000 22.57700
C  -3.90000 27.01100 22.99900
N  -4.98000 24.22900 27.41000
C  -4.38500 25.01800 28.32300
C  -4.64300 24.60100 29.72300
C  -5.41000 23.23800 29.50100
C  -5.73700 23.24300 28.00000
C  -4.59900 22.03300 29.98600
C  -5.41700 25.70300 30.51700
C  -5.22100 25.82700 32.02100
H  -4.57400 24.73300 32.89600
N  -6.67800 23.07600 24.99500
C  -6.94200 22.10800 26.06500
C  -7.99700 21.25500 25.46600
C  -8.14800 21.56100 24.06500
C  -7.10500 22.57600 23.84700
C  -8.76900 20.27100 26.24900
C  -9.08700 20.85300 22.98200
O  -8.82500 20.98600 21.78200
C  -10.30100 19.97200 23.35800
N  -5.33800 25.04400 23.10400
C  -5.93900 24.23700 22.18800
C  -5.74600 24.63800 20.65800
C  -4.79300 25.87900 20.83100
C  -4.70200 25.99200 22.42400
C  -5.25600 23.47100 19.72300
C  -5.16100 27.08800 19.97600
C  -6.03500 28.17800 20.51000
N  -4.11300 26.31100 25.42000
C  -3.54000 27.09100 24.45400
C  -2.61700 28.00800 25.06000
C  -2.66700 27.67200 26.44600
C  -3.49100 26.61400 26.55100
C  -1.82300 29.02800 24.40500
C  -2.14400 28.03000 27.63900
O  -1.31400 28.89100 27.92700
C  -2.81600 27.05600 28.66700
C  -1.76700 26.24500 29.28800
O  -0.98000 25.55300 28.69100
O  -1.82100 26.19700 30.66800
C  -0.61100 25.63800 31.35800
H  -7.01900 21.55200 28.13100
H  -7.26300 22.63200 21.77000
H  -3.35000 27.68300 22.33600
H  -3.62100 24.54000 30.09700
H  -6.35100 23.32000 30.04400
H  -4.12600 21.70700 29.06000
H  -5.15600 21.22000 30.45100
H  -3.87800 22.36400 30.73400
H  -6.50100 25.66800 30.41500
H  -5.08800 26.63800 30.06400
H  -6.20100 26.03500 32.45000
H  -4.68000 26.77000 32.10400
H  -9.84700 20.40700 26.15500
H  -8.51400 20.15600 27.30200
H  -8.59400 19.25400 25.89800
H  -11.05300 20.69100 23.68000
H  -10.10500 19.08600 23.96200
H  -10.79000 19.58800 22.46300
H  -6.71800 24.99400 20.31700
H  -3.80400 25.56500 20.49800
H  -6.07100 22.95000 19.22000
H  -4.94300 22.63300 20.34700
H  -4.58200 23.73100 18.90800
H  -5.59500 26.59200 19.10800
H  -4.20000 27.57900 19.82100
H  -5.59300 29.14200 20.25800
H  -6.27200 28.18100 21.57400
H  -6.94300 28.25000 19.91200
H  -2.36700 29.85500 23.95000
H  -1.16100 28.51100 23.71000
H  -1.15200 29.38200 25.18800
H  -3.27500 27.52400 29.53800
H  -0.88500 24.66800 31.77400
H  -0.45100 26.44400 32.07400
H  0.32800 25.56200 30.80900

