158

Mg 35.03800 2.59000 29.55400
C  33.16000 3.68700 32.40100
C  37.72100 2.69200 31.64500
C  36.90900 1.36800 27.06900
C  32.37700 3.23600 27.51000
N  35.29100 2.89400 31.83600
C  34.47700 3.29500 32.78400
C  35.05600 3.41100 34.20900
C  36.54900 3.33300 33.83800
C  36.54700 3.04800 32.33700
C  37.42500 4.53900 34.17300
C  34.57300 2.16700 35.05700
C  34.40000 2.29800 36.58100
H  35.30900 3.30900 37.29000
N  36.99000 1.92000 29.43700
C  37.91200 2.07800 30.39500
C  39.16900 1.53600 29.96800
C  38.98400 1.16000 28.60500
C  37.62000 1.46200 28.31800
C  40.42100 1.41300 30.81700
C  39.98400 0.53600 27.57800
O  39.65600 0.31900 26.43700
C  41.45900 0.27800 27.87200
N  34.77200 2.50500 27.57500
C  35.63500 1.79200 26.75800
C  34.99400 1.67300 25.33400
C  33.52500 1.84200 25.64800
C  33.52600 2.57900 26.93300
C  35.56700 2.81100 24.34800
C  32.77600 0.53400 25.72900
C  31.56200 0.22500 24.79700
N  33.22600 3.39500 29.79800
C  32.21100 3.57100 28.86500
C  31.02800 4.05400 29.54000
C  31.40000 4.19100 30.88400
C  32.73700 3.67900 31.01500
C  29.64400 4.35300 29.05900
C  30.78100 4.56700 32.11700
O  29.68900 4.97800 32.44800
C  31.96000 4.30400 33.13500
C  32.31600 5.55000 33.76600
O  33.23500 6.38000 33.51000
O  31.28000 5.85100 34.61500
C  31.27500 7.18600 35.19500
H  38.64600 2.60300 32.21900
H  37.47400 1.01500 26.20400
H  31.50600 3.40000 26.87300
H  34.83000 4.37400 34.66700
H  36.96000 2.45300 34.33300
H  38.38900 4.28900 34.61400
H  36.94900 5.07500 34.99300
H  37.64900 5.28300 33.40800
H  35.06300 1.21700 34.84400
H  33.55100 2.07200 34.68800
H  34.62700 1.32100 37.00600
H  33.34200 2.42400 36.81500
H  40.98000 0.53700 30.48600
H  40.25400 1.12300 31.85400
H  41.05000 2.30200 30.77500
H  41.93600 1.17200 28.27400
H  41.92600 0.16900 26.89300
H  41.53000 -0.57000 28.55400
H  35.20600 0.69600 24.90000
H  32.98900 2.44300 24.91300
H  36.48600 3.25600 24.73000
H  34.89700 3.61100 24.03400
H  35.87200 2.24500 23.46800
H  32.33000 0.47300 26.72200
H  33.43000 -0.33100 25.61900
H  31.63300 -0.81800 24.48700
H  31.58600 0.97900 24.01000
H  30.58800 0.26000 25.28500
H  29.19400 3.44600 28.65600
H  29.67600 5.08800 28.25500
H  29.02200 4.71300 29.87900
H  31.76100 3.61700 33.95700
H  32.26800 7.63200 35.24900
H  30.79300 7.08500 36.16700
H  30.60500 7.83200 34.62600
Mg 48.65000 44.55900 43.06800
C  45.28300 43.90000 43.11100
C  49.13100 41.30600 42.30800
C  51.94900 45.16600 42.57300
C  48.00200 47.94500 42.89000
N  47.31100 42.78800 42.83700
C  45.98400 42.70900 42.90000
C  45.51400 41.29100 42.70500
C  46.77000 40.39400 42.68400
C  47.81200 41.54200 42.53000
C  46.91500 39.57200 44.01900
C  44.69300 41.13800 41.41000
C  45.04100 42.03900 40.16000
H  45.88200 41.36000 39.07200
N  50.31900 43.39200 42.51700
C  50.31800 42.03700 42.28900
C  51.67400 41.54600 42.24500
C  52.54600 42.61300 42.28300
C  51.61900 43.79500 42.40100
C  51.98700 40.00000 42.18900
C  54.04500 42.62400 42.30300
O  54.68800 41.58100 42.19700
C  54.91000 43.73600 42.54500
N  49.82500 46.24700 42.71500
C  51.15200 46.28000 42.66000
C  51.72400 47.72400 42.68600
C  50.46900 48.58900 42.92500
C  49.32800 47.57900 42.82200
C  52.91500 47.86100 43.71600
C  50.28800 49.79300 41.90000
C  49.84700 51.13300 42.52200
N  47.01100 45.73200 43.00400
C  46.85500 47.09700 43.00600
C  45.52000 47.45900 43.33500
C  44.89800 46.26900 43.41300
C  45.82900 45.21400 43.15500
C  44.93100 48.82500 43.34700
C  43.53700 45.67700 43.53100
O  42.42400 46.22400 43.63200
C  43.78600 44.06900 43.40200
C  43.19500 43.31200 44.59000
O  41.97300 42.97500 44.56400
O  44.18200 42.96500 45.47400
C  43.72400 42.16300 46.57200
H  49.33300 40.25500 42.08900
H  53.00900 45.39200 42.43600
H  47.78700 49.01500 42.92300
H  44.90700 41.15500 43.59900
H  46.90200 39.65600 41.89300
H  47.83200 39.78200 44.56900
H  46.87000 38.50700 43.79300
H  46.10400 39.85200 44.69100
H  43.62400 41.17500 41.62000
H  44.78600 40.09600 41.10500
H  45.52100 42.97500 40.44500
H  44.09300 42.33200 39.70900
H  52.08000 39.56200 41.19500
H  51.22100 39.40900 42.69200
H  52.89500 39.76500 42.74400
H  54.96100 44.30400 41.61600
H  55.93600 43.43800 42.75800
H  54.53700 44.36700 43.35200
H  52.05600 48.04900 41.70000
H  50.46600 49.04400 43.91500
H  52.88000 48.84300 44.18800
H  53.85600 47.68800 43.19400
H  52.84500 47.07900 44.47300
H  49.63000 49.47200 41.09200
H  51.30900 50.05200 41.62100
H  49.13200 51.51500 41.79300
H  50.67400 51.83900 42.60500
H  49.44500 51.03000 43.53000
H  45.49100 49.32100 44.13900
H  43.89800 48.88200 43.69100
H  45.21200 49.38400 42.45400
H  43.23200 43.63500 42.56900
H  43.00400 42.72700 47.16500
H  44.65700 41.87100 47.05500
H  43.29900 41.24900 46.15700

