158

Mg 34.56300 48.70200 26.39000
C  35.01900 46.51700 29.11100
C  33.16000 50.97800 28.51100
C  33.75700 50.52800 23.74900
C  35.62200 45.99800 24.25200
N  34.04100 48.67000 28.57900
C  34.45100 47.73100 29.48800
C  34.00200 48.17700 30.88800
C  33.33400 49.58200 30.64600
C  33.49000 49.76300 29.14500
C  31.87500 49.72100 31.25500
C  35.22900 48.29300 31.85000
C  35.20800 47.66500 33.27600
H  35.29000 48.58100 34.44500
N  33.87500 50.59500 26.20100
C  33.31100 51.39300 27.16200
C  32.90300 52.65600 26.65100
C  33.15400 52.53300 25.21800
C  33.52600 51.20400 25.03100
C  32.24400 53.83000 27.49900
C  33.06800 53.54400 24.20100
O  33.21800 53.39100 22.97900
C  32.85400 54.91100 24.52200
N  34.54800 48.24800 24.23600
C  34.17000 49.25500 23.38000
C  34.52600 48.82900 21.89000
C  35.34300 47.47600 22.08900
C  35.13400 47.17800 23.61000
C  33.18300 48.74800 20.99300
C  36.86900 47.52200 21.62600
C  37.55800 46.29900 20.94900
N  35.15900 46.65700 26.60000
C  35.55500 45.69000 25.67500
C  35.86600 44.39700 26.30100
C  35.65700 44.69300 27.67800
C  35.28900 46.09300 27.81300
C  36.38600 43.16300 25.68800
C  35.74200 44.17800 29.05100
O  36.08600 43.07400 29.44900
C  35.20900 45.36600 29.99200
C  34.02900 44.81600 30.69700
O  33.07000 44.33800 30.13500
O  34.23700 44.96100 31.99500
C  33.15500 44.55700 32.90900
H  32.78800 51.63400 29.30200
H  33.46800 51.12800 22.88400
H  36.01600 45.20100 23.61700
H  33.33600 47.39300 31.24900
H  33.90200 50.39600 31.09600
H  31.13100 49.93700 30.48800
H  31.82600 50.52500 31.98900
H  31.71600 48.85800 31.90100
H  35.65400 49.29100 31.96400
H  36.03800 47.77200 31.33800
H  35.82800 46.76900 33.24500
H  34.23800 47.16700 33.28100
H  31.84100 53.44300 28.43500
H  31.45400 54.32900 26.93700
H  33.02400 54.55000 27.74300
H  33.66700 55.19200 25.19100
H  31.90900 55.09700 25.03200
H  32.80200 55.62200 23.69700
H  35.14600 49.61300 21.45500
H  34.87500 46.62100 21.60000
H  33.10600 47.82100 20.42500
H  33.35600 49.58800 20.32000
H  32.30900 49.05500 21.56800
H  37.39900 47.68000 22.56500
H  37.05000 48.50600 21.19300
H  36.84000 45.49600 20.78300
H  38.30800 45.78800 21.55300
H  37.99400 46.68400 20.02800
H  36.84300 43.36500 24.72000
H  35.60800 42.43000 25.47400
H  37.08400 42.63800 26.34000
H  35.98900 45.60600 30.71400
H  33.15700 43.46700 32.90800
H  32.26000 44.99800 32.47100
H  33.24700 44.93700 33.92600
Mg -10.53000 17.06900 40.59700
C  -7.12300 16.56300 40.49000
C  -10.14700 20.32000 39.93000
C  -13.80300 17.13700 39.94100
C  -10.79400 13.42500 40.71700
N  -8.80100 18.27700 39.97500
C  -7.48600 17.92200 40.15800
C  -6.57800 19.07500 39.92300
C  -7.52000 20.28700 40.12700
C  -8.89500 19.62600 39.94200
C  -7.42500 20.94700 41.54500
C  -5.94100 19.06600 38.50800
C  -4.42000 18.74100 38.49000
H  -3.93200 17.89400 37.30800
N  -11.81400 18.57000 39.98000
C  -11.48900 19.87300 39.88200
C  -12.64200 20.67800 39.76000
C  -13.70100 19.79600 39.68000
C  -13.13900 18.41800 39.88600
C  -12.62100 22.16700 39.75300
C  -15.20200 20.20600 39.61800
O  -15.47200 21.37400 39.40300
C  -16.32400 19.18000 39.76900
N  -12.06400 15.55500 40.35200
C  -13.30900 15.89200 40.08500
C  -14.34200 14.62500 40.18300
C  -13.28900 13.49700 40.24500
C  -11.99600 14.19200 40.52300
C  -15.36100 14.67100 41.43500
C  -13.22800 12.62900 38.99700
C  -13.05800 11.08000 39.17500
N  -9.24800 15.29400 40.71200
C  -9.48100 13.92500 40.75400
C  -8.24200 13.22900 40.94900
C  -7.24600 14.22000 40.89800
C  -7.89300 15.44200 40.60200
C  -8.01400 11.71700 41.21700
C  -5.88300 14.39600 40.91800
O  -4.93300 13.61000 41.16300
C  -5.72800 16.01600 40.76400
C  -5.01200 16.61400 41.91500
O  -3.99800 17.28600 41.79800
O  -5.53600 16.11300 43.06400
C  -4.84000 16.51600 44.31400
H  -10.06900 21.40800 39.88900
H  -14.89300 17.16700 39.87900
H  -10.82300 12.34100 40.84200
H  -5.76100 19.12500 40.64300
H  -7.41300 20.96900 39.28400
H  -6.37000 20.83300 41.79300
H  -8.08900 20.35500 42.17500
H  -7.76600 21.95000 41.28800
H  -6.03900 20.09400 38.16000
H  -6.47000 18.31600 37.91900
H  -4.18900 18.35800 39.48400
H  -3.92800 19.70400 38.35500
H  -13.38900 22.64300 40.36200
H  -12.69900 22.55700 38.73800
H  -11.73800 22.66300 40.15600
H  -16.26800 18.58600 38.85600
H  -17.22400 19.78200 39.89400
H  -16.27000 18.51000 40.62700
H  -14.80100 14.54300 39.19800
H  -13.51300 12.85200 41.09400
H  -15.68400 13.68400 41.76500
H  -16.30200 15.18400 41.23300
H  -14.82600 15.26000 42.18000
H  -12.47500 13.03300 38.32000
H  -14.19000 12.78900 38.51100
H  -13.91800 10.63400 39.67400
H  -12.20200 10.90400 39.82800
H  -12.80900 10.48300 38.29800
H  -6.97700 11.64300 41.54300
H  -8.15300 11.10000 40.32900
H  -8.65900 11.28900 41.98500
H  -5.12200 16.31500 39.90900
H  -3.79900 16.20000 44.25300
H  -5.35000 16.22400 45.23200
H  -4.88300 17.60500 44.30100

