158

Mg 0.87800 8.30800 27.22400
C  1.72500 10.17700 30.06400
C  0.82600 5.49000 29.31400
C  0.69300 6.47700 24.54700
C  1.59100 11.14100 25.31600
N  1.31400 7.94300 29.49000
C  1.33400 8.91900 30.45200
C  1.05500 8.29900 31.86100
C  1.13700 6.75000 31.54700
C  1.13900 6.67100 29.99300
C  2.27500 5.99200 32.23700
C  -0.32000 8.81300 32.48600
C  -0.68000 8.41600 33.91800
H  0.40600 8.17600 35.03200
N  0.72900 6.38000 27.00500
C  0.63000 5.38300 27.98200
C  0.30800 4.06400 27.29600
C  0.39500 4.33700 25.89200
C  0.54300 5.78600 25.74800
C  0.07300 2.66200 27.92300
C  0.37300 3.26600 24.73800
O  0.33600 3.66100 23.58700
C  0.34400 1.87000 25.00200
N  1.20900 8.74400 25.22900
C  0.91100 7.84100 24.26500
C  1.16200 8.35800 22.86000
C  1.15500 9.90000 23.14800
C  1.26000 9.94700 24.66400
C  2.54300 7.98000 22.21400
C  -0.07400 10.76700 22.73200
C  -1.43300 10.10000 22.67200
N  1.44600 10.27000 27.57700
C  1.78600 11.30000 26.68200
C  2.03200 12.52600 27.35200
C  2.14200 12.07700 28.68800
C  1.79900 10.69700 28.77100
C  2.22100 13.87600 26.83400
C  2.45800 12.53900 30.03400
O  2.87800 13.58500 30.46700
C  2.18700 11.32600 30.95500
C  3.34900 11.01400 31.88800
O  4.37300 10.36700 31.62700
O  3.14000 11.68400 33.07200
C  4.08100 11.46400 34.11500
H  0.62800 4.63800 29.96800
H  0.48400 5.86900 23.66400
H  1.70400 12.06300 24.74100
H  1.93000 8.48900 32.48300
H  0.27800 6.27300 32.01800
H  2.71400 6.63600 32.99900
H  2.96400 5.49400 31.55600
H  1.72600 5.18400 32.72000
H  -1.13400 8.57200 31.80200
H  -0.17300 9.89000 32.40400
H  -1.23900 7.48100 33.87400
H  -1.39100 9.12400 34.34200
H  0.82100 1.90100 27.70100
H  -0.80400 2.15900 27.51400
H  -0.08200 2.70300 29.00100
H  1.21700 1.45500 25.50500
H  0.43200 1.44700 24.00100
H  -0.58600 1.40200 25.32400
H  0.36800 8.07000 22.17000
H  2.00300 10.46800 22.76600
H  3.11700 8.80900 21.80000
H  2.28300 7.35300 21.36100
H  3.11500 7.37600 22.91800
H  0.13800 11.12200 21.72400
H  -0.29200 11.56700 23.43900
H  -1.84700 9.85000 21.69500
H  -2.20200 10.71200 23.14400
H  -1.33800 9.19100 23.26700
H  1.27400 14.41600 26.84400
H  2.68600 13.77100 25.85300
H  2.96400 14.39400 27.44000
H  1.32500 11.62000 31.55400
H  4.57100 12.42800 34.25100
H  4.78400 10.63200 34.14100
H  3.59500 11.31200 35.07800
Mg 24.98600 -5.14700 46.33700
C  27.26700 -2.83200 44.69100
C  22.75200 -4.49200 43.95300
C  23.40500 -7.86500 47.32200
C  27.83900 -6.04100 48.25800
N  25.06100 -3.82500 44.55300
C  25.98900 -2.88800 44.18700
C  25.44100 -2.03600 42.97600
C  23.93800 -2.41900 43.02800
C  23.89800 -3.65800 43.87300
C  22.92000 -1.36000 43.55500
C  26.07500 -2.43000 41.63900
C  26.34600 -1.31500 40.51800
H  25.79400 -1.57200 39.08600
N  23.18900 -5.95300 45.90200
C  22.42400 -5.50900 44.84800
C  21.23400 -6.27700 44.84900
C  21.32500 -7.22900 45.94400
C  22.67200 -7.10500 46.44500
C  20.00800 -6.00100 43.94800
C  20.31100 -8.21500 46.50500
O  19.24900 -8.43700 45.88500
C  20.57500 -9.15500 47.70900
N  25.56200 -6.75400 47.53600
C  24.73000 -7.76400 47.85200
C  25.35700 -8.92100 48.58000
C  26.81200 -8.24300 48.85600
C  26.76200 -6.94500 48.17300
C  24.49800 -9.42800 49.74600
C  28.01900 -9.08100 48.46200
C  28.18000 -10.46800 49.20200
N  27.06900 -4.48900 46.63000
C  27.99600 -4.84700 47.53800
C  29.21200 -4.06200 47.42500
C  28.94700 -3.27500 46.31900
C  27.64600 -3.59600 45.83000
C  30.56400 -4.25200 48.11700
C  29.55200 -2.32200 45.40800
O  30.69400 -1.87600 45.39900
C  28.48900 -2.03000 44.30800
C  28.11400 -0.63700 44.40800
O  27.83200 0.07000 45.35600
O  28.23500 -0.08400 43.04900
C  28.09800 1.42400 42.87500
H  22.05200 -4.25000 43.15000
H  23.00200 -8.83400 47.62300
H  28.74400 -6.37200 48.77000
H  25.63100 -0.98000 43.17000
H  23.66300 -2.77000 42.03300
H  23.39500 -0.38200 43.63400
H  22.57800 -1.59400 44.56400
H  22.04200 -1.32200 42.91000
H  25.53000 -3.25300 41.17600
H  27.03700 -2.90400 41.83300
H  27.39900 -1.07200 40.37100
H  25.89300 -0.42500 40.95400
H  19.39100 -5.22900 44.40800
H  19.44600 -6.92800 43.83500
H  20.42800 -5.73000 42.98000
H  20.89700 -8.58100 48.57800
H  21.25500 -9.91700 47.32900
H  19.60800 -9.61600 47.91100
H  25.59100 -9.73300 47.89100
H  26.80000 -8.18900 49.94500
H  23.41600 -9.29600 49.72900
H  24.94600 -9.17800 50.70800
H  24.47000 -10.51800 49.74700
H  28.92800 -8.58700 48.80600
H  28.13700 -9.46000 47.44700
H  28.03700 -11.27100 48.47900
H  27.48700 -10.48100 50.04400
H  29.21400 -10.52000 49.54200
H  30.93300 -5.21200 47.75500
H  30.40500 -4.30400 49.19400
H  31.22300 -3.41300 47.89100
H  28.81300 -2.40600 43.33700
H  28.62600 1.97900 43.65100
H  27.02900 1.63400 42.84500
H  28.55700 1.68500 41.92200

