158

Mg 27.49700 50.26900 26.98500
C  25.31700 51.44000 29.40500
C  29.77600 49.61100 29.40900
C  29.65000 49.56500 24.50200
C  25.33300 51.51700 24.58500
N  27.54900 50.56200 29.24500
C  26.43100 50.82600 30.01900
C  26.73300 50.68800 31.52700
C  28.28800 50.18500 31.47800
C  28.54200 50.11600 29.95500
C  29.38200 50.89900 32.34200
C  25.78700 49.64600 32.25400
C  25.12600 50.21900 33.45000
H  24.82900 49.31100 34.66000
N  29.40800 49.51400 26.96800
C  30.20100 49.36100 28.06200
C  31.52500 48.91900 27.66900
C  31.50900 48.99600 26.19800
C  30.17900 49.34500 25.81600
C  32.62700 48.64600 28.61800
C  32.71000 48.77900 25.26600
O  32.56300 48.83500 24.06400
C  34.08600 48.42400 25.78800
N  27.50500 50.46700 24.80700
C  28.46500 50.06800 24.00400
C  28.18900 50.43600 22.58300
C  26.68800 50.92600 22.60300
C  26.46300 50.92500 24.14200
C  29.29700 51.43800 22.08600
C  25.58200 50.11000 21.84600
C  24.90300 50.99000 20.72200
N  25.69900 51.24400 26.92000
C  24.94900 51.71300 25.91600
C  23.72700 52.26800 26.42700
C  23.81300 52.17600 27.78700
C  25.01000 51.54100 28.01900
C  22.61100 52.82400 25.57300
C  23.16500 52.47300 28.98800
O  22.05300 52.87500 29.25600
C  24.10600 52.03200 30.09700
C  24.36100 53.24700 30.90300
O  25.29800 54.02500 30.74500
O  23.43500 53.36000 31.97000
C  23.73200 54.35600 32.93100
H  30.47900 49.44000 30.22700
H  30.31700 49.40400 23.65200
H  24.59800 51.74400 23.81000
H  26.63800 51.65600 32.01900
H  28.31700 49.15500 31.83400
H  29.90000 51.58600 31.67400
H  30.05700 50.19400 32.82700
H  29.08800 51.53900 33.17400
H  26.28800 48.76300 32.65100
H  24.96700 49.37500 31.59000
H  24.15800 50.66500 33.22200
H  25.69400 51.09700 33.75900
H  32.44800 49.22700 29.52300
H  33.57300 49.01700 28.22400
H  32.72800 47.57300 28.77900
H  34.07000 47.62300 26.52700
H  34.42600 49.31800 26.31100
H  34.65900 48.21400 24.88400
H  28.30300 49.52000 22.00300
H  26.74000 51.96900 22.29300
H  28.78200 52.38800 21.94700
H  29.76300 51.12500 21.15200
H  30.07200 51.43100 22.85300
H  24.84100 49.87900 22.61100
H  25.81400 49.16900 21.34700
H  25.30600 51.99800 20.82600
H  23.84500 50.86100 20.94600
H  25.03700 50.67000 19.68900
H  22.89900 52.61400 24.54300
H  22.68100 53.91100 25.61200
H  21.60000 52.61600 25.92200
H  23.50700 51.34600 30.69500
H  23.81800 55.35000 32.49100
H  24.59800 54.15300 33.56000
H  22.82800 54.34800 33.54100
Mg -1.63700 33.70200 26.51700
C  -3.85200 32.21600 28.74700
C  -0.51400 35.69500 29.05700
C  0.05600 35.50100 24.23100
C  -3.40700 32.08200 23.75700
N  -2.37000 34.08300 28.54000
C  -3.07100 33.14400 29.34300
C  -2.87300 33.42300 30.85100
C  -2.16500 34.81600 30.84600
C  -1.59900 34.85400 29.42500
C  -3.08600 36.11600 30.96700
C  -2.06100 32.24000 31.48600
C  -1.41800 32.40300 32.92800
H  -1.83600 31.55300 34.16000
N  -0.28500 35.26000 26.60800
C  0.00300 35.96300 27.73600
C  1.06000 36.88800 27.44100
C  1.19700 36.83600 26.04400
C  0.23600 35.91300 25.53700
C  1.79700 37.68700 28.43900
C  2.19300 37.60900 25.20000
O  2.15200 37.66500 23.96600
C  3.36400 38.34300 25.86300
N  -1.67000 33.85700 24.33500
C  -0.80300 34.55700 23.66200
C  -0.84300 34.32000 22.15700
C  -1.65600 32.97500 22.10000
C  -2.38000 32.96900 23.46300
C  -1.29700 35.50600 21.26600
C  -0.71000 31.74700 21.66100
C  -0.06400 30.90700 22.78200
N  -3.42100 32.50600 26.27600
C  -3.91500 31.85100 25.15400
C  -4.93500 30.95300 25.63600
C  -4.96800 31.03900 27.02000
C  -3.97800 31.96900 27.35800
C  -5.84100 30.08500 24.68000
C  -5.63600 30.55900 28.20200
O  -6.60500 29.89200 28.28400
C  -4.86500 31.21600 29.38400
C  -5.81800 31.95500 30.31700
O  -6.46700 32.93200 30.00600
O  -5.93800 31.37400 31.56100
C  -6.88600 31.93000 32.55200
H  -0.16400 36.19200 29.96400
H  0.68100 36.02500 23.50400
H  -3.77700 31.36100 23.02400
H  -3.79200 33.52300 31.42900
H  -1.30900 34.94400 31.50800
H  -2.97000 36.75500 30.09200
H  -2.68500 36.64600 31.83100
H  -4.15500 35.90400 30.99600
H  -1.21900 31.90400 30.88100
H  -2.81500 31.45300 31.50700
H  -1.66200 33.41300 33.25700
H  -0.33100 32.37000 32.99600
H  2.69300 37.21600 28.84400
H  1.18400 37.94500 29.30200
H  2.07000 38.65600 28.02200
H  3.00800 39.34700 26.09600
H  4.17500 38.57100 25.17100
H  3.85900 37.81800 26.67900
H  0.21600 34.07500 22.08200
H  -2.38400 32.96700 21.29000
H  -1.67100 35.12100 20.31800
H  -0.42700 36.15700 21.17700
H  -2.23400 35.90400 21.65500
H  0.16500 32.07100 21.09800
H  -1.28100 31.13200 20.96600
H  1.01300 30.79400 22.66300
H  -0.49800 29.91300 22.67500
H  -0.27600 31.24300 23.79700
H  -6.85100 29.99600 25.08100
H  -5.46800 29.06100 24.69600
H  -5.89300 30.47600 23.66400
H  -4.43100 30.44900 30.02600
H  -6.26300 32.55400 33.19300
H  -7.20000 31.06500 33.13600
H  -7.66600 32.53300 32.08600

