158

Mg 2.85300 -1.81200 44.27600
C  6.39300 -1.21800 43.79300
C  2.25600 0.86800 42.17100
C  -0.20800 -2.93400 43.84300
C  3.78500 -5.07400 45.44400
N  4.20000 -0.42500 42.99500
C  5.59200 -0.34300 43.04400
C  6.16600 0.68800 42.09700
C  4.84800 1.54100 41.80400
C  3.68700 0.65200 42.42000
C  4.79100 2.93600 42.47900
C  6.83500 -0.03800 40.87900
C  8.29100 0.28000 40.65400
H  8.66500 0.68100 39.24500
N  1.14300 -0.99200 43.39400
C  1.07400 0.10900 42.52900
C  -0.26600 0.33300 42.10700
C  -1.03000 -0.66000 42.71200
C  -0.03400 -1.62000 43.33500
C  -0.62800 1.50300 41.11800
C  -2.51300 -0.76900 42.53700
O  -3.04600 -0.08900 41.65600
C  -3.32600 -1.77500 43.33900
N  1.97200 -3.86700 44.38300
C  0.62900 -3.91600 44.38500
C  0.06700 -5.10500 45.17500
C  1.35800 -5.90400 45.51100
C  2.49500 -4.91800 45.07600
C  -0.75300 -4.74900 46.41700
C  1.57300 -7.13300 44.71500
C  1.27000 -8.43200 45.52100
N  4.66000 -2.85200 44.68200
C  4.87000 -4.13200 45.28300
C  6.26900 -4.26700 45.65900
C  6.84700 -3.12400 45.12900
C  5.86500 -2.35100 44.44100
C  6.94600 -5.35600 46.51200
C  8.16700 -2.52600 45.02600
O  9.23500 -2.90600 45.56000
C  7.97200 -1.24200 44.14200
C  8.34100 0.00400 44.98300
O  7.86800 0.31300 46.04400
O  9.19400 0.73400 44.22800
C  9.26200 2.11800 44.78700
H  2.06200 1.62100 41.40400
H  -1.19800 -3.35400 43.65300
H  3.99200 -6.05000 45.88800
H  6.92200 1.21700 42.67700
H  4.74100 1.66800 40.72700
H  4.02300 3.01000 43.24900
H  4.43100 3.62800 41.71800
H  5.71300 3.28900 42.94100
H  6.37100 0.15700 39.91200
H  6.61700 -1.10600 40.84900
H  8.89800 -0.62200 40.72800
H  8.65600 1.05800 41.32400
H  -1.39200 1.27300 40.37500
H  0.24100 1.80400 40.53300
H  -1.02400 2.35600 41.66700
H  -2.90300 -1.60300 44.32900
H  -3.16000 -2.75500 42.89200
H  -4.36600 -1.47300 43.21400
H  -0.60200 -5.56900 44.45000
H  1.40000 -6.13400 46.57600
H  -0.89800 -5.56800 47.12100
H  -1.74200 -4.50100 46.03000
H  -0.32000 -3.87500 46.90200
H  2.58600 -7.23100 44.32600
H  0.89700 -7.10100 43.86000
H  2.12900 -9.10400 45.52400
H  0.50700 -8.82100 44.84800
H  0.77300 -8.25200 46.47400
H  7.35400 -5.94900 45.69200
H  6.22500 -5.89200 47.12800
H  7.65700 -4.84300 47.15900
H  8.68600 -1.43700 43.34200
H  8.33000 2.66700 44.65400
H  9.87400 2.86000 44.27500
H  9.57400 1.87600 45.80300
Mg 0.46300 7.45300 25.50700
C  1.32800 9.57600 28.25100
C  0.81000 4.69800 27.63000
C  -0.32000 5.50900 22.96200
C  0.49200 10.25400 23.46000
N  1.03100 7.22400 27.60500
C  1.30700 8.14100 28.58100
C  1.41600 7.59400 29.95000
C  1.60700 6.10800 29.75800
C  1.11800 5.97900 28.24400
C  3.08500 5.53700 30.01100
C  0.23300 7.92600 30.91600
C  0.60000 8.24400 32.39600
H  1.77300 7.47000 33.15100
N  0.17300 5.37600 25.26400
C  0.36200 4.46400 26.26500
C  -0.03100 3.16700 25.71500
C  -0.25800 3.29600 24.32800
C  -0.17100 4.75300 24.12600
C  -0.00800 1.90600 26.58800
C  -0.39800 2.31800 23.24900
O  -0.58900 2.60900 22.08000
C  -0.22800 0.81600 23.48300
N  0.32000 7.74300 23.41000
C  -0.10900 6.80700 22.59200
C  -0.39800 7.35700 21.13700
C  -0.41500 8.89300 21.44300
C  0.26200 8.99500 22.79500
C  0.55600 7.00400 19.96900
C  -1.85800 9.49400 21.42400
C  -1.94200 10.88700 20.80100
N  0.94100 9.39300 25.70000
C  0.81100 10.49400 24.78900
C  0.98600 11.71500 25.46700
C  1.22400 11.42300 26.80900
C  1.14100 10.02300 26.89800
C  0.99500 13.07000 24.88300
C  1.49600 12.01100 28.18200
O  1.81800 13.10900 28.60000
C  1.54000 10.76500 29.11800
C  2.76700 10.82000 29.95300
O  3.90300 10.54300 29.66100
O  2.46500 11.40100 31.21500
C  3.50000 11.72800 32.22400
H  1.00000 3.83900 28.27700
H  -0.66500 4.92700 22.10500
H  0.36600 11.21600 22.95800
H  2.32100 8.06100 30.34000
H  0.96700 5.52100 30.41700
H  3.60100 5.53200 29.05100
H  2.98400 4.50500 30.34700
H  3.61200 6.15300 30.74000
H  -0.47500 7.09800 30.89600
H  -0.16600 8.88900 30.59700
H  -0.31600 8.06800 32.96100
H  0.80700 9.30600 32.52200
H  -0.71600 1.16800 26.21100
H  -0.32300 2.19700 27.59000
H  0.99700 1.48500 26.64100
H  -1.12900 0.45900 23.98200
H  0.67200 0.58000 24.05100
H  -0.22300 0.27700 22.53500
H  -1.36500 6.98700 20.79400
H  0.22600 9.37600 20.70600
H  1.44300 7.62700 20.07900
H  0.08100 7.22500 19.01300
H  0.96400 6.00100 20.09100
H  -2.27400 9.63400 22.42100
H  -2.56200 8.83200 20.91900
H  -2.77600 11.01500 20.11100
H  -1.09100 11.08400 20.14900
H  -1.87700 11.59400 21.62800
H  0.03100 13.05100 24.37400
H  1.82500 13.08300 24.17700
H  0.96600 13.97400 25.49100
H  0.69300 10.86400 29.79700
H  4.44900 11.86700 31.70500
H  3.66200 10.96800 32.98800
H  3.21500 12.68600 32.65800

