158

Mg 16.97300 -0.89500 27.45400
C  16.11600 1.17200 30.16300
C  18.74300 -2.95700 29.75700
C  18.36400 -2.58900 24.95300
C  15.29800 1.23100 25.28300
N  17.46800 -0.75700 29.68100
C  16.95200 0.16800 30.58100
C  17.38300 -0.25500 32.07200
C  18.34300 -1.42400 31.71700
C  18.05200 -1.80600 30.27200
C  19.80000 -1.03600 31.85700
C  16.25200 -0.59000 33.06300
C  16.32000 -0.21500 34.53200
H  17.72500 0.21500 34.99800
N  18.39400 -2.49300 27.37200
C  18.94600 -3.21600 28.36400
C  19.70800 -4.28100 27.78500
C  19.63400 -4.23700 26.34600
C  18.83300 -3.04100 26.13700
C  20.38500 -5.33700 28.68100
C  20.15700 -5.14600 25.23300
O  20.05600 -4.96000 24.01700
C  20.77700 -6.39600 25.65000
N  16.86500 -0.75200 25.48000
C  17.56900 -1.53800 24.57700
C  17.22200 -1.20700 23.11200
C  16.21900 -0.05900 23.25900
C  16.11000 0.17500 24.75600
C  18.52800 -0.82600 22.42600
C  14.86700 -0.31700 22.54400
C  13.75100 -1.01000 23.35800
N  15.81200 0.78600 27.67300
C  15.24400 1.58600 26.70000
C  14.48200 2.63400 27.34600
C  14.82800 2.53400 28.72400
C  15.69800 1.45600 28.82100
C  13.68500 3.69400 26.58200
C  14.60200 3.13200 30.05600
O  14.01500 4.15000 30.37500
C  15.45900 2.22300 31.07400
C  16.48600 3.10000 31.75500
O  17.53600 3.57100 31.25100
O  16.06200 3.45900 33.02300
C  16.68200 4.59300 33.70400
H  19.24300 -3.57500 30.50600
H  18.62500 -3.12800 24.03900
H  14.66900 1.83300 24.62300
H  17.94400 0.63900 32.34300
H  18.07300 -2.25300 32.37000
H  19.85300 -0.01100 32.22300
H  20.37900 -1.01400 30.93400
H  20.28700 -1.68000 32.58900
H  16.21800 -1.67700 33.13500
H  15.33100 -0.29800 32.55700
H  15.96000 -1.03300 35.15700
H  15.63300 0.62300 34.65100
H  19.58200 -5.91500 29.13900
H  20.87800 -4.79500 29.48800
H  21.13200 -5.93200 28.15500
H  21.77900 -6.30300 26.06800
H  20.76600 -7.16800 24.88000
H  20.03000 -6.72500 26.37300
H  16.75100 -2.03000 22.57600
H  16.55300 0.85900 22.77600
H  18.51400 0.18900 22.02700
H  18.75700 -1.47500 21.58100
H  19.41600 -0.86000 23.05600
H  14.95800 -0.82400 21.58300
H  14.41400 0.60500 22.17900
H  12.91300 -1.38500 22.77000
H  13.32700 -0.19800 23.94900
H  14.17900 -1.79200 23.98400
H  14.25000 4.14100 25.76400
H  13.34800 4.53200 27.19200
H  12.81200 3.33300 26.03900
H  14.84400 1.74400 31.83600
H  17.74700 4.61400 33.47200
H  16.59300 4.55800 34.79000
H  16.19500 5.52700 33.42400
Mg 47.48300 16.80300 28.31300
C  45.25600 16.35700 31.06500
C  49.53600 18.52200 30.22700
C  49.25500 17.49500 25.54100
C  45.34200 14.85800 26.42200
N  47.27200 17.46300 30.39700
C  46.38100 17.08400 31.36500
C  46.91500 17.50800 32.77400
C  48.23400 18.27100 32.41100
C  48.41400 18.12200 30.94600
C  48.15000 19.81300 32.80500
C  47.03900 16.34100 33.85000
C  46.57300 16.53000 35.30500
H  46.23600 17.86900 35.86200
N  49.29300 17.77700 27.93900
C  49.97200 18.43700 28.86800
C  51.09700 19.06000 28.28600
C  51.09100 18.75100 26.87600
C  49.85300 17.99400 26.68900
C  52.09700 19.79900 29.14900
C  52.02600 19.07500 25.85900
O  51.93900 18.68000 24.71400
C  53.25400 19.89000 26.27500
N  47.27800 16.25200 26.28200
C  48.16000 16.60900 25.34900
C  47.68600 16.20900 23.99400
C  46.47800 15.28200 24.22500
C  46.39500 15.36000 25.74100
C  47.29000 17.42800 23.13100
C  46.66400 13.78000 23.70000
C  45.43700 12.99900 23.18700
N  45.67100 15.91900 28.55600
C  44.87400 15.21000 27.70100
C  43.60900 14.76100 28.30400
C  43.76200 15.25700 29.57600
C  44.95000 15.91300 29.70700
C  42.48000 13.92700 27.69900
C  43.07900 15.16800 30.84400
O  42.06900 14.58000 31.18100
C  44.09200 15.84700 31.89500
C  43.22700 16.80600 32.60700
O  42.78800 17.87100 32.19600
O  42.92300 16.32600 33.87200
C  42.04100 17.14100 34.76300
H  50.25100 18.96800 30.92200
H  49.70100 17.76500 24.58200
H  44.50600 14.31300 25.97700
H  46.17500 18.18200 33.20600
H  49.01000 17.71100 32.93300
H  48.65900 20.39800 32.03900
H  48.91400 19.94900 33.57000
H  47.17200 20.19400 33.09800
H  48.07800 16.05600 33.68400
H  46.41900 15.51700 33.49500
H  47.18400 16.07400 36.08400
H  45.68300 15.90200 35.30600
H  52.29000 19.26500 30.07900
H  51.78800 20.81800 29.38600
H  53.10400 19.66500 28.75400
H  53.57300 20.38300 25.35700
H  54.04400 19.29100 26.72700
H  52.90100 20.75400 26.83900
H  48.46500 15.63600 23.49200
H  45.54000 15.70800 23.86800
H  47.04100 18.29100 23.74700
H  46.43900 17.17800 22.49700
H  48.09700 17.54900 22.40800
H  47.04400 13.07900 24.44300
H  47.36000 13.78200 22.86100
H  45.66600 12.72300 22.15800
H  44.54100 13.61900 23.20700
H  45.24200 12.08600 23.75000
H  42.82400 13.40800 26.80500
H  41.61000 14.49600 27.37300
H  42.04700 13.26600 28.45000
H  44.54900 15.22600 32.66600
H  41.08400 16.69400 35.03300
H  41.88600 18.14000 34.35600
H  42.58300 17.24400 35.70200

