158

Mg 9.68800 48.37400 26.02300
C  7.82600 48.76400 28.99000
C  12.21400 49.96300 27.55500
C  11.44000 47.97100 23.06400
C  6.68300 47.83100 24.26300
N  9.90900 49.26800 28.06200
C  9.13400 49.11500 29.12100
C  9.84700 49.55200 30.42500
C  11.01000 50.39500 29.85700
C  11.03700 49.94100 28.38900
C  10.75000 51.91400 30.06300
C  10.19100 48.29600 31.30300
C  10.09400 48.37900 32.85000
H  10.14400 47.03600 33.67900
N  11.55300 48.90100 25.32000
C  12.46200 49.52900 26.15200
C  13.78000 49.43400 25.48600
C  13.59200 48.81000 24.26700
C  12.14600 48.49700 24.18600
C  15.11000 49.86700 26.17900
C  14.54600 48.50400 23.09100
O  14.25200 48.09000 21.95900
C  16.03800 48.83200 23.24400
N  9.24100 48.07800 23.94000
C  10.10600 47.89000 22.93100
C  9.39700 47.41100 21.66100
C  7.84600 47.51400 22.07400
C  7.89800 47.81800 23.57500
C  9.78900 48.27100 20.43000
C  7.09000 46.24900 21.57800
C  6.87700 46.01700 20.10100
N  7.67400 48.32900 26.49400
C  6.53400 48.12800 25.63400
C  5.39200 48.01400 26.49000
C  5.84300 48.24500 27.78300
C  7.19500 48.43300 27.73800
C  3.98700 47.62000 26.04100
C  5.46600 48.29000 29.20300
O  4.29800 48.17000 29.66200
C  6.76800 48.58300 29.99200
C  6.88400 47.31000 30.76700
O  7.09900 46.17900 30.35200
O  6.84700 47.54500 32.13400
C  7.08400 46.28100 32.90400
H  13.04900 50.39000 28.11400
H  12.07100 47.70600 22.21400
H  5.72800 47.67100 23.75800
H  9.17000 50.14700 31.03900
H  11.97500 50.07200 30.24700
H  10.02900 52.03100 30.87200
H  10.35800 52.24900 29.10200
H  11.63700 52.48800 30.33100
H  11.25300 48.08800 31.17400
H  9.73100 47.37700 30.94000
H  9.20700 48.95600 33.11400
H  11.00500 48.84000 33.23000
H  15.77600 49.01100 26.28900
H  14.94900 50.42400 27.10200
H  15.55100 50.55900 25.46200
H  16.51300 48.72200 22.26900
H  16.48000 48.10300 23.92300
H  16.23000 49.88500 23.45000
H  9.67500 46.37600 21.46100
H  7.37000 48.43400 21.73400
H  10.58300 48.98000 20.66200
H  8.95400 48.82500 20.00000
H  10.25200 47.65800 19.65700
H  6.11800 46.28400 22.06900
H  7.54900 45.34100 21.96900
H  5.87400 45.61800 19.94800
H  7.61100 45.31600 19.70400
H  6.99300 47.00300 19.65200
H  3.89900 47.08500 25.09500
H  3.44000 48.50200 25.70900
H  3.54900 47.04400 26.85600
H  6.57000 49.42100 30.66100
H  7.42500 46.63800 33.87500
H  7.91100 45.68300 32.52100
H  6.15100 45.72400 32.99500
Mg -11.69900 39.05800 41.79800
C  -9.92000 36.25900 40.64500
C  -9.32700 41.06100 40.50000
C  -13.77200 41.67000 42.45400
C  -14.26300 36.78200 42.71600
N  -10.01300 38.66000 40.47100
C  -9.41100 37.48200 40.18400
C  -8.11700 37.71900 39.36800
C  -7.82800 39.21400 39.59300
C  -9.12600 39.66600 40.26500
C  -6.50100 39.61300 40.21200
C  -8.20800 37.06700 37.96200
C  -6.96700 36.13600 37.65600
H  -6.08000 36.55600 36.58000
N  -11.49100 41.10100 41.59500
C  -10.43300 41.71100 41.05200
C  -10.61900 43.14700 41.27500
C  -11.87000 43.39000 41.87000
C  -12.49900 41.99900 41.97900
C  -9.56600 44.09400 40.81500
C  -12.35000 44.71100 42.30500
O  -11.67500 45.71000 41.97500
C  -13.58600 45.02000 42.99900
N  -13.79900 39.16900 42.20100
C  -14.38300 40.39200 42.50200
C  -15.79500 40.16000 43.01000
C  -16.03400 38.62200 42.74000
C  -14.60200 38.11700 42.52000
C  -16.18400 40.64600 44.46900
C  -17.00100 38.23200 41.62000
C  -18.10100 37.32500 42.09600
N  -12.16900 36.87400 41.65900
C  -13.09100 36.16200 42.32300
C  -12.73200 34.76400 42.34300
C  -11.54000 34.70200 41.64300
C  -11.15600 36.03000 41.28700
C  -13.48700 33.62500 43.04500
C  -10.45900 33.82100 41.14000
O  -10.34500 32.63200 41.12700
C  -9.43400 34.82100 40.36000
C  -8.13600 34.56200 40.99600
O  -7.80200 34.99900 42.11700
O  -7.34700 33.78700 40.10400
C  -6.07000 33.38100 40.60800
H  -8.42400 41.62400 40.25400
H  -14.36300 42.55100 42.71500
H  -14.84000 36.03000 43.25800
H  -7.42600 37.08300 39.92200
H  -7.82400 39.83400 38.69600
H  -6.61200 40.21000 41.11700
H  -5.96500 40.27600 39.53300
H  -5.89000 38.75500 40.49400
H  -8.24300 37.77600 37.13500
H  -9.13700 36.50500 38.06100
H  -7.41300 35.14500 37.57100
H  -6.39400 35.99400 38.57200
H  -8.59100 43.72400 41.13200
H  -9.73100 45.14800 41.03900
H  -9.65500 44.17500 39.73100
H  -14.45300 44.53900 42.54700
H  -13.92500 46.05600 43.00300
H  -13.54300 44.62800 44.01600
H  -16.48100 40.64700 42.31700
H  -16.45300 38.31600 43.69900
H  -15.33700 41.13400 44.95100
H  -16.56400 39.77100 44.99700
H  -17.00400 41.36300 44.42300
H  -16.43500 37.66600 40.88000
H  -17.51000 39.13500 41.28300
H  -19.03900 37.76600 42.43500
H  -17.74500 36.70400 42.91800
H  -18.34500 36.80100 41.17200
H  -13.01300 32.64600 42.96700
H  -14.51900 33.56100 42.69900
H  -13.48900 33.85300 44.11100
H  -9.51000 34.48000 39.32700
H  -5.75600 34.03700 41.41900
H  -5.28800 33.35500 39.84900
H  -6.22700 32.37500 40.99600

