158

Mg 26.20300 49.32200 26.56000
C  23.91100 50.48900 29.01200
C  28.44700 48.62900 28.92500
C  28.37700 48.39000 24.09700
C  24.17700 50.76100 23.98700
N  26.16700 49.56700 28.71200
C  25.12600 49.92600 29.56800
C  25.52500 49.65600 31.06200
C  27.03500 49.32700 30.90100
C  27.19800 49.12300 29.41400
C  28.01300 50.31200 31.49700
C  24.57900 48.57600 31.81400
C  24.03400 48.89100 33.23200
H  24.96000 49.32000 34.32600
N  28.18200 48.55500 26.46300
C  28.94500 48.27800 27.58300
C  30.12900 47.63600 27.13700
C  30.15400 47.66400 25.75100
C  28.84500 48.22100 25.36100
C  31.09300 47.09500 28.16800
C  31.29600 47.45500 24.76100
O  31.12800 47.45500 23.54300
C  32.54800 46.84900 25.17300
N  26.20200 49.60800 24.28600
C  27.19100 49.02500 23.55800
C  26.83800 49.07600 22.00600
C  25.45200 49.73300 21.98500
C  25.20100 50.01800 23.44700
C  27.90800 49.90800 21.15500
C  24.32000 48.74200 21.41300
C  23.30100 48.07100 22.29800
N  24.43500 50.39200 26.47300
C  23.69400 50.82100 25.38500
C  22.58000 51.58100 25.82600
C  22.59700 51.36800 27.21700
C  23.74500 50.64900 27.57700
C  21.60400 52.25900 25.01400
C  21.81900 51.62800 28.43200
O  20.69300 52.19800 28.53700
C  22.64900 51.04400 29.60600
C  22.94200 52.06000 30.68500
O  23.86700 52.86600 30.55900
O  22.22100 51.86200 31.78000
C  22.51200 52.64600 32.96000
H  29.18600 48.43600 29.70600
H  28.93900 47.95100 23.27000
H  23.47000 51.03900 23.20200
H  25.28100 50.62800 31.49200
H  27.14000 48.37000 31.41100
H  27.38300 51.14700 31.80400
H  28.65500 50.69200 30.70200
H  28.73000 49.89900 32.20700
H  25.14400 47.64500 31.86700
H  23.73000 48.35300 31.16700
H  23.40300 48.09400 33.62700
H  23.37300 49.74700 33.10200
H  31.19200 46.02600 27.98100
H  30.85900 47.14600 29.23100
H  32.12000 47.46000 28.17000
H  33.06800 47.70000 25.61300
H  33.04200 46.41500 24.30500
H  32.38700 46.06000 25.90700
H  26.79400 48.03900 21.67300
H  25.40500 50.60600 21.33400
H  27.54400 50.84900 20.74400
H  28.20900 49.36800 20.25700
H  28.83000 50.07300 21.71200
H  24.75100 48.01100 20.72900
H  23.67100 49.30900 20.74600
H  22.85000 47.16800 21.88800
H  22.54200 48.83100 22.48400
H  23.82400 47.91600 23.24200
H  20.65000 51.77900 25.23400
H  21.74200 52.22800 23.93300
H  21.55900 53.32900 25.21900
H  22.03100 50.30400 30.11400
H  23.01300 51.96400 33.64800
H  21.55600 52.93700 33.39500
H  23.14300 53.53100 32.88000
Mg -5.29000 25.56100 26.96100
C  -3.93700 27.27900 29.65900
C  -7.08900 23.72800 29.15100
C  -6.34700 23.73200 24.35000
C  -3.23600 27.30000 24.85000
N  -5.51100 25.54000 29.19500
C  -4.87800 26.33300 30.08500
C  -5.33200 26.00000 31.53900
C  -6.00600 24.57000 31.29800
C  -6.17600 24.55800 29.76600
C  -5.21200 23.30000 31.90000
C  -6.30000 27.03000 32.06500
C  -6.30500 27.10500 33.60200
H  -5.70000 25.99300 34.42400
N  -6.64200 24.08300 26.82200
C  -7.27600 23.41800 27.77200
C  -8.22700 22.58000 27.23600
C  -8.08400 22.57600 25.80400
C  -7.00800 23.51800 25.61800
C  -9.22900 21.78100 28.12200
C  -8.86100 21.88100 24.76400
O  -8.62400 22.12900 23.59500
C  -9.81300 20.81100 25.14700
N  -4.81100 25.47600 24.91400
C  -5.44800 24.66400 24.02500
C  -5.04600 24.93100 22.57100
C  -4.22100 26.24400 22.76000
C  -4.06500 26.39800 24.24100
C  -4.20100 23.78100 21.88200
C  -4.70000 27.54300 22.05400
C  -4.01700 27.71700 20.67700
N  -3.80400 26.89400 27.17100
C  -3.14600 27.65600 26.21700
C  -2.45100 28.76500 26.82100
C  -2.71700 28.67200 28.17700
C  -3.51400 27.50700 28.33700
C  -1.72200 29.89200 26.17600
C  -2.54800 29.24900 29.53800
O  -1.98300 30.27900 29.93400
C  -3.37600 28.37300 30.47600
C  -2.48900 28.03900 31.64300
O  -1.50300 27.36000 31.60600
O  -3.07000 28.58700 32.80200
C  -2.40100 28.32300 34.09900
H  -7.62600 23.17700 29.92600
H  -6.60000 23.10200 23.49500
H  -2.66600 27.94300 24.17600
H  -4.39300 25.95000 32.09000
H  -6.99800 24.65900 31.74100
H  -4.29400 23.80600 32.19800
H  -4.97400 22.58200 31.11500
H  -5.73000 22.77100 32.70000
H  -7.27200 26.75600 31.65500
H  -5.93300 27.97800 31.67200
H  -7.34500 27.11600 33.92700
H  -5.71600 27.99700 33.81300
H  -10.06100 22.47100 28.26200
H  -8.87400 21.73000 29.15100
H  -9.42100 20.79100 27.70800
H  -9.35200 19.94800 25.62600
H  -10.34200 20.49300 24.24800
H  -10.50400 21.31800 25.82100
H  -5.94200 25.16200 21.99400
H  -3.22100 26.07600 22.36000
H  -4.27800 22.89200 22.50700
H  -3.11900 23.91200 21.89300
H  -4.53100 23.49600 20.88300
H  -4.43400 28.44300 22.60900
H  -5.77500 27.36300 22.07600
H  -3.06200 28.21400 20.85000
H  -4.66900 28.23100 19.97100
H  -3.70800 26.75600 20.26600
H  -0.66000 29.74400 25.98100
H  -1.88600 30.83100 26.70500
H  -2.14300 30.24800 25.23600
H  -4.14100 29.08200 30.79100
H  -3.13000 28.26000 34.90700
H  -1.67100 29.08600 34.37000
H  -1.85800 27.38000 34.04700

