158

Mg 40.32600 7.36900 29.43500
C  41.95700 9.33000 31.89300
C  38.15400 6.20700 31.73100
C  38.79300 5.93100 26.86900
C  42.96100 8.30500 27.22100
N  40.07000 7.80300 31.55700
C  40.91800 8.54600 32.42900
C  40.42900 8.50100 33.91400
C  39.29700 7.38200 33.84200
C  39.14500 7.09200 32.27300
C  39.67800 6.14000 34.64100
C  39.97300 9.86800 34.53500
C  39.07700 9.78300 35.84300
H  39.45300 10.75100 36.98700
N  38.71300 6.23300 29.25800
C  37.89200 5.91100 30.33400
C  36.78700 5.15800 29.89000
C  36.91500 5.09000 28.46500
C  38.19200 5.71400 28.12700
C  35.62200 4.65300 30.74700
C  35.96300 4.52400 27.47400
O  36.25500 4.39900 26.29800
C  34.57700 4.04200 27.88900
N  40.95700 6.98300 27.36300
C  40.02400 6.51900 26.49900
C  40.53800 6.45700 25.04600
C  41.92700 7.07300 25.12000
C  41.97800 7.53700 26.63600
C  40.45900 4.99400 24.45500
C  42.28700 8.29200 24.14900
C  41.45400 9.62200 24.43200
N  42.09200 8.50300 29.50100
C  43.06800 8.77500 28.51500
C  43.98800 9.77100 29.01800
C  43.58300 9.97700 30.30100
C  42.43400 9.22300 30.55200
C  45.04000 10.42400 28.17000
C  43.88600 10.78000 31.47900
O  44.80400 11.57700 31.63100
C  42.91700 10.35100 32.57900
C  43.74100 9.62500 33.61300
O  44.33900 8.50600 33.54100
O  43.76200 10.44300 34.75900
C  44.26800 9.84600 36.00800
H  37.51200 5.68200 32.44100
H  38.25900 5.60900 25.97300
H  43.74600 8.70400 26.57600
H  41.30400 8.23200 34.50600
H  38.33800 7.78700 34.16600
H  39.23600 6.18600 35.63600
H  40.76200 6.16600 34.75600
H  39.31700 5.13800 34.41100
H  39.48900 10.31300 33.66600
H  40.83800 10.45100 34.85100
H  38.74100 8.80100 36.17400
H  38.18600 10.26600 35.44000
H  35.63800 4.86300 31.81600
H  35.64600 3.57000 30.63000
H  34.70100 5.13200 30.41300
H  34.04500 3.52800 27.08800
H  34.14000 5.00500 28.15200
H  34.72800 3.33600 28.70600
H  39.75200 7.04500 24.57200
H  42.76900 6.38300 25.06900
H  41.47500 4.67900 24.21800
H  39.79600 5.04300 23.59000
H  40.10300 4.30600 25.22100
H  41.98900 8.02100 23.13600
H  43.34100 8.57200 24.14400
H  40.82000 9.55400 25.31600
H  40.85300 9.68600 23.52500
H  42.02100 10.54400 24.56000
H  45.84700 9.69700 28.08500
H  45.29700 11.26000 28.82000
H  44.67000 10.75700 27.20100
H  42.39000 11.21200 32.99000
H  45.00300 9.07300 35.78400
H  43.58200 9.30900 36.66300
H  44.82500 10.59200 36.57500
Mg -8.22400 40.25300 42.32700
C  -7.10100 36.78000 41.40300
C  -5.74900 41.46700 40.71500
C  -9.87600 43.06400 42.80800
C  -11.14200 38.59400 43.56300
N  -6.63300 39.18700 41.15800
C  -6.31200 37.85500 40.88300
C  -5.02200 37.80200 40.08300
C  -4.58800 39.31900 39.93400
C  -5.71500 40.04500 40.63300
C  -3.24700 39.62400 40.55200
C  -5.32000 37.05000 38.74100
C  -4.30000 35.88100 38.44500
H  -3.31700 35.99800 37.28900
N  -7.82500 42.05900 41.93100
C  -6.73500 42.35500 41.19800
C  -6.70500 43.79800 41.05800
C  -7.88900 44.30500 41.71700
C  -8.58600 43.09400 42.14500
C  -5.60600 44.58000 40.32700
C  -8.21300 45.84200 41.90800
O  -7.51600 46.70600 41.37800
C  -9.36000 46.36900 42.76400
N  -10.30100 40.76600 43.05400
C  -10.62200 42.03600 43.27500
C  -12.08900 42.13200 43.80800
C  -12.47400 40.67700 44.11400
C  -11.26600 39.94800 43.53900
C  -12.49200 43.15100 44.88400
C  -13.84200 40.14400 43.37800
C  -14.67400 39.05700 44.10700
N  -9.01200 38.11800 42.55400
C  -10.22400 37.68300 43.05600
C  -10.33900 36.25400 43.07300
C  -9.11500 35.86600 42.50700
C  -8.34900 37.04700 42.10000
C  -11.33900 35.34100 43.76300
C  -8.32500 34.66700 42.09100
O  -8.53900 33.48600 42.26900
C  -6.97800 35.20900 41.41700
C  -5.82000 34.71000 42.17100
O  -5.69800 34.72000 43.37500
O  -4.87800 34.33500 41.32500
C  -3.55100 33.92900 41.92100
H  -4.93300 42.08400 40.33200
H  -10.30300 44.06000 42.94400
H  -12.02200 38.04500 43.90400
H  -4.35000 37.21500 40.70900
H  -4.52200 39.57300 38.87600
H  -2.51300 40.12100 39.91800
H  -2.89400 38.61200 40.75200
H  -3.53300 40.27000 41.38200
H  -5.18200 37.72000 37.89300
H  -6.33400 36.65000 38.75900
H  -4.88400 35.07700 37.99800
H  -3.78300 35.59200 39.36000
H  -5.85200 45.64000 40.26500
H  -5.62400 44.16100 39.32000
H  -4.65700 44.37300 40.82100
H  -9.34700 47.45200 42.88900
H  -9.15600 45.95700 43.75200
H  -10.29300 45.96500 42.37100
H  -12.62600 42.56600 42.96400
H  -12.44000 40.41000 45.17000
H  -12.55500 42.63800 45.84400
H  -13.48200 43.53000 44.63200
H  -11.65900 43.84700 44.98800
H  -13.50200 39.55900 42.52400
H  -14.44600 41.00200 43.08400
H  -14.63800 39.30500 45.16700
H  -14.14600 38.11500 43.95700
H  -15.69100 38.94400 43.73300
H  -10.86100 34.38700 43.98500
H  -12.27100 35.14400 43.23200
H  -11.70300 35.85200 44.65400
H  -6.99900 34.76900 40.41900
H  -2.89100 34.77100 42.12900
H  -3.09200 33.28300 41.17300
H  -3.63800 33.38800 42.86300

