158

Mg 40.53500 9.62100 29.67600
C  42.47400 10.77000 32.25800
C  38.18400 8.40200 31.96600
C  38.83400 8.13300 27.15100
C  43.15700 10.44700 27.42200
N  40.32100 9.69300 31.85000
C  41.22700 10.19600 32.73000
C  40.73600 10.20700 34.19100
C  39.53600 9.18500 34.10700
C  39.31500 9.10400 32.58700
C  39.67200 7.74100 34.62500
C  40.43700 11.69200 34.68400
C  40.85100 12.13700 36.04700
H  39.61100 12.59600 36.91700
N  38.69400 8.49100 29.59900
C  37.83600 8.17400 30.61500
C  36.68300 7.48600 30.08300
C  36.93400 7.26100 28.74800
C  38.25900 7.93600 28.41700
C  35.53600 6.84200 30.88400
C  36.20400 6.43900 27.70900
O  36.65600 6.29900 26.52800
C  34.85400 5.85100 28.02500
N  41.04600 9.29600 27.61000
C  40.06100 8.71100 26.80500
C  40.53900 8.72800 25.33400
C  41.63400 9.81100 25.33900
C  41.98600 9.83000 26.84700
C  41.04300 7.39900 24.85200
C  41.17900 11.20200 24.75400
C  40.67000 12.20300 25.74700
N  42.45900 10.43700 29.81100
C  43.39300 10.74300 28.76400
C  44.58900 11.34900 29.39700
C  44.17200 11.39300 30.74800
C  42.92600 10.85400 30.94300
C  45.86900 11.85600 28.72900
C  44.60000 11.97300 32.01700
O  45.62000 12.60000 32.32200
C  43.53000 11.58000 33.07400
C  44.25000 10.74600 34.07000
O  44.81000 9.66100 33.76700
O  44.30200 11.37500 35.31400
C  45.09600 10.69900 36.43700
H  37.44600 8.14300 32.72800
H  38.28700 7.73600 26.29300
H  43.86400 10.88300 26.71300
H  41.46100 9.85200 34.92400
H  38.66100 9.62400 34.58400
H  39.83200 6.97700 33.86400
H  38.77600 7.43500 35.16500
H  40.52200 7.72600 35.30700
H  39.36100 11.77000 34.52500
H  40.90500 12.43400 34.03800
H  41.40300 13.05900 35.86100
H  41.47200 11.45800 36.63200
H  35.77800 7.03600 31.92900
H  35.35500 5.77100 30.79600
H  34.54100 7.25000 30.70400
H  34.12600 6.60300 28.33000
H  34.92700 5.04700 28.75800
H  34.35900 5.46600 27.13400
H  39.71300 9.14900 24.76200
H  42.58700 9.62500 24.84300
H  41.44600 6.83100 25.69100
H  41.73700 7.57500 24.03000
H  40.13400 6.91600 24.49500
H  40.47800 11.11600 23.92400
H  42.09300 11.48100 24.23000
H  41.49500 12.65200 26.29900
H  39.92800 11.70800 26.37400
H  40.18600 13.09200 25.34200
H  45.74300 12.76000 28.13200
H  46.10300 11.05000 28.03300
H  46.60300 11.97400 29.52500
H  43.20100 12.46000 33.62700
H  44.39800 10.40500 37.22100
H  45.72600 11.44900 36.91600
H  45.59900 9.81400 36.04700
Mg 16.51600 51.90700 26.43900
C  18.59700 50.53800 29.10800
C  14.32000 52.98200 28.92100
C  14.40300 52.92000 24.08200
C  18.62600 50.48300 24.19700
N  16.38500 51.58600 28.75700
C  17.43700 51.22700 29.58600
C  17.10300 51.59200 31.07300
C  15.63800 52.09700 30.98600
C  15.43600 52.29000 29.48700
C  14.64700 51.17300 31.56700
C  18.13700 52.63000 31.59700
C  18.59000 52.43700 33.08900
H  17.75100 51.63700 34.12600
N  14.62700 52.92200 26.47800
C  13.91400 53.25100 27.57100
C  12.66700 53.99900 27.09300
C  12.78300 54.09100 25.66700
C  13.94000 53.28500 25.34400
C  11.63300 54.48600 28.05300
C  11.87300 54.73300 24.63300
O  12.08700 54.73700 23.38000
C  10.72900 55.54100 25.10800
N  16.51800 51.81100 24.41200
C  15.48100 52.24300 23.61800
C  15.71500 51.86300 22.09300
C  17.07400 51.10700 22.18400
C  17.50900 51.17800 23.70100
C  14.52000 51.10100 21.44200
C  18.12700 51.68800 21.11000
C  19.02600 52.88100 21.52300
N  18.22600 50.69900 26.55000
C  18.99000 50.22400 25.51500
C  20.15600 49.62000 26.08400
C  20.08000 49.65300 27.49200
C  18.85800 50.31900 27.72600
C  21.35200 48.96600 25.39400
C  20.65800 49.25200 28.77200
O  21.62600 48.56700 28.99200
C  19.71300 49.80400 29.90600
C  19.24500 48.74500 30.82900
O  18.51000 47.84300 30.47400
O  19.78500 48.92000 32.04500
C  19.45900 47.93400 33.05000
H  13.64800 53.33000 29.70800
H  13.65800 53.09300 23.30200
H  19.32900 50.11500 23.44700
H  17.14700 50.74100 31.75300
H  15.50800 52.97100 31.62300
H  14.24100 51.68600 32.43900
H  15.12200 50.24700 31.89300
H  13.81200 50.91300 30.91700
H  17.76800 53.64200 31.43500
H  18.95600 52.59800 30.87800
H  18.95300 53.37700 33.50400
H  19.53400 51.90400 32.97500
H  10.61600 54.31500 27.70200
H  11.82400 55.55100 28.18100
H  11.71000 54.06300 29.05500
H  10.08100 54.68800 25.31300
H  10.36900 56.16000 24.28600
H  11.08800 56.12300 25.95700
H  15.88200 52.80400 21.56900
H  16.86800 50.08300 21.87200
H  14.90400 50.33600 20.76800
H  13.81400 51.70100 20.86700
H  13.90200 50.56900 22.16500
H  17.46000 52.02200 20.31600
H  18.79000 50.86400 20.84900
H  20.05300 52.70200 21.20300
H  18.98400 53.02300 22.60300
H  18.71000 53.73900 20.93000
H  21.13300 47.97100 25.00600
H  22.18700 49.00600 26.09400
H  21.58600 49.53700 24.49600
H  20.30900 50.51400 30.47900
H  19.97000 46.99400 32.84200
H  18.38200 47.80100 33.15500
H  19.88800 48.35300 33.96000

