158

Mg 45.77700 3.92800 47.50200
C  43.96600 6.85100 47.17800
C  42.94200 2.13900 46.77900
C  47.73400 1.19600 47.31400
C  48.77700 6.01100 47.38700
N  43.67200 4.45100 47.15800
C  43.16300 5.69800 47.05000
C  41.80800 5.65800 46.41600
C  41.37900 4.18500 46.65800
C  42.74600 3.51100 46.87600
C  40.45000 4.07200 47.97500
C  41.82600 6.08900 44.91500
C  40.63200 6.90700 44.43400
H  40.34100 6.70500 42.98100
N  45.36900 1.92500 47.10900
C  44.11000 1.37600 46.92000
C  44.24000 -0.07500 46.80900
C  45.59700 -0.38100 47.08500
C  46.33400 0.91000 47.14300
C  43.10500 -1.09400 46.51900
C  46.18300 -1.75800 47.26800
O  45.42900 -2.75500 47.32100
C  47.66900 -2.03200 47.24900
N  47.92500 3.64700 47.39800
C  48.47200 2.41900 47.47600
C  50.03500 2.44800 47.62200
C  50.33000 3.91200 47.24800
C  48.95300 4.64000 47.36400
C  50.43800 1.87400 49.04800
C  51.17500 4.00200 45.97000
C  52.34000 5.04200 45.85400
N  46.34300 6.05100 47.41700
C  47.50000 6.74800 47.36000
C  47.24400 8.16600 47.44100
C  45.86700 8.25100 47.25200
C  45.37700 6.94400 47.24800
C  48.27500 9.25800 47.50600
C  44.74600 9.14600 47.14400
O  44.82300 10.36100 47.08700
C  43.48000 8.25600 47.06300
C  42.48300 8.71400 48.13600
O  42.33900 8.15200 49.25500
O  41.67000 9.79000 47.69400
C  40.52900 10.25400 48.40600
H  42.02100 1.56200 46.67100
H  48.39100 0.32500 47.34900
H  49.63500 6.68500 47.41100
H  41.19800 6.36500 46.97800
H  40.81200 3.77700 45.82100
H  40.02700 4.98800 48.38900
H  40.98000 3.52900 48.75700
H  39.60600 3.45800 47.66200
H  41.84100 5.11800 44.41900
H  42.71600 6.62600 44.58800
H  40.94600 7.93600 44.61000
H  39.74100 6.79300 45.05200
H  42.12500 -0.61600 46.51100
H  43.22200 -1.90000 47.24300
H  43.37000 -1.55000 45.56500
H  48.00700 -1.55000 48.16600
H  48.03100 -1.59000 46.32100
H  47.87400 -3.09300 47.10700
H  50.50300 1.73800 46.94000
H  50.91000 4.41900 48.01900
H  49.57100 1.67900 49.68000
H  50.91800 2.69600 49.58100
H  51.10400 1.01200 49.01700
H  50.50600 4.21400 45.13600
H  51.53400 3.02400 45.64800
H  51.96200 5.90200 45.30100
H  53.13900 4.62900 45.23800
H  52.69800 5.37900 46.82700
H  47.80600 10.14200 47.07500
H  49.12100 8.95100 46.89300
H  48.57100 9.50700 48.52500
H  42.99300 8.44800 46.10600
H  39.68000 9.64900 48.08700
H  40.25400 11.26600 48.10900
H  40.55300 10.20600 49.49400
Mg 35.01500 48.47500 25.09800
C  35.16600 46.70700 28.10500
C  33.55000 51.05700 26.82100
C  34.66400 50.07700 22.19600
C  36.27700 45.54700 23.45400
N  34.52800 48.88900 27.20500
C  34.70500 48.00700 28.25600
C  34.37000 48.65400 29.58700
C  33.62300 49.93200 29.15100
C  33.91400 49.98700 27.62500
C  32.12700 49.94900 29.50900
C  35.71900 48.97500 30.32500
C  35.73200 48.49500 31.80700
H  34.49100 48.54600 32.68100
N  34.23900 50.26600 24.58400
C  33.69400 51.23500 25.41900
C  33.38900 52.38800 24.72900
C  33.94000 52.21300 23.44500
C  34.39100 50.79800 23.33600
C  32.70100 53.57600 25.40300
C  34.06700 53.21800 22.27600
O  34.68400 52.98500 21.24500
C  33.38000 54.57600 22.46400
N  35.44100 47.90600 23.16900
C  35.07200 48.72000 22.11500
C  35.40300 48.00900 20.78000
C  36.26100 46.78400 21.15500
C  35.81100 46.62800 22.68000
C  34.09900 47.45800 20.02300
C  37.81600 46.99400 20.92900
C  38.55100 45.87500 20.14500
N  35.58000 46.54000 25.63000
C  36.04100 45.46900 24.91600
C  36.18200 44.30700 25.75900
C  35.91200 44.76800 27.03100
C  35.43900 46.10300 26.87200
C  36.73800 42.97200 25.31600
C  35.81100 44.38900 28.41900
O  35.97300 43.30700 28.95800
C  35.35300 45.60900 29.26100
C  34.10900 45.22900 29.92600
O  32.96200 45.36300 29.53800
O  34.45600 44.74100 31.14200
C  33.30900 44.42600 32.01700
H  33.07400 51.76400 27.50400
H  34.60100 50.57700 21.22700
H  36.63900 44.74000 22.81400
H  33.79600 47.93800 30.17500
H  34.11300 50.76900 29.64800
H  31.79800 48.91800 29.64000
H  31.59200 50.40700 28.67700
H  32.05200 50.58800 30.38900
H  35.74400 50.06500 30.33100
H  36.56800 48.58900 29.76200
H  36.24000 49.25300 32.40400
H  36.31400 47.58400 31.94900
H  31.80400 53.76600 24.81300
H  33.28200 54.48300 25.57100
H  32.33300 53.31500 26.39500
H  32.30500 54.44100 22.57900
H  33.47600 55.16200 21.55000
H  33.88800 55.13900 23.24700
H  35.94100 48.67400 20.10400
H  35.90700 45.86700 20.68400
H  34.11200 47.76200 18.97600
H  33.26000 47.84300 20.60300
H  33.88800 46.38900 19.99400
H  38.35800 47.22400 21.84600
H  37.89500 47.92600 20.36800
H  37.86400 45.10400 19.79500
H  39.14500 45.30100 20.85600
H  39.23600 46.23600 19.37700
H  37.65500 43.11700 24.74500
H  36.00000 42.61300 24.59900
H  36.84100 42.30100 26.16900
H  36.12200 46.07700 29.87500
H  33.58400 44.17400 33.04100
H  32.60500 43.74200 31.54400
H  32.69900 45.32300 32.12700

