158

Mg 47.54400 34.65100 27.94200
C  45.96000 32.76500 30.41700
C  48.18600 37.12000 30.13200
C  48.66400 36.51100 25.32500
C  46.72200 32.09900 25.62000
N  47.09700 34.90400 30.07400
C  46.34300 34.05100 30.85100
C  46.72800 34.42000 32.27300
C  47.20500 35.95900 32.18100
C  47.51400 35.99500 30.68900
C  46.10200 36.99600 32.63600
C  47.87400 33.50500 32.78100
C  47.93500 33.42000 34.35800
H  46.98800 34.35400 35.14900
N  48.36300 36.57100 27.76400
C  48.64700 37.44500 28.80700
C  49.28000 38.63700 28.31000
C  49.49600 38.45100 26.88400
C  48.84100 37.11200 26.58200
C  49.71300 39.73700 29.24600
C  50.08400 39.42600 25.84300
O  50.45100 39.02600 24.73400
C  50.46500 40.86500 26.30000
N  47.62100 34.34600 25.79000
C  48.27700 35.22800 24.99000
C  48.41900 34.71700 23.51700
C  47.76800 33.22700 23.68600
C  47.42500 33.22700 25.12300
C  47.83400 35.63900 22.41000
C  48.75800 32.13500 23.22600
C  48.23500 31.13100 22.22000
N  46.54800 32.85800 27.96900
C  46.31400 31.89100 26.94900
C  45.69500 30.73000 27.47800
C  45.46500 30.99200 28.84800
C  46.11900 32.27700 29.06000
C  45.32900 29.55100 26.60500
C  44.86700 30.52200 30.07100
O  44.16000 29.50900 30.30900
C  45.03400 31.74600 31.00100
C  45.01900 31.31400 32.39700
O  45.86000 30.68900 33.02500
O  43.82300 31.62600 33.01600
C  43.63600 31.36500 34.43200
H  48.44000 37.84900 30.90500
H  49.14400 37.07700 24.52300
H  46.42700 31.29800 24.93800
H  45.83400 34.34500 32.89300
H  47.98000 36.14800 32.92400
H  45.14400 36.51100 32.82300
H  46.13700 37.79900 31.90000
H  46.46300 37.49100 33.53800
H  48.82100 33.91500 32.43100
H  47.65400 32.48300 32.47300
H  48.97700 33.67400 34.55700
H  47.75000 32.37300 34.59600
H  50.72400 39.65000 29.64500
H  49.04200 39.70200 30.10400
H  49.54000 40.74600 28.87100
H  51.38600 40.79100 26.87800
H  49.62200 41.36800 26.77400
H  50.55200 41.42500 25.36900
H  49.50800 34.70900 23.46100
H  46.89500 33.14300 23.03800
H  48.63200 35.89400 21.71300
H  47.41900 36.53200 22.87600
H  46.99000 35.24600 21.84300
H  49.09200 31.51400 24.05700
H  49.62500 32.54700 22.71000
H  48.93200 30.72700 21.48500
H  47.46000 31.70100 21.70800
H  47.85600 30.36100 22.89200
H  46.21300 29.13700 26.12000
H  44.67400 29.86900 25.79300
H  44.88900 28.81000 27.27300
H  44.14300 32.37300 30.95400
H  42.61200 31.04300 34.62500
H  43.89200 32.22900 35.04500
H  44.34200 30.65200 34.85900
Mg 37.13200 49.42300 25.28600
C  36.94800 47.62000 28.11200
C  36.03600 52.27500 26.90800
C  36.77700 51.05400 22.31500
C  37.89300 46.53600 23.46900
N  36.56100 49.88600 27.23700
C  36.65400 48.97800 28.32500
C  36.21100 49.54800 29.65600
C  35.71900 51.02700 29.21900
C  36.19500 51.14800 27.73000
C  34.24900 51.30300 29.48600
C  37.29400 49.53200 30.79100
C  36.84600 49.38900 32.26800
H  35.33400 49.44000 32.77400
N  36.62800 51.47500 24.73200
C  36.29200 52.47600 25.49500
C  36.13300 53.70900 24.69600
C  36.13400 53.30300 23.35500
C  36.57800 51.94000 23.41900
C  35.99200 55.06300 25.25900
C  35.89600 54.12100 22.12100
O  35.83200 53.59100 20.99700
C  35.57200 55.62400 22.21100
N  37.19200 48.86100 23.23200
C  37.14900 49.69600 22.25700
C  37.41900 49.01000 20.86300
C  37.93000 47.64200 21.23500
C  37.72000 47.70100 22.73500
C  36.14100 49.02300 19.94400
C  39.42300 47.35900 20.87500
C  39.68700 46.04000 20.08400
N  37.54200 47.45600 25.68600
C  37.70000 46.37000 24.85000
C  37.82400 45.20300 25.63100
C  37.50800 45.61800 26.94500
C  37.35500 47.00700 26.91300
C  38.20300 43.81600 25.14900
C  37.26700 45.17600 28.31500
O  37.18900 44.09100 28.77600
C  36.90000 46.45200 29.09000
C  35.53500 46.27500 29.70100
O  34.46200 46.31100 29.07000
O  35.63400 45.96100 31.02300
C  34.35400 45.43700 31.54000
H  35.59900 53.11000 27.45900
H  36.94900 51.54200 21.35300
H  38.15400 45.57400 23.02300
H  35.29700 48.99900 29.88300
H  36.23000 51.87300 29.67800
H  33.88300 50.64400 30.27400
H  33.66300 51.13400 28.58200
H  34.08800 52.34300 29.76900
H  37.86100 50.45500 30.66900
H  38.01200 48.78500 30.45400
H  37.33000 50.19900 32.81400
H  37.27800 48.44300 32.59500
H  36.84200 55.73200 25.12900
H  35.86700 55.15300 26.33800
H  35.11300 55.52200 24.80500
H  34.58200 55.68100 22.66300
H  35.58600 56.15900 21.26100
H  36.42800 56.05200 22.73200
H  38.19900 49.47400 20.25900
H  37.27200 46.84200 20.89600
H  36.09400 49.81900 19.20200
H  35.23000 49.21100 20.51300
H  36.00000 48.04800 19.47700
H  39.97700 47.25500 21.80800
H  39.79800 48.16100 20.23800
H  40.07100 46.29300 19.09600
H  38.69900 45.59900 19.94800
H  40.41000 45.51400 20.70700
H  37.36500 43.27100 24.71500
H  38.53000 43.28000 26.04000
H  39.06800 43.84900 24.48600
H  37.62200 46.66800 29.87700
H  34.12800 44.39900 31.29500
H  33.43700 46.00200 31.37300
H  34.33300 45.42800 32.62900

