158

Mg 54.73100 24.22700 44.77700
C  52.32900 26.64700 43.91300
C  52.69900 21.79100 43.72000
C  57.31600 22.08500 44.94300
C  56.90200 26.92000 45.66000
N  52.83700 24.30800 43.74300
C  51.93400 25.29000 43.64400
C  50.51600 24.77900 43.22200
C  50.59500 23.33700 43.78300
C  52.13400 23.10300 43.62400
C  49.92900 23.02700 45.21700
C  50.32400 24.96600 41.64200
C  49.01400 24.56700 41.04600
H  48.74600 25.05400 39.57800
N  54.93800 22.09000 44.53900
C  53.93400 21.30800 44.14500
C  54.44400 19.93600 44.01600
C  55.84600 19.97900 44.40000
C  56.12500 21.39600 44.62500
C  53.62300 18.73600 43.58200
C  56.74300 18.81400 44.53100
O  56.36900 17.75100 44.04900
C  58.17400 18.80500 45.10300
N  56.85100 24.45800 45.03100
C  57.67100 23.42300 45.16800
C  59.09800 23.87100 45.72400
C  58.86400 25.39100 46.00200
C  57.46000 25.64500 45.59200
C  59.61700 23.04900 46.96700
C  59.89200 26.39400 45.42600
C  61.22500 26.49200 46.16300
N  54.64700 26.40000 44.82700
C  55.54100 27.28300 45.34300
C  54.85000 28.58000 45.50500
C  53.56500 28.38800 44.90600
C  53.55100 27.05000 44.49800
C  55.33000 29.85600 46.15200
C  52.27900 28.95000 44.59600
O  51.80700 30.05400 44.77400
C  51.41700 27.88800 43.87800
C  50.90400 28.41300 42.54000
O  51.61100 28.66200 41.55800
O  49.49200 28.52700 42.61400
C  48.76300 28.97300 41.42400
H  51.93400 21.02800 43.55800
H  58.14900 21.38600 44.84200
H  57.57600 27.67900 46.06200
H  49.73000 25.33500 43.73400
H  50.04700 22.73900 43.05600
H  50.48100 22.40600 45.92200
H  48.98000 22.56400 44.94800
H  49.58500 23.97200 45.63800
H  51.00200 24.16800 41.33800
H  50.74700 25.86200 41.18900
H  48.31400 24.84100 41.83600
H  48.96400 23.47900 41.02600
H  52.54200 18.87100 43.58600
H  53.75000 17.87400 44.23600
H  53.99800 18.39900 42.61500
H  58.44200 17.78500 45.38100
H  58.27500 19.39600 46.01400
H  58.88200 19.16800 44.35900
H  59.83900 23.76100 44.93200
H  58.72900 25.69800 47.03900
H  59.04600 22.24000 47.42300
H  59.82100 23.79500 47.73500
H  60.64600 22.72600 46.81100
H  59.45800 27.36700 45.19800
H  60.31100 26.24800 44.43100
H  62.11600 26.09000 45.68100
H  61.17300 26.10400 47.18000
H  61.49700 27.52600 46.37600
H  56.35400 30.01000 45.81000
H  55.34000 29.72000 47.23400
H  54.66900 30.65800 45.82400
H  50.50800 27.60000 44.40500
H  48.15700 28.16500 41.01400
H  49.47400 29.33900 40.68200
H  48.04300 29.75800 41.65500
Mg 35.67900 48.44200 24.75600
C  36.00800 46.76500 27.91400
C  34.40500 51.13400 26.47100
C  35.14300 49.87900 21.78100
C  36.67500 45.45400 23.14600
N  35.14100 48.81000 27.01700
C  35.38600 48.04400 28.05200
C  34.99600 48.76200 29.38700
C  34.24200 50.06400 28.85600
C  34.53400 50.00200 27.30900
C  32.64500 50.08300 29.06300
C  36.16500 49.06200 30.44300
C  35.90100 48.74200 31.87000
H  34.55500 49.04000 32.48200
N  35.07200 50.37000 24.16400
C  34.62900 51.34700 25.06000
C  34.55800 52.56800 24.25400
C  34.78600 52.20900 22.88600
C  34.89000 50.75600 22.89600
C  34.37600 53.85600 24.91600
C  34.84300 52.99800 21.68100
O  35.15900 52.56300 20.58500
C  34.33900 54.37200 21.67500
N  35.99900 47.76200 22.77700
C  35.65800 48.55900 21.70900
C  35.98200 47.81400 20.40300
C  36.59500 46.44100 20.86300
C  36.34400 46.53300 22.36800
C  34.84700 47.67800 19.47000
C  38.11800 46.30700 20.59700
C  39.01900 47.38200 21.23500
N  36.24400 46.49300 25.31000
C  36.64900 45.38500 24.57900
C  37.06800 44.30500 25.42300
C  36.81900 44.84100 26.74800
C  36.32800 46.16300 26.65500
C  37.60800 43.08300 24.89700
C  37.00100 44.51300 28.19500
O  37.40500 43.50800 28.79100
C  36.53500 45.86600 29.00400
C  35.43200 45.37200 29.89200
O  34.20700 45.43500 29.58900
O  35.88300 45.06000 31.12700
C  34.84600 44.58300 32.02200
H  34.05000 52.04500 26.95700
H  35.03700 50.35500 20.80400
H  36.98900 44.53700 22.64400
H  34.32800 48.07000 29.90000
H  34.66200 50.94800 29.33600
H  32.08500 50.12400 28.12800
H  32.58200 50.90800 29.77300
H  32.34400 49.17400 29.58300
H  36.32000 50.14000 30.48600
H  37.07200 48.69400 29.96400
H  36.60600 49.36800 32.41700
H  36.11900 47.67900 31.97200
H  35.02300 54.52900 24.35300
H  34.75900 53.73300 25.92900
H  33.36500 54.24500 24.79500
H  34.08500 54.67600 20.65900
H  35.17200 55.00100 21.99000
H  33.35300 54.55300 22.10200
H  36.72100 48.52400 20.03100
H  35.99800 45.64700 20.41400
H  33.85900 47.80000 19.91400
H  34.76700 46.69300 19.01100
H  34.90000 48.42600 18.67800
H  38.17900 46.51200 19.52800
H  38.41100 45.28800 20.85100
H  39.88900 46.88100 21.66000
H  38.67600 48.06000 22.01600
H  39.21600 48.09000 20.43000
H  36.87400 42.75000 24.16300
H  37.69700 42.38300 25.72800
H  38.60200 43.22600 24.47100
H  37.37100 46.29000 29.56100
H  35.14100 44.20800 33.00200
H  34.27200 43.76600 31.58500
H  34.15000 45.38100 32.28000

