158

Mg 40.74100 8.15600 29.53500
C  42.21800 9.91600 32.35400
C  38.48000 6.82900 31.77500
C  39.35500 6.40600 27.06400
C  43.58300 8.97300 27.77900
N  40.33400 8.43600 31.75200
C  41.04700 9.27200 32.68500
C  40.41800 9.15200 34.11800
C  39.35600 8.00900 33.94400
C  39.34700 7.74500 32.36800
C  39.62000 6.72400 34.78800
C  39.81000 10.54900 34.58700
C  39.32800 10.43400 36.08000
H  40.05500 11.35400 37.06000
N  39.06500 6.86200 29.37000
C  38.26300 6.52600 30.41200
C  37.17700 5.70600 29.91900
C  37.37800 5.57400 28.49300
C  38.59900 6.27400 28.26000
C  36.06600 5.17600 30.87000
C  36.53600 4.92200 27.42300
O  36.75400 4.91900 26.18200
C  35.25500 4.37200 27.82300
N  41.45300 7.67200 27.73200
C  40.62900 7.02200 26.82700
C  41.33200 6.87700 25.47000
C  42.44400 7.99000 25.57700
C  42.52400 8.22800 27.16100
C  41.95900 5.56500 25.11700
C  42.04100 9.22900 24.69400
C  41.20600 10.36000 25.32100
N  42.55100 9.24400 29.89900
C  43.61600 9.43900 29.11600
C  44.64400 10.18600 29.83500
C  44.19200 10.40700 31.13300
C  42.85200 9.81300 31.14000
C  45.92200 10.47400 29.15600
C  44.47000 10.87600 32.45300
O  45.45400 11.43100 32.94300
C  43.17300 10.55200 33.32400
C  43.59900 9.75600 34.51500
O  44.38700 8.85400 34.52700
O  43.10500 10.34000 35.66500
C  43.56200 9.82700 36.91900
H  37.75500 6.49500 32.52000
H  38.98400 5.92300 26.15800
H  44.41100 9.34900 27.17500
H  41.07800 8.79500 34.90800
H  38.38100 8.37400 34.26600
H  39.62200 5.81600 34.18500
H  38.84000 6.62200 35.54200
H  40.55000 6.81200 35.35100
H  38.86600 10.84600 34.13000
H  40.48200 11.38600 34.39600
H  39.47400 9.42300 36.46000
H  38.25400 10.60700 36.15100
H  35.27300 5.65800 30.29800
H  36.10400 5.38100 31.94000
H  35.88000 4.10400 30.80300
H  34.75200 5.24300 28.24300
H  35.47500 3.66400 28.62200
H  34.67200 3.95900 27.00000
H  40.56400 7.12600 24.73800
H  43.47000 7.75900 25.29200
H  41.68200 4.82400 25.86700
H  43.04300 5.53500 25.22400
H  41.68200 5.41200 24.07400
H  41.47600 8.88100 23.82900
H  42.93000 9.70700 24.28200
H  40.94400 10.26400 26.37400
H  40.25900 10.25800 24.79100
H  41.65600 11.32900 25.10500
H  46.23000 9.62000 28.55300
H  46.66900 10.60500 29.93900
H  45.97000 11.30400 28.45100
H  42.67900 11.45400 33.68400
H  43.88800 8.79300 36.80900
H  42.79900 9.81100 37.69700
H  44.49700 10.31900 37.18900
Mg 16.34300 51.79300 25.43900
C  18.00100 50.70600 28.21200
C  13.66300 52.87200 27.35200
C  14.55300 52.41000 22.52300
C  18.75800 50.11200 23.44100
N  15.88300 51.68100 27.49100
C  16.80700 51.39400 28.45200
C  16.38900 51.91700 29.84800
C  14.88900 52.31400 29.50500
C  14.83900 52.38200 28.00900
C  13.70800 51.44400 30.02500
C  17.33100 53.09600 30.35600
C  18.01200 52.94100 31.77000
H  17.33700 52.06800 32.80600
N  14.38500 52.61900 25.02000
C  13.42900 52.91900 25.96100
C  12.31100 53.51800 25.23500
C  12.65200 53.50700 23.82900
C  13.94600 52.88100 23.75700
C  11.22500 54.22200 25.86400
C  11.77600 53.88300 22.64800
O  12.19900 53.97700 21.49100
C  10.34400 54.24000 22.85800
N  16.68300 51.27000 23.33700
C  15.70900 51.59900 22.40900
C  16.10900 51.17800 21.00900
C  17.52200 50.59300 21.22700
C  17.70700 50.65000 22.75300
C  15.08500 50.27500 20.29300
C  18.77500 51.32700 20.61700
C  18.75700 52.82100 20.67800
N  17.96000 50.61500 25.68800
C  18.90000 50.08100 24.83300
C  19.93500 49.38800 25.55400
C  19.59800 49.54100 26.88300
C  18.34700 50.25500 26.92800
C  21.16200 48.64600 25.01600
C  20.04000 49.36100 28.26200
O  21.11800 48.83100 28.61900
C  18.97400 50.03100 29.24600
C  18.43200 49.02100 30.10300
O  17.35500 48.41800 30.06300
O  19.37200 48.69800 31.05000
C  18.92500 47.77500 32.12500
H  12.94200 53.28700 28.05900
H  14.01000 52.50100 21.58000
H  19.47700 49.56100 22.83100
H  16.51700 51.10800 30.56700
H  14.79100 53.34900 29.83300
H  13.53700 50.54100 29.43900
H  12.79100 51.94100 30.34400
H  14.02100 51.04700 30.99100
H  16.87000 54.04700 30.09000
H  18.13300 52.98000 29.62700
H  17.98800 53.97200 32.12400
H  19.06400 52.70300 31.61100
H  10.84800 55.07600 25.30200
H  11.49400 54.57000 26.86100
H  10.53600 53.40700 26.08600
H  10.06000 55.24200 23.17800
H  10.01700 53.50300 23.59100
H  9.89900 54.01800 21.88800
H  16.04200 52.02100 20.32200
H  17.53600 49.54000 20.94600
H  14.19100 50.27000 20.91600
H  15.51400 49.27400 20.23500
H  14.70100 50.62700 19.33600
H  18.70100 50.98700 19.58300
H  19.72600 50.99900 21.03600
H  17.90400 53.30600 21.15200
H  18.84000 53.29400 19.69900
H  19.56500 53.05700 21.37100
H  21.06500 48.56500 23.93300
H  21.30900 47.60500 25.30300
H  22.10600 49.15100 25.22100
H  19.48900 50.83800 29.76600
H  19.21000 46.79800 31.73500
H  17.85100 47.76200 32.31100
H  19.40300 48.04100 33.06800

