158

Mg 48.57100 35.84100 27.52400
C  46.67300 34.28100 29.76100
C  49.15800 38.47500 29.69600
C  50.40800 37.39100 25.07300
C  47.93000 33.22400 25.22700
N  48.06300 36.15500 29.52400
C  47.24100 35.40200 30.30900
C  46.84200 36.15600 31.56900
C  47.53300 37.57700 31.36100
C  48.31300 37.41300 30.11700
C  46.58900 38.83300 31.32800
C  47.20900 35.54700 32.92400
C  48.63700 34.93800 33.04100
H  49.57800 35.85900 33.73500
N  49.60600 37.65400 27.38200
C  49.70700 38.60500 28.42500
C  50.55300 39.71900 27.92700
C  51.10300 39.34100 26.63700
C  50.39300 38.06600 26.32200
C  50.93900 40.84900 28.77400
C  52.25900 39.89600 25.78100
O  52.48700 39.42800 24.68700
C  52.95200 41.24600 26.26800
N  49.03400 35.43000 25.46700
C  49.76000 36.20300 24.63900
C  49.66700 35.74900 23.15800
C  49.32000 34.25900 23.38700
C  48.73600 34.27400 24.79900
C  48.69000 36.59500 22.38200
C  50.36500 33.20500 23.14700
C  50.51300 32.60000 21.71800
N  47.53800 34.10400 27.50000
C  47.37400 33.10300 26.54100
C  46.45600 32.12600 26.99300
C  46.10700 32.51400 28.24000
C  46.82100 33.75000 28.47300
C  45.89100 30.97500 26.22400
C  45.32300 32.21800 29.38100
O  44.58700 31.28500 29.61900
C  45.60200 33.35500 30.40000
C  46.00700 32.71500 31.66900
O  47.09400 32.22500 31.95700
O  44.91000 32.67600 32.50700
C  45.06700 32.34100 33.88800
H  49.41100 39.28600 30.38400
H  50.90600 37.98200 24.30100
H  47.61100 32.61400 24.38000
H  45.75600 36.25800 31.58100
H  48.25900 37.88500 32.11400
H  46.68400 39.42100 30.41500
H  46.55800 39.37200 32.27500
H  45.59000 38.40000 31.29200
H  46.40700 34.82800 33.09400
H  46.97300 36.29700 33.67800
H  49.02000 34.69100 32.05100
H  48.54800 33.97100 33.53500
H  51.63300 40.68600 29.59800
H  50.07500 41.30400 29.25900
H  51.31700 41.68700 28.18800
H  53.32900 40.96100 27.25100
H  52.23300 42.06500 26.26300
H  53.85900 41.38700 25.68000
H  50.65200 35.89400 22.71400
H  48.49600 33.96900 22.73500
H  48.01300 35.91500 21.86600
H  49.19800 37.11500 21.57000
H  48.16100 37.28600 23.03800
H  50.22200 32.44300 23.91300
H  51.33800 33.64700 23.36100
H  49.76300 33.03700 21.05800
H  50.15800 31.58700 21.91100
H  51.55800 32.65700 21.41500
H  45.63700 31.26400 25.20400
H  44.99000 30.81000 26.81500
H  46.59100 30.14100 26.25700
H  44.62200 33.79900 30.57900
H  45.43900 33.19300 34.45800
H  45.73700 31.48500 33.97000
H  44.09700 32.14300 34.34300
Mg -11.90600 15.30600 41.90200
C  -9.02100 13.39100 41.58700
C  -10.49800 17.85200 40.32300
C  -15.00300 16.69100 41.66100
C  -13.57400 12.18100 42.72000
N  -10.12400 15.42500 40.80300
C  -9.02500 14.61700 40.94500
C  -7.82400 15.27400 40.31000
C  -8.15400 16.72600 40.34200
C  -9.73700 16.68300 40.43000
C  -7.68400 17.56700 41.53100
C  -7.35300 14.68700 38.92800
C  -5.89000 14.79700 38.64300
H  -5.44100 15.46600 37.38800
N  -12.67000 17.12800 41.17400
C  -11.85300 18.08600 40.70800
C  -12.64800 19.31300 40.60100
C  -13.99400 19.02100 40.91900
C  -13.95700 17.60700 41.26500
C  -12.10900 20.64100 40.31900
C  -15.18400 19.91200 41.06200
O  -15.10200 21.12800 40.82600
C  -16.60900 19.43600 41.47200
N  -13.89600 14.50900 42.01000
C  -14.97600 15.35500 42.04300
C  -16.31600 14.61700 42.30800
C  -15.83800 13.14200 42.32100
C  -14.31800 13.28700 42.33900
C  -17.09400 15.18200 43.55100
C  -16.24400 12.28200 41.12000
C  -17.00300 11.01100 41.39800
N  -11.39300 13.27100 42.31100
C  -12.15000 12.16500 42.71500
C  -11.32200 10.95500 42.93000
C  -10.05700 11.46300 42.58300
C  -10.21200 12.81700 42.09700
C  -11.78200 9.44800 43.33800
C  -8.67300 11.06700 42.46500
O  -8.05500 10.08900 42.88100
C  -7.96400 12.30500 41.77300
C  -6.94700 12.80600 42.66400
O  -7.10000 13.40200 43.74800
O  -5.76700 12.57800 42.01200
C  -4.68600 13.43400 42.51600
H  -9.94600 18.72500 39.96800
H  -15.97800 17.16800 41.77500
H  -13.97300 11.17800 42.88500
H  -6.99500 15.02000 40.97100
H  -7.72600 17.20900 39.46400
H  -7.47100 16.93000 42.38900
H  -8.34200 18.38700 41.82000
H  -6.70300 17.89400 41.18700
H  -7.98700 15.23900 38.23500
H  -7.67500 13.66600 38.72400
H  -5.36900 13.83900 38.66000
H  -5.47200 15.24100 39.54700
H  -12.17400 20.86600 39.25500
H  -11.08300 20.47200 40.64800
H  -12.49500 21.39000 41.01000
H  -17.35700 20.20800 41.29500
H  -16.52600 19.18600 42.53000
H  -16.83800 18.56000 40.86600
H  -16.93700 14.82800 41.43700
H  -16.22700 12.61800 43.19300
H  -17.83100 15.93100 43.26300
H  -16.44400 15.62500 44.30600
H  -17.57800 14.34700 44.05700
H  -15.32600 11.99800 40.60600
H  -16.81200 12.92000 40.44300
H  -16.50300 10.04400 41.33800
H  -17.68600 11.02800 40.55000
H  -17.57400 10.97400 42.32600
H  -12.85900 9.44500 43.50500
H  -11.27300 9.27500 44.28600
H  -11.45200 8.76100 42.55900
H  -7.72800 11.96200 40.76600
H  -3.89600 13.42300 41.76500
H  -4.21400 13.14500 43.45600
H  -4.98000 14.47800 42.61800

