158

Mg 1.86900 -0.97600 43.40200
C  5.26000 -0.51500 43.05500
C  1.27900 1.88900 41.64400
C  -1.45500 -1.78700 43.41700
C  2.54600 -4.21200 44.71500
N  3.12400 0.49500 42.49100
C  4.51800 0.48100 42.42900
C  5.03500 1.47400 41.47600
C  3.75700 2.34400 41.08100
C  2.63900 1.50900 41.78100
C  3.79800 3.90600 41.39400
C  5.66700 0.86200 40.21300
C  7.08900 1.36200 39.86400
H  7.27700 2.42700 38.75400
N  0.15200 -0.00100 42.79800
C  0.13500 1.14200 42.04600
C  -1.19100 1.57600 41.86400
C  -1.97200 0.48500 42.31900
C  -1.07900 -0.50000 42.89900
C  -1.47100 2.81600 41.13100
C  -3.49800 0.38500 42.25200
O  -4.19500 1.25200 41.83100
C  -4.42100 -0.80800 42.77000
N  0.68900 -2.80100 43.88900
C  -0.62600 -2.83600 43.80900
C  -1.22600 -4.15000 44.25700
C  0.02700 -4.90400 44.82600
C  1.20800 -3.91300 44.44200
C  -2.46100 -4.18900 45.22300
C  0.29800 -6.41600 44.39000
C  0.70000 -7.35800 45.53500
N  3.57400 -2.08200 44.03900
C  3.66300 -3.34600 44.48900
C  5.04100 -3.69300 44.73800
C  5.79900 -2.58200 44.13400
C  4.79400 -1.64800 43.71700
C  5.52000 -4.94600 45.40100
C  7.12400 -2.06500 43.66200
O  8.25300 -2.48900 43.82900
C  6.74800 -0.68500 42.98700
C  7.38400 0.27600 43.74600
O  7.02000 0.69100 44.86000
O  8.43400 0.86600 42.98600
C  8.93700 1.99900 43.69300
H  1.13600 2.85200 41.14900
H  -2.49400 -2.08300 43.26100
H  2.77300 -5.20300 45.11100
H  5.72200 2.15200 41.98300
H  3.52900 2.29100 40.01700
H  3.44800 4.44600 40.51400
H  4.85200 4.16100 41.50400
H  3.27300 4.29300 42.26700
H  5.03100 1.00500 39.34000
H  5.73400 -0.21600 40.36100
H  7.71600 0.50100 39.63300
H  7.45200 1.85600 40.76500
H  -1.02300 2.88300 40.13900
H  -0.99200 3.60100 41.71500
H  -2.54800 2.95100 41.03700
H  -5.46800 -0.50300 42.75500
H  -4.12800 -1.03500 43.79400
H  -4.32500 -1.69100 42.13700
H  -1.62500 -4.79400 43.47300
H  -0.01500 -4.90800 45.91500
H  -2.34400 -4.57400 46.23600
H  -3.23300 -4.77800 44.72800
H  -2.86500 -3.18400 45.34900
H  0.93600 -6.34800 43.50900
H  -0.57000 -6.83500 43.88100
H  0.41600 -6.89700 46.48100
H  1.75900 -7.61100 45.56400
H  0.13700 -8.29100 45.49100
H  4.81000 -5.65700 45.82400
H  6.19600 -4.65600 46.20400
H  6.07800 -5.51200 44.65500
H  7.22500 -0.69000 42.00700
H  9.47200 1.77100 44.61500
H  8.10800 2.67400 43.90500
H  9.75900 2.36600 43.07700
Mg 16.32000 51.51900 25.62900
C  18.09200 50.12900 28.44200
C  13.92800 52.43500 27.91400
C  14.28100 51.87200 23.06600
C  18.83800 50.35600 23.55100
N  16.16900 51.33200 27.98000
C  17.03300 50.85700 28.90900
C  16.58800 51.16000 30.31800
C  15.12300 51.65600 30.11300
C  15.07800 51.86900 28.59100
C  13.96300 50.73300 30.54600
C  17.55600 52.10100 31.05800
C  18.16800 51.61900 32.41500
H  17.30100 50.81500 33.37900
N  14.42600 52.12200 25.45500
C  13.58000 52.59800 26.51200
C  12.32600 52.99700 25.97600
C  12.34300 52.63700 24.57900
C  13.71600 52.21600 24.30100
C  11.20800 53.58900 26.87600
C  11.19600 52.75900 23.58400
O  11.31100 52.41000 22.42100
C  9.90100 53.44000 23.97000
N  16.64000 51.21900 23.58800
C  15.61600 51.47000 22.71300
C  16.12200 51.28900 21.25300
C  17.65300 51.11500 21.43800
C  17.72200 50.86300 22.97900
C  15.45000 50.15400 20.42400
C  18.61200 52.21100 21.03600
C  18.34900 53.67400 21.59800
N  18.14000 50.46700 25.94800
C  19.04300 50.07000 24.94200
C  20.16900 49.41500 25.58400
C  19.78900 49.43100 26.98400
C  18.54400 50.04500 27.08700
C  21.44800 48.96200 25.02200
C  20.29700 49.02900 28.29600
O  21.37700 48.56800 28.66600
C  19.16300 49.49500 29.29100
C  18.67200 48.28400 30.16800
O  17.62700 47.68200 30.03300
O  19.51100 48.11000 31.27500
C  19.09100 47.00800 32.19500
H  13.21500 52.62500 28.71800
H  13.70200 52.20400 22.20100
H  19.69900 49.93500 23.02700
H  16.47600 50.31200 30.99200
H  15.03800 52.56900 30.70100
H  14.31500 49.85300 31.08400
H  13.23000 50.32400 29.85100
H  13.36000 51.21000 31.31800
H  17.10700 53.08200 31.21200
H  18.42300 52.27500 30.42100
H  18.40300 52.43700 33.09700
H  18.99800 50.97200 32.13300
H  10.47800 52.78800 26.99400
H  10.76200 54.42900 26.34300
H  11.74600 54.02100 27.71900
H  9.09000 53.14100 23.30600
H  10.19700 54.48900 23.93700
H  9.71300 53.00800 24.95300
H  16.00400 52.20400 20.67400
H  18.00500 50.22300 20.92000
H  14.37800 49.96400 20.47600
H  15.83400 49.16300 20.66800
H  15.66000 50.27300 19.36100
H  18.55600 52.32600 19.95400
H  19.65000 51.90700 21.17700
H  18.36100 54.44900 20.83200
H  19.14300 53.91700 22.30400
H  17.34300 53.66500 22.01800
H  21.85700 49.60700 24.24300
H  21.29800 47.97200 24.59200
H  22.24600 48.88300 25.76100
H  19.67700 50.27100 29.85900
H  18.50100 46.19800 31.76600
H  18.43500 47.30700 33.01200
H  20.00100 46.53400 32.56400

