158

Mg 23.69600 -7.14600 45.21600
C  26.05700 -4.78800 44.32200
C  21.52600 -5.77600 42.78000
C  21.53900 -9.79700 45.57000
C  26.29600 -9.14900 46.65200
N  23.81500 -5.43000 43.86200
C  24.91300 -4.71500 43.59000
C  24.69600 -3.78300 42.28400
C  23.18200 -3.86100 42.18200
C  22.75100 -5.11300 43.02600
C  22.40900 -2.46700 42.53400
C  25.54100 -4.23500 41.09900
C  26.08600 -3.12900 40.14700
H  25.77100 -3.34800 38.70800
N  21.61900 -7.61100 44.46100
C  20.99500 -6.91900 43.47300
C  19.69900 -7.60500 43.21600
C  19.67900 -8.67900 44.13900
C  20.97900 -8.74800 44.78100
C  18.58900 -7.22900 42.16600
C  18.38200 -9.56500 44.39000
O  17.30200 -9.24600 43.96900
C  18.42200 -10.80700 45.25900
N  23.83700 -9.05600 46.21700
C  22.80300 -9.94200 46.13800
C  23.21600 -11.28200 46.71700
C  24.74000 -11.11300 47.13400
C  24.98800 -9.65800 46.65900
C  22.18600 -11.93900 47.66800
C  25.66600 -12.17000 46.54000
C  26.76800 -12.74600 47.48300
N  25.71800 -6.98200 45.46400
C  26.59400 -7.88200 46.16100
C  27.84800 -7.18400 46.24300
C  27.74300 -5.92900 45.59200
C  26.47800 -5.89400 45.08400
C  29.08700 -7.81200 46.83100
C  28.39000 -4.69300 45.20000
O  29.48000 -4.18200 45.52500
C  27.37400 -3.99100 44.23700
C  27.17100 -2.52800 44.55800
O  26.21100 -1.99300 45.09400
O  28.22900 -1.76600 44.07200
C  28.18500 -0.27400 44.23500
H  20.88800 -5.50900 41.93400
H  20.93300 -10.70600 45.55400
H  27.06100 -9.78600 47.10200
H  24.97500 -2.77000 42.57500
H  22.92500 -4.14600 41.16200
H  22.29100 -1.99300 41.56000
H  23.02400 -1.85900 43.19700
H  21.40900 -2.68100 42.91000
H  24.87000 -4.86900 40.52000
H  26.35100 -4.85900 41.47600
H  27.17600 -3.15700 40.12500
H  25.78100 -2.11300 40.40000
H  18.17400 -8.17900 41.82900
H  18.99300 -6.72600 41.28800
H  17.75300 -6.65000 42.55900
H  18.58300 -10.57000 46.31100
H  19.18700 -11.44000 44.80900
H  17.51300 -11.40700 45.22000
H  23.18100 -11.81700 45.76900
H  24.84800 -11.04600 48.21600
H  21.47400 -12.57200 47.13900
H  21.88700 -11.14700 48.35500
H  22.65300 -12.73900 48.24200
H  26.07900 -11.68500 45.65600
H  25.16300 -13.05500 46.14900
H  26.85000 -12.07200 48.33600
H  27.73000 -12.68700 46.97500
H  26.52500 -13.73600 47.86800
H  28.94800 -8.21400 47.83500
H  29.86800 -7.05300 46.87100
H  29.30900 -8.59600 46.10700
H  27.65700 -4.00900 43.18500
H  28.68700 -0.13800 45.19300
H  27.17400 0.13100 44.18000
H  28.84300 0.11900 43.46000
Mg 45.25700 3.09100 47.94100
C  42.99800 5.67900 47.28800
C  42.71500 0.78300 47.48900
C  47.58000 0.54400 47.84700
C  47.87000 5.41200 47.69500
N  43.04200 3.24600 47.57800
C  42.40200 4.40800 47.25100
C  40.88700 4.13700 46.86900
C  40.83600 2.58900 46.93100
C  42.28500 2.17900 47.30600
C  39.69600 2.10600 47.92000
C  40.51600 4.63600 45.42000
C  39.31700 5.47900 45.31700
H  38.40100 5.42600 44.09600
N  45.09900 0.87600 47.86900
C  44.00400 0.16400 47.71600
C  44.33100 -1.29700 47.80800
C  45.72000 -1.36500 47.89700
C  46.23100 0.06800 47.91400
C  43.25500 -2.34600 47.66800
C  46.58700 -2.68600 48.04300
O  46.01700 -3.81100 47.92800
C  48.02700 -2.59700 48.15100
N  47.44900 3.01500 47.57600
C  48.12900 1.83900 47.75700
C  49.61200 2.13100 47.99300
C  49.73200 3.65800 47.83600
C  48.30800 4.08400 47.66400
C  50.07300 1.58700 49.36700
C  50.73800 4.15000 46.74700
C  51.94200 4.93500 47.19200
N  45.43300 5.11100 47.64400
C  46.54400 5.89400 47.63400
C  46.14900 7.31300 47.27500
C  44.75100 7.22100 47.27600
C  44.36800 5.89000 47.44600
C  47.10200 8.51800 47.14500
C  43.52500 8.01900 47.20200
O  43.35700 9.21900 47.19400
C  42.27100 7.00600 47.13600
C  41.27400 7.32100 48.15600
O  41.30500 7.08800 49.33700
O  40.23500 7.97100 47.54800
C  39.14200 8.37600 48.53100
H  41.96800 0.01000 47.29700
H  48.34800 -0.21500 48.01000
H  48.66600 6.15600 47.61900
H  40.26100 4.66700 47.58600
H  40.62400 2.04500 46.01000
H  40.11300 1.57000 48.77300
H  39.00500 1.49900 47.33500
H  39.27400 3.02200 48.33500
H  40.37200 3.75500 44.79400
H  41.37500 5.18100 45.02800
H  39.66400 6.50200 45.17000
H  38.93500 5.58200 46.33300
H  43.60400 -3.31700 48.01800
H  42.91800 -2.21600 46.64000
H  42.53600 -2.09000 48.44700
H  48.48100 -2.24600 47.22400
H  48.51800 -3.53800 48.40100
H  48.25800 -2.04800 49.06400
H  50.07900 1.53200 47.21100
H  50.15000 3.98300 48.79000
H  49.15700 1.32100 49.89300
H  50.67100 2.25100 49.99100
H  50.71400 0.73500 49.13600
H  50.26100 4.68000 45.92100
H  51.19900 3.23100 46.38600
H  51.70200 5.97900 46.98800
H  52.70400 4.64800 46.46800
H  52.27500 4.75300 48.21400
H  47.21800 8.62400 46.06600
H  48.01100 8.32700 47.71500
H  46.58200 9.36200 47.59800
H  41.86100 7.06200 46.12700
H  38.45800 9.06200 48.03100
H  39.43400 8.93100 49.42200
H  38.41700 7.59100 48.74400

