158

Mg 25.37400 1.07700 29.53700
C  27.33800 0.90500 32.46300
C  22.64700 1.63600 31.45500
C  23.75900 1.28400 26.60300
C  28.20900 0.11400 27.84700
N  25.09300 1.22400 31.74400
C  26.02600 1.29900 32.74800
C  25.40400 1.58200 34.19800
C  23.87400 1.46400 33.86200
C  23.78500 1.32700 32.26200
C  23.13900 0.32200 34.59200
C  25.92700 2.88600 34.77700
C  26.41600 2.72400 36.33200
H  25.85900 3.73700 37.31700
N  23.43300 1.22000 29.09100
C  22.49300 1.59700 30.00400
C  21.23600 1.86900 29.22800
C  21.50200 1.61600 27.89300
C  22.95100 1.33300 27.79600
C  19.96200 2.43100 29.88300
C  20.56200 1.68500 26.66600
O  20.83900 1.20400 25.52500
C  19.24000 2.14300 26.88200
N  25.91900 0.61900 27.45400
C  25.12900 1.03500 26.48400
C  25.81300 0.83700 25.12300
C  27.27000 0.59700 25.54400
C  27.16000 0.34400 27.04200
C  25.24200 -0.33900 24.29400
C  28.26300 1.72700 25.14700
C  29.23900 1.34900 23.94800
N  27.33600 0.37200 30.03600
C  28.34400 0.14600 29.22600
C  29.59600 -0.04700 29.99200
C  29.20300 0.18500 31.33800
C  27.83500 0.51300 31.27800
C  30.90400 -0.47900 29.45400
C  29.67900 0.25100 32.71900
O  30.77300 0.01500 33.17400
C  28.45500 0.76300 33.50500
C  28.25200 -0.20500 34.56900
O  27.67500 -1.27400 34.42700
O  28.90900 0.20400 35.71700
C  28.79300 -0.78000 36.87000
H  21.72600 1.68800 32.04000
H  23.19700 1.29200 25.66700
H  29.03000 -0.11900 27.16600
H  25.66200 0.85300 34.96700
H  23.39500 2.38200 34.20400
H  22.34800 0.64100 35.27000
H  23.81500 -0.30600 35.17300
H  22.67300 -0.33300 33.85500
H  25.38300 3.78200 34.47600
H  26.82000 2.93600 34.15400
H  27.48600 2.92000 36.26000
H  26.26900 1.71900 36.72600
H  19.78300 3.29200 29.23900
H  20.13600 2.87600 30.86300
H  19.13300 1.72600 29.93100
H  19.31400 3.20200 27.13200
H  18.62700 1.56800 27.57600
H  18.64500 2.07400 25.97200
H  25.77100 1.71200 24.47500
H  27.54800 -0.30000 24.99100
H  25.17800 -1.19200 24.96800
H  25.99600 -0.50100 23.52300
H  24.22800 -0.10200 23.97200
H  28.81900 2.05700 26.02500
H  27.69200 2.55600 24.72900
H  28.87300 0.53800 23.31800
H  30.20700 1.02100 24.32700
H  29.33000 2.29600 23.41600
H  31.38200 -1.08600 30.22300
H  31.60900 0.34800 29.37000
H  30.84700 -1.02800 28.51400
H  28.68000 1.74100 33.93200
H  28.95800 -1.82000 36.58900
H  27.85900 -0.64200 37.41500
H  29.65700 -0.46800 37.45600
Mg -5.70800 25.63400 25.19300
C  -3.87400 26.96400 27.87500
C  -7.22600 23.46700 27.39000
C  -7.06000 24.08000 22.52700
C  -3.81200 27.63600 23.02600
N  -5.51000 25.31300 27.42000
C  -4.79900 25.99600 28.32800
C  -5.25200 25.62600 29.74000
C  -6.01400 24.33000 29.49700
C  -6.31500 24.39200 27.96700
C  -5.18800 23.03900 29.80400
C  -6.13900 26.75900 30.30900
C  -5.93000 26.83200 31.82300
H  -5.51300 25.67500 32.61400
N  -7.04400 23.96700 25.03000
C  -7.58100 23.25800 26.05500
C  -8.47100 22.21900 25.52800
C  -8.50200 22.43300 24.12600
C  -7.48800 23.50000 23.79900
C  -9.17000 21.21200 26.39000
C  -9.41900 21.69200 23.06000
O  -9.35000 21.97600 21.87300
C  -10.61200 20.85900 23.43200
N  -5.35800 25.71600 23.03200
C  -6.18100 25.14900 22.20300
C  -5.82900 25.45700 20.73400
C  -5.06200 26.76400 20.94400
C  -4.72700 26.74300 22.45300
C  -5.04500 24.27600 20.01400
C  -5.68800 28.01600 20.23000
C  -6.94000 28.63700 20.90900
N  -4.11700 27.00200 25.32500
C  -3.49100 27.85000 24.37800
C  -2.50400 28.74500 24.96700
C  -2.61800 28.35800 26.32000
C  -3.56800 27.32900 26.50200
C  -1.64200 29.77600 24.34300
C  -2.11300 28.63000 27.64400
O  -1.23100 29.42100 27.87700
C  -2.86600 27.72700 28.66800
C  -1.96100 26.77800 29.30600
O  -1.48600 25.79200 28.75800
O  -2.00500 26.81500 30.63200
C  -1.39800 25.65500 31.31600
H  -7.68400 22.82500 28.14600
H  -7.49100 23.68600 21.60400
H  -3.39300 28.35300 22.31700
H  -4.32900 25.58300 30.31900
H  -6.90400 24.35000 30.12600
H  -5.01900 22.42400 28.92000
H  -5.76300 22.45300 30.52200
H  -4.23700 23.33200 30.24900
H  -7.16600 26.72300 29.94700
H  -5.73900 27.66900 29.86000
H  -6.93000 27.07200 32.18300
H  -5.26300 27.67100 32.02400
H  -9.23400 20.22700 25.92700
H  -10.20100 21.52100 26.56100
H  -8.70200 21.00800 27.35300
H  -10.32000 19.85900 23.75300
H  -11.35200 20.84500 22.63200
H  -11.09800 21.27600 24.31400
H  -6.73300 25.70000 20.17600
H  -4.06000 26.68400 20.52400
H  -4.93300 23.38000 20.62600
H  -4.04400 24.53600 19.67100
H  -5.55200 23.98400 19.09400
H  -6.06400 27.63000 19.28200
H  -5.01200 28.84900 20.04300
H  -7.58000 29.11500 20.16700
H  -6.69300 29.38500 21.66200
H  -7.49900 27.86600 21.43800
H  -1.30100 29.50200 23.34500
H  -0.77800 29.94100 24.98800
H  -2.28100 30.65200 24.22500
H  -3.31400 28.29000 29.48600
H  -0.39300 25.47500 30.93300
H  -1.88700 24.70100 31.11700
H  -1.33600 25.92900 32.36900

