158

Mg 7.50800 3.23200 28.08700
C  8.93800 1.75000 30.92600
C  5.59600 5.19400 30.29000
C  5.71500 4.22600 25.46500
C  9.20800 0.86400 26.05400
N  7.17000 3.34500 30.40200
C  8.05500 2.82000 31.27900
C  7.84600 3.49400 32.64700
C  6.40900 4.20400 32.57900
C  6.41400 4.25400 30.97500
C  5.27900 3.25300 33.09300
C  9.00500 4.39400 33.06000
C  10.02200 4.02300 34.17900
H  10.12600 4.95200 35.41700
N  5.95800 4.60400 27.86400
C  5.38700 5.33000 28.87600
C  4.41700 6.18700 28.25400
C  4.52400 6.09500 26.84200
C  5.44700 4.94700 26.68700
C  3.52400 7.04200 29.14100
C  3.85300 6.86400 25.75000
O  4.14700 6.57500 24.64200
C  2.88000 7.91500 26.03600
N  7.39700 2.57800 26.13700
C  6.65800 3.25000 25.18300
C  6.97500 2.73100 23.76400
C  8.10100 1.71000 23.97100
C  8.30200 1.76800 25.44700
C  5.68200 2.19500 23.09300
C  9.45200 2.06600 23.26200
C  10.51100 2.90900 24.01300
N  8.86300 1.57300 28.35300
C  9.44400 0.71400 27.44000
C  10.23700 -0.24500 28.19100
C  10.20000 0.13700 29.55000
C  9.24700 1.22100 29.62400
C  10.92700 -1.46400 27.71600
C  10.66100 -0.10700 30.88500
O  11.46400 -0.93500 31.40600
C  10.01100 1.06000 31.74000
C  9.36900 0.53100 32.95200
O  8.18600 0.15000 32.95800
O  10.29600 0.50900 34.02300
C  9.81100 0.05700 35.41600
H  5.04600 5.82600 30.99000
H  5.07400 4.44400 24.60900
H  9.70100 0.11200 25.43400
H  7.76700 2.69900 33.38800
H  6.30700 5.17600 33.06200
H  5.03700 3.59900 34.09800
H  5.63000 2.22600 33.19400
H  4.41600 3.28200 32.42800
H  8.62400 5.38200 33.31500
H  9.71100 4.54600 32.24400
H  10.99500 3.96000 33.69200
H  9.84300 2.99800 34.50500
H  2.58200 6.49200 29.15300
H  3.56600 8.06900 28.77900
H  3.86700 7.14900 30.17000
H  1.94800 7.42500 26.31800
H  2.61800 8.45500 25.12600
H  3.09100 8.65700 26.80500
H  7.37600 3.55600 23.17500
H  7.83200 0.70300 23.65100
H  4.87700 2.32700 23.81600
H  5.74300 1.11700 22.93900
H  5.52100 2.88100 22.26200
H  9.13400 2.59800 22.36600
H  9.96300 1.14100 22.99400
H  11.21200 2.18800 24.43200
H  9.95400 3.50600 24.73600
H  11.04300 3.65600 23.42300
H  10.83200 -1.58900 26.63700
H  10.68400 -2.38100 28.25300
H  12.00600 -1.36500 27.83200
H  10.72500 1.79700 32.10900
H  9.03300 -0.65500 35.14100
H  9.53900 0.87600 36.08200
H  10.66900 -0.41600 35.89400
Mg -2.13700 33.98700 27.10400
C  -3.93100 32.40100 29.49700
C  -1.06300 36.20100 29.53900
C  -0.64500 35.89600 24.65400
C  -3.74400 32.17100 24.64500
N  -2.49800 34.23900 29.25100
C  -3.20400 33.41000 30.03400
C  -3.11100 33.79700 31.53400
C  -2.39000 35.21600 31.46100
C  -1.99900 35.20400 29.97100
C  -3.17900 36.44300 31.98400
C  -2.35100 32.74500 32.35400
C  -3.17300 32.17000 33.53700
H  -2.49800 31.70800 34.87600
N  -0.92500 35.65500 27.15300
C  -0.54200 36.40300 28.25000
C  0.50500 37.27900 27.90900
C  0.57100 37.24200 26.46500
C  -0.38300 36.27300 25.98600
C  1.37400 38.06500 28.91500
C  1.64600 37.91300 25.63800
O  1.71400 37.71200 24.44600
C  2.72400 38.85300 26.15600
N  -2.28600 34.09900 24.98100
C  -1.53000 34.93100 24.19700
C  -1.44300 34.40100 22.75500
C  -2.52000 33.28800 22.71800
C  -2.83700 33.12300 24.21400
C  -1.47400 35.35200 21.59000
C  -1.92700 32.04000 21.90700
C  -1.03300 31.08900 22.78300
N  -3.61400 32.61200 26.97600
C  -4.11500 31.87300 25.94100
C  -5.09500 30.88600 26.51000
C  -4.99000 31.05700 27.88300
C  -4.06100 32.07000 28.15800
C  -5.87400 29.81100 25.79500
C  -5.59200 30.55700 29.13300
O  -6.44200 29.74900 29.29500
C  -4.91200 31.43300 30.22500
C  -5.92300 32.20600 30.92400
O  -6.72700 32.95000 30.40300
O  -6.10500 31.77700 32.21300
C  -7.32300 32.24800 32.94000
H  -0.80600 36.88000 30.35500
H  -0.20800 36.49100 23.84900
H  -4.05900 31.57300 23.78700
H  -4.12100 33.95000 31.91500
H  -1.47900 35.26400 32.05600
H  -4.13200 36.25300 32.47900
H  -3.35000 37.08900 31.12300
H  -2.60200 37.06800 32.66500
H  -1.53900 33.27000 32.85700
H  -1.98000 31.91300 31.75600
H  -3.70700 31.32900 33.09600
H  -3.96500 32.87400 33.79200
H  2.23300 37.44600 29.17600
H  0.80100 38.36400 29.79200
H  1.75100 38.95400 28.41000
H  2.28600 39.75700 26.58000
H  3.53400 39.04600 25.45300
H  3.29600 38.25400 26.86500
H  -0.44100 33.97800 22.68800
H  -3.37300 33.67100 22.15700
H  -2.32300 35.09800 20.95500
H  -0.59600 35.22300 20.95700
H  -1.61400 36.37100 21.95100
H  -1.37700 32.37500 21.02800
H  -2.82300 31.48400 21.62800
H  -0.23800 30.54500 22.27400
H  -1.64400 30.28600 23.19600
H  -0.65400 31.74000 23.57100
H  -5.79100 28.87100 26.34200
H  -5.43800 29.83500 24.79700
H  -6.91300 30.13900 25.77000
H  -4.38000 30.72100 30.85500
H  -7.87400 33.04900 32.44700
H  -6.96400 32.76900 33.82800
H  -7.84000 31.34000 33.25100

