158

Mg 46.52600 24.76900 28.55800
C  47.07400 27.13300 31.06000
C  45.66200 22.53600 31.11300
C  46.35600 22.53500 26.25500
C  47.86400 27.10500 26.32700
N  46.00800 24.95400 30.82500
C  46.40800 25.97000 31.59400
C  46.02800 25.74300 33.07400
C  46.02400 24.19400 33.09500
C  45.90700 23.85000 31.61600
C  47.23400 23.52000 33.90100
C  44.87000 26.60100 33.53900
C  44.16000 26.20600 34.85000
H  44.39700 27.22500 35.97000
N  46.01300 22.86100 28.61300
C  45.65500 22.08600 29.70200
C  45.33100 20.74300 29.25200
C  45.54600 20.71400 27.84400
C  45.98900 22.04400 27.48300
C  44.84400 19.63200 30.12900
C  45.44700 19.50500 26.75400
O  45.57500 19.64700 25.52700
C  45.14300 18.11600 27.29000
N  46.96500 24.83000 26.51400
C  46.93400 23.72300 25.77600
C  47.11800 23.99000 24.27000
C  47.64500 25.41000 24.37500
C  47.44700 25.77900 25.81100
C  48.18800 23.03400 23.57400
C  47.02000 26.35800 23.32200
C  45.54500 26.84600 23.60100
N  47.29300 26.73700 28.62300
C  47.90200 27.50200 27.62800
C  48.43900 28.77000 28.16100
C  48.10400 28.59600 29.50500
C  47.46500 27.33500 29.72700
C  48.88200 29.91100 27.31000
C  48.20500 29.34000 30.76800
O  48.67000 30.44000 31.01500
C  47.59900 28.34500 31.83700
C  48.69700 27.87300 32.81900
O  49.62400 27.09900 32.53000
O  48.40200 28.35100 34.10500
C  49.03900 27.67800 35.27300
H  45.48700 21.80000 31.90000
H  46.38300 21.83400 25.41800
H  48.39500 27.73300 25.60800
H  46.89500 26.20900 33.54200
H  45.09100 23.90400 33.57800
H  48.09800 24.13400 34.15700
H  47.69600 22.77200 33.25700
H  46.89900 23.01600 34.80800
H  44.15000 26.68300 32.72400
H  45.29700 27.59900 33.63400
H  44.40500 25.20900 35.21500
H  43.08400 26.06900 34.74400
H  45.68500 18.93900 30.14000
H  43.85300 19.33300 29.78900
H  44.76100 19.93900 31.17100
H  45.13600 17.36100 26.50400
H  44.11500 18.25100 27.62800
H  45.70600 17.79200 28.16500
H  46.15600 24.04600 23.76000
H  48.72100 25.42200 24.20000
H  48.69400 22.42900 24.32700
H  48.75600 23.60600 22.84000
H  47.64500 22.25900 23.03200
H  46.93900 25.81900 22.37800
H  47.77300 27.13800 23.21800
H  45.67500 27.90900 23.80300
H  44.97200 26.40500 24.41600
H  44.85000 26.76400 22.76500
H  49.71800 29.58100 26.69400
H  49.10300 30.80400 27.89400
H  48.08100 30.21100 26.63500
H  46.73700 28.74700 32.36900
H  49.75300 26.89900 35.00800
H  48.20100 27.18500 35.76500
H  49.66100 28.32700 35.88900
Mg 29.59300 57.37800 41.02400
C  26.62000 55.90100 39.93100
C  31.30500 55.14000 39.43700
C  32.22700 59.37100 41.43400
C  27.49200 59.99300 42.46000
N  28.97900 55.71300 39.83800
C  27.75300 55.22400 39.49500
C  27.85500 53.92800 38.65500
C  29.33300 53.58600 38.99700
C  29.97900 54.89500 39.35800
C  29.53000 52.62200 40.23500
C  27.45300 54.18900 37.12700
C  26.62500 52.99000 36.47100
H  26.71900 52.93900 34.94000
N  31.54600 57.23400 40.62900
C  32.07300 56.24900 39.93100
C  33.48600 56.36200 39.74100
C  33.83600 57.59500 40.36500
C  32.51000 58.12800 40.85500
C  34.33400 55.41600 39.00700
C  35.17600 58.06500 40.51400
O  36.09900 57.58200 39.86400
C  35.53400 59.37200 41.24700
N  29.76400 59.44600 41.69800
C  31.06600 59.97100 41.88500
C  30.98300 61.41600 42.38800
C  29.52300 61.48800 42.97300
C  28.88300 60.24500 42.31700
C  32.13000 61.78900 43.39900
C  28.74200 62.71200 42.45100
C  28.10500 63.61900 43.52900
N  27.50800 57.91300 41.15100
C  26.80300 58.96300 41.76800
C  25.36500 58.73100 41.68900
C  25.23200 57.50800 41.02600
C  26.60100 57.10700 40.65900
C  24.25400 59.59200 42.23700
C  24.27300 56.51700 40.52600
O  23.05400 56.49400 40.56900
C  25.15100 55.55000 39.75200
C  24.84700 54.18700 40.36400
O  25.32500 53.82300 41.43100
O  24.04900 53.45900 39.55500
C  23.48000 52.19000 39.89700
H  31.91800 54.25300 39.26200
H  33.10100 60.02600 41.44400
H  26.90300 60.77500 42.94400
H  27.21600 53.20000 39.15400
H  29.70500 53.18100 38.05600
H  28.68800 52.96800 40.83500
H  30.44400 52.74000 40.81600
H  29.37500 51.57400 39.98000
H  28.25700 54.44700 36.43800
H  26.74600 55.01800 37.08900
H  25.61900 53.06700 36.88300
H  27.07500 52.07100 36.84600
H  35.07800 55.86300 38.34800
H  33.70600 54.79500 38.36800
H  34.75100 54.65300 39.66400
H  36.59400 59.50800 41.46500
H  34.95700 59.25700 42.16400
H  35.16300 60.14200 40.57100
H  31.18100 62.09900 41.56200
H  29.33600 61.35900 44.03900
H  32.73600 62.54700 42.90200
H  32.84600 60.97900 43.53700
H  31.70300 62.03900 44.37000
H  28.08500 62.42100 41.63200
H  29.45600 63.36900 41.95500
H  28.90900 64.32800 43.72600
H  28.11900 62.94500 44.38600
H  27.12300 63.99000 43.23400
H  24.61700 60.18600 43.07600
H  23.45300 58.94200 42.58900
H  23.88200 60.21500 41.42300
H  24.80500 55.55800 38.71900
H  24.29600 51.51300 39.64600
H  22.65000 52.02500 39.21000
H  23.20600 52.00500 40.93600

