158

Mg 0.67100 8.09300 26.30400
C  1.47900 10.02300 29.13300
C  0.73200 5.29000 28.16100
C  0.49900 6.27300 23.42000
C  1.23900 10.93100 24.41100
N  1.15900 7.73800 28.38500
C  1.30800 8.63800 29.37700
C  1.17600 7.97300 30.73700
C  1.23000 6.46600 30.36300
C  1.05400 6.47100 28.83800
C  2.59600 5.73800 30.76700
C  -0.07100 8.40700 31.50600
C  -0.00300 8.61300 33.04000
H  1.22700 8.05200 33.80800
N  0.45700 6.10900 25.88100
C  0.52800 5.14100 26.78900
C  0.28300 3.89100 26.13000
C  0.17300 4.11400 24.74300
C  0.37900 5.57900 24.62300
C  0.19300 2.55700 26.92800
C  -0.17500 3.07500 23.62300
O  -0.31700 3.45100 22.47500
C  -0.38400 1.58000 23.96800
N  0.90500 8.53500 24.14900
C  0.63100 7.61400 23.18400
C  0.64500 8.38900 21.78100
C  1.07400 9.80300 22.12600
C  1.07900 9.77700 23.65100
C  1.50300 7.70800 20.63400
C  0.24400 10.95900 21.44200
C  -1.15000 11.20200 22.19300
N  1.06400 10.15200 26.70000
C  1.15500 11.16700 25.84000
C  1.31900 12.42900 26.50000
C  1.37500 12.05800 27.85800
C  1.29800 10.66200 27.90200
C  1.48500 13.80300 25.92100
C  1.66800 12.48300 29.21200
O  1.92100 13.61800 29.67100
C  1.51100 11.16200 30.13800
C  2.72300 11.08500 30.99100
O  3.81800 10.77200 30.66300
O  2.36000 11.53600 32.20900
C  3.46600 11.68200 33.27900
H  0.63800 4.38000 28.75800
H  0.52500 5.63900 22.53100
H  1.50300 11.86700 23.91400
H  2.06000 8.26700 31.30300
H  0.36700 5.91700 30.74000
H  3.01800 5.18800 29.92600
H  2.32800 5.00000 31.52300
H  3.26400 6.45100 31.25100
H  -0.81500 7.61800 31.39700
H  -0.46300 9.32300 31.06300
H  -0.84400 8.36400 33.68700
H  0.12600 9.69400 33.09300
H  0.42600 1.67900 26.32600
H  -0.82000 2.26400 27.20300
H  0.92600 2.52100 27.73500
H  -0.76400 1.13700 23.04800
H  -1.16900 1.63600 24.72100
H  0.56100 1.13900 24.28700
H  -0.33900 8.28900 21.32300
H  2.02100 10.03600 21.63900
H  1.87200 6.72800 20.93600
H  2.25000 8.39700 20.23900
H  0.88900 7.52600 19.75300
H  0.11000 10.63100 20.41100
H  0.85800 11.85000 21.31100
H  -1.89700 11.53400 21.47200
H  -1.02600 12.08100 22.82500
H  -1.44400 10.35400 22.81100
H  1.44200 14.58400 26.68000
H  0.71500 14.05200 25.19100
H  2.43800 13.75000 25.39400
H  0.69700 11.24800 30.85800
H  3.16500 11.20900 34.21400
H  3.36500 12.75200 33.46000
H  4.46300 11.32500 33.02000
Mg 35.91600 1.94300 29.59500
C  33.68400 3.33300 32.13900
C  38.32900 1.96600 31.85200
C  38.05100 1.31700 27.13500
C  33.28300 2.41400 27.27900
N  35.96000 2.75000 31.72800
C  34.99000 3.06900 32.58900
C  35.36200 3.01300 34.11800
C  36.94500 2.69800 33.96800
C  37.15300 2.52300 32.39000
C  37.95100 3.75100 34.59700
C  34.56900 1.89900 34.95100
C  34.10600 2.41400 36.30600
H  35.13900 3.28300 37.07500
N  37.84700 1.64300 29.54600
C  38.67200 1.64300 30.53300
C  39.99000 1.05400 30.10500
C  39.91500 0.94100 28.71600
C  38.54100 1.28800 28.43300
C  41.07000 0.70400 31.03600
C  40.97500 0.42700 27.71500
O  40.73700 0.22800 26.50000
C  42.29300 0.12900 28.21700
N  35.69700 1.81500 27.51700
C  36.73500 1.52900 26.67100
C  36.36400 1.49400 25.17100
C  34.92200 1.95700 25.23000
C  34.55300 2.03700 26.74500
C  37.29200 2.40200 24.34600
C  33.89500 1.08300 24.46300
C  33.38700 -0.20500 25.05300
N  33.84300 2.67000 29.65800
C  32.88300 2.68900 28.65000
C  31.65700 3.18700 29.18900
C  31.89700 3.44700 30.58300
C  33.25500 3.18100 30.81700
C  30.32600 3.43100 28.50300
C  31.35200 3.94500 31.81000
O  30.24600 4.40500 32.08900
C  32.46400 3.78100 32.89400
C  32.52200 5.01500 33.82900
O  32.93700 6.11800 33.49700
O  31.88300 4.74900 35.03200
C  31.63400 5.78700 36.01600
H  39.14800 1.88400 32.57000
H  38.70500 1.19800 26.26900
H  32.40600 2.51000 26.63600
H  35.44100 3.99000 34.59400
H  37.28000 1.85000 34.56600
H  37.56100 4.71000 34.93800
H  38.72900 4.08300 33.91100
H  38.41800 3.34200 35.49400
H  35.24500 1.05300 35.07700
H  33.69300 1.54900 34.40400
H  33.82800 1.54100 36.89700
H  33.18600 2.99600 36.34200
H  41.96000 1.33400 31.03200
H  41.29300 -0.36200 31.00100
H  40.72100 0.78700 32.06500
H  42.81100 1.04800 28.49100
H  42.75000 -0.50700 27.45900
H  42.17300 -0.48700 29.10800
H  36.25100 0.46100 24.84100
H  34.68700 2.95800 24.86900
H  37.93600 1.67700 23.84800
H  37.84700 3.04200 25.03200
H  36.75400 2.92300 23.55400
H  34.38800 0.72400 23.56000
H  33.04100 1.65200 24.09400
H  33.97400 -0.41500 25.94800
H  33.56500 -0.99600 24.32500
H  32.31800 -0.09500 25.23200
H  29.48600 3.80400 29.09000
H  29.91400 2.52000 28.06900
H  30.44300 4.08300 27.63700
H  32.08400 2.94800 33.48600
H  31.19900 6.66200 35.53300
H  32.52100 6.26300 36.43400
H  30.98800 5.58500 36.87000

