158

Mg 48.52100 25.39400 27.87200
C  49.20200 27.64800 30.49600
C  47.38200 23.26900 30.20400
C  48.31400 23.17200 25.39100
C  50.04800 27.65800 25.64400
N  48.23900 25.49100 30.09200
C  48.64800 26.43300 30.93800
C  48.47300 26.07700 32.41100
C  47.93400 24.62100 32.34500
C  47.78300 24.41700 30.80200
C  48.79500 23.51400 33.02800
C  47.65800 27.11600 33.24100
C  46.68000 26.73900 34.27200
H  46.46400 27.70500 35.43400
N  47.80300 23.48700 27.83800
C  47.33200 22.79000 28.87800
C  46.98300 21.47500 28.39900
C  47.20000 21.44600 26.96200
C  47.74600 22.74500 26.65100
C  46.41000 20.37500 29.28800
C  46.86600 20.30700 25.91100
O  47.06800 20.50800 24.73600
C  46.26300 18.97600 26.41700
N  49.19200 25.32900 25.81700
C  49.03800 24.30100 24.98500
C  49.49400 24.50400 23.49600
C  49.64900 26.05100 23.60900
C  49.60100 26.42200 25.14000
C  50.83600 23.79800 23.10300
C  48.56100 26.89100 22.81200
C  49.17500 27.68600 21.60500
N  49.38900 27.27700 27.95700
C  49.93200 28.11300 26.99800
C  50.50000 29.29000 27.61900
C  50.15500 29.17000 28.97300
C  49.44500 27.99700 29.10200
C  51.48200 30.29800 26.96400
C  50.29600 29.82000 30.25100
O  50.85000 30.87700 30.57000
C  49.64700 28.85300 31.29200
C  50.64000 28.66400 32.31600
O  51.52600 27.82500 32.25100
O  50.38200 29.37400 33.43600
C  51.20800 29.03900 34.65200
H  47.23300 22.53100 30.99500
H  48.33000 22.45700 24.56600
H  50.31200 28.37600 24.86400
H  49.45700 26.01900 32.87600
H  46.88500 24.54000 32.63100
H  49.44900 24.10100 33.67300
H  49.44300 22.89700 32.40700
H  48.20600 22.91700 33.72500
H  47.02200 27.59900 32.49900
H  48.32100 27.83900 33.71700
H  46.90400 25.76600 34.71000
H  45.68700 26.61100 33.84100
H  47.03400 19.48700 29.18600
H  45.45900 19.99000 28.92000
H  46.23700 20.74000 30.30000
H  46.97900 18.54200 27.11600
H  46.07300 18.49300 25.45800
H  45.31600 19.11600 26.93700
H  48.70900 24.05700 22.88600
H  50.60200 26.31800 23.15300
H  51.24600 23.18400 23.90500
H  51.53800 24.52000 22.68600
H  50.54100 23.10800 22.31300
H  48.05900 27.56200 23.50900
H  47.80500 26.23800 22.37700
H  48.89500 28.72800 21.75900
H  48.93400 27.31000 20.61000
H  50.25800 27.62200 21.70700
H  52.18400 29.76100 26.32600
H  52.05300 30.80700 27.74000
H  51.08800 31.16900 26.44100
H  48.87700 29.50200 31.71000
H  50.75100 28.15000 35.08600
H  51.12700 29.89300 35.32400
H  52.25900 28.88800 34.40600
Mg -12.94200 16.36600 42.87700
C  -9.95500 14.60500 42.36600
C  -11.55400 19.14200 41.46800
C  -16.12100 17.64800 42.67600
C  -14.47800 13.15100 43.55400
N  -10.89900 16.71500 41.79200
C  -9.78900 15.98000 41.95200
C  -8.55400 16.70500 41.52500
C  -9.12100 18.19200 41.31500
C  -10.64600 18.09200 41.63500
C  -8.37700 19.26800 42.14500
C  -8.06900 16.10400 40.19700
C  -6.52300 16.08300 39.91500
H  -5.86100 15.07900 38.98500
N  -13.78400 18.20500 42.13400
C  -12.98100 19.19900 41.70700
C  -13.79200 20.36400 41.55100
C  -15.13700 20.02600 41.93500
C  -15.07600 18.62500 42.28700
C  -13.16100 21.72400 41.12400
C  -16.37500 20.97000 41.86200
O  -16.27400 22.07800 41.32400
C  -17.71000 20.52100 42.38900
N  -15.01400 15.51000 43.12700
C  -16.12300 16.25100 42.99500
C  -17.43200 15.45300 43.17000
C  -16.84400 14.04100 43.50200
C  -15.37100 14.26000 43.44400
C  -18.59300 15.98100 44.06000
C  -17.51000 12.86700 42.72900
C  -18.05700 11.78300 43.69200
N  -12.37900 14.29400 43.08500
C  -13.10800 13.15900 43.35200
C  -12.23500 11.96100 43.44800
C  -10.99400 12.50400 43.03700
C  -11.11600 13.92100 42.85000
C  -12.57300 10.57700 43.94400
C  -9.57000 12.26500 42.78400
O  -8.92200 11.21000 42.81500
C  -8.89500 13.50200 42.28800
C  -7.67800 13.82700 43.08800
O  -7.57800 14.07300 44.28100
O  -6.61900 13.85200 42.20200
C  -5.35500 14.18900 42.82100
H  -11.14600 20.12200 41.21200
H  -17.13300 18.05400 42.62100
H  -15.01800 12.21400 43.70500
H  -7.81400 16.58600 42.31700
H  -9.01100 18.54600 40.29000
H  -7.55200 18.87400 42.73800
H  -9.08500 19.79900 42.78200
H  -7.91600 19.98800 41.46800
H  -8.48600 16.66000 39.35700
H  -8.51700 15.11700 40.07300
H  -6.00100 16.11400 40.87200
H  -6.22700 17.04900 39.50600
H  -12.57400 22.12800 41.94900
H  -13.95500 22.41400 40.83800
H  -12.53400 21.61100 40.23900
H  -18.13500 19.64000 41.90700
H  -18.38600 21.37600 42.41600
H  -17.55700 20.33200 43.45200
H  -17.88600 15.47500 42.18000
H  -16.89400 13.83200 44.57100
H  -18.67900 17.06700 44.01700
H  -18.57700 15.52200 45.04800
H  -19.52700 15.65200 43.60600
H  -16.85500 12.49000 41.94400
H  -18.34300 13.31200 42.18400
H  -17.75300 10.82900 43.26000
H  -19.12900 11.63900 43.82600
H  -17.49000 11.81300 44.62200
H  -13.23700 9.91700 43.38600
H  -12.94600 10.69900 44.96100
H  -11.62700 10.03700 43.91200
H  -8.48900 13.31100 41.29400
H  -5.09400 13.42900 43.55700
H  -5.45100 15.21700 43.17000
H  -4.67400 14.23000 41.97100

