158

Mg 53.25200 23.89200 44.68200
C  50.81600 26.09600 43.51300
C  51.44600 21.27800 43.29000
C  55.87700 21.76400 45.20300
C  55.18600 26.54400 45.45900
N  51.43400 23.73100 43.44700
C  50.60200 24.78700 43.06000
C  49.67500 24.25700 42.03600
C  49.42400 22.80500 42.48300
C  50.88200 22.55700 43.19100
C  48.16200 22.46700 43.39200
C  50.26500 24.34800 40.51700
C  49.43400 24.98000 39.44000
H  50.17000 25.72900 38.30300
N  53.58400 21.79800 44.38800
C  52.69400 20.89800 43.88000
C  53.36000 19.56200 43.79800
C  54.62600 19.67100 44.33700
C  54.78100 21.10900 44.66000
C  52.68600 18.30800 43.31000
C  55.65700 18.46200 44.40800
O  55.37900 17.39600 43.89100
C  57.05600 18.62100 44.93900
N  55.28600 24.13000 45.14000
C  56.13000 23.13200 45.41900
C  57.42200 23.66800 46.01700
C  57.29700 25.14000 45.77300
C  55.77100 25.28900 45.58000
C  57.97200 23.11200 47.32500
C  57.98500 25.70100 44.48400
C  58.33500 27.22600 44.65900
N  53.06000 25.97400 44.63300
C  53.89600 26.95400 45.13300
C  53.15600 28.19400 45.16400
C  51.95000 27.90000 44.54800
C  51.93400 26.53200 44.24100
C  53.61400 29.53300 45.71700
C  50.75800 28.56700 44.07900
O  50.54500 29.74300 44.01200
C  49.98900 27.43400 43.40100
C  49.64200 27.88400 42.03600
O  50.50100 28.16800 41.17000
O  48.32000 28.13300 41.90300
C  47.92500 28.92800 40.77200
H  50.80900 20.47500 42.91300
H  56.72200 21.12800 45.47300
H  55.84800 27.33500 45.81700
H  48.72700 24.78400 42.14600
H  49.45500 22.05500 41.69300
H  47.55000 21.71200 42.89900
H  47.55100 23.34000 43.61800
H  48.45400 22.19700 44.40700
H  50.33500 23.32100 40.15900
H  51.22800 24.86100 40.51700
H  48.79200 25.73500 39.89400
H  48.64100 24.34100 39.05200
H  53.18100 17.78800 42.49000
H  51.73700 18.51400 42.81500
H  52.44500 17.65500 44.14900
H  57.59500 17.70300 44.70100
H  56.96700 18.72600 46.02100
H  57.46500 19.44400 44.35400
H  58.19000 23.35500 45.31000
H  57.55700 25.73600 46.64800
H  58.85400 22.49000 47.17300
H  57.16900 22.52300 47.76800
H  58.19700 24.01500 47.89300
H  57.31100 25.58100 43.63600
H  58.88600 25.13400 44.25100
H  57.53200 27.91100 44.38400
H  59.29100 27.48000 44.20300
H  58.40400 27.45700 45.72200
H  53.73700 30.17100 44.84200
H  54.61500 29.42600 46.13500
H  53.03100 29.98100 46.52200
H  49.07600 27.31500 43.98400
H  48.09700 28.27400 39.91700
H  48.49000 29.83700 40.56800
H  46.85200 29.11700 40.81200
Mg 6.90800 52.59100 42.12800
C  6.50100 49.04400 41.74300
C  10.26400 52.18200 41.02800
C  7.08100 55.82300 41.84900
C  3.52700 52.75200 42.75000
N  8.22700 50.81500 41.46800
C  7.80300 49.46500 41.34600
C  9.04000 48.59900 40.93100
C  10.25400 49.64600 41.12700
C  9.55800 50.99000 41.22100
C  11.33600 49.32500 42.22500
C  8.99400 47.86900 39.56700
C  8.82800 48.73400 38.25300
H  7.95100 48.17300 37.12700
N  8.50800 53.85000 41.58300
C  9.78100 53.55000 41.16800
C  10.55100 54.73200 41.02800
C  9.61200 55.84200 41.28400
C  8.31000 55.20500 41.52000
C  12.06600 54.65200 40.74300
C  10.02100 57.28200 41.12900
O  11.22000 57.56200 40.93200
C  9.03800 58.37700 41.42900
N  5.49100 54.06100 42.13700
C  5.83300 55.31900 42.22900
C  4.73200 56.22300 42.62600
C  3.56400 55.32300 43.05600
C  4.17900 53.94100 42.61000
C  5.03600 57.22400 43.79400
C  2.14900 55.60100 42.46600
C  2.01300 55.21000 40.98200
N  5.32900 51.23500 42.17600
C  4.01700 51.48600 42.48000
C  3.39400 50.23300 42.77100
C  4.31700 49.25000 42.37300
C  5.47400 49.89100 42.02600
C  1.94900 50.11800 43.28800
C  4.50200 47.84700 42.18300
O  3.76900 46.86700 42.30100
C  5.92200 47.68900 41.65800
C  5.71300 47.13300 40.29000
O  5.40400 47.72800 39.24300
O  6.09500 45.88700 40.37700
C  5.93900 44.98800 39.34500
H  11.32100 52.00900 40.81400
H  7.02400 56.90100 41.68400
H  2.47800 52.75600 43.05200
H  9.07700 47.84900 41.72200
H  10.86600 49.68800 40.22600
H  11.09600 48.48000 42.87100
H  11.59600 50.15900 42.87700
H  12.30500 49.05500 41.80300
H  8.32100 47.01700 39.46400
H  10.01600 47.49200 39.53100
H  9.85100 48.87100 37.90300
H  8.46700 49.73000 38.50900
H  12.55000 55.61100 40.92600
H  12.22800 54.41200 39.69200
H  12.51300 53.94000 41.43700
H  8.22300 58.28300 40.71100
H  9.61800 59.29300 41.32100
H  8.74800 58.14400 42.45400
H  4.49100 56.86700 41.78000
H  3.47800 55.16000 44.13000
H  4.14300 57.81200 44.00800
H  5.76100 57.91300 43.36100
H  5.37700 56.81900 44.74700
H  1.91700 56.66400 42.53300
H  1.49800 55.10100 43.18400
H  0.97900 55.40900 40.70200
H  2.14900 54.13400 40.87500
H  2.70100 55.75800 40.33800
H  1.77300 49.24000 43.91000
H  1.33800 50.06800 42.38600
H  1.67600 50.92400 43.96900
H  6.30800 46.91700 42.32400
H  6.88500 44.51100 39.08600
H  5.50200 45.42900 38.44900
H  5.34100 44.17700 39.76200

