158

Mg -1.67200 18.06600 27.53300
C  -2.24400 15.82700 30.06500
C  -2.21200 20.66400 29.55500
C  -1.37500 20.05800 24.81700
C  -1.89000 15.28400 25.22300
N  -2.06300 18.21200 29.64200
C  -2.24300 17.18300 30.52400
C  -2.57000 17.66600 31.94500
C  -2.90700 19.19000 31.69100
C  -2.32500 19.39800 30.22800
C  -4.43400 19.63500 31.89200
C  -1.44500 17.45900 32.94200
C  -1.90100 16.92000 34.24800
H  -0.87200 16.81500 35.38600
N  -1.73500 20.08100 27.20600
C  -1.94100 20.99700 28.22600
C  -1.74200 22.36900 27.74300
C  -1.58100 22.27100 26.34700
C  -1.56300 20.73800 26.08100
C  -1.78500 23.58300 28.58400
C  -1.31900 23.30900 25.34700
O  -1.41100 23.13900 24.11500
C  -0.87700 24.53700 25.84100
N  -1.63200 17.70100 25.32100
C  -1.44100 18.71400 24.42100
C  -1.56700 18.33900 22.96500
C  -1.86600 16.78000 23.08800
C  -1.82400 16.52800 24.60800
C  -2.81200 19.04800 22.30300
C  -0.89900 16.00000 22.15200
C  0.63500 15.97200 22.55900
N  -1.89300 16.02200 27.58100
C  -1.94100 15.01900 26.61300
C  -2.06500 13.68200 27.20900
C  -2.16700 13.97000 28.58000
C  -2.10000 15.38600 28.72200
C  -1.97500 12.40000 26.53100
C  -2.33900 13.35900 29.86600
O  -2.52700 12.18600 30.10100
C  -2.39600 14.52600 30.87900
C  -1.09400 14.29100 31.65900
O  0.05600 14.42100 31.24900
O  -1.37500 13.81300 32.86400
C  -0.23700 13.68300 33.75500
H  -2.30000 21.33400 30.41300
H  -1.20300 20.72500 23.96900
H  -1.96900 14.49000 24.47700
H  -3.48600 17.18800 32.29000
H  -2.32600 19.68400 32.46900
H  -4.79900 20.08100 30.96700
H  -4.49200 20.38200 32.68400
H  -5.10300 18.81300 32.14800
H  -0.95300 18.41600 33.11600
H  -0.62500 16.81700 32.62100
H  -2.45900 15.98700 34.16600
H  -2.63400 17.59700 34.68800
H  -2.25300 23.42300 29.55600
H  -2.13000 24.49900 28.10400
H  -0.75200 23.78400 28.86700
H  -1.67600 25.27400 25.92300
H  -0.35700 25.10900 25.07200
H  -0.23300 24.41600 26.71200
H  -0.65100 18.61300 22.44100
H  -2.85900 16.44600 22.78700
H  -2.82100 18.62600 21.29900
H  -2.68600 20.12800 22.21900
H  -3.73700 18.88300 22.85500
H  -1.00800 16.44400 21.16200
H  -1.31500 14.99500 22.23300
H  0.84600 16.40600 23.53600
H  1.14700 16.65200 21.87800
H  1.17900 15.04600 22.37400
H  -1.20600 11.75900 26.96200
H  -1.65200 12.45900 25.49100
H  -2.98000 12.02800 26.72900
H  -3.28300 14.38200 31.49500
H  0.31300 14.62300 33.81700
H  0.40000 12.89500 33.35200
H  -0.57400 13.33200 34.73000
Mg -10.93700 16.75700 40.22900
C  -7.57700 16.26000 40.40000
C  -10.44900 20.13200 40.29700
C  -14.29400 17.18400 39.48700
C  -11.37400 13.29500 39.88800
N  -9.15300 17.99300 40.23500
C  -7.86100 17.64900 40.35500
C  -6.99300 18.81400 40.19600
C  -7.91300 19.95100 40.75900
C  -9.29600 19.37300 40.43600
C  -7.72100 20.29200 42.25800
C  -6.47700 19.10400 38.83300
C  -5.04400 18.69900 38.50700
H  -4.83000 18.01300 37.17400
N  -12.17900 18.43500 39.99400
C  -11.79000 19.76200 40.01900
C  -12.83000 20.61600 39.56100
C  -13.97800 19.79200 39.37300
C  -13.53500 18.38700 39.64500
C  -12.58800 22.04900 39.11400
C  -15.36600 20.23800 38.84700
O  -15.51800 21.40600 38.59300
C  -16.59600 19.35900 38.79600
N  -12.53800 15.44100 39.56600
C  -13.86500 15.85700 39.53300
C  -14.85900 14.66200 39.48500
C  -13.85900 13.45100 39.72900
C  -12.50100 14.10100 39.74000
C  -16.08000 14.75500 40.38600
C  -13.97100 12.41600 38.57500
C  -14.07700 10.88400 38.95000
N  -9.72100 15.06600 40.11900
C  -10.03800 13.72800 39.98500
C  -8.83300 12.96000 39.97600
C  -7.83500 13.90200 40.15800
C  -8.40900 15.20000 40.23300
C  -8.63600 11.54400 39.97300
C  -6.41300 14.10100 40.25800
O  -5.55000 13.29300 40.37700
C  -6.20400 15.62500 40.44500
C  -5.51300 15.71800 41.76800
O  -5.73100 15.02900 42.74100
O  -4.67700 16.75700 41.76000
C  -4.05300 16.99400 43.04900
H  -10.20500 21.19300 40.37500
H  -15.37600 17.21700 39.34600
H  -11.51700 12.21300 39.92300
H  -6.14200 18.68900 40.86600
H  -7.86500 20.90700 40.23800
H  -8.66100 20.31600 42.81000
H  -7.26000 21.27900 42.24800
H  -7.05400 19.62800 42.80800
H  -6.60600 20.16700 38.62500
H  -7.17000 18.62000 38.14500
H  -4.52200 18.12100 39.27100
H  -4.47300 19.62800 38.51700
H  -13.08200 22.74400 39.79400
H  -13.03700 22.10100 38.12200
H  -11.51600 22.23600 39.06100
H  -17.55600 19.86900 38.87200
H  -16.62800 18.67400 39.64400
H  -16.61800 18.92300 37.79800
H  -15.24000 14.64000 38.46400
H  -13.98600 12.86800 40.64000
H  -16.06700 13.84000 40.97700
H  -16.97500 14.69900 39.76600
H  -16.09400 15.67000 40.97900
H  -13.30600 12.58600 37.72800
H  -14.83500 12.79500 38.02900
H  -13.50400 10.19700 38.32700
H  -15.14000 10.65900 38.86300
H  -13.83200 10.74500 40.00400
H  -7.89900 11.20900 40.70200
H  -8.32500 11.17200 38.99700
H  -9.53400 11.12400 40.42600
H  -5.49600 16.06600 39.74400
H  -3.83500 16.06000 43.56700
H  -4.71000 17.55200 43.71600
H  -3.13900 17.53200 42.79500

