158

Mg 45.60600 4.31200 46.89700
C  43.71600 7.24200 46.54600
C  42.70100 2.50000 46.29600
C  47.46500 1.62000 46.50300
C  48.52300 6.37300 46.35800
N  43.42700 4.79700 46.67200
C  42.97500 6.09400 46.53800
C  41.42200 6.06600 46.34900
C  41.07200 4.56700 46.56800
C  42.47700 3.83600 46.62400
C  40.17100 4.35300 47.81400
C  40.90000 6.62600 44.96500
C  41.88300 6.61800 43.75500
H  41.13400 6.02500 42.56100
N  45.14400 2.29500 46.55300
C  43.91700 1.77700 46.23400
C  44.04200 0.36400 45.91300
C  45.44000 0.04800 45.98600
C  46.05900 1.36000 46.37900
C  42.88100 -0.56800 45.34300
C  46.03300 -1.29400 45.67500
O  45.37300 -2.30800 45.37000
C  47.57200 -1.46100 45.47200
N  47.66700 4.06300 46.38300
C  48.17600 2.83000 46.50100
C  49.74100 2.84600 46.32700
C  50.06300 4.35800 46.31200
C  48.70400 4.98500 46.42800
C  50.67900 1.95900 47.25400
C  50.93500 4.92900 45.17200
C  52.21400 5.71000 45.47900
N  46.07300 6.34400 46.66500
C  47.27400 6.98600 46.45300
C  47.00200 8.45400 46.45100
C  45.61000 8.63700 46.60100
C  45.10400 7.27700 46.62000
C  48.06600 9.54900 46.22900
C  44.48400 9.53900 46.63400
O  44.37500 10.77000 46.68700
C  43.23400 8.69800 46.58300
C  42.36200 8.99400 47.77300
O  42.13600 8.29300 48.81200
O  41.71100 10.21600 47.64500
C  40.78100 10.63700 48.69600
H  41.75300 2.01400 46.05700
H  48.13700 0.77900 46.32100
H  49.43000 6.98200 46.37000
H  41.11800 6.66900 47.20500
H  40.56300 4.26700 45.65200
H  39.63600 5.23300 48.17100
H  40.86700 4.10900 48.61600
H  39.40600 3.60800 47.59200
H  40.76800 7.70000 45.09800
H  39.96200 6.24000 44.56700
H  42.61800 5.84300 43.97100
H  42.37500 7.54100 43.44500
H  43.03700 -0.77700 44.28400
H  41.84500 -0.23600 45.40200
H  42.83800 -1.49900 45.90800
H  47.83700 -2.48000 45.19300
H  48.11600 -1.45700 46.41700
H  47.99300 -0.69700 44.81800
H  50.00600 2.41300 45.36200
H  50.65200 4.58800 47.20000
H  51.31400 1.24500 46.73000
H  50.02500 1.44700 47.95900
H  51.20100 2.63000 47.93600
H  50.37800 5.66400 44.59000
H  51.20700 4.12200 44.49200
H  53.10600 5.13500 45.22900
H  52.16200 5.99600 46.53000
H  52.14700 6.60500 44.86200
H  48.59500 9.69300 47.17100
H  47.63900 10.51300 45.95100
H  48.82900 9.26400 45.50500
H  42.77900 8.95600 45.62700
H  40.67100 11.72200 48.70300
H  41.02600 10.57400 49.75700
H  39.87400 10.11500 48.39200
Mg -5.65600 25.51100 25.50400
C  -4.32300 26.75600 28.42100
C  -7.64000 23.40200 27.30000
C  -6.53800 23.93800 22.58200
C  -3.17800 27.37000 23.64400
N  -5.88200 25.05800 27.68800
C  -5.27000 25.76200 28.71200
C  -5.83500 25.31200 30.07800
C  -6.59600 23.96600 29.63300
C  -6.83200 24.17600 28.11500
C  -5.69600 22.72700 29.79400
C  -6.79200 26.25500 30.75200
C  -6.69300 26.16300 32.23400
H  -6.05300 24.95400 32.95000
N  -6.96400 23.89900 25.02100
C  -7.74700 23.29600 25.90100
C  -8.62200 22.44300 25.11700
C  -8.24900 22.52200 23.75800
C  -7.20600 23.48100 23.72400
C  -9.80300 21.61700 25.79400
C  -8.74000 21.68000 22.57600
O  -8.32100 21.84900 21.42400
C  -9.81700 20.70300 22.76100
N  -4.81900 25.52300 23.43800
C  -5.42300 24.85800 22.42400
C  -4.92200 25.28000 21.04100
C  -4.13600 26.57100 21.37000
C  -3.96500 26.46400 22.86200
C  -4.18400 24.07000 20.39900
C  -4.79100 27.93100 20.94900
C  -4.06800 28.61500 19.75800
N  -4.06500 26.83300 25.84600
C  -3.12900 27.50000 25.04700
C  -2.43400 28.49000 25.93000
C  -2.86200 28.13300 27.21400
C  -3.77300 27.09700 27.15600
C  -1.58300 29.62100 25.54800
C  -2.52100 28.46600 28.58400
O  -1.69200 29.23600 28.98900
C  -3.46300 27.54100 29.42800
C  -2.50000 26.67500 30.18400
O  -1.94100 25.70000 29.67500
O  -2.38500 27.10800 31.46400
C  -1.59800 26.31700 32.39900
H  -8.31000 22.79300 27.91000
H  -6.81700 23.45700 21.64200
H  -2.52700 28.05200 23.09200
H  -4.97800 25.21900 30.74400
H  -7.51500 23.76800 30.18500
H  -4.67800 22.95000 30.11300
H  -5.65200 22.28000 28.80200
H  -6.17000 22.05200 30.50700
H  -7.80300 25.89000 30.57200
H  -6.66500 27.28300 30.41100
H  -7.72800 26.19400 32.57400
H  -6.23500 27.06000 32.65100
H  -9.85500 21.68800 26.88100
H  -9.72400 20.55700 25.55300
H  -10.72500 22.08600 25.45100
H  -10.22300 20.30800 21.83000
H  -10.65900 21.22400 23.21700
H  -9.61900 19.80600 23.34700
H  -5.81000 25.37500 20.41700
H  -3.11100 26.48500 21.01100
H  -3.24700 24.47300 20.01700
H  -4.74800 23.66900 19.55700
H  -4.20600 23.23600 21.10100
H  -4.72900 28.67300 21.74500
H  -5.82500 27.77600 20.63900
H  -3.13000 28.14700 19.45900
H  -3.72300 29.61700 20.01400
H  -4.71100 28.44700 18.89400
H  -1.61900 29.82200 24.47700
H  -0.49600 29.58200 25.62500
H  -1.94000 30.52200 26.04600
H  -4.07100 28.10700 30.13400
H  -2.26000 26.04600 33.22200
H  -0.80700 26.89400 32.87800
H  -1.28200 25.40700 31.89000

