158

Mg 41.70100 40.69200 26.35100
C  40.95200 43.10300 28.89600
C  42.11400 38.33700 29.00100
C  42.68600 38.46600 24.14000
C  41.66800 43.16600 24.03300
N  41.42300 40.71000 28.77500
C  41.13300 41.78200 29.52500
C  40.97900 41.37200 30.98500
C  41.39200 39.81600 30.98000
C  41.69100 39.57300 29.49600
C  42.61200 39.41100 31.88200
C  39.54800 41.69000 31.41500
C  39.25700 42.74800 32.53700
H  38.49400 42.38500 33.89200
N  42.26900 38.66700 26.51800
C  42.48000 37.93300 27.66600
C  43.02800 36.63100 27.32500
C  43.20000 36.66000 25.91500
C  42.69800 37.95800 25.43500
C  43.34100 35.61400 28.29700
C  43.96300 35.65300 25.07500
O  44.10800 35.83000 23.85900
C  44.58300 34.33100 25.61700
N  42.21800 40.83100 24.40800
C  42.43700 39.74600 23.64800
C  42.45900 40.13600 22.02400
C  41.84800 41.51600 22.10900
C  41.97600 41.88400 23.55800
C  43.85400 39.94900 21.41800
C  40.39600 41.52300 21.55100
C  39.29200 40.80900 22.41200
N  41.29600 42.69200 26.39300
C  41.35700 43.59800 25.35400
C  41.14800 44.89600 25.84700
C  40.92100 44.71800 27.24800
C  41.04100 43.39300 27.51600
C  40.98300 46.19000 25.00000
C  40.54500 45.48300 28.43000
O  40.21700 46.67600 28.55500
C  40.59400 44.50100 29.55300
C  41.63200 45.07900 30.53800
O  42.75600 45.44000 30.25900
O  41.02900 45.17900 31.79500
C  41.82500 45.70800 32.85100
H  42.01800 37.65100 29.84500
H  43.00400 37.79100 23.34200
H  41.37200 43.85400 23.23900
H  41.59700 41.96400 31.66000
H  40.55300 39.13400 31.11300
H  43.42400 38.93800 31.33100
H  42.20000 38.69000 32.58800
H  42.95000 40.34400 32.33300
H  39.12600 40.76100 31.79900
H  38.92800 41.88300 30.54000
H  38.63100 43.55100 32.14700
H  40.22000 43.06800 32.93600
H  44.41400 35.47200 28.42600
H  42.84400 34.68900 28.00500
H  42.98800 35.96000 29.26900
H  44.88100 33.67400 24.80000
H  43.80000 33.87400 26.22200
H  45.44900 34.69600 26.17000
H  41.74800 39.52100 21.47200
H  42.37200 42.21300 21.45400
H  44.50600 39.99500 22.29000
H  44.12400 40.72100 20.69700
H  43.77800 39.08000 20.76500
H  40.41100 40.94300 20.62800
H  40.10200 42.54100 21.29500
H  39.49900 39.74800 22.55200
H  38.39900 40.94700 21.80300
H  39.08200 41.35400 23.33300
H  40.92400 47.11500 25.57300
H  40.07500 46.19300 24.39700
H  41.70000 46.23000 24.18000
H  39.61600 44.43900 30.03100
H  42.51300 46.47700 32.49900
H  42.40300 44.92900 33.34700
H  41.10700 46.20400 33.50400
Mg 0.66800 43.57300 25.59300
C  2.94700 43.05800 28.16100
C  -1.83900 42.66200 27.87600
C  -1.50000 43.56400 23.04600
C  3.29900 43.65400 23.34700
N  0.58600 43.00900 27.76500
C  1.58100 43.01500 28.67300
C  1.10600 42.82500 30.20400
C  -0.44200 42.61100 29.99100
C  -0.57600 42.65100 28.44500
C  -1.07200 41.36900 30.77400
C  1.51000 44.17400 30.98500
C  1.69100 44.04500 32.54200
H  1.25000 42.81100 33.29200
N  -1.35800 43.24700 25.50200
C  -2.21600 42.96900 26.54200
C  -3.54600 43.05500 26.01600
C  -3.49600 43.40300 24.71600
C  -2.05900 43.37600 24.34000
C  -4.84600 42.90200 26.95600
C  -4.64400 43.70500 23.75500
O  -4.44700 44.05200 22.55100
C  -6.06300 43.62000 24.23300
N  0.89500 43.83400 23.59000
C  -0.14600 43.69100 22.70400
C  0.32700 43.40700 21.29700
C  1.76000 43.78700 21.33000
C  2.02900 43.79300 22.82400
C  0.07700 41.98100 20.80400
C  1.95700 45.23000 20.70000
C  1.86500 46.54100 21.58200
N  2.78300 43.42400 25.64800
C  3.71800 43.59500 24.66500
C  5.05900 43.36700 25.22300
C  4.83500 43.18400 26.62100
C  3.39500 43.18800 26.84000
C  6.45700 43.51400 24.58400
C  5.44000 42.91800 27.93800
O  6.62500 42.88200 28.24900
C  4.26000 42.92000 28.96800
C  4.39000 41.74800 29.95100
O  4.44900 40.55600 29.79100
O  4.51300 42.30600 31.14600
C  5.14400 41.49700 32.18700
H  -2.62800 42.62900 28.63000
H  -2.20900 43.34600 22.24400
H  4.12000 43.88700 22.66600
H  1.52300 41.96100 30.72200
H  -1.04800 43.48200 30.24200
H  -1.85800 41.80900 31.38800
H  -0.34900 40.95700 31.47800
H  -1.59700 40.72300 30.07100
H  0.79400 44.98700 30.87000
H  2.33500 44.60700 30.41900
H  1.20200 44.95500 32.89000
H  2.72000 44.23700 32.84700
H  -5.27400 43.90000 27.05000
H  -4.52400 42.57500 27.94400
H  -5.53000 42.13100 26.60100
H  -6.27400 42.63200 24.64200
H  -6.84600 43.73000 23.48300
H  -6.33500 44.44800 24.88700
H  -0.35100 43.94800 20.63700
H  2.52800 43.14800 20.89500
H  0.84300 41.51300 20.18700
H  -0.88500 41.96100 20.29200
H  -0.07500 41.41000 21.72000
H  1.41400 45.22900 19.75500
H  2.98100 45.23300 20.32700
H  2.85500 46.71600 22.00500
H  1.11300 46.51600 22.37000
H  1.66600 47.39200 20.93000
H  6.42200 43.13400 23.56300
H  7.29600 43.03200 25.08400
H  6.71600 44.57300 24.57200
H  4.39700 43.81000 29.58200
H  5.76700 42.09900 32.84800
H  5.74400 40.67800 31.79200
H  4.36000 41.11300 32.83800

