158

Mg 48.05600 25.71900 27.96000
C  48.99300 27.84500 30.62200
C  46.93400 23.49200 30.50400
C  47.35200 23.54400 25.58300
C  49.68200 27.82800 25.69500
N  48.01100 25.73700 30.26400
C  48.31800 26.73200 31.07300
C  48.02500 26.38400 32.54700
C  47.46300 24.96700 32.54400
C  47.42400 24.70000 30.98600
C  48.19100 23.92200 33.45900
C  47.11200 27.44200 33.12200
C  47.28700 27.60200 34.68300
H  46.08000 27.81600 35.62000
N  47.28000 23.78300 28.10000
C  46.78400 23.09200 29.15400
C  46.35900 21.73600 28.74700
C  46.54500 21.72200 27.30300
C  47.05800 23.04400 26.94300
C  46.13400 20.65900 29.61600
C  46.08800 20.63700 26.31600
O  46.37900 20.76100 25.16300
C  45.17100 19.53000 26.77400
N  48.43400 25.69400 25.96100
C  48.06000 24.65700 25.14600
C  48.31000 25.01000 23.60400
C  49.10500 26.36400 23.67400
C  49.09800 26.62200 25.23500
C  48.96200 23.98000 22.70000
C  48.40300 27.50800 22.83400
C  49.23200 28.29600 21.84000
N  49.19800 27.41600 28.07300
C  49.85100 28.18300 27.09000
C  50.37200 29.44500 27.66200
C  50.09200 29.28000 29.05000
C  49.28400 28.10800 29.25000
C  50.95200 30.55900 26.81200
C  50.19800 29.90600 30.33400
O  50.77200 30.95800 30.67000
C  49.43100 29.06000 31.35000
C  50.28600 28.82400 32.56300
O  51.06900 27.90000 32.67000
O  50.07900 29.91300 33.37300
C  50.70000 29.79600 34.66100
H  46.61700 22.84200 31.32200
H  47.17400 22.89000 24.72800
H  50.13600 28.55100 25.01500
H  48.99700 26.44600 33.03600
H  46.44900 24.97800 32.94400
H  48.88100 24.42900 34.13400
H  48.81400 23.18600 32.95100
H  47.44500 23.37100 34.03100
H  46.06600 27.18100 32.96300
H  47.12500 28.40900 32.61900
H  47.81000 28.54800 34.82600
H  47.92500 26.86200 35.16600
H  46.71600 20.82000 30.52300
H  46.64200 19.80400 29.17000
H  45.07200 20.42000 29.66700
H  45.68800 18.87900 27.48000
H  45.08000 18.94000 25.86200
H  44.17200 19.91500 26.97800
H  47.30700 25.23700 23.24200
H  50.13400 26.35300 23.31700
H  48.68400 22.98500 23.04600
H  50.03100 24.19300 22.68700
H  48.76400 23.99400 21.62900
H  47.98200 28.04700 23.68200
H  47.53700 27.10100 22.31200
H  48.59000 28.30200 20.95900
H  50.15700 27.76500 21.61600
H  49.47500 29.32600 22.10200
H  50.35700 30.70900 25.91100
H  52.00400 30.29000 26.71800
H  50.95800 31.49500 27.37100
H  48.54200 29.64700 31.58200
H  50.36100 28.99900 35.32200
H  50.40000 30.73500 35.12700
H  51.78800 29.74200 34.71500
Mg 1.25500 41.13900 25.46700
C  2.27400 41.56400 28.91800
C  -1.68900 39.78800 26.73200
C  0.40500 40.67500 22.30200
C  4.55400 41.74300 24.53600
N  0.35400 40.80800 27.56500
C  0.93500 41.08300 28.77500
C  -0.03500 40.73700 29.96200
C  -1.28400 40.16200 29.18600
C  -0.86300 40.27300 27.76100
C  -1.56600 38.70500 29.62400
C  -0.30000 41.96800 30.89900
C  -0.56900 41.69100 32.40800
H  -1.55900 40.49700 32.70100
N  -0.47700 40.43900 24.65100
C  -1.58500 40.02000 25.32000
C  -2.59200 39.69100 24.31100
C  -1.91400 39.86300 23.02600
C  -0.58000 40.39000 23.28600
C  -3.94200 39.17900 24.65900
C  -2.54300 39.56000 21.62800
O  -1.94400 39.86100 20.59400
C  -3.95600 39.02600 21.49100
N  2.37900 41.18100 23.69800
C  1.75300 41.00800 22.47100
C  2.80100 41.14800 21.33600
C  4.13700 41.37000 22.11400
C  3.65600 41.50100 23.49700
C  2.89100 40.01500 20.23800
C  4.84100 42.71300 21.71300
C  4.15100 44.06900 22.00600
N  3.10500 41.65200 26.45500
C  4.35700 41.80700 25.92600
C  5.29800 41.96100 27.00100
C  4.48300 41.88200 28.18000
C  3.12700 41.70500 27.80100
C  6.81500 42.02500 26.91900
C  4.58800 41.94100 29.57100
O  5.57800 42.21200 30.25100
C  3.19600 41.73900 30.15300
C  3.21600 40.42700 30.97300
O  3.66900 39.37500 30.51200
O  2.87400 40.62500 32.29800
C  3.02800 39.44200 33.07900
H  -2.46700 39.15900 27.17000
H  0.12200 40.53800 21.25600
H  5.61500 41.80700 24.28200
H  0.44700 40.02800 30.63500
H  -2.16200 40.78600 29.35400
H  -1.02700 38.40900 30.52400
H  -1.14600 38.00400 28.90300
H  -2.64500 38.69900 29.77800
H  -1.18600 42.51500 30.57400
H  0.52600 42.67800 30.89600
H  -1.04500 42.57800 32.82600
H  0.36700 41.51100 32.93700
H  -4.10300 39.36400 25.72100
H  -3.86600 38.10700 24.47200
H  -4.77000 39.52800 24.04300
H  -4.04200 37.97600 21.77200
H  -4.19700 38.92700 20.43200
H  -4.70600 39.65200 21.97500
H  2.51700 42.11300 20.91800
H  4.86100 40.55600 22.13700
H  2.21300 39.16900 20.35400
H  3.90600 39.62500 20.16600
H  2.54800 40.40800 19.28100
H  4.98200 42.61800 20.63700
H  5.79800 42.64700 22.23000
H  3.99200 44.51800 21.02600
H  4.82700 44.71600 22.56500
H  3.21100 44.01900 22.55600
H  7.13600 42.08500 25.87900
H  7.23000 41.17900 27.46600
H  7.09900 42.91000 27.48800
H  3.05400 42.63700 30.75400
H  4.10400 39.27400 33.11900
H  2.57400 38.60200 32.55300
H  2.80100 39.47000 34.14500

