158

Mg 46.54000 43.41100 42.66700
C  43.13400 42.61300 42.05200
C  47.31900 40.21100 41.77000
C  49.67900 44.49600 42.28000
C  45.50700 46.88600 42.02500
N  45.35600 41.64400 42.09900
C  43.97800 41.49500 42.04500
C  43.55100 40.07600 41.75500
C  44.84700 39.27700 41.94700
C  45.96600 40.38800 41.93400
C  44.82900 38.27500 43.17700
C  42.84500 39.85600 40.45000
C  43.20900 40.78300 39.23600
H  43.34600 40.16700 37.88800
N  48.32600 42.41300 42.25700
C  48.43900 41.10300 41.96200
C  49.86200 40.87400 41.61400
C  50.60900 42.06200 41.75700
C  49.55600 43.07000 42.06200
C  50.28400 39.45900 41.31500
C  52.06600 42.20100 41.55800
O  52.73000 41.17800 41.42000
C  52.83400 43.57400 41.66700
N  47.55500 45.44000 42.25200
C  48.82600 45.57400 42.25800
C  49.24100 47.02700 42.16900
C  47.90700 47.74000 42.14800
C  46.84800 46.61200 42.09600
C  50.10100 47.45600 43.31100
C  47.70400 48.86300 41.12100
C  47.50100 48.42500 39.60300
N  44.65700 44.57700 42.40100
C  44.42100 45.97000 42.15600
C  42.95200 46.24800 42.01900
C  42.44500 44.93200 42.05900
C  43.50900 43.97400 42.15800
C  42.35000 47.65700 41.88400
C  41.24200 44.16000 42.11500
O  40.08500 44.55000 42.12700
C  41.61200 42.62600 42.26800
C  41.19200 42.16000 43.65400
O  40.36000 41.31200 43.82700
O  41.72000 42.98900 44.63300
C  41.09900 42.95600 45.98300
H  47.49900 39.15600 41.55300
H  50.69200 44.79200 42.00100
H  45.27400 47.95200 41.98600
H  42.78000 39.89100 42.50400
H  45.03200 38.68100 41.05300
H  45.37000 38.75800 43.99100
H  45.35300 37.34600 42.94800
H  43.88100 38.08800 43.68100
H  41.83500 40.18800 40.69000
H  42.91600 38.78700 40.25000
H  44.06500 41.44600 39.36000
H  42.31100 41.38600 39.10500
H  50.73600 39.59100 40.33200
H  49.46800 38.74400 41.42300
H  51.08700 39.30000 42.03400
H  52.55800 44.17400 40.80000
H  53.90300 43.40800 41.53900
H  52.64200 44.08400 42.61100
H  49.77800 47.11100 41.22400
H  47.78000 48.17400 43.14000
H  49.98700 46.84400 44.20500
H  49.80500 48.41100 43.74700
H  51.11500 47.45700 42.91200
H  48.60600 49.47200 41.17800
H  46.87000 49.51800 41.37300
H  48.22900 48.87700 38.92800
H  46.52000 48.86700 39.42700
H  47.52100 47.33800 39.52500
H  43.01200 48.43300 41.49800
H  41.84300 48.02800 42.77400
H  41.56500 47.47200 41.15000
H  41.12100 42.17100 41.40700
H  40.40700 42.12700 46.13300
H  40.52300 43.86200 46.17200
H  41.73900 42.87300 46.86200
Mg 16.14100 51.89300 25.63400
C  17.90300 50.66100 28.43700
C  13.52000 52.65200 27.81000
C  14.26300 52.35300 23.02300
C  18.75700 50.57000 23.52600
N  15.71800 51.47200 27.87200
C  16.69100 51.24000 28.78700
C  16.29500 51.66900 30.23300
C  14.84400 52.28100 30.05900
C  14.64300 52.09400 28.47500
C  13.68800 51.57600 30.80500
C  17.28200 52.65000 30.87900
C  17.47400 52.53000 32.36800
H  16.43900 51.65600 33.20800
N  14.17600 52.52800 25.42500
C  13.28700 52.86100 26.43600
C  12.15200 53.44400 25.81600
C  12.25100 53.16600 24.44800
C  13.62800 52.69700 24.23100
C  11.03900 53.97400 26.64600
C  11.23400 53.29800 23.33700
O  11.44800 52.93600 22.20500
C  9.85500 53.89300 23.53800
N  16.59600 51.67600 23.54100
C  15.49300 51.82700 22.72400
C  15.83600 51.31300 21.25600
C  17.31900 50.82400 21.38500
C  17.55400 51.04700 22.88100
C  14.77100 50.21100 20.82200
C  18.39800 51.57900 20.46600
C  19.35100 50.67100 19.60500
N  17.97400 50.94600 25.91000
C  18.94500 50.48500 24.95500
C  19.94700 49.65900 25.67400
C  19.63500 49.79100 27.06000
C  18.37000 50.49900 27.12500
C  20.95200 48.78500 25.21800
C  20.09200 49.44000 28.40200
O  21.02000 48.76300 28.76500
C  19.06600 50.17800 29.32800
C  18.73800 49.30500 30.44200
O  17.78000 48.59700 30.39900
O  19.73100 49.34900 31.46700
C  19.42700 48.55600 32.67400
H  12.77900 53.14100 28.44600
H  13.74800 52.45900 22.06600
H  19.58900 50.19100 22.92800
H  16.17500 50.70300 30.72400
H  14.78600 53.32200 30.37700
H  13.01000 51.21100 30.03400
H  13.04200 52.20800 31.41500
H  14.01000 50.71200 31.38600
H  16.96500 53.68400 30.74500
H  18.23700 52.65900 30.35300
H  17.39300 53.53400 32.78500
H  18.50900 52.29200 32.61200
H  11.40900 54.84400 27.18900
H  10.73100 53.24400 27.39500
H  10.10000 54.28900 26.19200
H  9.38700 53.34100 24.35300
H  9.37200 53.94400 22.56200
H  10.02900 54.91800 23.86400
H  15.80300 52.21700 20.64800
H  17.27600 49.75300 21.18800
H  13.87200 50.33600 21.42500
H  15.13700 49.18500 20.84200
H  14.57800 50.32900 19.75500
H  18.91400 52.34100 21.05000
H  17.88000 52.19800 19.73300
H  19.11900 49.62600 19.80900
H  20.36100 51.00700 19.83800
H  19.26400 50.82300 18.52900
H  20.98400 48.64500 24.13800
H  20.82800 47.88600 25.82300
H  21.96300 49.16800 25.35600
H  19.67300 50.93800 29.82000
H  20.14500 47.74100 32.58700
H  18.36400 48.31700 32.64800
H  19.64100 49.22000 33.51200

