158

Mg 47.04100 44.78500 43.31700
C  43.60800 44.03700 42.98700
C  47.82200 41.51700 42.54600
C  50.32200 45.61600 43.22800
C  46.26800 48.15700 43.62700
N  45.73000 43.01900 42.49600
C  44.37500 42.85000 42.70500
C  43.87700 41.40700 42.68500
C  45.25400 40.61700 42.46600
C  46.41500 41.78000 42.53000
C  45.57100 39.58000 43.58000
C  42.92700 41.29100 41.43900
C  43.26900 41.93100 40.03100
H  43.15500 41.22200 38.70200
N  48.82900 43.73900 43.00700
C  48.91400 42.38200 42.73400
C  50.29300 41.97800 42.61400
C  51.09400 43.16500 42.78900
C  50.09900 44.25200 43.02500
C  50.82300 40.56000 42.35000
C  52.60700 43.18000 42.87100
O  53.28900 42.18900 42.73200
C  53.32800 44.44100 43.10400
N  48.15300 46.67100 43.27800
C  49.45100 46.70300 43.30100
C  49.94400 48.20000 43.46900
C  48.62900 49.05700 43.49400
C  47.58100 47.91800 43.41800
C  50.79900 48.42900 44.76300
C  48.44800 50.14800 42.39200
C  47.60800 51.28300 42.79800
N  45.33300 45.91300 43.31500
C  45.16900 47.28700 43.47400
C  43.79000 47.62900 43.52700
C  43.18900 46.34200 43.40600
C  44.12300 45.35200 43.19300
C  43.12200 48.99900 43.78800
C  41.92500 45.69400 43.37600
O  40.82800 46.12100 43.73700
C  42.19800 44.22300 43.11700
C  41.50400 43.41600 44.19500
O  40.53000 42.69200 44.07000
O  42.19200 43.51500 45.36400
C  41.89500 42.68400 46.52700
H  47.96600 40.45300 42.34800
H  51.33800 45.95300 43.44600
H  46.00600 49.19900 43.82100
H  43.38700 41.13000 43.61900
H  45.34100 40.21800 41.45500
H  46.35000 39.83200 44.29900
H  45.83200 38.62300 43.12700
H  44.75200 39.27900 44.23400
H  41.89400 41.44100 41.75300
H  42.96000 40.22400 41.21600
H  44.30600 42.25200 39.93000
H  42.66200 42.83300 39.94800
H  50.83800 40.42200 41.26900
H  49.94500 39.97900 42.63000
H  51.75500 40.13300 42.72100
H  53.02600 45.17400 42.35600
H  54.35500 44.33300 42.75500
H  53.30900 44.70500 44.16200
H  50.60400 48.44900 42.63800
H  48.59400 49.65700 44.40300
H  51.07900 49.47900 44.68200
H  51.68300 47.80100 44.65500
H  50.24200 48.17700 45.66500
H  47.96900 49.68700 41.52800
H  49.38800 50.49400 41.96200
H  48.11500 52.17900 42.44100
H  47.56000 51.51400 43.86200
H  46.61800 51.27600 42.34100
H  42.25600 48.89400 44.44100
H  42.88300 49.55100 42.87900
H  43.83100 49.60500 44.35200
H  41.78500 43.94400 42.14700
H  40.88500 42.29100 46.41100
H  42.01600 43.23000 47.46300
H  42.66900 41.91600 46.51800
Mg -5.27000 24.59100 26.55900
C  -3.64600 26.29900 29.22500
C  -6.39900 22.33300 28.84000
C  -6.58000 23.34900 23.97500
C  -3.32200 27.03200 24.40700
N  -5.10900 24.27100 28.74700
C  -4.49500 25.22800 29.61400
C  -4.82100 24.91700 31.07600
C  -5.37300 23.46000 30.93300
C  -5.69400 23.33300 29.43800
C  -4.41400 22.25600 31.36000
C  -5.76000 25.89600 31.72800
C  -5.48600 26.25000 33.19600
H  -5.53300 25.00600 34.03400
N  -6.41500 23.00500 26.43800
C  -6.81200 22.17600 27.43700
C  -7.55500 21.11100 26.76500
C  -7.62300 21.44600 25.41100
C  -6.87000 22.70100 25.21300
C  -7.94500 19.84900 27.54500
C  -8.29400 20.69900 24.25600
O  -8.34400 21.03100 23.02300
C  -9.18600 19.54900 24.64100
N  -4.87100 25.07400 24.51900
C  -5.64800 24.32600 23.65100
C  -5.45300 24.81000 22.22700
C  -4.51500 26.06500 22.37400
C  -4.22100 26.07200 23.87100
C  -4.94100 23.75200 21.21800
C  -5.14900 27.34100 21.77600
C  -4.30400 28.17500 20.83900
N  -3.66500 26.17600 26.76600
C  -3.08300 27.05400 25.80600
C  -2.26100 28.10100 26.42600
C  -2.51100 27.81700 27.79300
C  -3.27800 26.67200 27.92400
C  -1.58000 29.20600 25.78300
C  -2.20200 28.31600 29.05100
O  -1.51600 29.32100 29.33600
C  -2.83500 27.27600 30.05300
C  -1.74200 26.63300 30.72700
O  -0.96700 25.87900 30.21500
O  -1.80000 26.93900 32.03600
C  -0.80600 26.34800 33.03300
H  -6.86100 21.56800 29.46900
H  -7.06700 22.92900 23.09300
H  -2.90300 27.78000 23.73000
H  -3.85800 24.93900 31.58600
H  -6.25800 23.30400 31.55000
H  -4.50800 22.16400 32.44200
H  -3.36500 22.47200 31.15700
H  -4.66900 21.39600 30.74000
H  -6.77000 25.48900 31.74500
H  -5.86900 26.68500 30.98500
H  -6.22100 26.93700 33.61600
H  -4.48800 26.68300 33.25100
H  -9.02000 19.88200 27.72400
H  -7.42700 19.88500 28.50300
H  -7.57300 18.94800 27.05800
H  -8.53100 18.74300 24.97100
H  -9.71100 19.20800 23.74800
H  -9.83800 19.76700 25.48600
H  -6.41000 25.10400 21.79700
H  -3.57000 25.85700 21.87100
H  -3.94400 24.01800 20.86700
H  -5.70000 23.51400 20.47300
H  -4.81500 22.79300 21.72000
H  -5.37500 28.04200 22.58000
H  -6.12800 27.08600 21.36900
H  -3.28700 27.79800 20.95600
H  -4.34100 29.22000 21.14700
H  -4.69500 28.04500 19.83000
H  -2.10800 29.39600 24.84900
H  -0.55400 28.89500 25.58100
H  -1.48000 30.16700 26.28700
H  -3.50600 27.81600 30.72100
H  -0.13500 27.06200 33.51100
H  -0.24500 25.53000 32.58200
H  -1.43200 25.98900 33.85000

