158

Mg 47.29400 45.25400 41.75000
C  43.98500 44.02600 42.39600
C  48.26400 41.98400 41.49000
C  50.20300 46.40600 40.40200
C  45.86500 48.45700 41.69600
N  46.20900 43.25800 41.72800
C  44.88600 42.99300 42.05500
C  44.54400 41.50700 42.16800
C  46.01200 40.92800 42.25700
C  46.91400 42.11100 41.88100
C  46.48600 40.44500 43.63000
C  43.69200 40.94000 41.04900
C  43.39600 41.83400 39.76900
H  43.47500 41.19500 38.36300
N  48.98600 44.31300 41.10600
C  49.22100 42.94300 41.11800
C  50.59900 42.74600 40.72000
C  51.07600 44.03900 40.27800
C  50.03800 44.99000 40.53100
C  51.30000 41.48500 40.61600
C  52.38200 44.18700 39.50100
O  53.16500 43.29500 39.29300
C  52.70600 45.55100 38.78500
N  47.94900 47.12100 41.12900
C  49.28900 47.37900 40.71800
C  49.52400 48.92500 40.77300
C  48.11400 49.44900 41.38100
C  47.20200 48.29100 41.27800
C  50.70200 49.25900 41.66200
C  47.80400 50.88100 40.89600
C  47.28200 51.77200 42.02400
N  45.32800 46.13600 41.96800
C  44.97100 47.49600 41.94100
C  43.57100 47.62800 42.35700
C  43.10300 46.24900 42.53000
C  44.19700 45.42500 42.28800
C  42.83100 48.89200 42.45500
C  41.97100 45.42900 42.84200
O  40.81700 45.70900 43.04000
C  42.54700 43.94800 42.82800
C  42.47700 43.53100 44.22000
O  42.80800 44.22400 45.18500
O  41.98900 42.25200 44.15700
C  41.93100 41.60500 45.52400
H  48.54400 40.93100 41.55900
H  51.17300 46.81800 40.11600
H  45.49600 49.46200 41.90800
H  43.99300 41.53700 43.10800
H  46.17900 40.13900 41.52300
H  46.69700 41.23600 44.35000
H  47.36100 39.80500 43.52400
H  45.67000 39.85700 44.05100
H  42.77400 40.50100 41.43900
H  44.29300 40.07200 40.77900
H  43.97100 42.75200 39.88900
H  42.35800 42.16800 39.78500
H  51.29700 41.05500 39.61400
H  50.74300 40.68800 41.10800
H  52.24500 41.32800 41.13700
H  52.03900 46.11900 38.13700
H  53.48600 45.09600 38.17500
H  53.16600 46.17200 39.55400
H  49.67300 49.31600 39.76700
H  48.30400 49.58000 42.44600
H  51.55300 48.83700 41.12800
H  50.59200 48.69500 42.58900
H  50.72200 50.30600 41.96300
H  47.22700 50.96100 39.97500
H  48.77900 51.27100 40.60500
H  48.02700 52.56700 42.02200
H  47.31300 51.44900 43.06400
H  46.26000 52.13500 41.91200
H  43.34500 49.69300 42.98600
H  41.88500 48.66600 42.94600
H  42.64000 49.22600 41.43500
H  41.89000 43.33700 42.20900
H  41.81600 40.54600 45.29500
H  41.21700 42.03600 46.22600
H  42.90100 41.70200 46.01200
Mg 35.17600 49.22200 25.06800
C  35.30400 47.61800 28.39700
C  33.89500 52.03900 26.59700
C  34.63200 50.36600 22.09800
C  36.37600 46.13300 23.83300
N  34.57500 49.62700 27.23200
C  34.78000 48.94800 28.39000
C  34.41700 49.78400 29.65700
C  33.86600 51.12400 29.03200
C  34.17700 50.96700 27.51700
C  32.35800 51.37200 29.31700
C  35.56400 49.71400 30.72300
C  35.07400 49.22300 32.07000
H  34.82000 50.21900 33.20800
N  34.35700 50.98700 24.40400
C  33.99200 52.06400 25.17700
C  33.79900 53.19500 24.23800
C  33.80000 52.74700 22.87500
C  34.25000 51.31200 23.07300
C  33.59700 54.62600 24.71600
C  33.65400 53.51300 21.56300
O  33.87000 52.98000 20.46500
C  33.14200 55.01400 21.45400
N  35.44800 48.33100 23.26300
C  35.18700 49.08700 22.15900
C  35.57000 48.30100 20.87800
C  36.28300 47.07300 21.44900
C  35.95700 47.18300 22.95400
C  34.44900 48.04800 19.88000
C  37.85200 47.00000 21.18400
C  38.77800 47.80600 22.12600
N  35.67100 47.18000 25.89600
C  36.22200 46.07700 25.27000
C  36.52900 45.09800 26.24800
C  36.20200 45.65400 27.51800
C  35.69600 46.91600 27.23700
C  37.00000 43.69300 26.01200
C  36.28200 45.49700 29.01100
O  36.73200 44.52500 29.60600
C  35.60300 46.70800 29.58600
C  34.37000 46.16000 30.31600
O  33.34000 45.79700 29.84000
O  34.60300 46.05400 31.67100
C  33.64000 45.20200 32.41800
H  33.53700 53.01100 26.94000
H  34.49400 50.72400 21.07600
H  36.77800 45.25000 23.33200
H  33.52900 49.42200 30.17600
H  34.39800 52.00300 29.39500
H  32.32400 52.38000 29.73100
H  31.96300 50.72600 30.10100
H  31.72400 51.16700 28.45500
H  35.83900 50.76700 30.78500
H  36.34800 49.06400 30.33400
H  35.76600 48.44800 32.40100
H  34.13000 48.68600 31.98100
H  33.66200 54.70100 25.80200
H  32.67900 55.19800 24.57800
H  34.37500 55.16000 24.17100
H  34.03700 55.63000 21.54200
H  32.38200 55.36300 22.15300
H  32.62700 55.13600 20.50000
H  36.34200 48.91200 20.41000
H  35.88800 46.14900 21.02800
H  34.60000 48.58000 18.94100
H  33.56800 48.39300 20.42100
H  34.37700 46.98600 19.64800
H  37.94300 47.34700 20.15500
H  38.08200 45.93600 21.12900
H  38.25400 48.23800 22.97800
H  39.25700 48.53600 21.47300
H  39.49000 47.04800 22.45200
H  36.36700 42.96400 26.51700
H  37.99500 43.68900 26.45700
H  37.06400 43.32500 24.98800
H  36.27800 47.14100 30.32400
H  33.55300 44.22300 31.94600
H  32.65700 45.65800 32.30900
H  33.77200 45.07500 33.49300

