158

Mg 42.96200 4.00400 46.84100
C  41.42800 7.41600 46.60300
C  39.88200 2.78100 46.14000
C  44.38900 1.02700 46.65200
C  46.05800 5.69200 47.02900
N  40.96500 5.14000 46.27800
C  40.47800 6.40400 46.44900
C  39.00700 6.56000 46.21200
C  38.55500 5.04000 46.38100
C  39.89300 4.23600 46.25700
C  37.87500 4.78500 47.79700
C  38.64800 7.30700 44.92400
C  39.53500 6.93200 43.73900
H  38.93800 6.89400 42.26400
N  42.24700 2.23800 46.35800
C  40.96500 1.90300 46.13200
C  40.84600 0.42900 45.97200
C  42.11900 -0.14200 46.13400
C  43.02200 1.04900 46.38100
C  39.51800 -0.25500 45.54400
C  42.42500 -1.63300 46.07500
O  41.59100 -2.46700 45.70500
C  43.73200 -2.18000 46.45300
N  45.03700 3.45900 46.74400
C  45.28300 2.14600 46.78700
C  46.84300 2.04000 46.52500
C  47.36600 3.49500 46.91300
C  46.09900 4.27600 46.81200
C  47.51400 0.93200 47.41300
C  48.51200 4.04200 45.97800
C  49.35500 5.16200 46.54700
N  43.59200 6.01900 46.83000
C  44.84500 6.51100 46.95200
C  44.89900 7.99300 46.95200
C  43.53800 8.38500 46.89200
C  42.80200 7.18400 46.81300
C  46.18100 8.82300 47.19000
C  42.68300 9.56000 46.79600
O  42.93800 10.74300 46.84700
C  41.23400 8.96200 46.53000
C  40.24200 9.40200 47.48400
O  39.87600 8.82300 48.52200
O  39.63000 10.51000 46.92200
C  38.41700 11.00100 47.66700
H  38.89900 2.37700 45.89000
H  44.79100 0.02300 46.50300
H  47.03600 6.15800 47.16500
H  38.54300 7.02900 47.07900
H  37.93100 4.82700 45.51400
H  37.04100 4.09900 47.64900
H  37.52500 5.72900 48.21500
H  38.55300 4.23100 48.44600
H  38.50700 8.37800 45.07000
H  37.64100 6.98200 44.66300
H  39.79600 5.88000 43.85200
H  40.43600 7.54200 43.79400
H  38.86500 0.34700 44.91300
H  38.95800 -0.56000 46.42700
H  39.79900 -1.08300 44.89300
H  44.11800 -1.69600 47.35000
H  44.42900 -2.01100 45.63200
H  43.49600 -3.22900 46.63200
H  47.01600 1.80300 45.47500
H  47.65900 3.61600 47.95600
H  46.82300 0.14300 47.70900
H  47.93300 1.33400 48.33500
H  48.29100 0.41000 46.85400
H  47.95400 4.46300 45.14200
H  49.16800 3.25100 45.61500
H  50.39500 4.85900 46.66800
H  49.04900 5.35500 47.57600
H  49.17500 5.98500 45.85600
H  46.88800 8.64700 46.37900
H  46.74100 8.56000 48.08600
H  46.07300 9.90800 47.17700
H  40.91000 9.31000 45.54900
H  37.59100 10.37300 48.00100
H  37.99900 11.81700 47.07800
H  38.80100 11.46300 48.57700
Mg -5.42000 24.68700 25.96300
C  -4.09400 26.08100 28.84100
C  -7.17500 22.41700 27.96400
C  -6.43900 23.21500 23.30500
C  -3.39100 26.77200 24.12300
N  -5.63600 24.42100 28.17700
C  -5.01600 25.13500 29.14900
C  -5.55600 24.78700 30.55900
C  -6.32000 23.41200 30.26300
C  -6.36500 23.36900 28.70000
C  -5.67700 22.10500 30.86300
C  -6.48200 25.81600 31.24300
C  -6.21200 26.12500 32.72800
H  -7.19400 25.41400 33.69100
N  -6.70300 23.20000 25.68200
C  -7.39100 22.43200 26.57400
C  -8.39400 21.72000 25.94200
C  -8.24000 21.92400 24.55400
C  -7.03500 22.79500 24.45700
C  -9.44100 20.93700 26.60600
C  -9.01200 21.35500 23.40000
O  -8.59200 21.40000 22.22400
C  -10.33600 20.54600 23.54000
N  -4.76500 24.79300 24.01400
C  -5.41900 24.10800 23.09500
C  -4.89700 24.48500 21.72400
C  -4.09100 25.72500 21.96800
C  -4.05500 25.79700 23.44300
C  -4.20800 23.37500 20.91600
C  -4.41900 27.05200 21.14300
C  -3.24000 27.85100 20.56400
N  -3.89100 26.10700 26.34200
C  -3.24900 26.99300 25.51900
C  -2.30500 27.86600 26.22900
C  -2.70000 27.57200 27.57700
C  -3.65500 26.51700 27.59200
C  -1.27300 28.87600 25.65700
C  -2.51800 28.07000 28.96400
O  -1.82800 28.98200 29.41100
C  -3.40600 27.13300 29.84300
C  -2.53800 26.49200 30.92800
O  -1.68400 25.64600 30.77100
O  -2.79800 27.18900 32.10200
C  -1.79600 26.91600 33.15800
H  -7.64500 21.65400 28.58700
H  -6.70800 22.65600 22.40600
H  -2.81400 27.43600 23.47700
H  -4.65200 24.53900 31.11500
H  -7.38700 23.55600 30.43400
H  -6.46400 21.52000 31.33900
H  -4.98900 22.39100 31.65900
H  -5.06900 21.51700 30.17600
H  -7.49600 25.42700 31.14500
H  -6.44600 26.74900 30.68000
H  -6.28700 27.19700 32.90900
H  -5.23000 25.73500 32.99800
H  -10.41900 21.14800 26.17400
H  -9.43300 21.10900 27.68300
H  -9.27900 19.87100 26.44100
H  -10.78900 20.37400 22.56300
H  -11.00600 21.28300 23.98200
H  -10.27000 19.62500 24.11800
H  -5.80500 24.68800 21.15500
H  -3.08200 25.41300 21.70000
H  -4.45700 22.40500 21.34700
H  -3.12500 23.49100 20.94700
H  -4.48200 23.41900 19.86100
H  -5.15300 27.71200 21.60400
H  -5.06100 26.59800 20.38900
H  -3.53900 27.97200 19.52200
H  -2.34000 27.23600 20.55600
H  -2.98700 28.82700 20.97800
H  -0.63400 29.18100 26.48600
H  -1.79000 29.80800 25.43100
H  -0.71200 28.44100 24.83000
H  -4.06300 27.80700 30.39200
H  -2.10900 26.08200 33.78500
H  -1.94900 27.77200 33.81600
H  -0.77400 26.78800 32.80100

