158

Mg 0.49700 7.65900 26.45300
C  1.39000 9.93300 29.09000
C  0.89000 5.13900 28.63200
C  0.37500 5.49100 23.83700
C  1.11500 10.32700 24.24500
N  0.90200 7.61100 28.70800
C  1.17200 8.60700 29.55300
C  1.33900 8.06000 30.95500
C  1.33900 6.50900 30.70400
C  1.07000 6.37000 29.22400
C  2.70400 5.77300 31.09400
C  0.34700 8.67600 32.03100
C  0.96000 9.18000 33.33500
H  2.15900 8.53400 33.86000
N  0.35400 5.65200 26.27700
C  0.51500 4.75100 27.31700
C  0.44600 3.44800 26.79600
C  0.33500 3.50500 25.38500
C  0.36900 4.92400 25.06700
C  0.33700 2.29600 27.81600
C  0.22200 2.41700 24.31800
O  -0.01000 2.64300 23.11100
C  0.50100 0.98900 24.69200
N  0.78000 7.87500 24.41400
C  0.57400 6.82100 23.52500
C  0.61900 7.34100 22.09600
C  0.54700 8.87800 22.25300
C  0.85800 9.05300 23.71900
C  1.97100 6.90100 21.42000
C  -0.85700 9.37400 21.84700
C  -0.78100 10.64600 20.97200
N  1.19000 9.71300 26.58700
C  1.38400 10.65900 25.59900
C  1.81200 11.95200 26.22500
C  1.79000 11.64800 27.55900
C  1.45700 10.29400 27.76500
C  1.82400 13.22100 25.51100
C  1.86400 12.32200 28.85000
O  2.18700 13.46600 29.00600
C  1.65700 11.15700 29.91100
C  2.95500 11.21500 30.75900
O  3.92500 10.49600 30.51100
O  2.72300 12.07500 31.84500
C  3.87500 12.28100 32.76200
H  1.08200 4.22700 29.20000
H  0.35200 4.79000 23.00100
H  1.24200 11.18600 23.58200
H  2.33400 8.38700 31.25700
H  0.57900 5.96400 31.26200
H  3.42400 6.37500 31.64800
H  3.22100 5.28200 30.27000
H  2.38300 4.96900 31.75600
H  -0.43100 7.95900 32.29700
H  -0.26000 9.39200 31.47600
H  0.19300 9.03400 34.09600
H  1.14200 10.24800 33.21600
H  0.14700 1.35500 27.30100
H  -0.47400 2.46800 28.52300
H  1.29300 2.24000 28.33700
H  -0.47400 0.63400 25.02800
H  1.28700 1.06500 25.44200
H  0.73800 0.39300 23.81000
H  -0.23400 6.90600 21.57600
H  1.33800 9.40600 21.72000
H  2.62300 7.74400 21.19200
H  1.77200 6.40100 20.47300
H  2.47200 6.20000 22.08800
H  -1.35900 9.67100 22.76800
H  -1.49600 8.64700 21.34600
H  -1.68800 10.84200 20.40000
H  0.09000 10.75500 20.32600
H  -0.69800 11.51200 21.62800
H  0.92800 13.43800 24.93000
H  2.61400 13.29100 24.76300
H  1.94600 14.01300 26.25000
H  0.77500 11.37500 30.51300
H  3.51800 12.89600 33.58800
H  4.65100 12.82200 32.21900
H  4.19400 11.35900 33.24700
Mg 29.67600 59.49100 40.86700
C  26.67600 58.00100 39.66700
C  31.35800 56.83000 39.38100
C  32.46800 61.23400 41.17200
C  27.71900 62.30800 41.57000
N  29.07200 57.67100 39.63900
C  27.79800 57.27200 39.32000
C  27.76600 55.99600 38.36600
C  29.27700 55.58500 38.35600
C  29.94600 56.74800 39.16900
C  29.57400 54.21000 38.95600
C  27.24700 56.24600 36.87600
C  25.92600 55.54800 36.37300
H  26.06800 54.78200 35.03900
N  31.67700 59.05200 40.48700
C  32.14800 57.86700 39.94900
C  33.57200 57.89300 39.99400
C  33.96800 59.17400 40.47300
C  32.68100 59.90900 40.70400
C  34.38100 56.70200 39.58700
C  35.39300 59.55300 40.63600
O  36.32000 58.81300 40.32200
C  35.72900 60.84800 41.35100
N  30.04700 61.50900 41.32100
C  31.31800 62.03200 41.42000
C  31.26000 63.51000 41.86400
C  29.74500 63.86500 41.86600
C  29.11700 62.48100 41.64500
C  32.05400 63.89900 43.12900
C  29.53200 64.99400 40.81300
C  29.32200 66.40900 41.33500
N  27.57800 60.00000 40.98700
C  26.97700 61.23200 41.23000
C  25.53000 61.01800 41.17300
C  25.35800 59.80300 40.55600
C  26.64000 59.20700 40.43100
C  24.44900 61.99300 41.51100
C  24.39800 58.82000 39.94700
O  23.19700 58.90300 39.84300
C  25.24000 57.66300 39.34800
C  24.69200 56.44800 39.96200
O  24.89900 56.06900 41.08600
O  24.00600 55.79800 38.96900
C  23.49200 54.46000 39.29500
H  31.77800 55.88600 39.03000
H  33.27900 61.95800 41.27200
H  27.18600 63.20700 41.88700
H  27.21100 55.28000 38.97100
H  29.75600 55.56900 37.37700
H  29.89600 54.39800 39.98100
H  30.41700 53.73800 38.45200
H  28.68800 53.57700 38.93200
H  28.05200 56.13100 36.15100
H  27.06600 57.31800 36.80000
H  25.12300 56.27000 36.22200
H  25.61800 54.75500 37.05400
H  35.25700 56.61700 40.23000
H  34.74900 56.84600 38.57100
H  33.93300 55.72600 39.77300
H  36.77400 60.79300 41.65800
H  35.08200 60.68100 42.21200
H  35.57800 61.71400 40.70800
H  31.82900 63.98000 41.06300
H  29.46400 64.28600 42.83100
H  31.55800 64.66900 43.72100
H  32.99400 64.28800 42.73800
H  32.19800 62.97300 43.68500
H  28.76000 64.71100 40.09800
H  30.43100 65.14900 40.21700
H  29.21000 66.31500 42.41600
H  28.44900 66.89400 40.89800
H  30.19100 67.00100 41.04700
H  24.72100 62.93200 41.02900
H  24.46600 62.02500 42.60000
H  23.46200 61.74800 41.11800
H  25.07700 57.62800 38.27100
H  23.70500 53.83800 38.42600
H  22.43300 54.71200 39.35900
H  23.83300 54.03800 40.24000

