158

Mg 8.03100 3.24700 27.83400
C  9.56300 1.60400 30.44000
C  6.30600 5.19600 30.12300
C  6.32300 4.72300 25.18900
C  9.31200 0.86200 25.65400
N  7.80800 3.18900 29.99700
C  8.70700 2.63200 30.84700
C  8.55000 3.24600 32.28300
C  7.27400 4.15200 32.21700
C  7.15700 4.21700 30.66300
C  5.98200 3.61200 32.95300
C  9.86700 3.83500 32.97100
C  10.42500 3.16400 34.16400
H  10.96100 4.01500 35.26800
N  6.52000 4.69800 27.65600
C  6.01100 5.47200 28.73000
C  5.30700 6.57200 28.14600
C  5.34300 6.45200 26.73200
C  6.04600 5.24400 26.46300
C  4.60100 7.46500 29.18700
C  4.73100 7.41700 25.75100
O  4.92200 7.19300 24.54400
C  4.06900 8.66400 26.25200
N  7.76200 2.74900 25.74000
C  7.07500 3.51500 24.87700
C  7.20500 2.93200 23.39500
C  8.06200 1.57400 23.65000
C  8.44200 1.74200 25.10400
C  5.86800 2.75500 22.67000
C  9.29200 1.47600 22.62500
C  9.49000 0.14400 21.97100
N  9.34500 1.56300 27.97800
C  9.73800 0.67100 27.03200
C  10.60900 -0.23900 27.67700
C  10.68800 0.06900 29.06500
C  9.79900 1.17700 29.12900
C  11.25000 -1.35300 26.87800
C  11.15500 -0.35000 30.36000
O  11.93700 -1.23500 30.70300
C  10.39100 0.63400 31.26900
C  9.55300 -0.00200 32.28100
O  8.48100 -0.65100 32.09800
O  10.09700 0.08000 33.54400
C  9.15700 -0.29200 34.65000
H  5.93500 5.84700 30.91700
H  6.02200 5.23800 24.27400
H  9.63100 0.07500 24.96700
H  8.33300 2.34700 32.86100
H  7.38700 5.20200 32.48600
H  5.30200 3.20500 32.20500
H  5.56000 4.36200 33.62100
H  6.26500 2.73600 33.53700
H  9.46100 4.78900 33.31000
H  10.73500 3.99200 32.33100
H  11.18800 2.42100 33.92900
H  9.66100 2.50700 34.58000
H  5.29900 8.10000 29.73400
H  4.16500 6.84400 29.97000
H  3.85900 8.17200 28.81600
H  4.76700 9.30800 26.78800
H  3.17300 8.42900 26.82600
H  3.71700 9.16300 25.35000
H  7.74700 3.67500 22.81000
H  7.44700 0.67600 23.60500
H  5.78800 3.34300 21.75600
H  5.09500 3.10300 23.35700
H  5.62100 1.70800 22.49800
H  10.15800 1.61500 23.27200
H  9.27600 2.22500 21.83400
H  8.68700 -0.55100 22.21700
H  10.44300 -0.13600 22.42000
H  9.48700 0.20500 20.88300
H  11.84800 -0.91000 26.08200
H  10.63900 -2.16300 26.47900
H  11.94700 -1.85000 27.55200
H  11.15700 1.10300 31.88700
H  8.74600 -1.28300 34.45700
H  8.48800 0.56200 34.74900
H  9.83100 -0.40600 35.49900
Mg 24.68100 -4.80800 45.91900
C  26.34300 -2.34300 43.80700
C  21.87500 -4.04700 44.03100
C  23.47600 -7.73300 46.87400
C  27.84500 -5.71600 47.07100
N  24.18500 -3.31100 44.14900
C  25.00000 -2.44800 43.55800
C  24.23400 -1.68600 42.44900
C  22.71200 -2.06300 42.75800
C  22.95200 -3.24300 43.69800
C  21.98900 -0.92700 43.50500
C  24.79100 -2.17600 41.06800
C  25.37100 -1.17100 40.10300
H  25.58400 -1.59100 38.60200
N  22.96100 -5.66500 45.61400
C  21.90300 -5.24500 44.83800
C  20.80400 -6.13000 44.99000
C  21.20000 -7.20300 45.87200
C  22.62000 -6.91100 46.15600
C  19.50700 -5.97500 44.17900
C  20.38800 -8.46700 46.18000
O  19.29000 -8.63300 45.75000
C  20.83000 -9.46700 47.18900
N  25.50800 -6.36600 46.96100
C  24.80800 -7.54000 47.20600
C  25.67800 -8.57000 47.84600
C  27.00200 -7.91400 48.07800
C  26.77800 -6.53000 47.43100
C  25.05500 -9.50100 48.92300
C  28.25400 -8.68800 47.72000
C  29.32000 -8.67800 48.82600
N  26.65200 -4.15600 45.71000
C  27.80300 -4.61300 46.25900
C  28.94500 -3.79600 45.77800
C  28.34800 -2.92200 44.91600
C  27.01100 -3.22400 44.80300
C  30.35200 -3.75800 46.17800
C  28.77300 -1.85700 43.98000
O  29.88500 -1.44000 43.75800
C  27.46400 -1.46900 43.22300
C  27.24100 -0.06000 43.62700
O  26.58300 0.27500 44.57700
O  27.79100 0.83400 42.73700
C  27.63200 2.28200 42.99900
H  20.91700 -3.78700 43.57400
H  23.11100 -8.74500 47.05900
H  28.86600 -6.03900 47.28300
H  24.32500 -0.60900 42.58600
H  22.07400 -2.43200 41.95500
H  22.34200 0.07900 43.27900
H  22.12000 -0.94400 44.58700
H  20.91300 -1.06500 43.40000
H  23.95800 -2.64800 40.54700
H  25.56300 -2.94300 41.13800
H  26.24200 -0.71200 40.57200
H  24.58100 -0.42800 40.20900
H  19.76400 -6.16700 43.13700
H  19.08100 -4.97300 44.22900
H  18.73100 -6.68200 44.47400
H  19.87800 -9.92800 47.45400
H  21.22900 -8.86100 48.00300
H  21.54200 -10.19500 46.80000
H  25.66200 -9.30400 47.04100
H  27.08600 -7.71700 49.14700
H  24.10600 -9.12500 49.30400
H  25.78900 -9.40300 49.72400
H  24.98700 -10.55600 48.65500
H  28.78300 -8.31700 46.84300
H  27.90900 -9.70400 47.52800
H  30.29500 -8.24700 48.59800
H  29.53200 -9.70800 49.11500
H  28.93700 -8.22800 49.74100
H  31.04800 -4.08000 45.40400
H  30.41100 -4.29100 47.12700
H  30.60800 -2.73800 46.46500
H  27.65200 -1.58600 42.15600
H  28.40100 2.62100 43.69300
H  26.69900 2.60100 43.46400
H  27.92400 2.94600 42.18600

