158

Mg 9.38800 3.85900 27.38100
C  10.57000 2.17200 30.08900
C  7.67700 5.98800 29.53800
C  7.73400 5.14600 24.69400
C  10.33700 1.12900 25.26500
N  9.06200 3.95800 29.53800
C  9.78300 3.28700 30.43700
C  9.56400 3.88400 31.85300
C  8.48200 4.97700 31.68400
C  8.35900 4.96600 30.15400
C  7.14700 4.70000 32.42000
C  10.84200 4.39300 32.61100
C  10.67400 5.13300 33.97100
H  11.22400 4.53600 35.28500
N  8.01100 5.47400 27.16000
C  7.48700 6.23200 28.15100
C  6.63900 7.20700 27.53800
C  6.75000 7.08200 26.11000
C  7.55800 5.88100 25.91400
C  5.90600 8.27200 28.31800
C  6.13000 7.87100 24.94800
O  6.37000 7.61400 23.79000
C  5.14400 9.00400 25.30900
N  9.27500 3.31100 25.17800
C  8.46900 4.00100 24.39800
C  8.47900 3.40400 22.98600
C  9.43800 2.23500 23.10900
C  9.63200 2.13300 24.58500
C  7.14000 3.05100 22.29700
C  10.84900 2.51200 22.47300
C  11.76600 1.34800 22.08500
N  10.33700 2.03000 27.56400
C  10.75300 1.14000 26.58800
C  11.60300 0.11700 27.34300
C  11.52100 0.46300 28.68000
C  10.73600 1.59900 28.78500
C  12.48200 -0.93800 26.75800
C  11.92100 0.16800 30.02600
O  12.51500 -0.79600 30.43900
C  11.34700 1.23200 31.01300
C  10.61300 0.59000 32.13500
O  9.78700 -0.30400 32.04300
O  11.09300 1.14200 33.28900
C  10.75900 0.31900 34.48300
H  7.34400 6.68400 30.31100
H  7.10900 5.38900 23.83300
H  10.77200 0.39000 24.59000
H  9.16900 3.13600 32.54000
H  8.92000 5.93800 31.95400
H  6.34400 4.72900 31.68300
H  6.94000 5.39500 33.23300
H  7.07600 3.84300 33.09000
H  11.29300 5.22900 32.07500
H  11.70000 3.72300 32.56000
H  9.59200 5.24800 34.03900
H  10.89300 6.19600 33.87200
H  4.85100 8.36200 28.06100
H  6.42400 9.20000 28.07600
H  5.86200 8.12900 29.39800
H  5.52100 9.66300 26.09000
H  4.26200 8.44700 25.62700
H  4.92300 9.57700 24.40800
H  9.07600 4.13900 22.44500
H  9.08300 1.23700 22.85100
H  6.84400 3.51900 21.35800
H  6.24000 3.22100 22.88700
H  7.11100 1.96900 22.17000
H  11.55300 3.14100 23.01800
H  10.58100 2.97100 21.52200
H  12.15100 1.46800 21.07300
H  11.29600 0.38000 21.90800
H  12.62100 1.24700 22.75400
H  12.86200 -0.62600 25.78600
H  11.96400 -1.88700 26.62100
H  13.36800 -0.95700 27.39300
H  12.14700 1.77600 31.51600
H  11.23800 0.69900 35.38600
H  11.22500 -0.66600 34.46200
H  9.68400 0.29100 34.66000
Mg 43.88000 3.14200 47.88800
C  41.63700 5.65900 47.03600
C  41.29300 0.83400 47.61600
C  46.09200 0.58300 47.90000
C  46.43700 5.45200 47.52500
N  41.82000 3.27500 47.39100
C  41.11000 4.34300 47.07100
C  39.61600 4.11700 46.94100
C  39.46500 2.64200 47.32700
C  40.95600 2.24700 47.55200
C  38.66000 2.44900 48.69800
C  39.11500 4.38000 45.51500
C  37.73900 5.08400 45.35800
H  37.71500 6.19900 44.24000
N  43.65500 0.93600 47.99100
C  42.48800 0.25600 47.86100
C  42.86100 -1.14900 48.02800
C  44.29700 -1.26900 48.18600
C  44.76500 0.09600 48.05100
C  41.87300 -2.26500 47.85100
C  45.07700 -2.52300 48.42200
O  44.53700 -3.66300 48.46400
C  46.56100 -2.52200 48.71600
N  45.99900 2.97700 47.60700
C  46.70700 1.82300 47.77600
C  48.20000 2.08000 47.88200
C  48.27900 3.67100 47.69200
C  46.79300 4.08400 47.63500
C  48.69600 1.77400 49.26300
C  49.09600 4.14400 46.44300
C  48.60600 3.83400 45.05900
N  44.10700 5.16200 47.40400
C  45.16800 5.98300 47.47500
C  44.77200 7.36700 47.38100
C  43.35500 7.29700 47.23700
C  43.04800 5.89200 47.19200
C  45.69900 8.48200 47.49400
C  42.08300 8.05800 47.09800
O  41.76100 9.24300 47.16900
C  40.91000 6.97600 46.87600
C  39.90600 7.27700 47.87700
O  40.06500 7.03000 49.09500
O  38.81100 7.85700 47.31900
C  37.87300 8.41300 48.34400
H  40.43500 0.17500 47.46500
H  46.92600 -0.10400 48.05700
H  47.25400 6.17600 47.56200
H  39.12900 4.79600 47.64100
H  38.95300 2.03900 46.57700
H  39.29200 2.43100 49.58600
H  38.23500 1.44600 48.72000
H  37.83100 3.14100 48.85000
H  38.99300 3.45300 44.95500
H  39.85900 4.87200 44.88800
H  37.38600 5.51600 46.29400
H  37.13000 4.22200 45.08500
H  40.90000 -1.77300 47.86500
H  41.94200 -3.00000 48.65300
H  42.08900 -2.77400 46.91100
H  47.03100 -2.54300 47.73200
H  46.77100 -3.46100 49.22700
H  46.90300 -1.67100 49.30500
H  48.72100 1.51900 47.10600
H  48.58300 4.24600 48.56700
H  49.08200 0.76000 49.35900
H  47.92600 1.91300 50.02200
H  49.53800 2.43800 49.46200
H  50.06800 3.65400 46.49500
H  49.18300 5.22200 46.57300
H  48.36200 4.79500 44.60500
H  47.73000 3.18600 45.06500
H  49.34400 3.29700 44.46300
H  46.42800 8.57400 48.29900
H  45.01300 9.32600 47.43300
H  46.13100 8.68000 46.51300
H  40.42900 7.06300 45.90100
H  38.23000 9.37600 48.70900
H  37.60600 7.69800 49.12200
H  36.90400 8.62500 47.89100

