158

Mg 1.70900 -1.29700 43.39800
C  5.10600 -0.25400 43.32200
C  0.96800 1.57900 41.72200
C  -1.42900 -2.42500 42.97700
C  2.82400 -4.47800 44.18400
N  2.88300 0.27400 42.53100
C  4.18700 0.59800 42.61700
C  4.62800 1.94300 42.00300
C  3.18600 2.56300 42.03000
C  2.27200 1.38000 42.07900
C  2.94200 3.73900 43.04500
C  5.15800 1.63600 40.52300
C  6.12700 2.72100 39.80000
H  5.52800 3.62000 38.65700
N  -0.02800 -0.48900 42.59100
C  -0.12400 0.71200 41.91700
C  -1.49000 0.91100 41.49200
C  -2.25400 -0.17900 41.98800
C  -1.25000 -1.08900 42.58100
C  -2.04800 2.20500 40.90300
C  -3.77100 -0.22800 42.13100
O  -4.50900 0.66100 41.70500
C  -4.49100 -1.34700 42.75800
N  0.84100 -3.18700 43.53500
C  -0.49700 -3.40200 43.31400
C  -0.80200 -4.92400 43.40400
C  0.48400 -5.45100 44.09700
C  1.46900 -4.29700 43.90500
C  -2.03300 -5.32600 44.16100
C  1.01300 -6.82900 43.66200
C  1.79300 -7.71800 44.71200
N  3.52700 -2.22400 43.71200
C  3.82100 -3.55400 43.98200
C  5.28800 -3.74300 44.04300
C  5.81400 -2.49400 43.88400
C  4.74200 -1.59400 43.61900
C  6.07100 -4.95500 44.47900
C  6.98800 -1.80300 43.90000
O  8.16200 -2.13500 44.11200
C  6.59500 -0.25000 43.42400
C  6.99000 0.57600 44.56300
O  6.77000 0.39400 45.71500
O  7.87100 1.50800 44.08500
C  8.66400 2.24700 45.10700
H  0.77400 2.56800 41.30000
H  -2.39500 -2.88000 42.74900
H  3.15600 -5.50800 44.32500
H  5.31900 2.61200 42.51400
H  3.11400 3.03200 41.04800
H  3.77200 4.43800 42.94700
H  2.86700 3.53900 44.11300
H  2.05600 4.32000 42.78600
H  4.34800 1.23500 39.91300
H  5.75500 0.73700 40.67100
H  7.04500 2.20700 39.51500
H  6.27900 3.44500 40.60100
H  -1.28700 2.97600 40.78200
H  -2.72000 2.59600 41.66700
H  -2.52500 1.91100 39.96800
H  -5.54500 -1.10000 42.88500
H  -4.02200 -1.43100 43.73800
H  -4.27900 -2.28400 42.24400
H  -0.73600 -5.31900 42.39000
H  0.32800 -5.47600 45.17500
H  -1.85300 -5.81200 45.12000
H  -2.55500 -6.19400 43.75600
H  -2.75300 -4.51300 44.24400
H  1.52200 -6.76500 42.70100
H  0.11600 -7.40400 43.43200
H  1.14000 -8.45700 45.17600
H  2.30000 -7.20800 45.53200
H  2.49700 -8.27200 44.09100
H  5.37400 -5.50200 45.11300
H  6.90900 -4.52200 45.02600
H  6.44800 -5.46600 43.59300
H  7.26700 -0.02300 42.59700
H  8.68700 3.32500 44.94700
H  9.64700 1.77900 45.05500
H  8.41900 2.12300 46.16200
Mg 41.88400 42.33000 26.41100
C  41.19000 44.56200 28.94100
C  42.70100 39.91100 28.85100
C  42.57700 40.12800 24.01600
C  41.29800 44.86100 24.04100
N  41.77500 42.21400 28.62600
C  41.46800 43.26200 29.40700
C  41.55800 42.78100 30.93600
C  42.28200 41.40300 30.89200
C  42.34900 41.19200 29.40600
C  43.60100 41.19600 31.60900
C  40.09500 42.72400 31.50000
C  39.95500 43.37300 32.86900
H  39.28700 42.58900 33.93700
N  42.56300 40.32500 26.43700
C  42.62900 39.53000 27.54800
C  43.10100 38.16800 27.04900
C  42.99500 38.17500 25.60900
C  42.69800 39.57500 25.29600
C  43.54900 37.06300 27.94900
C  42.99200 37.04900 24.59500
O  42.63100 37.22100 23.46300
C  43.28000 35.64800 25.02500
N  41.97400 42.46400 24.36200
C  42.24100 41.40700 23.61300
C  42.11800 41.79000 22.12500
C  41.44400 43.22400 22.14400
C  41.68300 43.58400 23.61100
C  43.53300 41.62700 21.56200
C  39.91100 43.25500 21.84400
C  39.02700 42.20400 22.47600
N  41.39400 44.29900 26.41500
C  41.09500 45.19100 25.39200
C  40.65400 46.42700 25.96200
C  40.66100 46.19100 27.38000
C  41.13600 44.91700 27.56300
C  40.29400 47.69200 25.19900
C  40.37800 46.81000 28.62300
O  39.95500 47.92900 28.96800
C  40.63700 45.73900 29.69700
C  41.62200 46.30400 30.69700
O  42.69900 46.89200 30.36400
O  41.27200 46.14800 31.99700
C  42.15300 46.86200 32.90600
H  42.80100 39.16700 29.64400
H  42.93600 39.49700 23.20100
H  40.93200 45.63600 23.36500
H  42.12500 43.52000 31.50300
H  41.62700 40.63900 31.31200
H  44.46100 41.12000 30.94400
H  43.51300 40.27000 32.17700
H  43.69800 42.06200 32.26400
H  39.67800 41.71700 31.53300
H  39.54300 43.31500 30.76900
H  39.50500 44.36400 32.81300
H  40.94600 43.52000 33.29900
H  42.91400 36.20600 27.72300
H  43.34700 37.33200 28.98500
H  44.56500 36.74700 27.71100
H  42.42600 35.15700 25.49200
H  44.22900 35.63900 25.56000
H  43.48100 34.87000 24.28900
H  41.46500 41.06300 21.64200
H  41.96900 43.97100 21.54800
H  43.50800 40.90000 20.75000
H  44.25600 41.27100 22.29600
H  43.93800 42.59200 21.25800
H  39.73900 43.07200 20.78400
H  39.49700 44.24800 22.02100
H  38.24200 42.83800 22.88700
H  39.48300 41.70100 23.33000
H  38.59900 41.53800 21.72700
H  39.54600 47.46600 24.44000
H  41.20700 47.81000 24.61500
H  40.04100 48.53900 25.83600
H  39.73700 45.55000 30.28100
H  42.24600 47.89000 32.55500
H  43.12800 46.37600 32.94000
H  41.70200 46.73700 33.89100

