158

Mg 16.99200 -1.33500 28.18800
C  15.80300 0.50100 30.91000
C  18.84200 -3.29600 30.46900
C  18.44500 -2.74200 25.59000
C  15.24400 0.74200 26.09600
N  17.17300 -1.42900 30.45900
C  16.68400 -0.51900 31.30900
C  17.11900 -0.77100 32.73000
C  18.13000 -1.99600 32.55800
C  18.10100 -2.29200 31.06200
C  19.58300 -1.83600 33.06300
C  15.90800 -1.19400 33.66200
C  16.16400 -1.23300 35.22900
H  17.44100 -0.55900 35.78700
N  18.31500 -2.86400 28.02400
C  18.95300 -3.63400 29.07900
C  19.68000 -4.67200 28.41700
C  19.63000 -4.42900 27.02900
C  18.81100 -3.26400 26.83000
C  20.31800 -5.79900 29.18400
C  20.39400 -5.24400 25.95100
O  20.25400 -5.04400 24.74900
C  21.28500 -6.29100 26.38600
N  17.08200 -0.92300 26.12200
C  17.71900 -1.64200 25.22400
C  17.36400 -1.37800 23.79800
C  16.29600 -0.30700 23.91600
C  16.12600 -0.23200 25.49400
C  18.57800 -1.08800 22.86800
C  15.00400 -0.53900 23.08200
C  13.91700 -1.35300 23.88700
N  15.73500 0.32300 28.39000
C  15.05900 1.01000 27.42900
C  14.22100 1.99500 28.05200
C  14.49300 1.86100 29.39700
C  15.36300 0.81100 29.57700
C  13.34200 2.95800 27.35500
C  14.24300 2.46100 30.69000
O  13.58600 3.41800 31.13300
C  15.08900 1.60400 31.74300
C  15.95800 2.49800 32.55200
O  17.10000 2.77700 32.30800
O  15.24800 3.13700 33.55600
C  16.00200 4.04400 34.40200
H  19.33600 -4.00500 31.13600
H  18.91200 -3.19600 24.71300
H  14.64900 1.44400 25.50800
H  17.72200 -0.00200 33.21300
H  17.76100 -2.88100 33.07700
H  19.81300 -2.67900 33.71600
H  19.64600 -0.85700 33.53800
H  20.28000 -1.97700 32.23700
H  15.55300 -2.14900 33.27500
H  15.09100 -0.47700 33.58700
H  15.99400 -2.24400 35.59900
H  15.30600 -0.68500 35.61800
H  21.36900 -5.52400 29.27600
H  20.27700 -6.77900 28.71000
H  19.71100 -5.90300 30.08400
H  21.82800 -6.57300 25.48400
H  20.65600 -7.07800 26.80300
H  21.96600 -5.84900 27.11400
H  16.97200 -2.34200 23.47400
H  16.74300 0.61500 23.54500
H  19.37000 -0.64100 23.46900
H  18.34100 -0.43900 22.02500
H  18.94100 -2.09500 22.66100
H  15.28100 -1.10900 22.19500
H  14.64000 0.41900 22.71200
H  13.51200 -0.75700 24.70500
H  14.34900 -2.23400 24.36200
H  13.04300 -1.61600 23.29100
H  12.73900 2.38100 26.65300
H  13.93700 3.66600 26.77900
H  12.73200 3.47300 28.09700
H  14.32500 1.18100 32.39500
H  15.23900 4.49800 35.03600
H  16.35800 4.90600 33.83900
H  16.75600 3.43400 34.90000
Mg 5.93800 55.14100 40.29800
C  5.58100 51.58400 40.38500
C  9.27700 54.62700 39.55300
C  6.10000 58.23500 39.35300
C  2.43400 55.39700 40.73800
N  7.19800 53.28000 39.99800
C  6.88700 51.97400 40.09000
C  8.04900 51.09900 39.81600
C  9.28100 52.09000 39.94000
C  8.54400 53.47600 39.79000
C  10.06000 52.08100 41.25100
C  7.99700 50.44600 38.40600
C  7.55600 51.36100 37.19300
H  6.26900 51.13700 36.39300
N  7.48700 56.26200 39.72000
C  8.80800 55.93100 39.46000
C  9.66800 57.04900 39.31000
C  8.72500 58.12800 39.15900
C  7.34600 57.61200 39.47400
C  11.20400 57.01800 39.07700
C  9.12200 59.57400 38.82100
O  10.29300 59.82100 38.58500
C  8.17600 60.74300 38.94400
N  4.46000 56.53800 39.87000
C  4.80300 57.82400 39.65300
C  3.58400 58.77600 39.65600
C  2.43900 57.86700 40.21600
C  3.15600 56.49800 40.37500
C  3.71000 60.16200 40.27700
C  1.25400 57.70700 39.28200
C  -0.10000 58.26900 39.78600
N  4.29200 53.82400 40.56600
C  2.95100 54.07800 40.81000
C  2.25900 52.79100 40.97900
C  3.21700 51.76500 40.98800
C  4.42200 52.43200 40.55000
C  0.79900 52.58400 41.09500
C  3.41300 50.33400 41.01900
O  2.61900 49.43500 41.27800
C  4.99400 50.22000 40.72500
C  5.05800 49.31300 39.57400
O  4.78000 49.51000 38.38900
O  5.62300 48.12900 40.06600
C  5.50800 46.93800 39.20100
H  10.35000 54.59300 39.35300
H  6.02500 59.30500 39.15100
H  1.38900 55.59600 40.98600
H  8.16800 50.41000 40.65200
H  10.01400 51.95500 39.14500
H  9.96500 52.99700 41.83300
H  11.09800 51.83600 41.02300
H  9.64500 51.38200 41.97700
H  7.28700 49.62100 38.46200
H  9.00700 50.05800 38.28200
H  8.37300 51.25600 36.47900
H  7.70900 52.43600 37.28800
H  11.28000 56.62800 38.06200
H  11.70000 56.32400 39.75600
H  11.69700 57.98300 39.19000
H  8.86600 61.57900 38.83100
H  7.57800 60.75900 39.85500
H  7.60400 60.67800 38.01800
H  3.41400 58.97900 38.59800
H  2.06800 58.20500 41.18300
H  2.77200 60.35500 40.79800
H  3.79500 60.95200 39.53000
H  4.56100 60.24600 40.95300
H  1.00500 56.69100 38.97700
H  1.38800 58.29400 38.37300
H  -0.16200 58.70700 40.78300
H  -0.82000 57.45200 39.80600
H  -0.47100 59.01400 39.08200
H  0.47400 52.75300 40.06900
H  0.34200 53.34900 41.72300
H  0.42700 51.62200 41.44700
H  5.39600 49.76700 41.63200
H  6.07900 46.08700 39.57000
H  5.83000 47.25300 38.20900
H  4.48200 46.57000 39.19000

