158

Mg 50.17600 45.66400 42.28100
C  47.06900 46.41400 40.77600
C  49.72500 42.40500 40.91400
C  53.47900 45.10200 42.42900
C  50.66900 49.06800 42.87700
N  48.48800 44.50000 41.00700
C  47.33300 45.07300 40.49200
C  46.53700 44.07000 39.66400
C  47.31100 42.70800 40.03800
C  48.64800 43.17600 40.68700
C  46.44900 41.79500 41.00100
C  46.51900 44.50500 38.23200
C  45.16400 44.39900 37.46900
H  45.17500 43.91200 36.00400
N  51.46200 43.98600 41.89600
C  51.06100 42.75500 41.42800
C  52.18100 41.89100 41.49400
C  53.27000 42.63600 42.02200
C  52.73600 43.94800 42.13900
C  52.18100 40.33100 41.21900
C  54.61700 42.06800 42.31100
O  54.96100 40.94500 41.97900
C  55.60900 42.92900 42.96900
N  51.83500 46.97000 42.67800
C  53.12300 46.44200 42.65500
C  54.19300 47.56900 42.87600
C  53.26400 48.83200 43.09600
C  51.83000 48.27700 42.92500
C  55.17000 47.27700 44.04300
C  53.65900 50.11000 42.23600
C  54.66800 51.03600 42.91600
N  49.11500 47.43100 41.97500
C  49.45200 48.72700 42.27100
C  48.32100 49.59500 41.90400
C  47.38300 48.73800 41.29500
C  47.90800 47.39100 41.37300
C  48.27700 51.00200 42.02500
C  46.20100 48.70300 40.54600
O  45.42800 49.58900 40.12100
C  45.95300 47.25400 40.31600
C  44.69700 46.84200 40.89800
O  44.52600 46.59200 42.08900
O  43.67600 46.75500 39.96100
C  42.39200 46.38700 40.45000
H  49.57100 41.35300 40.66600
H  54.56500 45.07900 42.31900
H  50.86700 50.12700 43.05100
H  45.53600 44.01100 40.09100
H  47.44700 42.00000 39.22000
H  46.52400 40.76700 40.64700
H  45.41900 42.14200 41.07600
H  46.84500 41.73700 42.01500
H  47.23300 43.86700 37.71200
H  46.90300 45.51900 38.11200
H  44.62500 45.34600 37.49600
H  44.60000 43.65600 38.03200
H  52.64000 40.27000 40.23300
H  51.17100 39.92900 41.13700
H  52.74000 39.71100 41.92000
H  56.42900 42.42000 43.47600
H  55.13000 43.53900 43.73500
H  55.97200 43.64600 42.23200
H  54.68300 47.61000 41.90300
H  53.22400 49.15500 44.13700
H  54.93600 47.75500 44.99400
H  56.21600 47.31900 43.73900
H  55.01800 46.22500 44.28600
H  52.79400 50.62300 41.81700
H  54.15100 49.72500 41.34200
H  54.31100 52.04800 43.10400
H  55.51700 51.23200 42.26100
H  55.14200 50.73500 43.85000
H  47.94000 51.35000 43.00200
H  47.61600 51.52300 41.33300
H  49.31000 51.24700 41.77600
H  45.72100 47.18000 39.25400
H  42.00400 47.06300 41.21100
H  42.27700 45.42300 40.94600
H  41.70500 46.40400 39.60400
Mg -1.55800 34.42400 27.53400
C  -3.58400 32.81000 30.10000
C  -0.30500 36.47100 30.06200
C  -0.06300 36.22000 25.08400
C  -3.32500 32.53200 25.19500
N  -1.89000 34.51400 29.84200
C  -2.71000 33.74300 30.63600
C  -2.65900 34.07500 32.15700
C  -1.61600 35.36800 32.10900
C  -1.22500 35.52800 30.56400
C  -2.14100 36.63200 32.78100
C  -2.17800 32.81400 33.01900
C  -2.94200 32.51500 34.31300
H  -2.07500 32.12800 35.48400
N  -0.19900 36.06600 27.55300
C  0.22500 36.69100 28.73500
C  1.15000 37.74500 28.41400
C  1.16700 37.79900 26.97400
C  0.27700 36.65200 26.43700
C  1.93800 38.56900 29.44700
C  1.91000 38.82700 26.08600
O  1.79900 38.84300 24.87700
C  2.88800 39.85300 26.67300
N  -1.72800 34.37100 25.45800
C  -0.90600 35.13900 24.64900
C  -1.28800 34.90700 23.15600
C  -1.93700 33.45300 23.21900
C  -2.40700 33.44800 24.68100
C  -2.24800 36.03200 22.67900
C  -0.96800 32.25200 23.02000
C  -0.85000 31.56400 21.63400
N  -3.09600 32.97600 27.60300
C  -3.67100 32.26600 26.48100
C  -4.53800 31.30600 26.98700
C  -4.56300 31.49900 28.37800
C  -3.63000 32.47000 28.70500
C  -5.41200 30.46500 26.06500
C  -5.14000 31.00600 29.68700
O  -5.99000 30.20700 29.90200
C  -4.51300 31.85300 30.80200
C  -5.59000 32.51800 31.60600
O  -6.11600 33.58500 31.28300
O  -5.84000 31.69200 32.71700
C  -6.71400 32.35700 33.79800
H  0.04900 37.12800 30.85900
H  0.48800 36.69700 24.27000
H  -3.52400 31.83300 24.37900
H  -3.64800 34.42000 32.46000
H  -0.69400 35.04400 32.59000
H  -1.53300 36.74200 33.67900
H  -3.20500 36.47100 32.95100
H  -1.99200 37.50500 32.14500
H  -1.13000 33.00700 33.24800
H  -2.24100 31.92600 32.39100
H  -3.48100 31.59700 34.07800
H  -3.53800 33.40900 34.49600
H  2.96500 38.54000 29.08400
H  1.94600 38.09000 30.42600
H  1.45400 39.54400 29.49300
H  2.42400 40.63100 27.28000
H  3.34200 40.33500 25.80700
H  3.75000 39.34800 27.10800
H  -0.41500 35.08300 22.52700
H  -2.87200 33.38000 22.66500
H  -2.02900 36.43600 21.69100
H  -2.18600 36.84300 23.40500
H  -3.21800 35.53700 22.64200
H  -1.02700 31.43200 23.73500
H  -0.03200 32.78200 23.19400
H  0.03900 31.95400 21.13900
H  -1.73500 31.74600 21.02500
H  -0.88100 30.47500 21.67700
H  -5.06700 29.43200 26.04400
H  -5.34900 30.87300 25.05600
H  -6.44100 30.54200 26.41700
H  -4.04400 31.07600 31.40500
H  -5.97800 32.52900 34.58300
H  -7.32000 31.51200 34.12400
H  -7.30300 33.26400 33.65400

