158

Mg -2.26900 34.77100 27.14000
C  -4.09900 33.17900 29.72700
C  -0.83400 36.84100 29.42600
C  -1.32700 36.82900 24.57700
C  -4.26500 32.89200 24.93000
N  -2.54800 35.02700 29.38700
C  -3.30000 34.25100 30.25500
C  -2.99300 34.58800 31.73100
C  -2.26400 35.98500 31.51800
C  -1.77600 35.93500 30.06500
C  -2.96000 37.29600 31.80700
C  -2.17300 33.48600 32.41300
C  -1.92300 33.72300 33.88000
H  -2.48600 32.82800 34.93300
N  -1.06800 36.43300 27.02000
C  -0.44400 37.08500 28.07500
C  0.43200 38.09400 27.56400
C  0.27400 38.12300 26.10800
C  -0.78400 37.10600 25.84700
C  1.35800 38.85800 28.45200
C  1.14100 38.90500 25.08700
O  0.89200 38.73800 23.91400
C  2.23200 39.76900 25.42200
N  -2.80000 34.91700 25.07100
C  -2.22500 35.88600 24.19700
C  -2.73800 35.70400 22.75500
C  -3.56400 34.34300 22.86100
C  -3.54800 33.98200 24.36800
C  -3.56400 36.88600 22.27900
C  -3.24100 33.12900 21.82300
C  -2.32500 31.93100 22.38200
N  -3.84900 33.28100 27.20000
C  -4.48400 32.53600 26.24800
C  -5.40700 31.61000 26.79700
C  -5.21200 31.76200 28.18800
C  -4.30500 32.84600 28.40600
C  -6.31600 30.67100 26.09300
C  -5.64800 31.23400 29.47800
O  -6.56500 30.45600 29.82400
C  -4.92300 32.14500 30.48600
C  -5.94300 32.73000 31.42400
O  -6.85000 33.45500 31.01600
O  -5.73500 32.36300 32.76100
C  -6.82400 32.65300 33.62500
H  -0.27600 37.42800 30.15900
H  -0.99000 37.54300 23.82300
H  -4.74500 32.14500 24.29400
H  -3.90500 34.78100 32.29600
H  -1.29400 35.92600 32.01100
H  -3.76200 37.20000 32.53800
H  -3.33900 37.59200 30.83000
H  -2.23200 37.97500 32.25200
H  -1.17000 33.37600 32.00200
H  -2.77500 32.58000 32.34300
H  -2.25200 34.73900 34.09700
H  -0.84600 33.79900 34.02900
H  0.87100 39.81100 28.65800
H  2.33800 38.94000 27.98300
H  1.57600 38.39400 29.41400
H  2.66200 40.35900 24.61200
H  3.02700 39.11300 25.77600
H  1.96100 40.53400 26.15000
H  -1.83800 35.67100 22.14100
H  -4.61800 34.56900 22.70000
H  -4.62100 36.62100 22.30200
H  -3.30900 37.29900 21.30400
H  -3.59100 37.64900 23.05700
H  -2.82000 33.64100 20.95800
H  -4.20300 32.76600 21.45900
H  -1.73100 31.58100 21.53800
H  -2.98000 31.07800 22.55900
H  -1.67400 32.20500 23.21200
H  -7.30000 31.13900 26.05800
H  -6.37500 29.83200 26.78600
H  -6.03800 30.27700 25.11500
H  -4.18700 31.51100 30.97900
H  -6.50400 32.93400 34.62900
H  -7.32400 31.68700 33.69300
H  -7.48300 33.44200 33.26300
Mg -12.74000 16.28700 42.85000
C  -9.52400 14.97200 42.14300
C  -11.69700 19.18000 41.59900
C  -16.06200 17.18000 42.81500
C  -13.72300 13.06900 43.94500
N  -10.86400 16.96800 42.10500
C  -9.62200 16.34900 41.98200
C  -8.56400 17.35300 41.62700
C  -9.26800 18.64900 41.76600
C  -10.69200 18.22800 41.78500
C  -8.96900 19.40400 43.03900
C  -8.11200 17.02500 40.21700
C  -6.65700 17.40100 39.82400
H  -6.04000 16.42300 38.83600
N  -13.75000 17.95500 42.26700
C  -13.11700 19.08900 41.78600
C  -14.07500 20.11200 41.44800
C  -15.36300 19.52500 41.71700
C  -15.11700 18.15600 42.29400
C  -13.67200 21.44500 40.84000
C  -16.70600 20.22900 41.52400
O  -16.77700 21.38600 41.16800
C  -18.03900 19.54300 41.73200
N  -14.68900 15.22200 43.38800
C  -15.88000 15.84100 43.26400
C  -16.91900 14.93500 43.80600
C  -16.05400 13.76100 44.40800
C  -14.73100 13.94200 43.86600
C  -17.98000 15.60400 44.78300
C  -16.67900 12.34500 43.99200
C  -17.20700 11.43600 45.18900
N  -11.82800 14.37700 43.11000
C  -12.33400 13.17800 43.50900
C  -11.28100 12.16200 43.45000
C  -10.18100 12.78700 42.92800
C  -10.53800 14.12900 42.69300
C  -11.51900 10.69900 43.67100
C  -8.79200 12.62500 42.54200
O  -8.06200 11.63400 42.55800
C  -8.33700 14.04800 42.01400
C  -7.27200 14.51600 42.89400
O  -7.42800 14.72900 44.07400
O  -6.06800 14.63100 42.15600
C  -4.94600 15.21100 42.82700
H  -11.43600 20.23200 41.47100
H  -17.08400 17.56200 42.85600
H  -13.90400 12.01500 44.16700
H  -7.63100 17.27000 42.18500
H  -9.08500 19.29500 40.90700
H  -9.79000 19.30000 43.74800
H  -8.93600 20.47100 42.82000
H  -8.02100 19.08200 43.46800
H  -8.79300 17.52200 39.52500
H  -8.27900 15.96400 40.03400
H  -6.05500 17.54200 40.72200
H  -6.45000 18.39700 39.43200
H  -13.30800 21.24900 39.83200
H  -12.86400 21.81000 41.47500
H  -14.49100 22.16000 40.92000
H  -18.18500 19.37500 42.79900
H  -17.90900 18.56500 41.26700
H  -18.85200 20.13100 41.30600
H  -17.54700 14.64900 42.96300
H  -16.02300 13.76300 45.49700
H  -17.53200 16.55400 45.07400
H  -18.20900 14.99100 45.65400
H  -18.89400 15.73700 44.20300
H  -15.98800 11.77400 43.37200
H  -17.50200 12.48100 43.29000
H  -17.01900 10.38300 44.98400
H  -18.28700 11.54300 45.09600
H  -16.87900 11.53900 46.22400
H  -12.50700 10.37100 43.34900
H  -11.36400 10.33000 44.68500
H  -10.74700 10.20300 43.08300
H  -7.86600 13.85300 41.05100
H  -5.21700 16.15900 43.29300
H  -4.18300 15.35000 42.06200
H  -4.56400 14.58400 43.63200

