158

Mg 1.01500 7.19800 25.74500
C  1.64100 9.20100 28.60000
C  1.38900 4.44500 27.61000
C  0.46300 5.38800 22.95400
C  1.14100 10.17100 23.78300
N  1.59300 6.93800 27.88300
C  1.60400 7.83900 28.86500
C  1.71100 7.06500 30.21600
C  2.03200 5.60900 29.80300
C  1.73400 5.65900 28.28600
C  3.47400 5.08400 30.08800
C  0.47600 7.25300 31.17500
C  0.76400 7.71400 32.61100
H  1.97300 7.12600 33.25900
N  0.79400 5.23100 25.38400
C  0.94100 4.21700 26.28100
C  0.62700 2.92900 25.71100
C  0.41300 3.13800 24.30500
C  0.49600 4.62200 24.17300
C  0.64900 1.61000 26.39400
C  0.09400 2.09500 23.20900
O  -0.13900 2.41500 22.02500
C  0.04400 0.58900 23.49100
N  0.52500 7.77800 23.75100
C  0.59100 6.73900 22.78600
C  0.66700 7.40700 21.34900
C  0.56400 8.93900 21.64100
C  0.71400 9.00600 23.14400
C  1.94100 6.98900 20.59800
C  -0.69500 9.68900 21.06300
C  -0.37600 10.90600 20.20600
N  1.35000 9.20700 26.03000
C  1.45500 10.30400 25.14000
C  1.57500 11.56100 25.89900
C  1.71700 11.13000 27.24100
C  1.52300 9.72700 27.28900
C  1.55600 12.96300 25.42600
C  1.98800 11.59400 28.57600
O  2.30500 12.72200 28.98200
C  1.86000 10.36900 29.53300
C  2.98100 10.19200 30.43100
O  4.06600 9.63200 30.26500
O  2.63900 10.80400 31.61400
C  3.70300 10.80900 32.63600
H  1.44000 3.55500 28.24000
H  0.30600 4.89900 21.99000
H  1.32100 11.05900 23.17200
H  2.55100 7.52200 30.74000
H  1.41800 4.90300 30.36200
H  4.05400 5.87300 30.56600
H  3.98000 4.89100 29.14200
H  3.49300 4.23800 30.77500
H  -0.14200 6.35900 31.26500
H  -0.13300 8.08400 30.82100
H  -0.11200 7.49900 33.22400
H  0.91700 8.79100 32.66400
H  0.41200 1.72900 27.45100
H  1.54900 0.99900 26.32000
H  -0.20000 0.99600 26.09300
H  0.94500 0.16300 23.93300
H  -0.19600 0.17600 22.51200
H  -0.82300 0.49600 24.14400
H  -0.10500 7.05400 20.66500
H  1.44900 9.41100 21.21500
H  2.31700 7.81800 19.99900
H  1.80800 6.11200 19.96500
H  2.74000 6.74300 21.29700
H  -1.32800 10.09200 21.85400
H  -1.19100 8.93700 20.45100
H  -1.27500 11.23100 19.68300
H  0.54200 10.87300 19.61800
H  -0.31000 11.76000 20.88000
H  0.55500 13.16900 25.04700
H  2.50400 13.19300 24.93900
H  1.63600 13.51300 26.36400
H  0.92700 10.52200 30.07500
H  3.61700 9.92100 33.26200
H  3.59300 11.59200 33.38600
H  4.74000 10.85100 32.30300
Mg 17.29200 -2.58500 28.29600
C  16.48700 -0.25000 30.64700
C  19.09300 -4.32000 30.56900
C  18.57800 -4.43700 25.73100
C  15.88600 -0.45400 25.82900
N  17.73400 -2.24600 30.35700
C  17.22200 -1.34400 31.19700
C  17.68700 -1.55400 32.65800
C  18.68700 -2.72100 32.49700
C  18.49400 -3.10300 31.05000
C  20.27400 -2.43000 32.75600
C  16.43800 -1.90500 33.54200
C  16.28400 -1.20400 34.88200
H  17.53800 -0.64100 35.53400
N  18.48400 -4.25400 28.18900
C  19.13300 -4.83500 29.26900
C  19.83300 -6.04000 28.90200
C  19.70800 -6.06600 27.48700
C  18.93700 -4.87800 27.03800
C  20.61200 -7.05700 29.86500
C  20.29100 -7.00500 26.55900
O  20.20300 -6.85000 25.36000
C  21.00700 -8.20700 27.09500
N  17.35800 -2.39300 26.14600
C  17.96400 -3.29000 25.32000
C  17.76900 -3.02800 23.85200
C  16.79100 -1.81800 23.88600
C  16.65900 -1.54900 25.39200
C  19.04800 -2.63200 23.14800
C  15.49900 -2.04400 23.15000
C  15.02100 -0.82300 22.35100
N  16.33300 -0.70200 28.20600
C  15.77000 0.04400 27.15700
C  15.00700 1.12700 27.69000
C  15.27200 1.05000 29.10300
C  16.05000 -0.04900 29.31900
C  14.15600 2.09100 26.90500
C  15.01400 1.71000 30.40200
O  14.36400 2.67800 30.64700
C  15.83400 0.87500 31.48400
C  16.70000 1.71800 32.38200
O  17.91900 1.82700 32.37300
O  15.88900 2.42300 33.26500
C  16.51500 3.50800 34.02700
H  19.58000 -4.72500 31.45900
H  18.80700 -5.17400 24.95900
H  15.51800 0.20700 25.04100
H  18.23800 -0.63600 32.86300
H  18.39800 -3.52600 33.17200
H  20.76200 -2.01900 31.87200
H  20.79200 -3.30900 33.13800
H  20.34100 -1.64600 33.51100
H  16.36100 -2.98900 33.62700
H  15.59100 -1.69900 32.88800
H  15.72800 -1.83900 35.57200
H  15.57800 -0.38000 34.77500
H  21.66500 -6.78400 29.93300
H  20.50400 -8.12400 29.66700
H  20.19800 -6.83400 30.84800
H  21.62500 -8.56200 26.27000
H  20.35600 -8.95700 27.54300
H  21.74100 -7.95500 27.86000
H  17.49900 -3.94400 23.32700
H  17.30300 -0.98000 23.41400
H  19.62600 -2.04900 23.86600
H  18.98000 -2.01400 22.25200
H  19.62500 -3.54900 23.03500
H  14.76300 -2.38400 23.87800
H  15.68800 -2.78800 22.37600
H  14.08800 -0.41900 22.74400
H  14.95800 -1.14000 21.31100
H  15.77000 -0.03400 22.28200
H  13.98100 3.09200 27.29900
H  13.24000 1.59600 26.58200
H  14.76200 2.22800 26.00900
H  15.12100 0.37000 32.13500
H  17.53800 3.30900 34.34700
H  16.03000 3.54400 35.00200
H  16.40600 4.31700 33.30400

