158

Mg 9.04800 3.83800 27.58800
C  10.60400 2.29600 30.39100
C  7.10900 5.66100 29.88500
C  7.27900 4.98700 25.03100
C  10.61900 1.50200 25.59600
N  8.70900 3.79200 29.88600
C  9.68100 3.30100 30.80900
C  9.31000 3.69300 32.28600
C  8.06100 4.67600 31.98700
C  7.91400 4.71100 30.44400
C  6.77800 4.29900 32.75800
C  10.64400 4.27400 32.94900
C  11.14300 3.59300 34.25400
H  11.28000 4.37700 35.56900
N  7.53500 5.21300 27.43200
C  6.86700 5.85700 28.45300
C  5.98200 6.80500 27.85300
C  6.11000 6.70300 26.46000
C  7.02100 5.61000 26.23900
C  5.24200 7.72400 28.83400
C  5.54100 7.52400 25.29100
O  5.69900 7.44300 24.10100
C  4.62100 8.56700 25.76600
N  8.94300 3.26500 25.58300
C  8.16000 3.95400 24.68500
C  8.42600 3.36200 23.28400
C  9.51300 2.25600 23.44000
C  9.73200 2.33700 24.92500
C  7.07400 2.79700 22.67400
C  10.77500 2.57700 22.63300
C  11.64800 1.41300 22.09100
N  10.42900 2.23300 27.89500
C  10.96300 1.38500 26.95300
C  11.91300 0.51100 27.60300
C  11.86500 0.87400 28.90400
C  10.92700 1.87800 29.08900
C  12.68600 -0.56600 26.99100
C  12.34700 0.51900 30.20900
O  13.00500 -0.45000 30.54300
C  11.56800 1.50700 31.25000
C  10.85400 0.76000 32.27600
O  9.65500 0.40500 32.21800
O  11.66600 0.48700 33.33800
C  11.14600 -0.01600 34.61700
H  6.54600 6.37700 30.48700
H  6.67200 5.23900 24.15900
H  11.24200 0.76800 25.08100
H  8.96800 2.78300 32.77900
H  8.34200 5.68700 32.28100
H  5.98000 4.09300 32.04500
H  6.40400 5.11000 33.38200
H  6.82900 3.36600 33.31900
H  10.30000 5.29300 33.12400
H  11.42100 4.21400 32.18600
H  12.15700 3.28100 34.00400
H  10.58700 2.67900 34.46400
H  4.88600 7.12000 29.66900
H  4.41200 8.23500 28.34500
H  5.95400 8.46600 29.19600
H  5.18600 9.16800 26.47900
H  3.70400 8.12000 26.14900
H  4.26800 9.11200 24.89100
H  8.79600 4.17500 22.66000
H  9.13100 1.31900 23.03400
H  6.57300 3.42100 21.93400
H  6.43700 2.69000 23.55200
H  7.31500 1.83400 22.22300
H  11.38500 3.25100 23.23400
H  10.58400 3.38700 21.92900
H  11.60400 1.39400 21.00200
H  11.22500 0.53700 22.58300
H  12.66300 1.66500 22.39700
H  13.32400 -0.22900 26.17300
H  12.06700 -1.45600 26.87500
H  13.40500 -0.86400 27.75400
H  12.35300 2.15700 31.63600
H  11.19700 0.76400 35.37600
H  11.82000 -0.78800 34.99000
H  10.18800 -0.52800 34.52400
Mg 26.41300 50.13400 26.77700
C  24.49200 51.46800 29.35500
C  28.83700 49.35000 29.01100
C  28.23500 49.09500 24.23900
C  24.21600 51.56000 24.55400
N  26.69500 50.60700 29.01300
C  25.72800 50.96100 29.90300
C  26.18700 50.83000 31.38900
C  27.56300 50.13100 31.16100
C  27.72800 49.98600 29.64000
C  28.80100 50.75000 31.88800
C  25.08000 50.03200 32.23800
C  25.53900 49.01700 33.37500
H  24.62000 49.00600 34.64800
N  28.25300 49.33800 26.65100
C  29.12500 49.13700 27.67700
C  30.34800 48.53200 27.24100
C  30.25800 48.51200 25.81400
C  28.89500 48.97600 25.50700
C  31.43000 48.00400 28.17800
C  31.30200 48.25500 24.76400
O  31.08400 48.41300 23.54700
C  32.69500 47.97300 25.21800
N  26.20000 50.16400 24.65700
C  27.02300 49.57400 23.80500
C  26.48900 49.55300 22.34100
C  25.19900 50.42500 22.50200
C  25.17100 50.71400 23.99300
C  27.54400 50.09700 21.33200
C  23.89700 49.82000 22.02700
C  22.88700 50.81600 21.46200
N  24.59100 51.15200 26.87100
C  23.80600 51.60700 25.88500
C  22.66500 52.37100 26.42700
C  22.88800 52.32000 27.85100
C  24.07300 51.51300 28.00100
C  21.55200 53.11000 25.70600
C  22.34400 52.64100 29.14000
O  21.38100 53.30900 29.49900
C  23.37400 52.11400 30.16300
C  23.74100 53.34100 31.02000
O  24.52100 54.27400 30.79100
O  22.94300 53.19400 32.19800
C  23.30300 54.01700 33.35800
H  29.55000 49.02600 29.77200
H  28.69200 48.50100 23.44500
H  23.55300 51.97200 23.79000
H  26.30200 51.85900 31.73000
H  27.41600 49.08500 31.43100
H  29.20000 51.66700 31.45500
H  29.54300 49.95200 31.87100
H  28.56600 50.98700 32.92600
H  24.51900 49.35800 31.59100
H  24.41100 50.80200 32.62100
H  26.57300 49.24200 33.63800
H  25.45000 48.02300 32.93500
H  32.29200 48.64900 28.00500
H  31.71900 46.98600 27.91800
H  31.15200 48.13200 29.22400
H  33.37200 48.05800 24.36800
H  32.60400 47.03900 25.77300
H  32.97100 48.72900 25.95400
H  26.10300 48.61700 21.93700
H  25.43400 51.38200 22.03700
H  28.50900 50.24500 21.81700
H  27.32400 51.03900 20.82800
H  27.62900 49.19900 20.72100
H  23.40000 49.23400 22.80000
H  24.11100 49.10300 21.23400
H  21.91100 50.86700 21.94300
H  22.67200 50.60000 20.41500
H  23.25900 51.83500 21.56500
H  21.03000 52.60200 24.89500
H  21.96000 54.02200 25.27200
H  20.79200 53.43500 26.41700
H  22.88300 51.37200 30.79100
H  23.49700 55.06500 33.12900
H  24.21600 53.49800 33.65000
H  22.59000 53.95100 34.18000

