158

Mg 0.74000 8.04300 26.06900
C  1.39800 10.26400 28.53500
C  1.21900 5.49100 28.07400
C  0.24900 6.03600 23.28700
C  0.52700 10.76600 23.77900
N  1.17700 7.99200 28.11800
C  1.34000 8.94000 29.02200
C  1.53400 8.34200 30.51100
C  1.55800 6.84500 30.25600
C  1.28400 6.75000 28.67200
C  2.91500 6.09600 30.70400
C  0.42000 8.91900 31.33600
C  0.19700 8.45000 32.80800
H  1.43200 8.12500 33.58400
N  0.65200 6.04100 25.71900
C  0.89700 5.12300 26.73000
C  0.78200 3.81700 26.26300
C  0.51300 3.93700 24.81000
C  0.45800 5.40800 24.52300
C  0.99200 2.59200 27.18400
C  0.46900 2.86900 23.79100
O  0.10700 2.95100 22.63400
C  0.67600 1.54100 24.25400
N  0.48300 8.40700 23.85100
C  0.32800 7.40100 22.99200
C  -0.13700 7.82900 21.57700
C  -0.39000 9.37700 21.78800
C  0.19700 9.57000 23.23400
C  0.90500 7.52100 20.50900
C  -1.85300 9.93100 21.68300
C  -2.24100 11.01200 20.69400
N  1.08700 10.06500 26.09600
C  0.97400 11.09500 25.11100
C  1.35300 12.32100 25.66100
C  1.50900 12.12400 27.04600
C  1.35900 10.70400 27.24000
C  1.43100 13.58900 24.98100
C  1.84600 12.72400 28.34700
O  2.28100 13.84000 28.59100
C  1.58800 11.58300 29.34600
C  2.81900 11.60500 30.19700
O  4.01500 11.39700 29.92700
O  2.47600 11.85500 31.50600
C  3.65400 11.97100 32.37600
H  1.41700 4.63700 28.72600
H  -0.04400 5.29500 22.54100
H  0.25500 11.58700 23.11300
H  2.48100 8.72200 30.89400
H  0.76600 6.35900 30.82500
H  2.66000 5.25300 31.34700
H  3.59200 6.76700 31.23300
H  3.41400 5.59900 29.87200
H  -0.52900 8.76800 30.82200
H  0.56400 9.99900 31.36700
H  -0.55300 7.66300 32.88900
H  -0.21300 9.35200 33.26200
H  1.04900 2.79700 28.25300
H  1.90200 2.08700 26.85900
H  0.19400 1.88100 26.97300
H  1.63900 1.46300 24.76000
H  0.68800 0.82200 23.43400
H  -0.09400 1.21500 24.95300
H  -1.08300 7.34000 21.34600
H  0.27100 10.01600 21.20200
H  0.89800 6.49900 20.12900
H  1.93700 7.69900 20.81100
H  0.79500 8.20100 19.66400
H  -2.13800 10.25200 22.68400
H  -2.47300 9.03700 21.60100
H  -3.15900 10.79600 20.14700
H  -1.52100 11.15600 19.88900
H  -2.20200 11.96100 21.22900
H  0.49000 14.11300 24.81600
H  1.84200 13.38200 23.99300
H  2.11800 14.19500 25.57200
H  0.66000 11.80800 29.87100
H  4.28100 11.08800 32.24900
H  3.41800 12.00000 33.44000
H  4.23100 12.89000 32.27700
Mg 47.87500 25.30000 29.19800
C  48.34600 27.56000 31.77400
C  46.69800 22.98300 31.51200
C  47.63900 23.02500 26.68700
C  49.56200 27.50300 27.02900
N  47.46400 25.30400 31.35900
C  47.67500 26.39400 32.22800
C  47.25700 26.12300 33.68700
C  46.83700 24.59200 33.59700
C  47.01900 24.21100 32.08000
C  47.53900 23.68900 34.61200
C  46.11700 27.07600 34.21700
C  46.34200 27.85400 35.52200
H  46.77300 27.22800 36.89500
N  47.15400 23.27800 29.13500
C  46.71900 22.50100 30.19100
C  46.31500 21.15000 29.70200
C  46.59400 21.19700 28.29400
C  47.10700 22.59400 27.95100
C  45.65200 20.12800 30.53400
C  46.38600 20.05200 27.24500
O  46.81400 20.02500 26.08900
C  45.67400 18.80300 27.64000
N  48.60000 25.23400 27.13000
C  48.28700 24.19700 26.31300
C  48.82300 24.39300 24.90200
C  49.27700 25.98900 24.93000
C  49.14600 26.30200 26.43400
C  49.90200 23.39500 24.40900
C  48.41200 26.98000 24.17300
C  49.23300 27.97700 23.41500
N  48.84900 27.13600 29.31800
C  49.39100 27.91300 28.31700
C  49.90800 29.05100 28.89300
C  49.48000 29.04800 30.26800
C  48.78300 27.83300 30.42600
C  50.62300 30.04100 28.03900
C  49.47000 29.81200 31.57400
O  49.93100 30.92800 31.81100
C  48.71200 28.89100 32.52400
C  49.46100 28.80000 33.77600
O  50.43500 28.14700 34.01900
O  48.97600 29.68800 34.68800
C  49.76800 29.88700 35.88400
H  46.35300 22.25800 32.25200
H  47.32300 22.38400 25.86100
H  50.05900 28.16100 26.31400
H  48.14100 26.25900 34.31100
H  45.77700 24.48600 33.83100
H  48.11500 24.08800 35.44700
H  48.30900 23.18600 34.02700
H  46.83100 22.93900 34.96300
H  45.14600 26.58500 34.28800
H  46.06300 27.85300 33.45500
H  45.41200 28.27200 35.90700
H  46.93400 28.75100 35.33900
H  46.29000 19.24400 30.53900
H  44.80300 19.70100 30.00100
H  45.34900 20.45100 31.53000
H  44.63000 18.92100 27.93000
H  46.23600 18.20800 28.36000
H  45.64900 18.17600 26.74800
H  47.97600 24.28900 24.22400
H  50.34400 25.99400 24.70800
H  50.85600 23.92000 24.38600
H  49.67700 22.85000 23.49100
H  50.00500 22.58600 25.13200
H  47.79900 27.56600 24.85700
H  47.76500 26.58900 23.38800
H  49.21900 27.78700 22.34200
H  50.23300 27.91500 23.84400
H  48.89000 28.99400 23.60900
H  50.76500 30.90300 28.69100
H  49.93000 30.30400 27.24000
H  51.51600 29.54500 27.65800
H  47.76500 29.37100 32.77000
H  49.43500 30.82900 36.31900
H  50.85500 29.81000 35.93200
H  49.53200 29.09800 36.59800

