158

Mg 43.24600 3.94700 46.79500
C  41.54400 7.02400 46.47400
C  40.22100 2.32400 46.27200
C  44.84100 0.98500 46.74000
C  46.25900 5.72800 46.79700
N  41.16000 4.63700 46.26100
C  40.70400 5.89400 46.31600
C  39.21000 5.95600 46.35100
C  38.78200 4.43300 46.35000
C  40.11000 3.73200 46.32500
C  37.80800 3.86400 47.44300
C  38.57400 6.94700 45.30600
C  37.26500 6.59400 44.58000
H  37.25300 6.22100 43.05100
N  42.64700 1.86800 46.50400
C  41.36300 1.46100 46.36600
C  41.28100 -0.00600 46.37800
C  42.64200 -0.47300 46.46700
C  43.43600 0.77200 46.64500
C  39.98100 -0.84100 46.03900
C  43.16600 -1.81700 46.31900
O  42.38400 -2.74800 46.28400
C  44.69900 -2.07000 46.20000
N  45.21600 3.50300 46.63800
C  45.64200 2.21000 46.83100
C  47.12700 2.11500 46.75300
C  47.63400 3.56800 46.70900
C  46.28400 4.29900 46.71100
C  47.76500 1.26700 47.87500
C  48.39700 3.95600 45.39700
C  49.94000 4.20800 45.53700
N  43.84900 6.00700 46.68500
C  45.12100 6.56600 46.75700
C  44.98600 7.99500 46.76400
C  43.60500 8.24700 46.73800
C  42.94700 6.99900 46.60000
C  46.16700 8.94100 46.88400
C  42.56200 9.27000 46.74300
O  42.83300 10.47600 46.82200
C  41.16300 8.53900 46.58300
C  40.42500 8.73000 47.87500
O  40.40600 8.00400 48.85500
O  39.48400 9.67200 47.71400
C  38.43800 9.88900 48.74500
H  39.26300 1.81700 46.13700
H  45.46900 0.10900 46.91500
H  47.18300 6.30500 46.86600
H  39.06600 6.39900 47.33700
H  38.31000 4.23000 45.38800
H  37.20500 3.06200 47.01600
H  37.23700 4.70700 47.83200
H  38.30800 3.31900 48.24300
H  39.33000 7.13300 44.54400
H  38.49200 7.90800 45.81300
H  36.77000 7.56500 44.54700
H  36.60500 5.94000 45.15000
H  39.02800 -0.33200 46.18600
H  40.15500 -1.58600 46.81600
H  39.97500 -1.33900 45.07000
H  45.17700 -1.86600 47.15800
H  45.02700 -1.37000 45.43200
H  44.93500 -3.02800 45.73700
H  47.41200 1.63900 45.81500
H  48.27000 3.68900 47.58600
H  47.99500 0.29500 47.43900
H  47.02000 1.06200 48.64300
H  48.69900 1.65200 48.28600
H  48.00100 4.76400 44.78200
H  48.46000 3.08200 44.74800
H  50.08300 5.20600 45.12200
H  50.52600 3.56900 44.87700
H  50.32700 4.10900 46.55100
H  46.83600 8.83100 46.03100
H  46.78200 8.89000 47.78300
H  45.74000 9.93500 47.02000
H  40.66400 9.05300 45.76200
H  37.63700 9.15500 48.84100
H  37.96500 10.84900 48.53800
H  38.97200 10.10200 49.67100
Mg 35.63300 1.75100 29.08000
C  33.60500 2.83700 31.65100
C  38.18700 1.30800 31.30900
C  37.70400 1.31300 26.61600
C  32.96200 2.24100 26.83500
N  35.83600 2.27200 31.21700
C  34.88900 2.54000 32.14300
C  35.39700 2.32300 33.57500
C  36.90500 2.11000 33.31800
C  37.00100 1.92000 31.84500
C  37.72600 3.38000 33.75000
C  34.69100 1.20300 34.40800
C  34.05800 1.59600 35.77400
H  34.64600 2.79000 36.50400
N  37.62500 1.16800 28.93500
C  38.46900 0.95900 29.98900
C  39.72200 0.59200 29.54500
C  39.66100 0.76200 28.09100
C  38.28500 1.05400 27.81800
C  40.93700 0.26800 30.49700
C  40.70200 0.48500 27.00800
O  40.48800 0.74000 25.88200
C  42.07300 -0.13800 27.32900
N  35.31500 1.83800 26.99800
C  36.42300 1.64900 26.19100
C  36.04700 1.75900 24.65800
C  34.52000 1.91000 24.77300
C  34.19000 1.92300 26.27100
C  36.75600 2.87600 23.83200
C  33.71400 0.83800 23.98600
C  33.06400 1.42800 22.71000
N  33.65600 2.47500 29.14500
C  32.66200 2.54200 28.21100
C  31.54200 3.18200 28.75600
C  31.80700 3.28100 30.12000
C  33.15500 2.77700 30.30400
C  30.24300 3.56400 27.99900
C  31.27500 3.62000 31.40600
O  30.11600 3.86100 31.75600
C  32.43200 3.36700 32.52200
C  32.67600 4.60000 33.34000
O  33.58300 5.42100 33.15600
O  31.69700 4.66200 34.32000
C  31.86400 5.89400 35.08900
H  38.89700 1.06600 32.10300
H  38.36400 1.17900 25.75700
H  32.24200 2.44700 26.04100
H  35.24000 3.20600 34.19500
H  37.33700 1.20700 33.74700
H  38.31500 3.63700 32.87000
H  38.46000 3.18500 34.53200
H  37.11300 4.27000 33.89000
H  35.43100 0.42300 34.58700
H  33.85500 0.84500 33.80800
H  34.27800 0.74500 36.41900
H  33.01400 1.69100 35.47400
H  41.18600 -0.79200 30.46000
H  40.71500 0.44700 31.54900
H  41.71100 0.94300 30.13200
H  42.08600 -0.78100 28.20900
H  42.76000 0.68100 27.54200
H  42.35300 -0.77400 26.49000
H  36.23300 0.76800 24.24400
H  34.23500 2.89700 24.41100
H  36.09100 3.45300 23.19000
H  37.40200 2.30100 23.16800
H  37.29400 3.64800 24.38300
H  33.02800 0.39400 24.70700
H  34.42900 0.08700 23.65000
H  33.37500 2.45300 22.50800
H  31.98300 1.40200 22.84600
H  33.40300 0.76800 21.91100
H  30.37900 4.23300 27.15000
H  29.42400 4.05400 28.52600
H  29.81700 2.71800 27.45800
H  32.08100 2.63100 33.24500
H  30.99900 6.01800 35.74000
H  31.98600 6.82600 34.53700
H  32.64100 5.54100 35.76700

