158

Mg 0.39100 7.93000 25.65400
C  1.17100 9.53100 28.65600
C  0.06000 4.93100 27.45700
C  0.42700 6.16800 22.78600
C  1.41000 10.74200 23.84100
N  0.73200 7.30600 27.80000
C  0.84800 8.18200 28.88500
C  0.76000 7.47600 30.24100
C  0.63100 6.01600 29.72700
C  0.39700 6.08600 28.22500
C  1.79600 5.10900 30.14000
C  -0.46600 7.83800 31.17300
C  -0.45600 7.41000 32.67900
H  0.76900 6.69600 33.30100
N  0.08400 5.88100 25.18500
C  -0.00300 4.80300 26.06600
C  -0.24400 3.60600 25.33000
C  -0.09300 3.90700 23.94300
C  0.18200 5.38100 23.94200
C  -0.49200 2.33400 26.11900
C  -0.22100 2.97000 22.73200
O  0.03000 3.32400 21.58300
C  -0.45500 1.46200 23.00600
N  0.90000 8.43400 23.60800
C  0.67700 7.49800 22.60300
C  0.92500 8.09700 21.20500
C  1.22500 9.57800 21.52500
C  1.10900 9.65700 23.10200
C  2.10000 7.27900 20.50500
C  0.13800 10.55700 20.89200
C  -1.23600 10.87100 21.56200
N  1.17900 9.78800 26.11700
C  1.47200 10.87100 25.27000
C  1.81800 12.01100 26.17100
C  1.72400 11.54900 27.46900
C  1.32400 10.18900 27.38300
C  2.04500 13.46900 25.75900
C  1.78000 11.93900 28.82200
O  2.22000 13.01100 29.23200
C  1.44800 10.65200 29.69100
C  2.55000 10.34600 30.58800
O  3.49800 9.62000 30.29200
O  2.37900 10.88200 31.81300
C  3.55800 10.65200 32.71100
H  -0.14200 4.00400 27.99800
H  0.22800 5.69200 21.82300
H  1.54300 11.71400 23.36100
H  1.63500 7.63000 30.87200
H  -0.22300 5.53400 30.20200
H  1.43700 4.15100 30.51500
H  2.38000 5.57700 30.93200
H  2.45900 5.06000 29.27700
H  -1.38200 7.48900 30.69700
H  -0.58800 8.92100 31.18100
H  -1.37600 6.84900 32.84000
H  -0.51400 8.28200 33.33000
H  -1.01200 2.54700 27.05300
H  0.45300 1.82100 26.29900
H  -1.07100 1.60900 25.54900
H  -0.65200 0.87100 22.11100
H  -1.38400 1.42600 23.57400
H  0.45400 1.10000 23.48600
H  0.02300 7.99000 20.60300
H  2.18800 9.94400 21.16900
H  2.63200 6.77700 21.31300
H  2.81900 7.99200 20.09900
H  1.70900 6.56600 19.77800
H  -0.08200 10.04800 19.95300
H  0.63800 11.47600 20.58600
H  -1.17900 11.80500 22.12100
H  -1.55800 10.14600 22.30900
H  -2.08200 10.99900 20.88600
H  1.42300 13.55800 24.86900
H  3.08300 13.61500 25.45700
H  1.68700 14.13800 26.54200
H  0.53800 10.92200 30.22800
H  4.49700 10.73300 32.16400
H  3.50200 9.62800 33.08000
H  3.47700 11.36000 33.53600
Mg 48.94700 45.02800 42.85900
C  45.84500 46.01000 41.50900
C  48.50600 42.02200 41.41900
C  52.25500 44.43600 43.36000
C  49.45500 48.17500 44.09300
N  47.37100 44.21000 41.57000
C  46.13200 44.67800 41.21300
C  45.29600 43.63400 40.45800
C  46.12100 42.34500 40.79800
C  47.43000 42.88000 41.30300
C  45.38700 41.37600 41.72500
C  45.08000 43.89700 38.97900
C  43.73500 43.64100 38.29100
H  43.69900 42.59100 37.21600
N  50.24600 43.32800 42.52600
C  49.82800 42.22900 41.87700
C  50.90600 41.30400 41.78100
C  51.98200 41.93800 42.53600
C  51.52800 43.30300 42.84200
C  50.87000 39.89000 41.11400
C  53.43700 41.37800 42.84100
O  53.68300 40.18100 42.48000
C  54.49500 42.22200 43.56900
N  50.70500 46.25600 43.42300
C  51.92500 45.77400 43.54500
C  52.92100 46.83100 43.96200
C  51.98700 48.05200 44.28200
C  50.65900 47.48000 43.92000
C  53.89700 46.45800 45.11300
C  52.33500 49.28600 43.41600
C  51.97700 50.63700 44.06300
N  47.89700 46.75900 42.82500
C  48.14100 47.91700 43.54700
C  46.97200 48.75200 43.50200
C  46.07400 48.08200 42.64000
C  46.67600 46.86400 42.28700
C  46.70700 50.08300 44.22800
C  44.76000 48.15200 42.10300
O  43.90900 49.08300 42.20400
C  44.53000 46.84300 41.21100
C  43.22900 46.17000 41.57400
O  42.27400 45.95400 40.85000
O  43.23300 45.72900 42.91000
C  41.93100 45.29300 43.35900
H  48.32200 40.99400 41.10200
H  53.34300 44.34200 43.34100
H  49.50500 49.09000 44.68700
H  44.36000 43.41900 40.97400
H  46.32400 41.69100 39.95000
H  45.38300 41.81600 42.72200
H  45.91500 40.44500 41.93000
H  44.34400 41.24000 41.43800
H  45.81200 43.21800 38.54100
H  45.47600 44.89400 38.78600
H  43.30200 44.51800 37.81000
H  43.09400 43.28600 39.09700
H  51.71300 39.25400 41.38600
H  50.88500 40.08000 40.04000
H  49.93000 39.39400 41.35300
H  54.83200 43.11600 43.04600
H  55.40500 41.62200 43.57900
H  54.25500 42.62700 44.55300
H  53.51300 47.03200 43.06900
H  51.94100 48.21400 45.35800
H  53.76300 47.14500 45.94900
H  54.95300 46.51800 44.85200
H  53.63100 45.45900 45.46100
H  51.63500 49.14900 42.59100
H  53.38600 49.25900 43.12800
H  51.39800 51.18000 43.31700
H  52.77000 51.34600 44.30200
H  51.42500 50.40800 44.97400
H  47.67400 50.57300 44.33900
H  46.22100 49.92400 45.19100
H  46.12700 50.71500 43.55600
H  44.44700 47.08600 40.15100
H  41.77100 44.26200 43.04300
H  41.07400 45.88200 43.03300
H  42.00600 45.24900 44.44500

