158

Mg 30.51400 58.49300 39.82200
C  27.78800 56.30200 39.10400
C  32.66600 55.72800 39.11800
C  32.95100 60.61800 39.90200
C  28.16700 61.17800 39.68400
N  30.26700 56.27900 39.19500
C  29.01500 55.66000 39.12600
C  29.27100 54.30400 38.49100
C  30.76500 54.00100 38.98900
C  31.30300 55.40300 39.07400
C  30.86200 53.12600 40.21100
C  29.18700 54.31800 36.93900
C  28.39900 53.18800 36.25600
H  27.90900 53.49300 34.79500
N  32.55500 58.16800 39.57000
C  33.27500 57.03800 39.15500
C  34.61000 57.30900 39.03800
C  34.80000 58.67300 39.35500
C  33.40500 59.27500 39.64300
C  35.74900 56.34200 38.73500
C  36.09900 59.49200 39.44700
O  37.15300 58.95700 39.11600
C  36.25900 60.89300 39.79800
N  30.48600 60.61400 39.77500
C  31.67100 61.18700 40.03300
C  31.60100 62.59200 40.15400
C  30.11800 62.87200 39.93900
C  29.54400 61.47500 39.73000
C  32.28400 63.27200 41.44300
C  29.78000 63.86000 38.72200
C  29.63400 63.27900 37.25700
N  28.38700 58.76700 39.57000
C  27.59900 59.93100 39.52800
C  26.24900 59.48200 39.37700
C  26.28000 58.13000 39.06400
C  27.59300 57.69300 39.28800
C  25.01300 60.34900 39.36400
C  25.41800 57.00700 38.63500
O  24.19800 56.85000 38.42100
C  26.43700 55.76800 38.60000
C  25.96700 54.55400 39.33600
O  26.10700 54.41500 40.54900
O  25.31700 53.62900 38.53800
C  24.67700 52.41700 39.17900
H  33.30500 54.85100 38.99000
H  33.77600 61.30000 40.11700
H  27.50300 62.02900 39.84700
H  28.66000 53.49700 38.89600
H  31.16600 53.44100 38.14500
H  31.53100 52.33200 39.87900
H  29.91000 52.83500 40.65300
H  31.32800 53.72200 40.99600
H  30.20500 54.16900 36.57900
H  28.86000 55.31500 36.64400
H  27.41800 53.06000 36.71200
H  29.08900 52.34500 36.22400
H  36.15100 56.34000 37.72200
H  35.32500 55.33800 38.77000
H  36.54700 56.38400 39.47500
H  35.89400 61.14800 40.79300
H  35.58100 61.40800 39.11700
H  37.19600 61.32900 39.45200
H  32.18000 62.96300 39.30800
H  29.72100 63.29800 40.86000
H  32.85800 62.70800 42.17900
H  31.49400 63.77300 42.00200
H  32.85100 64.16100 41.16900
H  30.43500 64.72200 38.59600
H  28.83600 64.29600 39.05000
H  28.58100 63.02300 37.13200
H  30.21100 62.35900 37.17300
H  29.84000 64.01900 36.48400
H  24.46700 60.35300 40.30700
H  24.30600 59.98400 38.61900
H  25.23000 61.38800 39.11800
H  26.54600 55.49800 37.55000
H  25.27700 52.04900 40.01100
H  24.58800 51.66500 38.39500
H  23.67900 52.62600 39.56500
Mg 36.43800 49.77400 24.61300
C  36.99300 48.32900 27.57100
C  34.95500 52.55900 26.25900
C  35.56000 51.09500 21.58400
C  37.55700 46.94300 22.91400
N  36.15000 50.39500 26.71600
C  36.36600 49.61400 27.79800
C  35.99300 50.29600 29.10700
C  35.05400 51.42900 28.60500
C  35.42300 51.51600 27.10100
C  33.52300 51.26400 29.06200
C  37.19000 50.76200 29.96600
C  37.31900 50.23900 31.41500
H  36.06800 50.12300 32.21400
N  35.58600 51.65400 24.01400
C  35.03600 52.65400 24.82900
C  34.55300 53.75400 24.01200
C  34.56700 53.29000 22.63600
C  35.33300 51.98200 22.68600
C  34.01100 55.05100 24.58400
C  34.01400 53.92300 21.34500
O  34.04200 53.28500 20.25300
C  33.51500 55.37300 21.49100
N  36.50500 49.08400 22.55100
C  36.11700 49.81600 21.53200
C  36.34900 49.10400 20.08600
C  37.11500 47.85100 20.48600
C  37.01500 47.90600 22.12600
C  35.02700 48.89600 19.36100
C  38.60800 47.65200 19.98900
C  39.61600 48.77200 20.39500
N  37.04100 47.98300 25.11200
C  37.55100 46.94600 24.33700
C  37.95800 45.83200 25.15400
C  37.72800 46.34700 26.52600
C  37.19700 47.65800 26.39600
C  38.33800 44.42400 24.70800
C  37.88000 45.98000 27.90000
O  38.14100 44.90500 28.46700
C  37.43000 47.30600 28.64200
C  36.29600 46.79700 29.54400
O  35.11300 46.72400 29.28300
O  36.87500 46.37800 30.77500
C  35.94300 45.78200 31.70900
H  34.55400 53.42000 26.79900
H  35.15500 51.40600 20.61900
H  37.81400 46.01000 22.40800
H  35.43500 49.50900 29.61400
H  35.33700 52.39300 29.02900
H  33.30300 52.24700 29.47800
H  33.35700 50.45800 29.77600
H  32.88200 51.06600 28.20300
H  37.23400 51.84500 30.08500
H  38.09200 50.48500 29.42000
H  38.08000 50.82000 31.93800
H  37.70600 49.22000 31.42900
H  34.61800 55.88200 24.22500
H  34.07600 55.01900 25.67100
H  32.96300 55.09500 24.28800
H  32.68700 55.32800 22.20000
H  33.24200 55.80600 20.52900
H  34.31000 56.00800 21.88300
H  36.93200 49.84600 19.53900
H  36.57900 46.98500 20.09800
H  34.15100 49.10800 19.97400
H  35.00400 47.83800 19.09900
H  34.81000 49.42600 18.43400
H  38.58800 47.62000 18.89900
H  38.91800 46.62700 20.19200
H  39.07300 49.59600 20.85900
H  40.10600 49.12000 19.48600
H  40.21500 48.48600 21.26000
H  38.41000 44.28400 23.63000
H  37.72000 43.65300 25.16900
H  39.39800 44.34800 24.94700
H  38.22700 47.50700 29.35800
H  35.09100 46.46200 31.72600
H  36.38700 45.65600 32.69600
H  35.60200 44.80700 31.36200

