158

Mg 25.16400 -7.81400 48.62300
C  27.52100 -5.53200 47.16500
C  23.14700 -7.04700 45.99400
C  23.53500 -10.31200 49.56800
C  27.90800 -8.69000 50.92400
N  25.34000 -6.34800 46.80900
C  26.32400 -5.49300 46.40600
C  25.91500 -4.66700 45.23100
C  24.39700 -5.00500 45.08500
C  24.28400 -6.21200 46.01800
C  23.36000 -3.96500 45.36800
C  26.74500 -5.13400 44.01000
C  27.48000 -4.02700 43.27300
H  27.28800 -3.80000 41.76900
N  23.56600 -8.62300 47.74800
C  22.83600 -8.17600 46.71900
C  21.63700 -9.01700 46.61800
C  21.81600 -10.09700 47.56600
C  22.98000 -9.74200 48.31900
C  20.58400 -8.77500 45.61600
C  20.98700 -11.25900 47.83600
O  20.01600 -11.48400 47.13700
C  21.24500 -12.40400 48.86900
N  25.77600 -9.31500 50.03200
C  24.70800 -10.16900 50.34800
C  25.07400 -11.00400 51.55900
C  26.56900 -10.73300 51.72500
C  26.79800 -9.49400 50.85700
C  24.18000 -10.68000 52.77400
C  27.56900 -11.83400 51.35300
C  28.73100 -12.03800 52.31000
N  27.25700 -7.21300 49.06400
C  28.20600 -7.68000 50.00000
C  29.41600 -6.88000 49.81300
C  29.15500 -6.01500 48.71100
C  27.84500 -6.26100 48.32100
C  30.67900 -7.01200 50.44800
C  29.74900 -5.00600 47.84300
O  30.87100 -4.53900 47.83600
C  28.68100 -4.56300 46.94000
C  28.27900 -3.25700 47.38300
O  27.87300 -2.95000 48.49900
O  28.37400 -2.28900 46.45000
C  28.04100 -0.95200 46.91300
H  22.28700 -6.67900 45.43100
H  22.77600 -10.85600 50.13400
H  28.79500 -8.97700 51.49300
H  26.04600 -3.66000 45.62600
H  24.28800 -5.37700 44.06700
H  22.74600 -3.89400 44.47000
H  23.92200 -3.03200 45.39800
H  22.88300 -4.22300 46.31400
H  26.10200 -5.64200 43.29100
H  27.49500 -5.87500 44.28600
H  28.52800 -4.30800 43.36700
H  27.20000 -3.12400 43.81600
H  20.51400 -7.71400 45.37600
H  19.58700 -8.92000 46.03400
H  20.72100 -9.38600 44.72500
H  22.22900 -12.86600 48.79600
H  20.53900 -13.16700 48.54100
H  20.87900 -12.07100 49.84000
H  24.90400 -12.07000 51.41000
H  26.81500 -10.50000 52.76100
H  23.97300 -11.59700 53.32500
H  23.22000 -10.38400 52.35000
H  24.64900 -9.90100 53.37500
H  28.11900 -11.48000 50.48100
H  26.99300 -12.75900 51.32800
H  29.39200 -12.80000 51.89900
H  28.18600 -12.34300 53.20300
H  29.27300 -11.10700 52.47600
H  31.33700 -6.37300 49.85800
H  30.97200 -8.05900 50.37700
H  30.63400 -6.76100 51.50700
H  28.90500 -4.42700 45.88200
H  28.82500 -0.54000 47.54800
H  27.05700 -0.86800 47.37500
H  28.14800 -0.34800 46.01300
Mg -5.00600 24.49900 26.25500
C  -3.13600 26.04800 28.72200
C  -6.34400 22.43100 28.63800
C  -6.97700 23.22000 23.81100
C  -3.31700 26.37500 23.82100
N  -4.76000 24.35400 28.41800
C  -4.12300 25.20400 29.25400
C  -4.47200 24.91500 30.74600
C  -5.08900 23.42800 30.59900
C  -5.41800 23.37600 29.12300
C  -4.16700 22.28300 31.01500
C  -5.27600 26.15700 31.21200
C  -5.39000 26.52300 32.68600
H  -5.02900 25.37500 33.59400
N  -6.38000 23.05800 26.19400
C  -6.80400 22.30600 27.28700
C  -7.79600 21.40600 26.88700
C  -8.08300 21.65300 25.51500
C  -7.09000 22.70300 25.13100
C  -8.38600 20.31400 27.80700
C  -9.13000 20.98900 24.57700
O  -9.25000 21.26100 23.40500
C  -10.02200 19.98500 25.11700
N  -5.16200 24.78500 24.00700
C  -5.96200 24.07800 23.26300
C  -5.90200 24.39700 21.81100
C  -4.72700 25.35600 21.78100
C  -4.36700 25.59800 23.32100
C  -5.79500 23.22700 20.77900
C  -5.13700 26.64700 21.08700
C  -4.05800 27.15200 20.12700
N  -3.42300 25.73000 26.17500
C  -2.95400 26.58200 25.16800
C  -1.88400 27.46500 25.69900
C  -1.88900 27.22300 27.08300
C  -2.82800 26.18600 27.32300
C  -1.19200 28.59300 24.94900
C  -1.32900 27.67800 28.39100
O  -0.46000 28.55400 28.53800
C  -2.27400 27.03000 29.49600
C  -1.40100 26.42400 30.57600
O  -0.66300 25.43900 30.49400
O  -1.58100 27.11500 31.74400
C  -0.86600 26.63700 32.94200
H  -6.92900 21.86500 29.36600
H  -7.70200 22.91900 23.05300
H  -2.81900 27.13600 23.21700
H  -3.54800 24.88100 31.32200
H  -6.05700 23.39200 31.09900
H  -4.30900 22.08400 32.07700
H  -3.11100 22.55300 30.99000
H  -4.31900 21.40500 30.38800
H  -6.33000 26.17500 30.93500
H  -4.82700 26.96700 30.63800
H  -6.41400 26.84100 32.88000
H  -4.71600 27.37200 32.80500
H  -9.37200 20.64300 28.13300
H  -7.73300 20.08400 28.64900
H  -8.40700 19.45100 27.14100
H  -9.35400 19.12700 25.03700
H  -10.77900 19.86000 24.34200
H  -10.55300 20.27300 26.02400
H  -6.80700 24.91000 21.48300
H  -3.84600 24.89500 21.33500
H  -5.91200 22.27500 21.29700
H  -4.81000 23.17800 20.31600
H  -6.64500 23.33700 20.10500
H  -5.26700 27.44100 21.82200
H  -6.07700 26.59100 20.53800
H  -4.51600 27.07700 19.14000
H  -3.11000 26.61500 20.14300
H  -3.75800 28.12900 20.50300
H  -1.67900 29.55600 25.10100
H  -1.21100 28.25300 23.91300
H  -0.15400 28.65800 25.27500
H  -2.86500 27.84100 29.92300
H  0.17200 26.42200 32.68800
H  -1.42800 25.80200 33.35900
H  -0.79100 27.50600 33.59600

