158

Mg 17.25100 -1.35700 28.48600
C  16.45200 0.22400 31.35100
C  19.34200 -3.48100 30.16800
C  18.72700 -2.21500 25.57300
C  15.71800 1.42100 26.64400
N  17.96400 -1.53600 30.51700
C  17.39900 -0.77900 31.55300
C  17.77300 -1.29300 32.92500
C  18.95800 -2.30700 32.58700
C  18.73700 -2.48600 31.00600
C  20.39300 -1.86800 33.01800
C  16.61100 -1.85900 33.70600
C  16.33700 -1.45900 35.20800
H  17.39800 -0.71300 36.06400
N  18.62400 -2.80400 27.90700
C  19.33200 -3.62100 28.77300
C  20.19000 -4.57800 28.01400
C  20.02500 -4.22800 26.67000
C  19.11000 -3.01700 26.67000
C  21.11200 -5.52300 28.64600
C  20.58100 -4.77700 25.35900
O  20.27700 -4.34000 24.22500
C  21.39400 -6.05800 25.38900
N  17.14800 -0.54300 26.35000
C  17.92200 -1.12800 25.42200
C  17.80700 -0.38400 24.03900
C  16.74300 0.74800 24.36400
C  16.58900 0.61900 25.90800
C  19.10800 0.19700 23.41500
C  15.32700 0.41700 23.67600
C  15.18200 0.35800 22.17800
N  16.23700 0.38500 28.82800
C  15.62200 1.37800 28.00100
C  14.89400 2.31000 28.84800
C  15.15600 1.90200 30.16400
C  16.03200 0.76700 30.12800
C  14.03100 3.46700 28.37900
C  14.87500 2.20000 31.53400
O  14.25900 3.17400 31.91900
C  15.65200 1.08500 32.42600
C  16.56000 1.91300 33.27900
O  17.66000 2.36000 32.86600
O  15.81300 2.30100 34.41800
C  16.50400 3.16800 35.34700
H  20.07000 -4.13300 30.65400
H  19.18300 -2.37600 24.59400
H  15.15600 2.17100 26.08400
H  18.11600 -0.37200 33.39700
H  18.74800 -3.23100 33.12500
H  20.36700 -0.83100 33.35400
H  20.89100 -1.91600 32.05000
H  20.90100 -2.51800 33.73000
H  16.71300 -2.94400 33.72800
H  15.69100 -1.70600 33.14200
H  16.00800 -2.40900 35.63100
H  15.43600 -0.85400 35.10300
H  22.05500 -5.07900 28.32700
H  20.97300 -6.57700 28.40700
H  21.07700 -5.48200 29.73500
H  22.07300 -6.08900 26.24000
H  22.05800 -6.16500 24.53100
H  20.78500 -6.93000 25.62400
H  17.35000 -1.00700 23.27000
H  16.88900 1.74400 23.94600
H  19.14900 -0.09300 22.36500
H  20.00800 -0.27000 23.81400
H  19.15000 1.28400 23.34300
H  14.84200 1.30200 24.08800
H  14.87900 -0.45900 24.14600
H  14.95700 -0.62900 21.77500
H  16.17200 0.60400 21.79500
H  14.44000 1.05900 21.79700
H  13.92800 4.21400 29.16600
H  13.05800 3.06100 28.10100
H  14.49600 3.96000 27.52400
H  15.03000 0.55200 33.14500
H  16.06700 4.16000 35.23700
H  17.56900 3.36700 35.23100
H  16.32200 2.71600 36.32200
Mg 47.51200 15.75700 28.43500
C  45.34500 15.47100 31.46200
C  49.72100 17.09400 30.50000
C  49.00500 16.66900 25.71500
C  44.76600 14.40900 26.67700
N  47.48300 16.19300 30.74200
C  46.57100 16.05600 31.72400
C  47.07000 16.53000 33.07600
C  48.51100 17.12100 32.72600
C  48.58100 16.70200 31.19900
C  48.68900 18.66400 33.02400
C  47.14400 15.45300 34.13800
C  46.87500 15.82300 35.56300
H  47.07300 17.27300 36.00600
N  49.19200 16.61400 28.14700
C  50.00300 17.08800 29.13800
C  51.16600 17.61600 28.52000
C  51.01700 17.50200 27.13500
C  49.68000 16.92900 26.94500
C  52.32500 18.18600 29.35800
C  51.91000 17.96900 26.05700
O  51.70700 17.85100 24.81800
C  53.23200 18.73700 26.38400
N  46.91200 15.68600 26.47700
C  47.75500 16.04200 25.51200
C  47.20500 15.70600 24.12300
C  45.95900 14.81000 24.37200
C  45.82200 14.95500 25.92600
C  46.79800 16.97500 23.45700
C  46.11000 13.30700 23.87700
C  47.06400 12.36500 24.62400
N  45.59200 15.04300 28.94100
C  44.61100 14.54800 28.05700
C  43.49200 14.11200 28.75300
C  43.68200 14.58800 30.07200
C  44.98100 15.11500 30.14200
C  42.28800 13.47200 28.22400
C  43.03500 14.64200 31.38800
O  41.90900 14.30700 31.67000
C  44.12600 15.18700 32.39100
C  43.69500 16.42000 33.04300
O  43.39400 17.48800 32.45200
O  43.75300 16.33400 34.42300
C  43.30500 17.63500 35.01700
H  50.40800 17.59700 31.18400
H  49.59100 16.94000 24.83400
H  43.97300 13.89800 26.12700
H  46.34900 17.29500 33.36200
H  49.26300 16.58000 33.29900
H  47.84300 18.93100 33.65700
H  48.72500 19.27100 32.11900
H  49.50800 19.05900 33.62600
H  48.11400 14.95900 34.19600
H  46.51400 14.60400 33.87000
H  47.55100 15.12400 36.05500
H  45.86200 15.45900 35.73800
H  53.29900 17.73900 29.15500
H  52.12600 18.24700 30.42800
H  52.42900 19.24000 29.10300
H  53.90100 18.02100 26.86000
H  52.96900 19.55800 27.05100
H  53.72500 19.03600 25.45900
H  48.03700 15.24100 23.59500
H  45.07000 15.28800 23.95900
H  46.65800 16.83300 22.38500
H  47.61300 17.68200 23.61500
H  45.91100 17.46200 23.86200
H  46.13300 13.20700 22.79200
H  45.10200 12.95100 24.09100
H  47.69400 11.93700 23.84400
H  46.53600 11.54400 25.11000
H  47.65900 12.98900 25.29100
H  42.18200 13.39500 27.14200
H  41.44200 14.06800 28.56600
H  42.14900 12.52300 28.74200
H  44.29800 14.51800 33.23400
H  42.22100 17.56200 34.93000
H  43.79100 18.50700 34.57900
H  43.60200 17.64100 36.06600

