158

Mg 43.85100 4.21000 47.57900
C  41.52400 6.93100 47.25200
C  41.26200 2.08000 47.26800
C  45.94700 1.64600 47.55100
C  46.44500 6.53900 47.49900
N  41.60800 4.46800 47.36100
C  40.91400 5.64900 47.16800
C  39.45800 5.34000 47.21300
C  39.36900 3.82800 47.51300
C  40.86500 3.39800 47.50700
C  38.67600 3.49200 48.90000
C  38.51900 5.94700 46.04000
C  38.68900 5.34600 44.64500
H  39.51300 6.15600 43.63400
N  43.55400 2.07700 47.20500
C  42.46900 1.37800 47.14000
C  42.68000 -0.04300 46.85900
C  44.15600 -0.13900 46.83200
C  44.64600 1.24800 47.12200
C  41.77900 -1.06800 46.54300
C  44.91700 -1.39400 46.61000
O  44.29800 -2.38600 46.38200
C  46.39000 -1.55900 46.57000
N  45.92200 4.11200 47.36000
C  46.56800 2.93200 47.66600
C  48.05800 3.16400 47.93600
C  48.18400 4.69900 47.82700
C  46.78300 5.15700 47.42800
C  48.58200 2.48400 49.25600
C  49.34100 5.24800 46.86200
C  50.68300 5.63900 47.57300
N  43.97800 6.34100 47.36300
C  45.15500 7.11400 47.46000
C  44.67700 8.50500 47.55100
C  43.23900 8.44600 47.56700
C  42.87600 7.16300 47.34600
C  45.50900 9.73300 47.57900
C  42.07600 9.31200 47.63300
O  41.92500 10.49000 47.81300
C  40.88300 8.26200 47.35800
C  39.96700 8.41200 48.56100
O  40.07600 7.77700 49.56000
O  38.99900 9.40200 48.27500
C  37.87800 9.51600 49.20300
H  40.33300 1.51300 47.35300
H  46.58300 0.80400 47.83400
H  47.26200 7.23400 47.70600
H  39.09300 5.75500 48.15300
H  38.85600 3.27700 46.72500
H  39.47600 3.22500 49.59100
H  38.07900 2.60700 48.68100
H  38.00300 4.25000 49.29900
H  38.80900 6.99700 46.07800
H  37.47800 5.90200 46.36100
H  37.68600 5.25800 44.22700
H  39.12700 4.35100 44.73300
H  41.79400 -1.07500 45.45300
H  40.77900 -0.78400 46.87000
H  42.01400 -2.02400 47.00900
H  46.85100 -1.13900 47.46300
H  46.72900 -1.04500 45.67100
H  46.72600 -2.59600 46.57900
H  48.63600 2.71600 47.12700
H  48.35800 5.16800 48.79600
H  49.57600 2.08100 49.06000
H  47.80700 1.89100 49.74300
H  48.92100 3.23600 49.96800
H  48.89500 6.09100 46.33500
H  49.45000 4.44700 46.13200
H  50.52400 6.61000 48.04300
H  51.45800 5.73300 46.81200
H  50.97100 4.86700 48.28600
H  46.50600 9.50200 47.20300
H  45.68700 10.12600 48.58000
H  44.98900 10.52800 47.04400
H  40.30200 8.50400 46.46800
H  37.18300 10.30800 48.92600
H  38.21100 9.78600 50.20500
H  37.22400 8.65000 49.09900
Mg 40.79500 9.30200 29.24300
C  42.54600 10.63700 32.15500
C  38.61800 7.83500 31.34500
C  39.19200 8.36800 26.56300
C  43.48900 10.40300 27.34400
N  40.62400 9.26200 31.39400
C  41.36400 9.90200 32.40300
C  40.71400 9.77800 33.83800
C  39.65200 8.68300 33.51000
C  39.62500 8.57800 31.98400
C  40.05700 7.35500 34.23700
C  40.21700 11.20500 34.39500
C  40.39100 11.28800 35.97900
H  40.80300 12.64000 36.73800
N  39.15400 8.19400 28.96100
C  38.32100 7.64000 29.96100
C  37.21500 7.00300 29.38800
C  37.29100 7.37600 27.99500
C  38.57900 7.98000 27.72600
C  36.16400 6.36200 30.18200
C  36.24100 7.17900 26.87600
O  36.40000 7.51900 25.71700
C  34.87700 6.61400 27.26700
N  41.34600 9.35200 27.27100
C  40.39500 8.91700 26.32500
C  40.99900 9.01600 24.89100
C  42.36500 9.58400 25.16900
C  42.43700 9.81600 26.66000
C  40.88600 7.81100 23.99000
C  42.71900 10.79500 24.28200
C  42.14000 12.07800 24.90000
N  42.54100 10.43600 29.56500
C  43.55300 10.76800 28.66400
C  44.62100 11.47600 29.36000
C  44.25700 11.43000 30.71300
C  42.95800 10.86000 30.85000
C  45.95800 11.85200 28.74600
C  44.73000 11.78700 32.06100
O  45.79700 12.23600 32.36500
C  43.63200 11.39300 33.04200
C  44.07600 10.39000 34.03100
O  44.47400 9.24600 33.73400
O  43.81700 10.93600 35.28800
C  43.92700 9.94800 36.43900
H  37.96100 7.23400 31.97700
H  38.71900 7.93500 25.67900
H  44.36200 10.61200 26.72300
H  41.50900 9.36400 34.45700
H  38.67800 8.88600 33.95500
H  40.51300 6.77100 33.43800
H  39.19800 6.86900 34.69900
H  40.81500 7.55400 34.99400
H  39.13200 11.29600 34.34400
H  40.75300 12.09600 34.06800
H  41.09500 10.50700 36.26900
H  39.39400 11.06100 36.35700
H  36.55700 6.16300 31.17900
H  35.98100 5.33400 29.86800
H  35.23200 6.92700 30.20300
H  34.24500 6.28600 26.44200
H  34.44900 7.28100 28.01500
H  35.10600 5.70400 27.82200
H  40.44700 9.79400 24.36400
H  43.06500 8.78200 24.93500
H  41.80700 7.57600 23.45800
H  40.08100 7.97300 23.27300
H  40.59700 6.92700 24.55800
H  42.40900 10.70800 23.24000
H  43.79600 10.93400 24.18500
H  41.10400 11.91400 25.19700
H  42.09700 12.87200 24.15400
H  42.80000 12.42500 25.69500
H  46.08100 11.36600 27.77800
H  46.77800 11.37900 29.28600
H  46.12100 12.92900 28.71800
H  43.04500 12.20500 33.47100
H  43.46300 10.41600 37.30700
H  44.97200 9.74400 36.67400
H  43.38300 9.07100 36.08900

