158

Mg 36.86100 49.10000 24.60900
C  36.96100 47.42300 27.64300
C  34.89700 51.57600 26.17100
C  36.31600 50.54900 21.69400
C  38.34000 46.37300 23.11700
N  36.14000 49.54000 26.69900
C  36.30300 48.67000 27.72300
C  35.79800 49.24300 29.03000
C  35.08400 50.54500 28.56800
C  35.39400 50.60800 27.08100
C  33.60100 50.77700 29.02600
C  37.00200 49.41300 30.01500
C  36.76800 49.19200 31.59400
H  35.28300 49.07800 32.03200
N  35.84300 50.85400 24.09000
C  35.11600 51.70700 24.79400
C  34.64100 52.81700 23.98200
C  35.17400 52.60300 22.65600
C  35.84200 51.30000 22.76500
C  33.70600 53.91100 24.53100
C  34.86300 53.37900 21.38300
O  35.22500 53.02000 20.28600
C  34.20800 54.74500 21.50500
N  37.30800 48.52600 22.69300
C  36.95100 49.25600 21.66200
C  37.32500 48.61900 20.32300
C  38.23700 47.40300 20.71900
C  37.94100 47.35000 22.29000
C  36.08000 48.14300 19.47700
C  39.78500 47.71100 20.30400
C  40.84000 48.06500 21.38800
N  37.62500 47.25700 25.22800
C  38.06900 46.19100 24.48000
C  38.29000 44.98600 25.27700
C  37.83800 45.47100 26.57200
C  37.51500 46.81900 26.45200
C  38.91100 43.70000 24.71300
C  37.69400 45.15800 27.90800
O  37.71100 44.04000 28.43600
C  37.19400 46.34200 28.75600
C  36.00600 45.84400 29.52300
O  34.82000 45.78600 29.13200
O  36.48300 45.41200 30.77400
C  35.44200 44.75000 31.68400
H  34.28600 52.30700 26.70300
H  36.11400 50.91100 20.68400
H  38.78900 45.54200 22.57000
H  35.08900 48.51000 29.41500
H  35.58200 51.38900 29.04600
H  33.47900 51.78700 29.41800
H  33.36000 50.07300 29.82200
H  32.85600 50.64100 28.24200
H  37.46400 50.39000 29.86900
H  37.78800 48.73800 29.67600
H  37.28700 49.96000 32.16700
H  37.27100 48.25300 31.82500
H  34.18800 54.78000 24.08300
H  33.76100 53.99800 25.61600
H  32.67500 53.81100 24.19300
H  33.23800 54.66400 21.99600
H  34.24500 55.26800 20.55000
H  34.88600 55.26500 22.18100
H  37.89300 49.27700 19.66500
H  37.79200 46.48500 20.33400
H  35.25300 48.37100 20.15000
H  36.01800 47.09100 19.19900
H  36.03300 48.85000 18.64900
H  39.81200 48.55200 19.61200
H  40.06600 46.84900 19.69900
H  41.72500 47.45000 21.22200
H  40.45300 48.04300 22.40600
H  41.16200 49.10400 21.31400
H  39.53100 43.78500 23.82100
H  38.02600 43.21600 24.30100
H  39.39300 43.10800 25.49100
H  37.95300 46.53900 29.51200
H  34.77000 45.52800 32.04700
H  35.80800 44.28000 32.59700
H  34.96300 44.02300 31.02900
Mg 6.67800 53.74900 41.14600
C  6.58200 50.12300 41.37000
C  10.18000 53.36100 40.59000
C  6.83200 57.03100 40.38800
C  3.38600 53.82700 41.59000
N  8.19900 51.98900 40.90200
C  7.92100 50.64700 41.15700
C  9.22400 49.82100 40.82100
C  10.33800 50.86200 41.09900
C  9.54500 52.21700 40.85100
C  11.09400 50.88700 42.52300
C  9.34900 49.21200 39.41100
C  8.85500 50.09500 38.25900
H  7.54000 49.78600 37.58200
N  8.28900 55.03900 40.50000
C  9.65100 54.68600 40.48800
C  10.36300 55.84900 40.25000
C  9.45400 56.94000 39.91100
C  8.14200 56.38000 40.22600
C  11.94600 55.84200 40.03500
C  9.83000 58.40000 39.36700
O  10.98800 58.68300 39.28900
C  8.68000 59.40400 39.01900
N  5.36700 55.17300 40.81700
C  5.59900 56.49000 40.69700
C  4.35400 57.31800 40.85900
C  3.19500 56.32000 40.99000
C  4.02400 55.00800 41.18500
C  4.41500 58.23900 42.13900
C  2.29600 56.35500 39.71400
C  0.77600 56.39600 39.92500
N  5.16600 52.34900 41.38500
C  3.84400 52.51400 41.63700
C  3.21900 51.23100 42.01500
C  4.29400 50.28100 41.85900
C  5.41100 50.97900 41.46900
C  1.80200 51.04400 42.49400
C  4.54700 48.91900 41.99900
O  3.87100 47.99900 42.45100
C  6.05500 48.76300 41.67300
C  6.04500 47.87600 40.54900
O  5.66900 48.20500 39.44200
O  6.31200 46.61700 40.94000
C  6.22600 45.65400 39.85200
H  11.25400 53.16700 40.55800
H  6.94600 58.10000 40.19800
H  2.30900 54.00100 41.61800
H  9.16900 49.03000 41.56800
H  11.14300 50.78300 40.36900
H  10.70800 51.73900 43.08200
H  12.18200 50.82400 42.56700
H  10.75300 50.01500 43.08100
H  8.72100 48.32100 39.37300
H  10.41300 48.97900 39.37400
H  9.60800 49.98700 37.47800
H  8.77600 51.14600 38.53500
H  12.42200 55.07900 40.65100
H  12.36900 56.77500 40.40800
H  12.27100 55.77100 38.99700
H  8.21600 59.70100 39.96000
H  7.94800 58.98600 38.32800
H  9.16500 60.27100 38.57200
H  4.34200 57.94600 39.96900
H  2.66400 56.39500 41.93900
H  4.88700 59.19100 41.89500
H  5.04400 57.63600 42.79300
H  3.43100 58.30200 42.60400
H  2.53800 55.51200 39.06700
H  2.56700 57.27100 39.18800
H  0.23000 55.52200 39.57000
H  0.44200 57.29800 39.41200
H  0.51800 56.52000 40.97700
H  1.75500 50.10700 43.04900
H  1.04500 51.01300 41.71000
H  1.54500 51.84600 43.18700
H  6.57100 48.23800 42.47700
H  6.52300 44.62700 40.06800
H  6.73400 45.97700 38.94300
H  5.17800 45.67700 39.55400

