158

Mg 41.50000 8.71700 29.45500
C  43.29700 10.04900 32.20100
C  39.16200 7.59600 31.67000
C  39.79200 7.54200 26.83200
C  44.13100 9.76300 27.28000
N  41.38700 8.65800 31.69900
C  42.16200 9.31900 32.60200
C  41.61500 9.13200 34.00200
C  40.41800 8.17300 33.79500
C  40.31200 8.09200 32.32400
C  40.56600 6.81300 34.53300
C  41.34000 10.53000 34.73600
C  41.42500 10.43400 36.28800
H  41.37300 11.72300 37.25200
N  39.70200 7.68200 29.31800
C  38.80700 7.38800 30.34200
C  37.52800 6.91500 29.72900
C  37.66100 7.09800 28.29900
C  39.11000 7.41700 28.11100
C  36.37900 6.34200 30.56400
C  36.58600 7.02200 27.21900
O  36.82400 7.35100 26.02600
C  35.19000 6.65600 27.67000
N  42.04500 8.49000 27.30800
C  41.07600 8.03100 26.47200
C  41.57800 8.17200 25.07700
C  42.98700 8.79600 25.16700
C  43.06700 9.01700 26.68400
C  41.53300 6.87200 24.24300
C  43.15800 10.16700 24.29100
C  42.57200 11.48100 24.92600
N  43.39800 9.62100 29.65200
C  44.31400 10.04100 28.69300
C  45.28800 10.91500 29.33200
C  44.94800 10.93600 30.67800
C  43.80400 10.13600 30.82300
C  46.42100 11.52000 28.50400
C  45.39800 11.34700 32.01300
O  46.40600 11.98200 32.34700
C  44.27500 10.79300 33.00200
C  45.00900 9.86300 33.99600
O  45.64400 8.82000 33.77300
O  45.01400 10.59500 35.20800
C  45.54600 9.84500 36.40700
H  38.27500 7.45700 32.29100
H  39.24700 7.13100 25.98000
H  44.81700 10.16600 26.53200
H  42.35500 8.62900 34.62500
H  39.47000 8.63400 34.07200
H  39.61600 6.67600 35.04800
H  41.43600 6.81600 35.18900
H  40.62600 6.02200 33.78600
H  40.35000 10.85600 34.41600
H  41.93300 11.39500 34.44100
H  42.32800 9.90400 36.59100
H  40.59500 9.82600 36.64800
H  36.36500 6.36200 31.65400
H  36.21400 5.35600 30.13000
H  35.60600 7.03100 30.22400
H  34.53100 6.48000 26.82000
H  34.73900 7.53700 28.12700
H  35.03200 5.78700 28.30800
H  40.88100 8.90200 24.66400
H  43.67300 8.00200 24.87100
H  40.52500 6.81800 23.83100
H  41.80200 5.94000 24.74000
H  42.23100 6.76100 23.41300
H  42.59000 10.09000 23.36400
H  44.19600 10.39400 24.04700
H  41.97600 11.36100 25.83100
H  41.81000 11.85900 24.24500
H  43.36300 12.21100 25.09500
H  47.03400 10.77600 27.99600
H  46.90600 12.30800 29.08000
H  45.78300 11.95800 27.73700
H  43.86500 11.56500 33.65200
H  46.10600 8.97800 36.05700
H  44.67300 9.47500 36.94500
H  46.23900 10.39200 37.04500
Mg -2.58600 35.25300 26.61400
C  -4.31700 33.84700 29.33500
C  -1.25300 37.57900 28.85400
C  -1.20800 36.81800 24.02500
C  -3.98900 32.93900 24.55000
N  -2.71000 35.61900 28.93400
C  -3.50900 34.98700 29.77200
C  -3.26300 35.47600 31.27000
C  -2.32000 36.73800 31.07600
C  -2.12100 36.70300 29.51300
C  -2.60600 38.10200 31.68300
C  -2.79800 34.31000 32.19800
C  -2.30600 34.71800 33.63700
H  -3.31600 34.41400 34.74000
N  -1.33700 36.93600 26.43700
C  -0.92400 37.73700 27.49600
C  -0.05700 38.78300 26.89800
C  -0.09500 38.59100 25.43800
C  -0.95000 37.41000 25.20100
C  0.69500 39.77200 27.68200
C  0.55500 39.30800 24.32200
O  0.51700 39.01100 23.15800
C  1.48000 40.47000 24.60000
N  -2.78600 35.07100 24.64100
C  -2.05200 35.78300 23.67800
C  -2.12300 35.16900 22.34400
C  -2.59200 33.73400 22.61500
C  -3.20100 33.91600 24.02200
C  -3.11400 35.95700 21.34900
C  -1.39700 32.75700 22.69500
C  -1.71400 31.37400 22.11100
N  -3.93000 33.67000 26.82400
C  -4.38100 32.80900 25.89300
C  -5.22800 31.85000 26.52300
C  -5.25700 32.17700 27.89700
C  -4.38800 33.32800 28.01700
C  -6.02000 30.77200 25.76600
C  -5.71100 31.80600 29.20700
O  -6.53900 31.00800 29.56600
C  -5.15300 32.87100 30.18400
C  -6.15000 33.53700 31.10300
O  -6.59000 34.70600 31.02400
O  -6.40500 32.71200 32.07200
C  -7.36400 33.16700 33.05200
H  -0.77300 38.33500 29.47900
H  -0.69800 37.16500 23.12400
H  -4.35400 32.23900 23.79600
H  -4.21100 35.81600 31.68800
H  -1.33100 36.57300 31.50400
H  -3.52300 38.02300 32.26600
H  -2.68100 38.92800 30.97500
H  -1.70700 38.36600 32.24000
H  -2.04900 33.71300 31.67700
H  -3.67200 33.68200 32.37200
H  -2.09500 35.78400 33.72200
H  -1.38900 34.18600 33.89300
H  1.71100 39.41000 27.84000
H  0.35100 39.98000 28.69500
H  0.76300 40.77700 27.26500
H  0.94400 41.33800 24.98300
H  1.95300 40.74300 23.65600
H  2.24000 40.19700 25.33200
H  -1.15500 35.15800 21.84200
H  -3.30000 33.39600 21.85800
H  -3.15900 37.03200 21.52300
H  -4.11800 35.56400 21.50800
H  -2.91000 35.74400 20.30000
H  -1.09600 32.55000 23.72200
H  -0.52000 33.13100 22.16700
H  -0.89400 31.23100 21.40600
H  -2.63900 31.18000 21.56800
H  -1.59900 30.59600 22.86600
H  -6.66200 30.31400 26.51900
H  -5.39100 29.96000 25.40000
H  -6.61300 31.30000 25.02000
H  -4.48800 32.30300 30.83500
H  -8.29400 33.24700 32.48800
H  -7.18500 34.15900 33.46600
H  -7.50200 32.47900 33.88600

