158

Mg 24.55200 -6.41300 45.62300
C  26.89000 -4.11700 44.27400
C  22.32900 -5.03200 43.51500
C  22.67900 -9.08800 46.13200
C  27.29900 -7.76200 47.50700
N  24.63800 -4.78200 43.99900
C  25.67400 -3.98100 43.64500
C  25.40300 -3.16400 42.40500
C  23.86900 -3.12600 42.63800
C  23.55100 -4.37300 43.41700
C  23.42200 -1.72300 43.31500
C  25.86500 -3.80900 41.09400
C  26.64100 -2.83000 40.21000
H  26.46000 -2.83500 38.69800
N  22.72700 -6.91300 44.93700
C  21.94600 -6.25000 44.08800
C  20.65100 -6.93700 43.93100
C  20.71400 -8.10300 44.75200
C  22.11700 -8.09600 45.29400
C  19.46300 -6.51000 43.07900
C  19.61800 -9.11600 44.87400
O  18.59300 -9.06400 44.16400
C  19.76500 -10.35800 45.81600
N  24.95200 -8.22000 46.54800
C  23.96000 -9.12600 46.74400
C  24.56800 -10.34800 47.51100
C  25.85300 -9.72900 48.10700
C  26.09600 -8.52100 47.33800
C  23.55600 -10.93600 48.57800
C  27.05200 -10.80900 48.12100
C  27.68800 -11.21700 49.44100
N  26.61600 -6.03300 45.88900
C  27.56800 -6.62700 46.72200
C  28.81500 -5.94100 46.59000
C  28.60900 -4.94400 45.61500
C  27.26100 -5.10900 45.21100
C  30.05300 -6.30200 47.32600
C  29.25400 -3.88400 44.96900
O  30.42300 -3.51500 44.98700
C  28.12800 -3.28300 43.97600
C  27.89400 -1.81800 44.18900
O  27.37900 -1.32700 45.13800
O  28.56100 -1.07200 43.17600
C  28.64500 0.42000 43.31900
H  21.53700 -4.51100 42.97400
H  22.03000 -9.92700 46.38800
H  28.12800 -8.14100 48.10900
H  25.90700 -2.21000 42.56200
H  23.32900 -3.29500 41.70600
H  22.77400 -1.18000 42.62600
H  24.27700 -1.05200 43.39300
H  22.91800 -1.85400 44.27200
H  24.98300 -4.06700 40.50800
H  26.51100 -4.68200 41.19300
H  27.67900 -2.89700 40.53400
H  26.35600 -1.83300 40.54700
H  18.58400 -6.59500 43.71800
H  19.26400 -7.16700 42.23300
H  19.62400 -5.48300 42.75100
H  18.90600 -11.02500 45.88900
H  19.98400 -10.09400 46.85000
H  20.51400 -10.99800 45.35200
H  24.85700 -11.11900 46.79800
H  25.71900 -9.45000 49.15200
H  22.81800 -10.15800 48.77400
H  24.14000 -11.10000 49.48300
H  23.06600 -11.81700 48.16200
H  27.93000 -10.52900 47.54000
H  26.76600 -11.78300 47.72300
H  28.03600 -12.24200 49.31000
H  27.10300 -11.00100 50.33500
H  28.54900 -10.54900 49.45400
H  30.89800 -5.66500 47.06400
H  30.22800 -7.32000 46.98000
H  29.87200 -6.20200 48.39700
H  28.52400 -3.52300 42.98900
H  27.84900 1.00400 42.85600
H  29.44600 0.70300 42.63600
H  28.84100 0.65500 44.36500
Mg 9.17100 49.03200 26.31500
C  7.39300 49.14500 29.25500
C  11.93900 50.23800 27.94000
C  10.74200 49.08100 23.25700
C  6.11200 48.30700 24.65300
N  9.59800 49.40000 28.35700
C  8.72300 49.49700 29.41800
C  9.47000 50.02900 30.63900
C  10.59700 50.88400 30.00600
C  10.79100 50.08900 28.67200
C  10.26400 52.42900 29.76400
C  9.95900 48.87600 31.49600
C  9.90800 49.11600 33.03900
H  9.67700 47.94000 33.97900
N  11.14200 49.48600 25.68900
C  12.15800 49.91600 26.56600
C  13.32600 50.03200 25.79400
C  13.02100 49.62500 24.40600
C  11.57400 49.34200 24.35800
C  14.67700 50.53900 26.49000
C  13.98100 49.34700 23.29300
O  13.68000 48.91500 22.17300
C  15.39600 49.59200 23.54300
N  8.52800 48.90900 24.27400
C  9.35600 48.79500 23.25000
C  8.66300 48.41900 21.95900
C  7.23400 47.99100 22.41900
C  7.24400 48.41600 23.88200
C  8.63400 49.54900 20.90200
C  6.85700 46.49800 22.18200
C  7.68700 45.39300 22.80300
N  7.08200 48.82300 26.83400
C  5.99200 48.61700 26.04800
C  4.82500 48.53400 26.89000
C  5.36300 48.70900 28.13100
C  6.74000 48.86800 28.06000
C  3.36800 48.20900 26.45400
C  5.03500 48.78700 29.57500
O  3.90900 48.70200 30.06700
C  6.32300 49.11300 30.33300
C  6.46300 47.99700 31.28500
O  6.76200 46.91300 30.92300
O  6.15200 48.35500 32.60700
C  5.96600 47.24700 33.55000
H  12.77300 50.71000 28.46300
H  11.21300 48.79900 22.31300
H  5.18700 48.06400 24.12500
H  8.84900 50.62200 31.31100
H  11.48000 50.90500 30.64600
H  10.17600 52.43500 28.67700
H  10.92700 53.16300 30.22200
H  9.24700 52.65200 30.08600
H  10.99400 48.67700 31.21600
H  9.40000 47.96200 31.29300
H  9.07000 49.77300 33.27500
H  10.89200 49.46500 33.35100
H  14.50600 51.17700 27.35700
H  15.37800 51.02900 25.81400
H  15.18800 49.64000 26.83500
H  16.04400 49.44600 22.67900
H  15.73300 48.92000 24.33200
H  15.49200 50.63000 23.86300
H  9.23600 47.56500 21.59700
H  6.43500 48.67500 22.13400
H  7.70100 49.49300 20.34100
H  9.51000 49.33500 20.28900
H  8.78100 50.55100 21.30400
H  6.91300 46.45200 21.09400
H  5.81100 46.31700 22.43200
H  8.24400 45.79800 23.64800
H  8.43800 45.01800 22.10700
H  6.97600 44.62200 23.09900
H  3.27800 48.11800 25.37200
H  2.60400 48.79800 26.96200
H  3.11900 47.20600 26.80200
H  6.14400 50.07400 30.81400
H  4.95900 46.86400 33.38700
H  5.97500 47.65700 34.56000
H  6.85200 46.64100 33.36000

