158

Mg 2.04500 0.12000 44.03500
C  5.54800 0.26600 43.03400
C  1.59000 2.62000 41.61700
C  -1.20100 -0.64800 43.96200
C  2.84500 -2.94100 45.69100
N  3.41800 1.27000 42.42100
C  4.80100 1.25300 42.32200
C  5.24200 2.35600 41.35800
C  4.05000 3.35500 41.31800
C  2.94500 2.28300 41.68800
C  4.05400 4.49400 42.37800
C  5.70700 1.84700 39.93300
C  7.07400 2.33800 39.38000
H  7.06600 2.89600 37.96600
N  0.43200 0.81000 42.90900
C  0.45400 1.87100 42.05300
C  -0.94500 2.24800 41.75800
C  -1.78100 1.37800 42.47700
C  -0.91200 0.44000 43.16900
C  -1.33800 3.45700 40.97300
C  -3.31800 1.40000 42.40600
O  -3.89000 2.34100 41.91000
C  -4.18500 0.34400 43.01300
N  1.02600 -1.73100 44.47900
C  -0.31800 -1.58700 44.59600
C  -0.87400 -2.70000 45.39600
C  0.40100 -3.48900 45.93700
C  1.51200 -2.69100 45.31800
C  -1.96700 -2.35800 46.46400
C  0.45600 -5.03000 45.48600
C  -0.36500 -6.00300 46.33700
N  3.76600 -0.99200 44.42800
C  3.90200 -2.17500 45.16800
C  5.24700 -2.61500 45.17400
C  5.97100 -1.65200 44.39100
C  4.98600 -0.70300 43.95000
C  5.87200 -3.77200 45.90000
C  7.26700 -1.29700 43.84400
O  8.37200 -1.85500 43.97500
C  7.03800 -0.05300 42.92000
C  7.78200 1.12200 43.38000
O  7.80400 1.67400 44.53200
O  8.54800 1.55100 42.30700
C  9.41900 2.66900 42.67500
H  1.36300 3.42300 40.91300
H  -2.26500 -0.74700 44.18700
H  3.11000 -3.68700 46.44300
H  6.08400 2.92200 41.75600
H  3.87400 3.81600 40.34500
H  3.11500 4.56000 42.92700
H  4.26500 5.42000 41.84400
H  4.88500 4.34000 43.06700
H  4.88400 2.02300 39.24000
H  5.65000 0.76100 40.00700
H  7.74300 1.49700 39.19500
H  7.52700 3.03800 40.08100
H  -2.15200 3.12800 40.32600
H  -0.55900 3.77400 40.28100
H  -1.69800 4.34000 41.50100
H  -5.24600 0.54000 42.86200
H  -4.05200 0.47200 44.08700
H  -3.84000 -0.60900 42.61000
H  -1.47000 -3.34000 44.74600
H  0.59900 -3.59500 47.00400
H  -2.83100 -3.00700 46.32200
H  -2.36600 -1.34600 46.39900
H  -1.64900 -2.50300 47.49600
H  1.45800 -5.40800 45.68900
H  0.18600 -5.08700 44.43100
H  -0.73100 -5.43900 47.19500
H  0.14100 -6.85700 46.78700
H  -1.19200 -6.37800 45.73500
H  6.88200 -3.95200 45.53200
H  5.34800 -4.69000 45.63300
H  6.04800 -3.73100 46.97500
H  7.37200 -0.29100 41.91000
H  8.84900 3.58800 42.81500
H  9.98700 2.86300 41.76500
H  9.97900 2.48000 43.59100
Mg 40.80500 40.67900 27.57600
C  39.99200 43.09800 29.92500
C  41.80400 38.65500 30.00500
C  41.85200 38.50400 25.17300
C  40.36600 43.10600 25.04300
N  40.84100 40.90400 29.68600
C  40.42100 41.89300 30.49900
C  40.50800 41.52600 31.96500
C  41.17900 40.15400 31.93700
C  41.40800 39.92000 30.42400
C  42.46000 39.96100 32.77500
C  39.14300 41.73900 32.66100
C  39.02000 42.71100 33.83300
H  38.34200 42.27200 35.13300
N  41.53200 38.81400 27.54100
C  41.85600 38.12800 28.69000
C  42.29600 36.77200 28.35500
C  42.28100 36.66200 26.93800
C  41.86200 38.02900 26.45000
C  42.67800 35.70400 29.30800
C  42.68300 35.51100 25.96900
O  42.54900 35.54700 24.75200
C  43.13100 34.10000 26.57400
N  41.18100 40.84000 25.44100
C  41.51500 39.75400 24.64000
C  41.62100 40.13500 23.14300
C  40.82800 41.45000 23.10800
C  40.78200 41.84800 24.63600
C  43.11800 40.25400 22.65500
C  39.45500 41.45200 22.43200
C  38.30900 40.73200 23.08500
N  40.35400 42.72000 27.45500
C  40.16600 43.57300 26.34000
C  39.67900 44.83100 26.77600
C  39.65000 44.75200 28.22000
C  40.05100 43.42400 28.56300
C  39.28700 45.96400 25.90200
C  39.24500 45.37600 29.49000
O  38.78200 46.46300 29.72200
C  39.50600 44.38600 30.62500
C  40.58700 44.94400 31.42400
O  41.77600 44.96100 31.08300
O  40.05600 45.49500 32.51900
C  41.07600 45.98200 33.45300
H  41.93900 38.05600 30.90800
H  42.14700 37.78700 24.40400
H  40.08400 43.75900 24.21400
H  41.08600 42.38200 32.31300
H  40.46300 39.41600 32.29700
H  43.40700 39.85000 32.24600
H  42.35000 39.05100 33.36400
H  42.70400 40.76900 33.46400
H  38.65500 40.79200 32.89100
H  38.51700 42.20800 31.90200
H  38.32100 43.49800 33.55200
H  40.02000 43.10100 34.02500
H  43.74600 35.48600 29.33300
H  42.12100 34.80300 29.05400
H  42.33100 35.99100 30.30100
H  43.40700 33.45600 25.73900
H  42.24700 33.79400 27.13500
H  44.00000 34.17300 27.22700
H  41.17600 39.31400 22.58200
H  41.31200 42.24800 22.54600
H  43.25000 39.54700 21.83500
H  43.73600 39.77400 23.41400
H  43.36300 41.28000 22.38100
H  39.56500 41.04200 21.42800
H  39.18300 42.49000 22.23900
H  38.59700 40.08300 23.91100
H  37.69800 40.10300 22.43800
H  37.64500 41.47100 23.53300
H  38.75400 45.58900 25.02800
H  40.05800 46.59100 25.45400
H  38.56000 46.54700 26.46600
H  38.54000 44.26700 31.11400
H  41.65500 45.14000 33.83300
H  40.51400 46.54100 34.20100
H  41.65400 46.79800 33.01800

