158

Mg 25.23400 -0.42000 29.15700
C  27.30400 -0.40700 32.17100
C  22.53700 -0.33700 31.05800
C  23.70100 -0.72800 26.28400
C  28.48900 -1.10200 27.53200
N  25.00100 -0.36100 31.34700
C  25.90100 -0.26200 32.36800
C  25.19000 -0.05300 33.74600
C  23.69200 -0.39300 33.36500
C  23.73100 -0.41700 31.82800
C  22.88300 -1.54200 34.16500
C  25.49400 1.29200 34.47100
C  26.22300 1.24000 35.84300
H  25.86000 2.22100 36.95800
N  23.37800 -0.31700 28.67700
C  22.35000 -0.38900 29.62500
C  21.09100 -0.37500 28.84100
C  21.38800 -0.34300 27.40900
C  22.86700 -0.42100 27.39100
C  19.73900 -0.28100 29.58100
C  20.37100 -0.20800 26.17500
O  20.78200 -0.20900 25.05800
C  18.87700 -0.25700 26.47700
N  26.03500 -0.87800 27.20200
C  25.10200 -0.87400 26.14400
C  25.76300 -0.84100 24.78400
C  27.27900 -0.94600 25.21200
C  27.31500 -0.94100 26.73600
C  25.29500 -1.92500 23.77900
C  27.97200 0.36300 24.70700
C  27.73700 1.74400 25.47000
N  27.43300 -0.68000 29.72400
C  28.56300 -0.89500 28.92900
C  29.77500 -0.90800 29.76900
C  29.27400 -0.74400 31.01500
C  27.95100 -0.55300 30.94300
C  31.16800 -1.03400 29.26200
C  29.70800 -0.66100 32.44800
O  30.80200 -0.95000 32.95200
C  28.35200 -0.44000 33.26500
C  28.15600 -1.66100 34.16900
O  27.89300 -2.79100 33.80200
O  28.35800 -1.22200 35.47100
C  28.40500 -2.18400 36.57400
H  21.63100 -0.36300 31.66700
H  23.03400 -0.85700 25.42900
H  29.36800 -1.36000 26.93800
H  25.55100 -0.86000 34.38400
H  23.19100 0.56100 33.52900
H  22.27300 -2.19500 33.54000
H  22.11700 -1.08400 34.79000
H  23.61700 -2.05100 34.79000
H  24.50100 1.73100 34.56700
H  26.13500 1.90000 33.83300
H  27.20700 1.57700 35.51700
H  26.26800 0.24600 36.28700
H  19.36100 0.73300 29.45300
H  19.88300 -0.48800 30.64200
H  19.10700 -1.08100 29.19600
H  18.65400 -1.24500 26.88100
H  18.46200 -0.07200 25.48600
H  18.56300 0.57000 27.11400
H  25.48600 0.13100 24.37600
H  27.78400 -1.81800 24.79800
H  25.94000 -2.74500 23.46400
H  24.98400 -1.49000 22.82900
H  24.41500 -2.45500 24.14400
H  27.62900 0.55900 23.69100
H  29.05300 0.22900 24.66800
H  27.56400 1.53900 26.52600
H  26.93900 2.31000 24.98800
H  28.68100 2.27400 25.59700
H  31.19100 -2.02900 28.81700
H  31.83700 -0.82800 30.09700
H  31.44700 -0.29500 28.51100
H  28.41200 0.52700 33.76500
H  29.27800 -1.89400 37.15900
H  28.47000 -3.18500 36.14700
H  27.51800 -2.09700 37.20100
Mg 53.71700 23.94700 44.36600
C  50.76200 25.96700 44.11900
C  51.73000 21.27200 43.60700
C  56.44600 22.19100 44.07100
C  55.55700 26.91100 45.29900
N  51.39200 23.71700 43.77900
C  50.43000 24.63200 43.82100
C  49.10000 23.94900 43.43400
C  49.46900 22.43800 43.72700
C  51.02000 22.45200 43.72100
C  48.81200 21.93600 45.01700
C  48.54900 24.26400 41.96200
C  49.58000 24.49000 40.87200
H  49.55500 23.50700 39.72700
N  54.03800 22.05200 43.66700
C  53.13100 21.04800 43.54100
C  53.79100 19.77100 43.25700
C  55.20100 20.09100 43.39600
C  55.28700 21.49400 43.70500
C  53.06100 18.47900 43.00300
C  56.24200 19.02100 43.14700
O  55.96200 17.83100 43.04900
C  57.64100 19.45200 42.91700
N  55.67200 24.52900 44.42600
C  56.62100 23.54900 44.39800
C  57.93700 24.05400 44.96000
C  57.67900 25.61400 45.15400
C  56.19600 25.69000 44.94700
C  58.54700 23.30500 46.14900
C  58.54600 26.50400 44.16500
C  57.85700 27.37100 43.05800
N  53.29300 25.97900 44.83100
C  54.15100 27.00800 45.20000
C  53.35600 28.17400 45.34200
C  52.05300 27.79900 44.87400
C  52.06300 26.49100 44.49500
C  53.72700 29.56200 45.89800
C  50.66500 28.33300 44.71300
O  50.17900 29.43300 44.88100
C  49.83000 27.13200 44.22700
C  49.23900 27.47500 42.90900
O  49.84500 27.44300 41.81900
O  47.96600 27.86300 42.98600
C  47.41300 28.36800 41.67400
H  51.17800 20.33000 43.62500
H  57.29800 21.52000 44.19900
H  56.19100 27.77000 45.52800
H  48.39100 24.42900 44.10800
H  48.98100 21.84000 42.95800
H  48.19300 21.07200 44.77500
H  48.17500 22.66800 45.51400
H  49.61300 21.57300 45.66100
H  47.91700 25.13000 42.15800
H  47.90700 23.40100 41.78400
H  50.60300 24.39100 41.23600
H  49.32300 25.46800 40.46700
H  53.66300 17.71900 43.50200
H  52.90900 18.18400 41.96500
H  52.04700 18.44000 43.40000
H  57.70600 20.36300 42.32300
H  58.22000 18.65700 42.44800
H  58.15800 19.56400 43.87000
H  58.64500 23.87100 44.15200
H  57.76900 25.82900 46.21900
H  57.73200 22.86300 46.72200
H  59.28300 23.92800 46.65900
H  58.98600 22.38400 45.76500
H  59.18400 25.85600 43.56400
H  59.27100 27.04600 44.77200
H  57.46200 28.31400 43.43500
H  56.96600 26.85400 42.70300
H  58.52000 27.40100 42.19300
H  54.55100 29.45800 46.60400
H  52.80400 29.85500 46.39900
H  53.92900 30.35500 45.17700
H  48.97300 26.89100 44.85600
H  46.44900 28.87400 41.73300
H  47.13500 27.54400 41.01800
H  48.15900 28.92800 41.11000

