158

Mg -1.84900 17.13600 27.80100
C  -2.29300 14.96300 30.53700
C  -2.25500 19.73100 30.04400
C  -1.78000 19.38100 25.22100
C  -2.06100 14.46000 25.71300
N  -2.00400 17.35400 30.05700
C  -2.25200 16.31900 30.97000
C  -2.45400 16.85000 32.43200
C  -2.37700 18.40400 32.16800
C  -2.21900 18.49000 30.65900
C  -3.57500 19.25300 32.74900
C  -1.38300 16.23500 33.44400
C  -0.69300 17.09400 34.47100
H  -0.29100 16.56200 35.82300
N  -1.97100 19.23600 27.67900
C  -2.02000 20.13100 28.71100
C  -1.90500 21.45900 28.22000
C  -1.68700 21.42300 26.84000
C  -1.88500 19.95700 26.49800
C  -1.98400 22.69200 29.12000
C  -1.46600 22.55600 25.83800
O  -1.36900 22.28000 24.67500
C  -1.30700 24.01000 26.21600
N  -1.89100 16.94300 25.79600
C  -1.88500 18.01800 24.90200
C  -2.08700 17.59500 23.42900
C  -2.16100 15.98700 23.63100
C  -2.04500 15.78200 25.15500
C  -3.33200 18.14700 22.62400
C  -1.18600 15.10700 22.79400
C  0.23500 14.86700 23.31900
N  -1.91600 15.15700 27.97800
C  -2.00500 14.18200 27.07600
C  -2.12000 12.85500 27.64600
C  -2.15000 13.08200 29.02400
C  -2.12400 14.52100 29.18600
C  -2.26200 11.55600 26.87200
C  -2.37100 12.41100 30.25000
O  -2.52300 11.26500 30.50300
C  -2.50700 13.68000 31.33100
C  -1.35800 13.22400 32.22600
O  -0.15400 13.40800 31.99100
O  -1.75600 12.58800 33.37100
C  -0.73200 12.52700 34.41200
H  -2.47400 20.51100 30.77700
H  -1.88300 20.09500 24.40200
H  -2.04700 13.60900 25.02900
H  -3.44200 16.47600 32.70300
H  -1.51200 18.89000 32.62000
H  -3.22500 19.93100 33.52800
H  -4.13200 18.45300 33.23600
H  -4.06300 19.77000 31.92300
H  -0.64400 15.79200 32.77600
H  -1.98300 15.44700 33.90000
H  -1.26300 17.99100 34.71100
H  0.16900 17.51300 33.95200
H  -2.88800 23.22700 28.83200
H  -1.02800 23.20700 29.02300
H  -2.14200 22.46800 30.17500
H  -0.95500 24.57200 25.35000
H  -0.64400 23.97400 27.08100
H  -2.30300 24.30100 26.54800
H  -1.19300 17.84500 22.85800
H  -3.16900 15.59500 23.49800
H  -4.15500 17.43400 22.56700
H  -2.94100 18.41900 21.64400
H  -3.61000 19.00200 23.24000
H  -0.96600 15.72700 21.92500
H  -1.68000 14.24200 22.35100
H  0.83400 15.67200 22.89300
H  0.47300 13.85000 23.00900
H  0.41100 14.97700 24.38900
H  -1.62700 11.48200 25.98900
H  -3.32300 11.48900 26.63100
H  -2.11400 10.73200 27.56900
H  -3.38500 13.64900 31.97600
H  -0.24100 11.56400 34.27400
H  -1.33600 12.60400 35.31600
H  0.07700 13.24900 34.52000
Mg -11.84200 16.66800 43.58200
C  -9.12300 14.71200 42.66600
C  -10.37200 19.36100 41.89500
C  -14.86200 18.07400 43.29500
C  -13.40700 13.62700 44.56300
N  -10.00500 16.94700 42.28500
C  -9.04600 16.03300 42.16400
C  -7.79400 16.64800 41.56600
C  -8.06900 18.20800 41.66600
C  -9.55900 18.24400 42.04500
C  -7.20400 18.98100 42.69800
C  -7.54400 16.14300 40.06900
C  -6.29600 15.34600 39.74100
H  -5.29500 16.08000 38.85300
N  -12.47600 18.60500 42.90900
C  -11.76400 19.50400 42.17700
C  -12.62800 20.53500 41.71700
C  -13.95400 20.22000 42.08200
C  -13.84500 18.92500 42.80200
C  -12.09500 21.74000 41.04900
C  -15.21300 21.08700 41.76900
O  -15.14200 22.15000 41.18500
C  -16.58900 20.62700 42.23100
N  -13.79700 15.99300 43.87100
C  -14.91500 16.73800 43.66600
C  -16.19600 16.08000 44.09300
C  -15.64900 14.83400 44.85500
C  -14.17700 14.79600 44.43500
C  -17.18200 16.85300 44.95800
C  -16.39000 13.48700 44.72800
C  -16.42800 12.70200 46.07300
N  -11.37200 14.58200 43.75400
C  -12.06100 13.49300 44.25100
C  -11.19100 12.34400 44.45600
C  -9.98800 12.79200 43.82700
C  -10.23500 14.11700 43.35800
C  -11.52100 11.04300 44.97800
C  -8.58700 12.40300 43.52100
O  -7.90000 11.47500 43.91600
C  -8.01400 13.58100 42.69000
C  -6.75200 14.03800 43.36600
O  -6.72200 14.68700 44.38900
O  -5.65900 13.59800 42.64500
C  -4.33300 13.98500 43.25000
H  -9.85500 20.21600 41.45400
H  -15.87200 18.48900 43.30600
H  -13.82700 12.73700 45.03600
H  -6.95700 16.32300 42.18400
H  -8.04900 18.58900 40.64500
H  -6.74400 19.77100 42.10500
H  -6.56400 18.31500 43.27600
H  -7.74500 19.53700 43.46300
H  -7.56200 16.95600 39.34400
H  -8.32000 15.41500 39.83400
H  -6.57500 14.42500 39.22900
H  -5.74100 15.02800 40.62400
H  -12.44000 21.72400 40.01500
H  -11.00800 21.73600 40.97000
H  -12.27900 22.55400 41.75100
H  -16.81400 20.64200 43.29800
H  -16.62900 19.66700 41.71600
H  -17.25000 21.28900 41.67300
H  -16.68800 15.67100 43.21000
H  -15.56900 15.01200 45.92800
H  -18.14500 16.97400 44.46200
H  -16.82700 17.88200 45.01300
H  -17.26500 16.37900 45.93500
H  -15.93200 12.75700 44.06200
H  -17.39600 13.72300 44.38300
H  -16.20300 11.64200 45.96400
H  -17.35500 12.87400 46.62100
H  -15.67500 13.09700 46.75600
H  -10.69400 10.59400 45.52800
H  -11.72700 10.44000 44.09300
H  -12.46200 11.01600 45.52800
H  -7.77300 13.42700 41.63800
H  -4.04200 14.96500 42.87100
H  -3.58000 13.27700 42.90500
H  -4.23600 13.92800 44.33400

