158

Mg 48.00700 25.39400 28.15700
C  48.62600 27.73700 30.66000
C  47.12300 23.12500 30.41800
C  47.48100 23.35900 25.53500
C  49.58400 27.66300 25.98200
N  47.81100 25.46800 30.33400
C  48.00100 26.53400 31.18100
C  47.71800 26.06000 32.61400
C  47.43000 24.51700 32.50900
C  47.53700 24.29600 30.98100
C  48.39800 23.55400 33.37300
C  46.64700 26.91600 33.39300
C  47.12500 27.28000 34.83200
H  45.99800 27.60500 35.77300
N  47.32500 23.49400 28.03000
C  46.98000 22.69900 29.07900
C  46.47900 21.45800 28.55500
C  46.49600 21.52300 27.11600
C  47.15100 22.79400 26.78100
C  46.02300 20.33900 29.38200
C  45.99800 20.48600 26.04500
O  46.23900 20.58700 24.84300
C  45.03800 19.29000 26.40800
N  48.50700 25.43000 26.11000
C  48.18300 24.48700 25.20800
C  48.41300 24.89400 23.70800
C  48.99500 26.34900 23.88500
C  48.95800 26.53500 25.37300
C  49.34100 23.93000 22.88500
C  48.26700 27.44900 23.07100
C  49.11900 28.67600 22.67100
N  49.00000 27.30000 28.24000
C  49.73400 28.07200 27.29800
C  50.11900 29.34500 27.88900
C  49.76400 29.27800 29.19700
C  49.10000 28.05600 29.35200
C  50.83900 30.45500 27.14000
C  49.83600 29.99100 30.48500
O  50.27400 31.03500 30.88700
C  49.04100 29.00700 31.48400
C  50.07600 28.50300 32.47300
O  50.89500 27.64600 32.26000
O  50.11100 29.31900 33.63000
C  50.91300 28.71600 34.69600
H  47.03000 22.22500 31.02900
H  47.19700 22.86000 24.60600
H  50.09200 28.28300 25.24000
H  48.65900 26.16600 33.15500
H  46.39600 24.28400 32.76500
H  48.71700 23.97000 34.32900
H  49.29600 23.39400 32.77600
H  47.84000 22.62500 33.49000
H  45.66400 26.44800 33.33300
H  46.48500 27.86200 32.87700
H  47.67900 28.21700 34.79300
H  47.69600 26.51000 35.35200
H  46.40300 20.34900 30.40300
H  46.40100 19.41200 28.95100
H  44.93300 20.36500 29.39000
H  44.37600 19.65100 27.19500
H  45.70500 18.49500 26.74400
H  44.51000 18.93900 25.52100
H  47.45400 24.90600 23.18900
H  50.03700 26.38500 23.56700
H  49.71000 23.09200 23.47400
H  50.13200 24.46800 22.36200
H  48.72000 23.49800 22.10000
H  47.30100 27.77700 23.45500
H  47.90000 26.98600 22.15500
H  49.03700 28.77800 21.58900
H  50.17200 28.59800 22.94200
H  48.74200 29.51900 23.25100
H  51.41700 30.08600 26.29300
H  51.56100 30.86700 27.84500
H  50.20600 31.24800 26.74300
H  48.23600 29.61400 31.89700
H  50.38700 27.87000 35.13900
H  51.21700 29.45100 35.44100
H  51.86800 28.31800 34.35400
Mg 5.66200 54.83300 39.74500
C  3.44600 52.19400 40.28500
C  7.99800 52.51400 38.58400
C  7.74000 57.40900 38.87700
C  3.09700 57.07000 40.33100
N  5.60900 52.67300 39.27700
C  4.63600 51.79400 39.62600
C  4.93700 50.33500 39.10300
C  6.50200 50.48400 38.82300
C  6.74900 52.03100 38.91500
C  7.41200 49.61500 39.75900
C  4.15800 50.04600 37.75200
C  4.14200 48.59800 37.24500
H  4.79200 48.45000 35.83400
N  7.62800 54.96800 38.99500
C  8.40000 53.90500 38.61200
C  9.72400 54.40100 38.42600
C  9.75900 55.82300 38.41400
C  8.32300 56.13500 38.79200
C  10.84400 53.41500 38.18300
C  10.93900 56.74600 38.13500
O  12.02400 56.18700 37.98500
C  10.77900 58.22400 38.01900
N  5.44900 56.88300 39.51300
C  6.42200 57.77400 39.16100
C  5.86300 59.21800 39.07600
C  4.39100 59.07200 39.54700
C  4.30100 57.55600 39.78600
C  6.71900 60.36400 39.67500
C  3.43200 59.78600 38.59700
C  2.92600 61.18000 39.05400
N  3.62300 54.72600 40.24400
C  2.73600 55.76200 40.56900
C  1.43200 55.14200 40.93900
C  1.72300 53.78400 40.98600
C  2.98800 53.55700 40.47500
C  0.12100 55.86900 41.17000
C  1.16400 52.50000 41.27800
O  0.03800 52.15600 41.67300
C  2.23000 51.45300 40.83200
C  1.59100 50.53800 40.02900
O  1.00300 50.81300 39.01300
O  1.71700 49.27300 40.49300
C  1.21200 48.23100 39.65400
H  8.71400 51.72200 38.35600
H  8.36700 58.29500 38.75400
H  2.39400 57.85200 40.62600
H  4.65400 49.68000 39.92700
H  6.78500 50.13600 37.83000
H  7.62100 50.26600 40.60800
H  8.27400 49.33300 39.15400
H  6.92600 48.69900 40.09500
H  4.32800 50.86000 37.04700
H  3.13700 50.18900 38.10700
H  3.13200 48.21400 37.10200
H  4.58900 47.87800 37.93100
H  10.45800 52.48600 37.76200
H  11.35500 53.14700 39.10800
H  11.47300 53.87100 37.41900
H  10.19400 58.41100 37.11800
H  11.80000 58.54200 37.81100
H  10.50500 58.76200 38.92600
H  5.80900 59.39900 38.00300
H  4.27700 59.52700 40.53100
H  7.51900 59.86600 40.22300
H  6.13700 60.93900 40.39400
H  7.09400 61.00800 38.87900
H  2.55800 59.18700 38.34200
H  3.94300 59.95100 37.64900
H  2.66900 61.80100 38.19600
H  3.75600 61.66700 39.56500
H  2.04300 61.08200 39.68500
H  0.18300 56.95000 41.28900
H  -0.31700 55.43000 42.06600
H  -0.60700 55.61700 40.40000
H  2.57900 50.86500 41.68200
H  1.21200 48.34100 38.57000
H  0.14000 48.17000 39.84000
H  1.68300 47.30200 39.97600

