158

Mg -0.16600 7.97000 26.31000
C  0.60600 9.90200 29.09800
C  0.11300 5.16400 28.32900
C  -0.35800 6.02400 23.63800
C  0.28000 10.78600 24.29500
N  0.29200 7.59700 28.45400
C  0.44300 8.52600 29.40300
C  0.70200 7.97200 30.76600
C  0.57800 6.41700 30.51100
C  0.29800 6.34800 29.01100
C  1.87200 5.57600 30.91400
C  -0.28300 8.49800 31.86500
C  0.20800 8.55300 33.30400
H  -0.68200 7.94200 34.47200
N  -0.25300 5.82700 26.02500
C  -0.22900 4.87700 26.99100
C  -0.49300 3.60900 26.37500
C  -0.56200 3.82700 24.97700
C  -0.34300 5.25500 24.78700
C  -0.63000 2.36900 27.20500
C  -0.67100 2.84000 23.87200
O  -1.01900 3.11000 22.71700
C  -0.48400 1.38600 24.20500
N  -0.21200 8.36500 24.27300
C  -0.32200 7.35900 23.37400
C  -0.43100 7.94400 21.93600
C  -0.35400 9.48100 22.14100
C  -0.04700 9.59400 23.61700
C  0.57200 7.30600 20.84500
C  -1.61500 10.22200 21.74200
C  -2.82800 10.26200 22.74100
N  0.19700 9.98700 26.58400
C  0.44100 10.95500 25.68900
C  0.79500 12.19400 26.38400
C  0.94700 11.79900 27.71700
C  0.56700 10.52200 27.79800
C  1.02100 13.55900 25.78400
C  1.30000 12.31600 29.06100
O  1.64400 13.45800 29.45100
C  0.95600 11.05900 29.96700
C  2.11200 10.83900 30.83800
O  3.27500 10.71800 30.46000
O  1.74300 11.14000 32.11600
C  2.77500 11.41800 33.15700
H  0.22200 4.37500 29.07600
H  -0.33700 5.48000 22.69200
H  0.12700 11.69200 23.70600
H  1.72500 8.30300 30.94800
H  -0.25100 5.96700 31.05700
H  2.29400 5.94000 31.85000
H  2.60100 5.68700 30.11200
H  1.66800 4.54100 31.19100
H  -1.14000 7.82600 31.80800
H  -0.57300 9.48200 31.49800
H  0.18400 9.62400 33.50900
H  1.25000 8.23900 33.26000
H  -1.40300 1.70100 26.82600
H  -0.75600 2.60700 28.26100
H  0.31900 1.83400 27.16400
H  -0.65300 0.79200 23.30600
H  -1.32500 1.09600 24.83600
H  0.53300 1.12500 24.49800
H  -1.45100 7.73700 21.61200
H  0.52400 9.85700 21.61600
H  1.30700 6.61700 21.26000
H  0.95900 8.00900 20.10700
H  -0.05000 6.67400 20.21000
H  -2.11400 9.94800 20.81200
H  -1.23400 11.20900 21.48100
H  -3.61200 10.57900 22.05300
H  -2.73200 11.18100 23.32000
H  -3.01500 9.36200 23.32700
H  0.80100 13.60700 24.71700
H  2.04600 13.91100 25.90200
H  0.30400 14.22900 26.26000
H  0.14300 11.39000 30.61400
H  3.74700 11.22300 32.70500
H  2.63000 10.62500 33.89100
H  2.63600 12.35900 33.68800
Mg 44.53500 4.66100 47.49400
C  42.57900 7.49000 47.00500
C  41.70600 2.80700 46.87900
C  46.44600 1.94900 47.40000
C  47.43600 6.69200 47.73900
N  42.40100 5.13300 46.97900
C  41.82900 6.35300 46.93900
C  40.46600 6.16800 46.41200
C  40.09800 4.69600 46.76500
C  41.50500 4.14900 46.86700
C  39.07000 4.48900 47.90600
C  40.28000 6.55100 44.94200
C  38.99700 7.31200 44.58700
H  39.30400 8.39600 43.57600
N  44.13500 2.58600 47.22100
C  42.84600 2.06000 46.92700
C  43.00600 0.61300 46.72600
C  44.43500 0.33100 46.88400
C  45.06100 1.64400 47.21700
C  41.84800 -0.26400 46.27000
C  44.98900 -1.01200 46.53000
O  44.13100 -1.84400 46.14500
C  46.39200 -1.33000 46.55600
N  46.67000 4.40700 47.24100
C  47.20000 3.13300 47.33900
C  48.69700 3.08700 47.38200
C  49.04200 4.60800 47.63900
C  47.66000 5.29100 47.55700
C  49.22800 2.12000 48.48300
C  49.99500 5.18000 46.57700
C  51.38800 5.55900 46.93500
N  44.95200 6.66400 47.36100
C  46.15600 7.35900 47.51200
C  45.90200 8.81700 47.24100
C  44.46900 8.88600 47.29100
C  43.93200 7.54900 47.29400
C  46.98200 9.90400 47.16200
C  43.38200 9.80200 47.07300
O  43.42400 11.02300 46.93300
C  42.10000 8.93700 47.01100
C  41.23700 9.26600 48.17000
O  41.37800 8.75600 49.29000
O  40.20800 10.13900 47.78500
C  39.19300 10.48600 48.76900
H  40.76500 2.30200 46.64900
H  47.01400 1.01800 47.33600
H  48.31600 7.32700 47.85600
H  39.76500 6.71100 47.04600
H  39.57900 4.22800 45.92900
H  38.81700 5.46500 48.32200
H  39.40700 3.90700 48.76300
H  38.18600 3.99300 47.50500
H  40.35500 5.56300 44.48600
H  41.14400 7.07300 44.53200
H  38.50200 7.68000 45.48500
H  38.39000 6.56800 44.07100
H  41.91400 -0.20800 45.18300
H  40.93100 0.12900 46.70700
H  41.86700 -1.32300 46.52900
H  46.81100 -0.70600 45.76700
H  46.50400 -2.39900 46.37100
H  46.69100 -1.12000 47.58300
H  49.01000 2.76600 46.38800
H  49.48200 4.84000 48.60900
H  48.55400 1.34600 48.85100
H  49.63300 2.68900 49.32000
H  50.02200 1.53400 48.02000
H  49.57300 6.06700 46.10400
H  50.16100 4.46900 45.76800
H  51.52000 5.71000 48.00600
H  51.77000 6.48100 46.49700
H  52.11700 4.85400 46.53500
H  47.85500 9.75100 47.79600
H  46.51900 10.84900 47.44700
H  47.18500 9.92600 46.09100
H  41.49900 9.19500 46.13900
H  38.36900 11.00700 48.28200
H  39.44400 11.09500 49.63700
H  38.85600 9.51300 49.12900

