158

Mg 44.77600 3.04500 47.17800
C  42.36400 5.53100 46.75200
C  42.10900 0.78600 47.09900
C  46.97300 0.59700 47.01000
C  47.28300 5.45300 46.68900
N  42.54000 3.16500 47.09500
C  41.81200 4.26900 46.94700
C  40.36000 3.89700 46.69700
C  40.28300 2.50400 47.41600
C  41.72000 2.11500 47.19500
C  39.79900 2.42700 48.94700
C  40.12000 3.96000 45.18300
C  38.68800 4.34700 44.78600
H  38.56300 5.47000 43.81000
N  44.55600 0.96200 47.07700
C  43.42700 0.21400 47.01900
C  43.73300 -1.18800 46.96600
C  45.17700 -1.27700 46.95200
C  45.66400 0.13000 46.99200
C  42.78700 -2.26500 46.80400
C  45.96000 -2.57800 46.92200
O  45.29900 -3.57400 47.04000
C  47.43200 -2.77900 46.63600
N  46.85800 3.00000 46.70300
C  47.59900 1.82300 46.95200
C  49.12500 2.21600 47.14900
C  49.10300 3.75900 47.14500
C  47.63600 4.14400 46.84100
C  49.84900 1.63800 48.43200
C  50.13400 4.30100 46.14300
C  51.27000 5.09300 46.89300
N  44.86600 5.06200 46.87300
C  45.94100 5.93100 46.61400
C  45.39200 7.29200 46.39100
C  44.02100 7.08900 46.52300
C  43.74900 5.75400 46.72300
C  46.15400 8.58000 46.13900
C  42.80200 7.86300 46.50400
O  42.61400 9.08500 46.41900
C  41.67500 6.85200 46.68900
C  40.96500 7.23300 47.94100
O  41.38800 7.31400 49.08300
O  39.65800 7.43600 47.59500
C  38.63400 7.70100 48.61300
H  41.25300 0.11500 47.19400
H  47.70200 -0.16200 47.30100
H  47.98900 6.26300 46.88400
H  39.82200 4.72600 47.15600
H  39.69500 1.82500 46.79800
H  40.60000 2.05900 49.58800
H  38.96100 1.73100 48.97600
H  39.48300 3.43900 49.19900
H  40.46400 3.00100 44.79700
H  40.74100 4.75500 44.77000
H  38.01800 4.41700 45.64300
H  38.35900 3.48700 44.20200
H  42.85200 -2.67100 45.79400
H  41.78000 -1.92000 47.04100
H  43.00500 -3.12100 47.44300
H  48.11700 -2.42200 47.40500
H  47.77200 -2.25200 45.74500
H  47.55400 -3.81600 46.32300
H  49.56000 1.79400 46.24300
H  49.23100 4.16700 48.14800
H  50.68000 1.06400 48.02100
H  49.18300 0.98300 48.99500
H  50.27400 2.37700 49.11100
H  49.77000 4.92100 45.32400
H  50.65600 3.51200 45.60200
H  52.03500 5.19900 46.12300
H  51.75600 4.63700 47.75600
H  50.91900 6.10900 47.07000
H  45.51700 9.37000 45.74100
H  47.03200 8.37900 45.52600
H  46.43600 9.04800 47.08200
H  41.00200 6.78600 45.83400
H  38.67400 7.01200 49.45600
H  37.62900 7.60000 48.20200
H  38.77600 8.68300 49.06500
Mg 34.89900 49.81300 25.48600
C  34.76600 47.89900 28.33500
C  33.27200 52.34300 27.27000
C  34.04700 51.30200 22.62900
C  35.67700 46.90900 23.66500
N  34.05300 50.07400 27.61200
C  34.19700 49.16500 28.57100
C  33.90800 49.84400 30.00800
C  33.13400 51.16800 29.57700
C  33.57300 51.20800 28.12700
C  31.61700 51.28300 29.77900
C  35.22000 50.12300 30.83800
C  35.14900 49.54800 32.29500
H  33.77600 49.45400 32.92400
N  34.03300 51.69900 25.00900
C  33.42500 52.55600 25.85100
C  32.96700 53.75200 25.10200
C  33.24100 53.42500 23.73700
C  33.79000 52.15800 23.71100
C  32.29500 54.91200 25.71700
C  32.94100 54.27600 22.41500
O  33.20600 53.85300 21.24900
C  32.38300 55.68800 22.64200
N  34.91200 49.20000 23.43300
C  34.48100 49.97200 22.48900
C  34.67500 49.29400 21.03600
C  35.45100 48.03800 21.45100
C  35.38800 48.08700 22.94300
C  33.39800 48.98200 20.18500
C  36.97200 48.00400 20.87900
C  38.11600 48.82800 21.61800
N  35.17900 47.76400 25.90100
C  35.45300 46.70200 25.08500
C  35.82100 45.60300 25.91700
C  35.57500 46.01900 27.21700
C  35.07000 47.32700 27.13500
C  36.34800 44.32500 25.40800
C  35.53200 45.57400 28.64300
O  35.82800 44.54000 29.21700
C  34.93100 46.80100 29.44100
C  33.77600 46.26600 30.18900
O  32.59600 46.12200 29.71900
O  34.12500 45.84900 31.44300
C  33.02000 45.44000 32.33300
H  32.79700 53.12800 27.86200
H  33.88300 51.67900 21.61700
H  35.97300 46.02000 23.10400
H  33.29000 49.12900 30.55000
H  33.61900 52.05200 29.99100
H  31.18400 51.49800 28.80200
H  31.55100 52.06200 30.53700
H  31.11900 50.38400 30.14200
H  35.37000 51.20300 30.84300
H  36.04700 49.77900 30.21700
H  35.63800 50.24200 32.97900
H  35.65100 48.58200 32.22900
H  31.21800 54.98500 25.57100
H  32.77100 55.81200 25.32800
H  32.40800 55.08600 26.78700
H  32.15700 56.20200 21.70800
H  33.15400 56.35300 23.03000
H  31.49900 55.65500 23.27800
H  35.30700 49.92200 20.40800
H  35.06300 47.10200 21.04800
H  33.54800 49.50900 19.24200
H  32.50500 49.43000 20.62200
H  33.18800 47.93900 19.94900
H  37.06200 48.27600 19.82700
H  37.27600 46.95800 20.85500
H  38.56800 48.31700 22.46800
H  37.62200 49.68600 22.07400
H  38.79500 49.32300 20.92300
H  37.31000 44.43700 24.90900
H  35.66700 43.79300 24.74400
H  36.68200 43.67000 26.21400
H  35.70700 47.11300 30.14000
H  32.19700 46.15200 32.38900
H  33.42400 45.23500 33.32400
H  32.54800 44.55500 31.90500

