158

Mg 48.11400 34.60500 27.53500
C  46.33700 33.38900 30.31200
C  48.44100 37.60300 29.21100
C  49.46100 35.81300 24.79900
C  46.93100 31.77100 25.62800
N  47.60500 35.31100 29.60000
C  46.90400 34.66000 30.55300
C  46.72800 35.49500 31.78100
C  47.02600 36.91000 31.16400
C  47.76500 36.60400 29.93600
C  45.74400 37.79200 31.03700
C  47.85200 35.11300 32.88000
C  47.32500 34.64700 34.25000
H  47.68200 35.29500 35.51400
N  48.98100 36.32500 27.16600
C  49.05300 37.49000 27.94600
C  49.85400 38.53900 27.30200
C  50.37400 37.91800 26.07300
C  49.65900 36.56100 25.95800
C  50.17000 39.86200 27.94500
C  51.31200 38.39700 25.09600
O  51.70100 37.68200 24.15700
C  51.91300 39.73600 25.25100
N  48.12100 33.82300 25.41900
C  48.72400 34.61500 24.45300
C  48.76100 33.91000 23.09300
C  48.01300 32.55300 23.33900
C  47.60100 32.69300 24.85700
C  48.21100 34.76800 21.93200
C  48.81500 31.23300 23.11600
C  50.28100 31.23400 23.62800
N  46.89900 32.97300 27.81700
C  46.59600 31.83600 27.01300
C  45.69500 30.95700 27.83100
C  45.51700 31.53000 29.03400
C  46.32900 32.70600 29.03000
C  45.13100 29.65800 27.37100
C  44.90500 31.37100 30.32400
O  44.12800 30.52200 30.77200
C  45.22000 32.63900 31.12600
C  45.60000 32.20600 32.45800
O  46.60900 31.67200 32.86500
O  44.53300 32.49000 33.23500
C  44.58800 31.90400 34.57800
H  48.50100 38.58000 29.69700
H  49.81900 36.21300 23.84800
H  46.59200 30.93900 25.00700
H  45.72500 35.28100 32.15200
H  47.71500 37.40200 31.84900
H  45.68600 38.10600 29.99500
H  45.81400 38.59000 31.77600
H  44.84900 37.24000 31.32600
H  48.45000 35.97100 33.18600
H  48.46400 34.34300 32.41000
H  47.75700 33.66300 34.43700
H  46.24100 34.64300 34.13100
H  51.23300 39.89600 28.18800
H  49.42500 40.16500 28.68100
H  50.00000 40.59100 27.15200
H  51.06000 40.39600 25.09200
H  52.57900 39.91200 24.40600
H  52.33000 39.95500 26.23400
H  49.77500 33.65400 22.78700
H  47.14300 32.57200 22.68400
H  48.16700 35.84200 22.11500
H  47.20300 34.41700 21.71200
H  48.79400 34.65500 21.01800
H  48.66300 31.04200 22.05300
H  48.13700 30.49400 23.54400
H  50.64200 32.20900 23.95300
H  50.92100 30.99200 22.77900
H  50.49600 30.61200 24.49700
H  45.88500 29.00800 26.92600
H  44.39600 29.80500 26.58000
H  44.62000 29.23400 28.23500
H  44.35300 33.28900 31.23700
H  45.18900 32.55000 35.21800
H  45.04300 30.91300 34.59800
H  43.63700 31.80400 35.10000
Mg -2.10100 34.65900 26.18100
C  -3.53600 32.80300 28.81000
C  -0.58400 36.65100 28.53600
C  -1.02900 36.47200 23.67700
C  -3.82300 32.53700 23.94900
N  -2.32200 34.79200 28.47700
C  -2.73600 33.81300 29.38200
C  -2.29700 34.12200 30.81900
C  -1.38800 35.32900 30.63500
C  -1.42600 35.66800 29.11400
C  -1.73700 36.47600 31.55300
C  -1.68300 32.84800 31.43700
C  -2.36000 32.36500 32.70300
H  -1.41000 32.29600 33.92400
N  -0.89200 36.31200 26.15100
C  -0.35700 36.95200 27.21700
C  0.58100 37.93100 26.65300
C  0.44200 37.91300 25.28100
C  -0.45000 36.82800 24.97000
C  1.38600 38.89600 27.49300
C  1.13000 38.72700 24.23800
O  0.88200 38.58200 23.05700
C  2.19900 39.73800 24.57200
N  -2.45500 34.57800 24.17000
C  -1.91500 35.42300 23.31600
C  -2.27200 35.14700 21.86100
C  -2.87600 33.71600 21.96400
C  -3.16600 33.60600 23.43600
C  -3.24000 36.13500 21.27600
C  -1.92700 32.56500 21.43400
C  -0.45200 32.48000 21.97800
N  -3.54900 33.12800 26.30500
C  -4.04600 32.30400 25.32000
C  -4.73200 31.08200 25.86500
C  -4.53600 31.25500 27.24900
C  -3.81300 32.46300 27.42900
C  -5.28500 29.90700 25.13500
C  -4.83200 30.67100 28.54800
O  -5.44200 29.68300 28.93300
C  -4.20000 31.66100 29.58500
C  -5.35400 32.18600 30.57100
O  -6.11600 33.11400 30.41200
O  -5.28000 31.41100 31.68800
C  -6.14200 31.63500 32.88800
H  0.07200 37.26500 29.15600
H  -0.92500 37.18300 22.85400
H  -4.38200 31.78800 23.38300
H  -3.18200 34.33800 31.41700
H  -0.35800 35.09600 30.90700
H  -0.76800 36.95600 31.68900
H  -2.16300 36.02800 32.45100
H  -2.36000 37.22200 31.06000
H  -0.66300 33.16000 31.66300
H  -1.50500 32.05700 30.70800
H  -2.66200 31.32800 32.55800
H  -3.27700 32.92500 32.89000
H  1.37600 39.89900 27.06600
H  2.39300 38.51100 27.65200
H  1.00900 39.07800 28.49900
H  1.77300 40.67800 24.92300
H  2.54700 40.13200 23.61700
H  2.94400 39.19100 25.14900
H  -1.39300 35.02300 21.22900
H  -3.83900 33.59300 21.46800
H  -3.38100 37.05700 21.84000
H  -4.23200 35.69100 21.19400
H  -2.76500 36.49600 20.36400
H  -1.87100 32.45200 20.35100
H  -2.38100 31.61200 21.70400
H  0.20600 33.10300 21.37300
H  -0.07000 31.46600 21.86200
H  -0.25600 32.83000 22.99100
H  -6.21500 30.05000 24.58400
H  -5.58400 29.14600 25.85700
H  -4.50400 29.49400 24.49800
H  -3.50800 31.08600 30.20000
H  -6.55800 30.67000 33.17800
H  -6.94900 32.34700 32.71500
H  -5.57900 31.97000 33.75900

