158

Mg -0.01500 7.84800 26.46900
C  0.84000 9.84400 29.39900
C  -0.28900 5.15800 28.59200
C  -0.42100 6.11900 23.78900
C  0.42400 10.74800 24.63100
N  0.48900 7.51400 28.72900
C  0.59200 8.49000 29.75900
C  0.44500 7.83900 31.11300
C  0.20600 6.32600 30.73100
C  0.13500 6.32400 29.24700
C  1.33500 5.39100 31.33300
C  -0.71300 8.39200 31.94300
C  -0.39800 8.74000 33.40300
H  0.83500 8.11900 33.99200
N  -0.28000 5.91400 26.22800
C  -0.41800 4.93500 27.18800
C  -0.83600 3.67300 26.58400
C  -0.81000 3.92600 25.18400
C  -0.55400 5.39000 25.01400
C  -1.23600 2.45600 27.38600
C  -1.04500 3.00100 24.01100
O  -1.02600 3.30600 22.82200
C  -1.29400 1.50300 24.21200
N  0.02500 8.26800 24.51300
C  -0.14700 7.37100 23.49800
C  0.05100 8.05300 22.14000
C  -0.26600 9.56800 22.44600
C  0.00500 9.53500 23.99700
C  1.36300 7.91300 21.36100
C  -1.71500 9.95500 22.30400
C  -2.10600 10.60600 20.99800
N  0.55100 9.90700 26.79400
C  0.76400 10.93200 25.97300
C  1.21700 12.15800 26.67700
C  1.13700 11.73900 28.02300
C  0.81600 10.36700 28.02000
C  1.54400 13.46800 26.02400
C  1.34900 12.19400 29.30400
O  1.68300 13.31700 29.64900
C  1.16000 10.97700 30.28600
C  2.33500 10.95000 31.13800
O  3.31500 10.28100 30.81100
O  2.20300 11.73900 32.24700
C  3.28000 11.82200 33.29800
H  -0.63300 4.27500 29.13400
H  -0.41400 5.56000 22.85000
H  0.61300 11.53500 23.89900
H  1.43300 7.85700 31.57300
H  -0.73100 5.91500 31.10600
H  0.99200 5.11000 32.32900
H  2.30500 5.87300 31.21200
H  1.48700 4.48300 30.74900
H  -1.58600 7.74500 32.03200
H  -1.01400 9.28600 31.39800
H  -1.27600 8.41100 33.95900
H  -0.28600 9.81300 33.55400
H  -0.90000 1.56400 26.85600
H  -2.31700 2.50200 27.25200
H  -0.87800 2.39200 28.41400
H  -0.53500 0.93800 24.75300
H  -1.54600 1.11300 23.22600
H  -2.20900 1.44700 24.80300
H  -0.72100 7.66800 21.47400
H  0.40700 10.25900 21.94000
H  2.05200 8.74100 21.53000
H  1.19300 7.71400 20.30300
H  1.94200 7.11100 21.81700
H  -1.97200 10.74000 23.01600
H  -2.33800 9.07900 22.48900
H  -1.55200 10.41700 20.07800
H  -2.01600 11.69100 21.06600
H  -3.10300 10.31000 20.67100
H  0.60600 14.02000 25.96000
H  2.06200 13.28900 25.08200
H  2.11800 14.07200 26.72600
H  0.27100 11.21900 30.86900
H  4.16900 11.41700 32.81500
H  3.18800 11.22000 34.20300
H  3.44600 12.86100 33.58100
Mg 41.92900 40.93200 26.18100
C  40.95800 43.28600 28.71300
C  43.15700 38.87900 28.55300
C  43.05200 39.00400 23.67500
C  40.96400 43.39900 23.78300
N  41.86700 41.09600 28.35400
C  41.39100 42.06900 29.24400
C  41.48700 41.57100 30.71400
C  42.21100 40.19800 30.59200
C  42.43400 39.99900 29.04400
C  43.55900 39.88800 31.38300
C  39.95700 41.52000 31.23800
C  39.77800 40.92700 32.67500
H  38.96700 41.83100 33.63700
N  43.02300 39.23800 26.12900
C  43.36500 38.47800 27.25600
C  44.04100 37.29600 26.83500
C  44.04500 37.35700 25.41000
C  43.38100 38.55400 24.98500
C  44.65900 36.29000 27.83800
C  44.62100 36.39900 24.42400
O  44.80600 36.72500 23.25400
C  45.13800 35.01300 24.86600
N  42.09500 41.20500 24.05600
C  42.47900 40.21100 23.19700
C  42.38700 40.57000 21.70400
C  41.84500 42.03300 21.76200
C  41.63500 42.26100 23.32500
C  43.70500 40.32200 20.97000
C  40.57000 42.37300 20.93300
C  40.71200 43.29600 19.72400
N  41.09300 42.94300 26.13400
C  40.75100 43.77800 25.12700
C  40.26500 45.03700 25.62300
C  40.24300 44.82800 27.07900
C  40.79600 43.54800 27.31200
C  39.62000 46.14300 24.76200
C  39.89600 45.46200 28.32700
O  39.37200 46.54700 28.45400
C  40.22500 44.45000 29.47700
C  41.00300 44.95400 30.60200
O  42.20700 45.24700 30.51500
O  40.26900 45.01200 31.71000
C  41.03100 45.43500 32.87700
H  43.49000 38.17300 29.31600
H  43.27300 38.31200 22.86100
H  40.79000 44.19600 23.05700
H  41.95600 42.35500 31.30900
H  41.57800 39.35800 30.87900
H  44.36300 39.62900 30.69400
H  43.35300 39.02300 32.01300
H  43.96500 40.82600 31.76300
H  39.49700 40.86600 30.49800
H  39.43700 42.47700 31.29500
H  40.77400 40.84700 33.11000
H  39.27200 39.96200 32.65300
H  44.71400 35.30000 27.38700
H  44.22500 36.33600 28.83600
H  45.66300 36.71200 27.79400
H  45.95100 35.20700 25.56600
H  45.46800 34.44500 23.99600
H  44.34200 34.37900 25.25800
H  41.63800 39.88500 21.30700
H  42.63600 42.69800 21.41500
H  44.28200 41.23800 21.09700
H  43.58800 40.04500 19.92200
H  44.35000 39.65500 21.54200
H  39.85200 42.72000 21.67600
H  40.30000 41.38100 20.57000
H  40.56100 42.67900 18.83800
H  41.64400 43.86100 19.70700
H  39.88800 44.00800 19.77600
H  40.42400 46.69100 24.27100
H  39.01200 46.76400 25.42100
H  38.93300 45.64700 24.07700
H  39.29000 44.01200 29.82700
H  40.38200 45.65900 33.72300
H  41.61600 46.35200 32.80600
H  41.70200 44.61500 33.13600

