158

Mg 49.32000 35.40900 28.61200
C  47.21200 33.32800 30.57400
C  49.34800 37.70200 31.08300
C  50.66900 37.46800 26.40800
C  48.88400 32.87600 26.03500
N  48.39100 35.53800 30.57900
C  47.75100 34.51200 31.21200
C  47.74300 34.77000 32.77200
C  48.02100 36.34200 32.83200
C  48.68100 36.51400 31.44300
C  46.73600 37.25600 33.07200
C  48.88700 33.90100 33.47900
C  48.78000 33.84700 35.09300
H  47.89700 34.83900 35.90100
N  49.89700 37.29500 28.74800
C  49.89700 38.08100 29.88700
C  50.64300 39.34600 29.58700
C  51.16100 39.19700 28.25100
C  50.58700 37.91700 27.74100
C  50.86500 40.34300 30.68800
C  52.09200 40.02400 27.47200
O  52.51300 39.72500 26.33700
C  52.52800 41.28200 28.03200
N  49.82500 35.14500 26.58600
C  50.30400 36.22600 25.86000
C  50.52500 35.85900 24.36800
C  50.22000 34.29200 24.42300
C  49.60400 34.05900 25.78400
C  49.64500 36.70500 23.49500
C  51.36400 33.35300 23.91400
C  51.25000 32.81600 22.44800
N  48.50400 33.40300 28.35600
C  48.34900 32.50200 27.26100
C  47.57600 31.39200 27.62100
C  47.12500 31.69400 28.90400
C  47.65000 32.90000 29.32300
C  47.14900 30.22400 26.80200
C  46.22300 31.20900 29.94700
O  45.43500 30.21300 29.99900
C  46.24100 32.27900 31.11200
C  46.42600 31.69300 32.45700
O  47.26600 30.92300 32.82800
O  45.50800 32.20400 33.26100
C  45.36800 31.56600 34.57700
H  49.51000 38.34900 31.94800
H  51.08000 38.12900 25.64200
H  48.61400 32.19300 25.22600
H  46.75100 34.37600 32.99300
H  48.80900 36.45100 33.57700
H  46.74400 38.00100 33.86800
H  46.06400 36.45500 33.37900
H  46.36600 37.69300 32.14400
H  49.91700 34.21900 33.31300
H  48.71900 32.86900 33.17100
H  49.84500 33.83700 35.32500
H  48.38400 32.84700 35.27300
H  50.45300 41.26300 30.27500
H  51.84300 40.54700 31.12400
H  50.21700 40.19800 31.55200
H  51.68500 41.91700 28.30400
H  53.10000 41.86300 27.30900
H  53.20000 41.06200 28.86100
H  51.56500 36.08400 24.13300
H  49.40800 34.16900 23.70600
H  50.15900 37.65300 23.33900
H  48.75100 36.98600 24.05300
H  49.47400 36.22400 22.53200
H  51.31800 32.48300 24.57000
H  52.28800 33.92300 24.00400
H  50.38800 33.19900 21.90200
H  51.26500 31.72900 22.53000
H  52.14600 33.19000 21.95100
H  46.36700 30.61800 26.15300
H  46.61500 29.43800 27.33700
H  47.96100 29.76800 26.23500
H  45.25000 32.72800 31.17100
H  44.31500 31.61800 34.85400
H  45.96200 32.08300 35.33100
H  45.57800 30.49900 34.65900
Mg 0.85900 42.03100 26.24000
C  2.17100 42.13200 29.51300
C  -2.03500 40.78900 27.80900
C  -0.24400 41.35600 23.29700
C  4.05000 42.65500 25.10100
N  0.13700 41.57500 28.45400
C  0.79700 41.94300 29.56100
C  -0.15800 41.78300 30.83400
C  -1.49100 41.21500 30.23200
C  -1.11000 41.21900 28.72500
C  -2.10300 39.91900 30.92500
C  -0.36800 43.09000 31.66400
C  -0.26800 43.02000 33.15300
H  -0.77500 41.72500 33.90000
N  -0.92100 41.21900 25.62400
C  -2.05800 40.89200 26.38500
C  -3.08200 40.48500 25.42400
C  -2.62600 40.67600 24.09500
C  -1.21300 41.07200 24.27900
C  -4.44400 39.95100 25.95200
C  -3.28300 40.53200 22.75700
O  -2.69900 40.68500 21.67500
C  -4.64000 40.01600 22.75000
N  1.77900 41.88700 24.44900
C  1.06700 41.72700 23.37100
C  1.99200 41.90500 22.12100
C  3.30300 42.48500 22.70700
C  3.03700 42.27000 24.16800
C  2.13200 40.62000 21.20000
C  3.61500 43.98700 22.37400
C  4.30400 44.21000 20.92700
N  2.76400 42.44100 27.08200
C  3.99700 42.72800 26.47100
C  4.97700 42.82900 27.45600
C  4.33500 42.56700 28.64900
C  2.96000 42.34300 28.37200
C  6.42800 42.97200 27.31000
C  4.47900 42.48300 30.08200
O  5.50300 42.63200 30.71900
C  3.18300 42.16300 30.71400
C  3.36500 40.82400 31.42100
O  3.44900 39.73300 30.85100
O  3.65600 41.07000 32.77700
C  4.30200 39.95300 33.59000
H  -2.95500 40.39600 28.24600
H  -0.52300 41.08300 22.27800
H  5.01200 42.85600 24.62500
H  0.31300 41.02000 31.45300
H  -2.29100 41.93700 30.40300
H  -3.04400 40.29500 31.32600
H  -1.40200 39.60400 31.69700
H  -2.21200 39.07700 30.24100
H  -1.38500 43.43100 31.46800
H  0.43000 43.75700 31.34000
H  -0.97800 43.74700 33.54800
H  0.74300 43.16800 33.53100
H  -5.33700 40.24000 25.39800
H  -4.55800 40.42500 26.92700
H  -4.45500 38.86600 26.05500
H  -4.87900 40.08400 21.68900
H  -5.33400 40.67300 23.27300
H  -4.61300 39.02300 23.20000
H  1.54500 42.70500 21.53000
H  4.08700 41.81500 22.35400
H  1.55200 40.74800 20.28700
H  1.71200 39.78700 21.76500
H  3.17500 40.39000 20.98500
H  4.19000 44.54000 23.11700
H  2.65500 44.50100 22.42800
H  3.46600 44.51100 20.29900
H  4.70500 43.24400 20.62300
H  4.97600 45.03300 21.17100
H  6.90300 42.02000 27.54900
H  6.81800 43.76700 27.94600
H  6.67300 43.11600 26.25800
H  2.96200 42.90500 31.48100
H  5.35400 40.04100 33.31800
H  3.91100 38.94800 33.43300
H  4.38300 40.21000 34.64600

