158

Mg 30.10700 57.84100 38.75400
C  27.54100 55.84900 37.64800
C  32.33500 55.33200 38.24800
C  32.58800 60.18400 39.30900
C  27.78300 60.58500 38.89900
N  29.91400 55.88100 37.85600
C  28.71500 55.21500 37.66500
C  28.98700 53.72100 37.15900
C  30.52700 53.63700 37.44300
C  31.00500 55.02600 37.84500
C  30.98400 52.47300 38.31700
C  28.61700 53.49200 35.61300
C  29.03400 54.68600 34.72300
H  27.99000 55.22600 33.70700
N  32.15200 57.74600 38.86400
C  32.87100 56.59800 38.65800
C  34.29500 56.86000 39.02600
C  34.39500 58.25500 39.39000
C  32.99300 58.78600 39.17400
C  35.35800 55.72400 38.81800
C  35.72900 58.89100 39.87300
O  36.66800 58.13700 40.21000
C  35.83600 60.33200 40.01800
N  30.12200 60.10300 38.98000
C  31.37000 60.76300 39.27600
C  31.08700 62.24300 39.34800
C  29.49500 62.43000 39.37300
C  29.11300 60.95700 39.04200
C  31.98800 63.11500 40.34600
C  29.07400 63.48500 38.39100
C  27.81600 64.23000 38.75300
N  28.09200 58.18500 38.49800
C  27.26600 59.34300 38.50100
C  25.94700 59.00800 38.04700
C  25.95400 57.62700 37.88700
C  27.30600 57.19500 37.98400
C  24.75800 59.92000 37.87100
C  25.17200 56.48400 37.52200
O  23.94600 56.32400 37.33200
C  26.17700 55.24500 37.45300
C  25.72400 54.12900 38.38700
O  26.18500 53.88900 39.46700
O  24.78700 53.39400 37.69000
C  24.05600 52.51900 38.60400
H  33.04900 54.50700 38.29400
H  33.37600 60.88800 39.58900
H  27.17100 61.46000 39.12400
H  28.44300 53.04400 37.81700
H  31.09600 53.54100 36.51800
H  31.40700 52.78700 39.27100
H  31.69900 51.78300 37.86800
H  30.12400 51.84200 38.54100
H  27.60700 53.12500 35.43000
H  29.26200 52.67100 35.30100
H  29.86900 54.32400 34.12200
H  29.34500 55.57600 35.27000
H  35.16900 55.13400 37.92100
H  35.15800 54.99800 39.60600
H  36.39400 56.06400 38.81900
H  35.09600 60.80300 40.66500
H  35.58300 60.79500 39.06400
H  36.84500 60.67800 40.24300
H  31.46800 62.66800 38.41900
H  29.14300 62.72900 40.36000
H  32.53600 63.94400 39.89700
H  32.70400 62.44600 40.82300
H  31.32700 63.52700 41.10800
H  28.93500 62.96700 37.44100
H  29.80300 64.29300 38.33000
H  27.15000 64.14700 37.89400
H  27.94300 65.23500 39.15500
H  27.35700 63.75800 39.62100
H  24.11300 59.63500 38.70200
H  24.18800 59.84600 36.94400
H  24.96300 60.94900 38.16700
H  26.22100 54.88100 36.42700
H  23.03200 52.84200 38.79500
H  24.57100 52.22100 39.51700
H  23.96400 51.60100 38.02400
Mg -8.90100 17.25900 41.69500
C  -5.41600 17.02200 41.54000
C  -8.66100 20.51900 41.01700
C  -12.18100 17.21200 41.26300
C  -9.00200 13.79500 42.11700
N  -7.17200 18.54700 41.35800
C  -5.89200 18.24000 41.20400
C  -5.05700 19.42800 40.68500
C  -6.05300 20.58700 41.06600
C  -7.42500 19.85100 41.12000
C  -5.80600 21.45500 42.39900
C  -4.67000 19.22400 39.15900
C  -3.17500 19.04800 38.83000
H  -2.78000 17.71500 38.22200
N  -10.22900 18.68400 41.29900
C  -9.94200 20.01000 41.04500
C  -11.14600 20.70200 40.73000
C  -12.24800 19.76600 40.80000
C  -11.64400 18.46500 41.10700
C  -11.22200 22.10800 40.25300
C  -13.72800 19.99800 40.51800
O  -14.15100 21.12100 40.34200
C  -14.71800 18.90900 40.36300
N  -10.38800 15.64800 41.52000
C  -11.68100 15.94900 41.50400
C  -12.48400 14.69500 41.95700
C  -11.48600 13.58100 42.18700
C  -10.18900 14.41300 41.87900
C  -13.41600 14.94900 43.20000
C  -11.48800 12.36600 41.23500
C  -12.71700 11.46800 41.39100
N  -7.45100 15.68500 41.69200
C  -7.70300 14.37100 42.04700
C  -6.45600 13.71600 42.35400
C  -5.47600 14.69400 42.17500
C  -6.16900 15.88800 41.84600
C  -6.29000 12.34200 42.89300
C  -4.01900 15.06200 42.26800
O  -3.02900 14.40100 42.52000
C  -3.95800 16.61400 41.90600
C  -3.49000 17.49500 43.06600
O  -4.23100 18.23600 43.66300
O  -2.17100 17.48200 43.21100
C  -1.59100 18.54500 44.05200
H  -8.59000 21.58600 40.79500
H  -13.27100 17.19100 41.32100
H  -9.09600 12.75000 42.42000
H  -4.15100 19.47800 41.28900
H  -6.00500 21.31300 40.25400
H  -5.58900 22.49700 42.16600
H  -4.89900 21.15600 42.92600
H  -6.68100 21.39300 43.04500
H  -5.08400 20.02900 38.55300
H  -5.14900 18.38000 38.66300
H  -2.73600 19.11900 39.82500
H  -2.86300 19.85200 38.16300
H  -10.22700 22.53000 40.11400
H  -11.60100 22.77500 41.02800
H  -11.88600 22.21200 39.39600
H  -15.53500 19.27100 39.73800
H  -15.06800 18.42300 41.27300
H  -14.32200 18.11700 39.72800
H  -13.11300 14.30000 41.15900
H  -11.49500 13.16500 43.19400
H  -12.99000 14.53100 44.11200
H  -14.34000 14.46700 42.88000
H  -13.47300 16.01700 43.41000
H  -10.58300 11.75800 41.24000
H  -11.51900 12.86700 40.26800
H  -13.41600 11.63100 40.57100
H  -13.26100 11.74900 42.29200
H  -12.52400 10.39500 41.38300
H  -7.17300 12.05500 43.46300
H  -5.47000 12.22600 43.60200
H  -6.11800 11.65200 42.06700
H  -3.40100 16.70400 40.97300
H  -1.85500 19.50000 43.59900
H  -0.52300 18.33700 44.11800
H  -2.00900 18.50200 45.05800

