158

Mg 23.96400 -5.31200 46.10200
C  25.90000 -2.94200 44.27200
C  21.43500 -4.53600 43.78600
C  22.46000 -8.05400 47.10400
C  26.98200 -6.20400 47.83600
N  23.64100 -3.86600 44.29300
C  24.60200 -3.04800 43.76300
C  24.05300 -2.26100 42.60200
C  22.51300 -2.53000 42.64400
C  22.49300 -3.71400 43.66600
C  21.61100 -1.41900 43.12000
C  24.68300 -2.42800 41.20600
C  24.96000 -1.09900 40.42000
H  24.84300 -1.14800 38.84500
N  22.13100 -6.13800 45.65200
C  21.20300 -5.60600 44.76400
C  20.04000 -6.36600 44.83100
C  20.24100 -7.46400 45.77100
C  21.62300 -7.21900 46.24700
C  18.81100 -5.91500 43.96500
C  19.24400 -8.59900 46.07500
O  18.09500 -8.63900 45.56600
C  19.52500 -9.74800 47.02800
N  24.66800 -7.01500 47.26900
C  23.77800 -7.99300 47.63900
C  24.51300 -9.02300 48.54200
C  25.79400 -8.32300 48.97300
C  25.88900 -7.11600 47.93900
C  23.68600 -9.57300 49.72900
C  26.95900 -9.28000 48.93800
C  27.53500 -9.57400 50.33400
N  25.93400 -4.64600 46.23600
C  27.01600 -5.10800 47.00200
C  28.07100 -4.20700 46.79600
C  27.75700 -3.40600 45.76800
C  26.41200 -3.72700 45.41200
C  29.32700 -4.12700 47.54500
C  28.23000 -2.28500 45.03800
O  29.32900 -1.71100 45.13000
C  27.13700 -2.02500 43.91400
C  26.84000 -0.51700 44.03200
O  25.97100 -0.05200 44.75100
O  27.73000 0.15600 43.19600
C  27.74700 1.60400 43.26800
H  20.56700 -4.31800 43.16100
H  21.91100 -8.94400 47.41800
H  27.85200 -6.35700 48.47700
H  24.25600 -1.24200 42.93000
H  22.19800 -2.94900 41.68800
H  21.30400 -1.63800 44.14300
H  20.72500 -1.40600 42.48500
H  21.98100 -0.39400 43.07600
H  24.20600 -3.19200 40.59300
H  25.68300 -2.78800 41.44800
H  25.97800 -0.76200 40.61400
H  24.28300 -0.31900 40.77000
H  18.90000 -6.32600 42.95900
H  18.71600 -4.83100 43.90400
H  17.94500 -6.35100 44.46100
H  18.71800 -10.47700 46.96900
H  19.57400 -9.42400 48.06700
H  20.43100 -10.33200 46.86900
H  24.64000 -9.92500 47.94300
H  25.75200 -7.81300 49.93600
H  24.15400 -9.22600 50.65000
H  23.75700 -10.66100 49.69900
H  22.68900 -9.15800 49.57700
H  27.71700 -8.91700 48.24400
H  26.75400 -10.25600 48.49800
H  28.44700 -8.98900 50.45100
H  27.72000 -10.64800 50.35000
H  26.90100 -9.40800 51.20500
H  29.96300 -4.89500 47.10500
H  29.10800 -4.28200 48.60100
H  29.87400 -3.18900 47.44100
H  27.47000 -2.27500 42.90700
H  27.60300 2.02800 44.26200
H  26.97500 2.06500 42.65200
H  28.70900 1.95700 42.89600
Mg 30.40500 58.08100 40.27900
C  28.11800 56.25400 38.35300
C  32.89100 56.03700 39.06900
C  32.66100 60.38600 41.27900
C  27.87600 60.55300 40.78000
N  30.49900 56.52600 38.75100
C  29.43000 55.79700 38.23600
C  29.87300 54.47900 37.35100
C  31.35700 54.37400 37.88100
C  31.62200 55.77300 38.56100
C  31.68700 53.06300 38.71000
C  29.79100 54.65500 35.79100
C  28.76800 53.72600 35.16900
H  27.70800 54.45600 34.36800
N  32.52600 58.09100 40.28500
C  33.36600 57.12400 39.78700
C  34.77100 57.50400 40.04500
C  34.70500 58.80500 40.70900
C  33.25000 59.15200 40.79200
C  35.96100 56.69400 39.53600
C  35.88600 59.56200 41.25000
O  37.01500 58.99300 41.19500
C  35.83100 60.93000 41.88800
N  30.26400 60.18600 40.96100
C  31.33300 60.86800 41.25700
C  31.02300 62.35100 41.59000
C  29.45200 62.31400 41.64300
C  29.17000 60.95700 41.10100
C  31.76400 62.93200 42.82800
C  28.67900 63.43500 40.82300
C  27.51400 64.10600 41.47100
N  28.34600 58.31500 39.89800
C  27.41500 59.33500 40.23200
C  26.13300 59.00900 39.63300
C  26.29300 57.75100 39.03400
C  27.68300 57.46500 39.09500
C  24.99300 59.85900 39.75400
C  25.62300 56.65200 38.27200
O  24.46500 56.59700 37.92300
C  26.77800 55.66000 37.88300
C  26.46800 54.38500 38.47800
O  26.65800 54.01900 39.61600
O  25.76000 53.62600 37.56500
C  25.09400 52.40900 38.01300
H  33.67500 55.29700 38.89400
H  33.30000 61.23100 41.54300
H  27.11600 61.31500 40.96600
H  29.25800 53.67100 37.74700
H  31.96800 54.25100 36.98700
H  32.30300 52.36600 38.14100
H  30.80800 52.51000 39.04200
H  32.16500 53.43200 39.61700
H  30.76100 54.40900 35.35900
H  29.66400 55.71400 35.56300
H  28.32400 53.04300 35.89300
H  29.30500 52.94500 34.63100
H  36.33000 56.16000 40.41200
H  36.61200 57.38300 38.99900
H  35.68200 55.93500 38.80600
H  35.76100 61.72800 41.14900
H  36.74500 60.99000 42.47900
H  35.03400 60.88300 42.63100
H  31.30900 62.88700 40.68600
H  29.07600 62.33100 42.66600
H  30.99700 62.99600 43.60000
H  32.02800 63.93900 42.50200
H  32.65400 62.43800 43.21700
H  28.46700 62.98400 39.85300
H  29.44300 64.20500 40.71800
H  27.33200 63.82200 42.50800
H  26.55100 63.82300 41.04600
H  27.61300 65.19100 41.50400
H  25.42000 60.83600 39.97900
H  24.34200 59.45900 40.53100
H  24.54200 60.04700 38.77900
H  26.92500 55.48400 36.81800
H  25.81900 51.84000 38.59500
H  24.76200 51.81800 37.15900
H  24.20000 52.61100 38.60300

