158

Mg 35.81200 49.51300 24.95100
C  35.71000 48.19600 28.28400
C  34.11900 52.16900 26.22100
C  35.52800 50.44600 21.80900
C  36.85800 46.28400 23.85500
N  35.12100 50.14500 27.10200
C  35.30200 49.52300 28.26900
C  34.82000 50.43100 29.52400
C  34.16700 51.59500 28.72800
C  34.43400 51.28300 27.25900
C  32.67500 51.89900 28.92500
C  35.99500 50.76000 30.53200
C  35.98700 50.14200 31.85800
H  35.16200 50.73400 32.92300
N  35.00600 51.13100 24.10000
C  34.37900 52.12300 24.82300
C  33.94400 53.11000 23.85100
C  34.22400 52.60000 22.52700
C  34.95800 51.36700 22.76800
C  33.25200 54.36100 24.23100
C  33.90700 53.22200 21.09100
O  34.28400 52.63700 20.05600
C  33.15100 54.50900 20.94600
N  36.29200 48.54100 23.09200
C  36.14200 49.18200 21.95900
C  36.62100 48.34200 20.82000
C  37.07900 47.03300 21.39300
C  36.75600 47.28600 22.89800
C  35.56100 48.25500 19.64500
C  38.57400 46.57200 21.09200
C  39.59300 47.68200 21.13600
N  36.23700 47.60300 25.86000
C  36.69000 46.39700 25.27200
C  36.94300 45.41400 26.36900
C  36.57500 46.07200 27.54000
C  36.15000 47.37500 27.17800
C  37.51300 44.02800 26.20100
C  36.42200 45.87300 28.94900
O  36.56500 44.86700 29.70400
C  35.87600 47.22800 29.51100
C  34.71400 47.01200 30.29900
O  33.58200 46.96700 29.85500
O  35.05300 46.70300 31.65600
C  33.86300 46.42300 32.48000
H  33.60400 53.11800 26.38500
H  35.30100 50.84500 20.81900
H  37.27500 45.34500 23.48300
H  34.07700 49.86500 30.08600
H  34.75900 52.50200 28.84800
H  32.30800 51.52600 29.88100
H  32.20600 51.40900 28.07100
H  32.47900 52.97100 28.92000
H  35.92200 51.83300 30.70900
H  36.89600 50.48700 29.98300
H  37.02100 50.26700 32.17800
H  35.76900 49.07700 31.78100
H  32.16200 54.33900 24.24200
H  33.52000 55.13800 23.51600
H  33.46200 54.67700 25.25200
H  32.95700 54.90000 19.94700
H  33.80000 55.21600 21.46200
H  32.21800 54.52700 21.50800
H  37.46400 48.91000 20.42700
H  36.41800 46.22100 21.08800
H  34.64500 48.80900 19.85100
H  35.26500 47.23600 19.39300
H  36.07000 48.66500 18.77300
H  38.50000 46.15700 20.08700
H  38.92300 45.73500 21.69600
H  39.28300 48.59200 21.65000
H  40.09900 47.82900 20.18200
H  40.31600 47.14400 21.75000
H  37.76700 43.84100 25.15700
H  36.86100 43.19300 26.45200
H  38.38500 44.02200 26.85500
H  36.58700 47.74700 30.15500
H  33.49400 45.49000 32.05500
H  33.21800 47.30100 32.44400
H  34.23500 46.33700 33.50100
Mg -0.45600 44.03000 26.59100
C  1.83400 43.69500 29.17600
C  -2.98200 43.10900 28.87400
C  -2.68700 44.22700 24.07700
C  2.29400 44.51700 24.38800
N  -0.53500 43.39500 28.70000
C  0.47200 43.63500 29.61700
C  0.05900 43.47600 31.04400
C  -1.46200 43.08200 30.90900
C  -1.69700 43.27300 29.41100
C  -1.87100 41.74600 31.49300
C  0.33600 44.77300 31.90000
C  0.45100 44.57700 33.43600
H  -0.12800 43.33100 34.08200
N  -2.60200 43.70200 26.50400
C  -3.40900 43.29600 27.54500
C  -4.77200 43.13400 27.01200
C  -4.71300 43.57800 25.63200
C  -3.28000 43.88400 25.35900
C  -5.88900 42.69200 27.88100
C  -5.83300 43.57700 24.62600
O  -5.78900 43.98400 23.48900
C  -7.12000 42.85000 24.91900
N  -0.21100 44.32700 24.56600
C  -1.31600 44.41800 23.74100
C  -0.93400 44.77500 22.30100
C  0.64300 45.07200 22.51400
C  0.97900 44.65100 23.89400
C  -1.35400 43.74800 21.19700
C  1.03100 46.57200 22.39500
C  1.12600 47.22100 20.96000
N  1.64400 43.98800 26.71400
C  2.59900 44.19800 25.73400
C  3.90200 44.09300 26.36500
C  3.66100 43.87300 27.72300
C  2.28100 43.82100 27.86700
C  5.17900 44.44400 25.74500
C  4.27000 43.77100 29.00300
O  5.43500 43.85000 29.35500
C  3.14800 43.61300 29.99700
C  3.30600 42.30100 30.54400
O  3.27700 41.22700 29.95900
O  3.40900 42.40900 31.95700
C  3.41200 41.07400 32.54600
H  -3.71500 42.88300 29.65100
H  -3.35600 44.37300 23.22600
H  3.13400 44.68100 23.70900
H  0.46500 42.52500 31.39000
H  -1.98100 43.89500 31.41700
H  -2.37800 41.10500 30.77200
H  -2.54000 42.00300 32.31500
H  -1.01700 41.16400 31.84000
H  -0.49800 45.43300 31.66200
H  1.32300 45.08400 31.55900
H  0.06200 45.44100 33.97400
H  1.47600 44.58600 33.80800
H  -5.53800 42.25800 28.81700
H  -6.57600 41.98400 27.41700
H  -6.48400 43.57300 28.12200
H  -7.60200 43.43900 25.70000
H  -6.82700 41.87400 25.30600
H  -7.70700 42.76100 24.00500
H  -1.45000 45.70400 22.05800
H  1.23600 44.52000 21.78400
H  -0.46000 43.31900 20.74500
H  -2.03600 44.24400 20.50600
H  -1.88300 42.90100 21.63300
H  2.03400 46.76300 22.77700
H  0.31000 47.15800 22.96500
H  0.85400 46.49100 20.19700
H  2.17000 47.49000 20.79600
H  0.48400 48.10000 21.01400
H  5.50100 45.37700 26.20800
H  5.13400 44.61300 24.67000
H  5.86800 43.61800 25.92900
H  3.18800 44.32800 30.81900
H  4.41300 40.80300 32.21000
H  2.62400 40.43200 32.15300
H  3.22700 41.24500 33.60700

