158

Mg 44.55800 5.04900 47.50300
C  42.42800 7.58000 46.58200
C  41.93400 2.75800 46.82800
C  46.80000 2.51300 47.48300
C  47.15600 7.37100 47.71300
N  42.48100 5.18400 46.52000
C  41.81400 6.39100 46.34100
C  40.35600 6.04600 45.88200
C  40.12300 4.55600 46.39700
C  41.58800 4.12200 46.60300
C  39.21600 4.47000 47.71500
C  40.26000 6.26100 44.35600
C  39.13300 7.31100 43.91900
H  39.50100 8.15400 42.73500
N  44.37000 2.95500 47.21300
C  43.23200 2.24000 46.97700
C  43.52000 0.82500 46.99900
C  44.90900 0.70300 47.20800
C  45.44500 2.11400 47.28800
C  42.55000 -0.19500 46.84500
C  45.62000 -0.63100 47.35600
O  45.05900 -1.69000 47.16000
C  47.09900 -0.67300 47.81300
N  46.73500 4.95800 47.24900
C  47.40900 3.79900 47.49800
C  48.86400 3.99800 47.79600
C  48.93800 5.55400 48.04000
C  47.54600 6.00800 47.60400
C  49.54300 3.13300 48.95700
C  50.14500 6.28800 47.49200
C  51.28500 6.47700 48.57300
N  44.79100 7.06300 47.21100
C  45.90500 7.86300 47.42900
C  45.47200 9.27100 47.34500
C  44.12000 9.20900 47.02700
C  43.78500 7.82500 46.90600
C  46.42400 10.43600 47.39000
C  43.00900 9.94700 46.68100
O  42.87200 11.14100 46.42900
C  41.81500 8.97200 46.49900
C  40.86700 9.32200 47.61500
O  40.86700 8.83500 48.74700
O  39.91600 10.22400 47.12100
C  38.70700 10.51000 47.91800
H  41.04300 2.12600 46.81200
H  47.53100 1.70300 47.53600
H  47.93400 8.08100 48.00300
H  39.75200 6.74300 46.46300
H  39.65600 3.86300 45.69800
H  38.67400 5.34600 48.07200
H  39.81500 4.33500 48.61500
H  38.45500 3.70800 47.54500
H  40.05000 5.26500 43.96800
H  41.20200 6.62400 43.94300
H  38.81300 7.84800 44.81200
H  38.32000 6.67000 43.57900
H  41.72400 0.11400 46.20400
H  42.23900 -0.71800 47.75000
H  42.92900 -0.91900 46.12400
H  47.41300 -1.71200 47.71100
H  47.25200 -0.20000 48.78300
H  47.80800 -0.23700 47.10900
H  49.41700 3.66900 46.91700
H  48.84400 5.62000 49.12300
H  50.54300 3.48800 49.20700
H  49.73600 2.09900 48.67100
H  48.99500 3.19000 49.89800
H  49.87000 7.28000 47.13300
H  50.51100 5.73100 46.63000
H  51.10500 5.82700 49.43000
H  51.25100 7.51900 48.89000
H  52.30100 6.36600 48.19500
H  47.25900 10.28700 46.70600
H  46.77000 10.68100 48.39400
H  46.00000 11.36900 47.02000
H  41.28700 9.11500 45.55700
H  37.90200 10.06600 47.33400
H  38.56900 11.58300 48.05800
H  38.64200 10.03000 48.89500
Mg 34.87200 3.01000 29.09500
C  32.55100 3.82000 31.57100
C  37.44200 3.48300 31.28600
C  37.12900 2.61100 26.49200
C  32.32300 3.20900 26.69500
N  34.95400 3.56300 31.15300
C  33.90900 3.70300 32.01100
C  34.42900 3.91400 33.45100
C  35.97500 4.10600 33.24800
C  36.12400 3.65400 31.82200
C  36.57800 5.49600 33.61500
C  33.92100 2.74600 34.38400
C  33.67300 3.11700 35.76300
H  34.50800 4.23700 36.38300
N  36.95800 3.02500 28.96900
C  37.79300 3.07100 29.99600
C  39.16900 2.66200 29.65300
C  39.11100 2.49000 28.25100
C  37.68000 2.77900 27.81700
C  40.19500 2.58100 30.73800
C  40.23800 1.97500 27.30400
O  40.04900 1.71700 26.12500
C  41.57800 1.67400 27.92600
N  34.71100 3.02200 26.91400
C  35.78900 2.70200 26.10300
C  35.30300 2.43300 24.58100
C  33.78600 2.49900 24.79400
C  33.62100 3.06600 26.18600
C  35.87000 3.42600 23.51300
C  33.07400 1.13700 24.52200
C  31.78100 1.18900 23.87000
N  32.89500 3.42700 29.05300
C  31.93600 3.44400 28.01400
C  30.59300 3.73500 28.53700
C  30.81800 3.82300 29.95200
C  32.20900 3.68500 30.19600
C  29.39600 3.88300 27.75100
C  30.12300 4.08300 31.15200
O  28.97400 4.42600 31.39900
C  31.24200 4.11000 32.33000
C  31.17400 5.36400 33.04900
O  31.58000 6.44300 32.56600
O  30.58500 5.33800 34.31100
C  30.64200 6.60700 35.05700
H  38.17600 3.57400 32.08900
H  37.83800 2.35400 25.70200
H  31.52300 3.26300 25.95400
H  34.04400 4.82300 33.91500
H  36.47700 3.41400 33.92400
H  37.37300 5.34700 34.34500
H  35.84800 6.22200 33.97500
H  36.91200 5.91600 32.66600
H  34.74700 2.03600 34.40800
H  33.06200 2.28500 33.89600
H  33.64600 2.21900 36.38000
H  32.70400 3.61500 35.72600
H  39.85200 1.79200 31.40700
H  40.08800 3.51300 31.29300
H  41.22600 2.47300 30.40200
H  41.80700 2.64600 28.36400
H  42.26900 1.36400 27.14300
H  41.44500 0.87700 28.65800
H  35.53000 1.37600 24.44200
H  33.38700 3.20700 24.06700
H  36.41400 2.83700 22.77400
H  36.54900 4.13900 23.97900
H  34.97600 3.90400 23.11200
H  33.01200 0.57100 25.45200
H  33.69800 0.41900 23.99000
H  31.91400 0.73300 22.88900
H  31.47900 2.23600 23.84400
H  30.98000 0.62800 24.35400
H  29.22400 2.93200 27.24700
H  29.37900 4.76200 27.10700
H  28.65400 4.01200 28.53900
H  30.94500 3.37000 33.07200
H  30.31100 7.49000 34.50900
H  31.66700 6.80000 35.37500
H  30.01100 6.53300 35.94300

