158

Mg 24.77000 -5.06700 45.66500
C  26.87800 -2.42200 44.35300
C  22.33900 -3.90400 43.51100
C  23.14900 -7.89800 46.03700
C  27.59800 -6.41800 47.20500
N  24.68100 -3.38600 44.04500
C  25.58100 -2.40200 43.88900
C  24.99000 -1.28100 42.94300
C  23.52800 -1.78900 42.62500
C  23.46800 -3.07500 43.44400
C  22.33100 -0.72700 42.80100
C  25.83700 -1.03000 41.62900
C  26.41300 -2.20400 40.84400
H  26.06200 -2.44900 39.38300
N  22.96300 -5.74200 44.96600
C  22.07400 -5.12300 44.17700
C  20.89200 -5.91700 44.12400
C  21.09700 -7.11000 44.89700
C  22.45300 -6.96200 45.36500
C  19.72100 -5.41100 43.40300
C  20.07200 -8.25300 45.14000
O  19.04200 -8.28800 44.49500
C  20.35400 -9.41400 46.09800
N  25.30200 -6.89700 46.45300
C  24.43100 -7.91600 46.63800
C  24.99600 -9.18600 47.32200
C  26.36800 -8.55000 47.93100
C  26.45400 -7.23300 47.16600
C  24.09000 -9.83800 48.43100
C  27.58800 -9.54300 47.88400
C  28.13900 -10.11300 49.16200
N  26.77300 -4.56100 45.84800
C  27.80400 -5.17500 46.55400
C  29.02500 -4.40200 46.45900
C  28.60600 -3.28700 45.68900
C  27.27600 -3.45400 45.27300
C  30.39300 -4.91400 46.90800
C  29.12100 -2.03600 45.11000
O  30.13900 -1.48300 45.39400
C  28.03000 -1.49100 44.15100
C  27.67100 -0.07000 44.51300
O  26.97200 0.31600 45.45700
O  28.11400 0.80200 43.56900
C  27.81200 2.25400 43.70000
H  21.42900 -3.59800 42.99000
H  22.70700 -8.86500 46.28500
H  28.46200 -6.86100 47.70500
H  24.89800 -0.45200 43.64500
H  23.50500 -2.21700 41.62300
H  22.09100 -0.53700 43.84800
H  21.39300 -1.11900 42.40700
H  22.44700 0.24100 42.31400
H  26.61900 -0.30400 41.85200
H  25.18000 -0.52900 40.91800
H  26.31300 -3.20200 41.27100
H  27.46400 -1.91700 40.88300
H  19.97900 -5.02600 42.41600
H  19.17100 -4.72500 44.04700
H  18.97900 -6.20100 43.28900
H  19.51800 -10.11100 46.16200
H  20.55100 -8.94300 47.06100
H  21.19300 -9.96500 45.67400
H  25.17000 -9.83400 46.46400
H  26.12000 -8.31100 48.96600
H  23.64400 -10.77400 48.09600
H  23.15800 -9.29900 48.59900
H  24.66200 -9.84800 49.35900
H  28.35000 -9.00800 47.31700
H  27.36500 -10.42400 47.28100
H  28.06500 -11.19500 49.27200
H  27.65600 -9.52600 49.94300
H  29.19100 -9.85100 49.27400
H  30.76300 -5.45400 46.03700
H  30.52400 -5.56700 47.77100
H  30.96500 -4.00600 47.09900
H  28.33800 -1.53000 43.10600
H  27.59300 2.48700 44.74300
H  26.98200 2.59800 43.08200
H  28.58100 2.95700 43.38100
Mg 49.59200 35.52200 27.78700
C  47.31400 34.18900 30.32000
C  50.13000 38.20300 29.84600
C  51.30200 36.96900 25.29300
C  48.61300 32.96700 25.74100
N  48.80900 36.11300 29.87200
C  47.90100 35.44600 30.70300
C  47.63900 36.27400 31.95000
C  48.51800 37.55500 31.71700
C  49.18000 37.28400 30.44000
C  47.73900 38.93300 31.80200
C  47.99600 35.61300 33.30800
C  49.25000 34.69600 33.32300
H  50.55300 35.17700 33.96800
N  50.81100 37.22300 27.72300
C  50.92900 38.18700 28.67300
C  51.99200 39.16300 28.23600
C  52.38400 38.67800 26.99900
C  51.52100 37.52200 26.61600
C  52.47400 40.21700 29.23500
C  53.46800 39.29900 26.13400
O  53.75700 38.76500 25.08900
C  54.07300 40.71300 26.48500
N  49.98200 35.01300 25.76500
C  50.66100 35.78100 24.86600
C  50.85300 35.07900 23.48900
C  49.94500 33.81100 23.64000
C  49.46700 33.90700 25.12800
C  50.59900 36.00700 22.23700
C  50.60100 32.42700 23.29500
C  49.62500 31.61700 22.49900
N  48.26300 33.94600 27.97300
C  48.04800 32.88400 27.04700
C  47.11500 31.89200 27.55600
C  46.77100 32.40200 28.83200
C  47.50700 33.61500 29.08100
C  46.68300 30.63600 26.86700
C  45.90900 32.13600 29.96100
O  45.09400 31.24200 30.15400
C  46.07800 33.33000 30.88100
C  46.26600 32.88500 32.26300
O  47.18300 32.22300 32.70600
O  45.26600 33.34200 33.08700
C  45.21500 32.87600 34.47300
H  50.26300 39.13200 30.40500
H  51.73000 37.47400 24.42400
H  48.52800 32.04600 25.16100
H  46.57300 36.49500 31.89800
H  49.24200 37.63100 32.52800
H  47.52900 39.53200 30.91600
H  48.36800 39.58700 32.40500
H  46.81300 38.94500 32.37800
H  47.11700 35.07100 33.65600
H  48.10500 36.30800 34.14100
H  49.61500 34.29900 32.37600
H  49.08100 33.84100 33.97800
H  53.20700 39.69600 29.85100
H  51.61500 40.57200 29.80400
H  52.83400 41.10300 28.71000
H  53.30600 41.48400 26.41400
H  54.77500 40.92300 25.67700
H  54.54800 40.62500 27.46200
H  51.90200 34.80900 23.37100
H  49.05800 33.97200 23.02700
H  50.46200 37.07500 22.40500
H  49.74000 35.58600 21.71500
H  51.54800 35.97400 21.70200
H  50.82800 31.84300 24.18800
H  51.55200 32.51100 22.77000
H  48.71300 32.08800 22.13100
H  49.27900 30.65300 22.87100
H  50.08000 31.53400 21.51100
H  45.90500 30.86800 26.13900
H  46.31600 29.91500 27.59700
H  47.58000 30.23000 26.40000
H  45.22300 34.00300 30.81900
H  44.78600 31.87500 34.52000
H  44.73600 33.58600 35.14700
H  46.22100 32.74500 34.87100

