158

Mg 54.14600 23.12900 44.92200
C  51.70300 25.41100 43.61200
C  52.26000 20.55000 43.74200
C  56.66600 21.09700 45.36400
C  56.04700 25.89900 45.84600
N  52.16000 23.06900 43.76700
C  51.29400 24.09900 43.39600
C  50.24900 23.51500 42.50000
C  50.22500 22.03200 43.07500
C  51.65300 21.82900 43.47800
C  49.22600 21.91000 44.31800
C  50.46000 23.62400 40.93900
C  49.28100 24.10300 40.05900
H  49.02700 23.44900 38.62800
N  54.47000 21.05900 44.57000
C  53.52900 20.12700 44.16300
C  54.06900 18.78700 44.19800
C  55.44100 18.91000 44.53600
C  55.61200 20.37500 44.87400
C  53.32000 17.50500 43.84800
C  56.43600 17.85000 44.58000
O  56.18800 16.66400 44.35300
C  57.81800 18.11700 44.84400
N  56.16200 23.48900 45.32900
C  56.94800 22.43800 45.59600
C  58.31400 22.83400 46.16600
C  58.21000 24.38900 46.22600
C  56.69700 24.63100 45.83900
C  58.68700 22.23600 47.51900
C  59.25200 25.06500 45.28300
C  60.65400 25.34200 45.92400
N  53.92900 25.15000 44.91500
C  54.73600 26.16600 45.41400
C  54.08900 27.47600 45.29900
C  52.91400 27.19200 44.55000
C  52.84600 25.77700 44.36500
C  54.74100 28.83700 45.70000
C  51.75400 27.75400 43.88600
O  51.38200 28.95800 43.81100
C  50.92400 26.59700 43.26100
C  51.00900 26.93400 41.79400
O  52.01500 26.90000 41.05500
O  49.83400 27.47800 41.35200
C  49.81300 28.26700 40.12800
H  51.60100 19.74000 43.42200
H  57.58400 20.52800 45.52500
H  56.68600 26.74200 46.11500
H  49.29900 24.03100 42.63900
H  50.01800 21.24500 42.35000
H  48.75600 22.86700 44.54500
H  49.65400 21.56900 45.26000
H  48.40800 21.33100 43.89100
H  50.81000 22.66300 40.56300
H  51.27500 24.32100 40.74100
H  49.32100 25.17300 39.85300
H  48.41300 23.97200 40.70500
H  53.58400 17.25600 42.82000
H  52.25100 17.69000 43.95200
H  53.52600 16.65200 44.49600
H  58.10600 18.98300 44.24800
H  58.30100 17.19700 44.51400
H  57.94700 18.27000 45.91500
H  59.08800 22.46800 45.49200
H  58.30200 24.74900 47.25000
H  58.06000 21.41900 47.87600
H  58.55600 22.90300 48.37200
H  59.69000 21.81500 47.45700
H  58.74500 25.98100 44.98200
H  59.37600 24.48300 44.36900
H  61.46500 25.05400 45.25600
H  60.70200 24.80300 46.87000
H  60.76100 26.41600 46.08100
H  55.82600 28.83400 45.60100
H  54.37600 29.14200 46.68000
H  54.33200 29.59400 45.03100
H  49.90000 26.69600 43.62000
H  49.15100 29.13300 40.14800
H  49.36600 27.68600 39.32100
H  50.79600 28.64200 39.84300
Mg 48.38700 35.11400 26.93000
C  46.37400 33.69300 29.44000
C  49.09200 37.72000 29.06800
C  49.90000 36.60600 24.42200
C  47.29300 32.49600 24.70100
N  47.77600 35.61900 29.00700
C  47.00300 34.90000 29.88900
C  47.17300 35.43200 31.37100
C  47.53500 36.93500 30.99500
C  48.18800 36.78200 29.54800
C  46.38900 37.96100 31.01400
C  48.27500 34.67100 32.14500
C  47.92600 34.23800 33.52900
H  47.13400 35.20500 34.34400
N  49.33400 36.99100 26.76500
C  49.66000 37.84700 27.78300
C  50.52600 38.83100 27.23800
C  50.61500 38.68000 25.85300
C  49.92500 37.40100 25.63000
C  51.11200 39.88400 28.20300
C  51.33400 39.48800 24.78700
O  51.23300 39.28000 23.56500
C  52.13400 40.53700 25.16700
N  48.47000 34.66600 24.78000
C  49.23900 35.43400 23.97800
C  49.31400 34.87800 22.52400
C  48.74100 33.34700 22.76900
C  48.11600 33.51000 24.18000
C  48.70500 35.79300 21.44700
C  49.80000 32.18900 22.78500
C  49.44800 30.94000 21.99000
N  47.11900 33.44900 26.99400
C  46.82600 32.47000 26.01100
C  45.94200 31.56900 26.60800
C  45.73300 31.97300 27.93200
C  46.44600 33.15100 28.10300
C  45.41200 30.30100 25.89400
C  45.03600 31.67000 29.14000
O  44.17700 30.82900 29.38900
C  45.29200 32.91500 30.07800
C  45.64800 32.35500 31.43400
O  46.59900 31.65100 31.64700
O  44.57500 32.60000 32.27500
C  44.64000 31.88300 33.58200
H  49.45800 38.50500 29.73400
H  50.44000 37.08300 23.60100
H  47.19300 31.70600 23.95300
H  46.23700 35.24500 31.89700
H  48.31800 37.34900 31.63200
H  45.39900 37.59200 31.28000
H  46.41700 38.26200 29.96700
H  46.59600 38.79800 31.68000
H  49.22200 35.19300 32.27700
H  48.36200 33.71500 31.62800
H  48.92400 34.13300 33.95300
H  47.40900 33.28100 33.59800
H  52.08600 40.24600 27.87300
H  51.18300 39.37500 29.16500
H  50.42300 40.72500 28.27600
H  52.42900 41.02000 24.23600
H  53.00200 40.20000 25.73300
H  51.49000 41.24600 25.68800
H  50.36600 34.84500 22.24000
H  47.92000 33.05200 22.11600
H  48.06300 35.18900 20.80600
H  49.55000 36.20700 20.89700
H  48.05100 36.61100 21.74800
H  50.06800 31.95200 23.81500
H  50.68300 32.64400 22.33700
H  50.25100 30.92100 21.25400
H  48.46100 31.02400 21.53500
H  49.44600 30.07600 22.65500
H  45.32500 30.60500 24.85100
H  44.47800 29.91900 26.30500
H  46.17600 29.52900 25.98800
H  44.35600 33.46900 30.14900
H  45.47700 31.22600 33.81600
H  43.67300 31.40500 33.73700
H  44.61900 32.66000 34.34600

