158

Mg 46.28800 25.56100 28.08000
C  47.64800 27.39600 30.72600
C  45.48300 23.20900 30.55700
C  45.60600 23.35100 25.72600
C  48.00400 27.52200 25.85300
N  46.37300 25.43700 30.35400
C  46.83800 26.39300 31.21200
C  46.43800 26.18100 32.65200
C  45.90000 24.71200 32.68300
C  45.91000 24.38700 31.10900
C  46.48400 23.61600 33.53400
C  45.35500 27.19100 33.10800
C  44.62500 26.94000 34.45600
H  45.00200 27.83500 35.66900
N  45.57400 23.59100 28.12600
C  45.33200 22.76000 29.20300
C  44.78400 21.48800 28.79400
C  44.71000 21.55100 27.41000
C  45.29700 22.86900 27.03100
C  44.45500 20.27200 29.72800
C  44.29300 20.44900 26.47600
O  44.32600 20.48300 25.26500
C  43.75000 19.15600 27.06200
N  46.73500 25.47800 26.00800
C  46.15900 24.50100 25.23200
C  46.30400 24.97000 23.73800
C  47.00200 26.37200 23.79000
C  47.21100 26.51600 25.30300
C  46.83800 23.88700 22.73000
C  46.40400 27.62900 23.06800
C  46.13700 27.62500 21.61900
N  47.63400 27.11500 28.13500
C  48.30500 27.85800 27.17900
C  49.17500 28.83600 27.83100
C  48.85100 28.72900 29.19700
C  47.96400 27.62300 29.39100
C  49.98700 29.83900 27.16300
C  49.09100 29.30700 30.47400
O  49.80000 30.21100 30.84200
C  48.24200 28.57100 31.50900
C  49.08700 28.08700 32.63600
O  50.02700 27.30200 32.51100
O  48.71900 28.67300 33.79600
C  49.34100 28.17400 35.01100
H  45.10100 22.58400 31.36600
H  45.17400 22.63800 25.02000
H  48.53200 28.11400 25.10200
H  47.31400 26.19700 33.30000
H  44.83600 24.80100 32.90300
H  45.73700 23.25200 34.24000
H  47.19900 24.17900 34.13500
H  46.89300 22.74500 33.02100
H  44.60200 27.34800 32.33600
H  45.92600 28.11900 33.13200
H  44.95000 25.94400 34.75500
H  43.55300 26.87900 34.27000
H  43.49100 19.76400 29.75900
H  44.53900 20.62700 30.75500
H  45.19000 19.49900 29.50300
H  42.85300 19.47100 27.59500
H  44.49100 18.68900 27.71100
H  43.44200 18.39700 26.34300
H  45.30800 25.28800 23.42800
H  48.01600 26.21900 23.41800
H  46.73200 22.90900 23.20000
H  47.90100 24.07400 22.57900
H  46.31300 23.83900 21.77500
H  47.09100 28.45100 23.27100
H  45.43800 27.87000 23.51000
H  46.64100 26.67900 21.42300
H  46.65100 28.43000 21.09300
H  45.08300 27.56100 21.34900
H  50.11000 29.68200 26.09100
H  51.00900 29.81800 27.53900
H  49.56900 30.83900 27.28200
H  47.45900 29.24300 31.86000
H  49.65000 29.09600 35.50500
H  50.24500 27.58200 34.87300
H  48.58400 27.72400 35.65300
Mg -4.24000 25.52700 26.89100
C  -2.94000 27.01500 29.76700
C  -6.24400 23.53700 28.84400
C  -4.84600 23.70900 24.04300
C  -1.91400 27.30200 25.04400
N  -4.56200 25.33700 29.12100
C  -3.87000 25.97600 30.13400
C  -4.49200 25.61700 31.53400
C  -5.35100 24.29600 31.20900
C  -5.40700 24.35500 29.65400
C  -4.67100 22.91100 31.71200
C  -5.45500 26.80000 32.01200
C  -5.60400 26.91300 33.54800
H  -5.31200 25.75400 34.59500
N  -5.41400 24.04200 26.51400
C  -6.22700 23.36800 27.43800
C  -7.16600 22.72600 26.63700
C  -6.84300 22.72600 25.29900
C  -5.60500 23.52300 25.23000
C  -8.20700 21.84200 27.27700
C  -7.57500 22.10700 24.13600
O  -7.25500 22.23100 23.01900
C  -8.91300 21.28600 24.29700
N  -3.45500 25.46800 24.88700
C  -3.77800 24.63900 23.89200
C  -2.94000 24.84700 22.59200
C  -2.18000 26.20300 22.88200
C  -2.54000 26.34500 24.38500
C  -1.99000 23.73800 22.20300
C  -2.79300 27.36700 22.02200
C  -1.95200 28.46100 21.48400
N  -2.78900 26.92500 27.25400
C  -1.99700 27.63700 26.43000
C  -1.25400 28.61700 27.12800
C  -1.54700 28.34200 28.44600
C  -2.51600 27.33900 28.48000
C  -0.27700 29.52800 26.54200
C  -1.37000 28.79300 29.79700
O  -0.61600 29.69900 30.18200
C  -2.18300 27.89400 30.74100
C  -1.42400 27.39300 31.83900
O  -0.42800 26.65200 31.83500
O  -1.94900 27.84500 33.00700
C  -1.44900 27.19500 34.22400
H  -6.75200 22.84300 29.51700
H  -5.02600 23.05800 23.18600
H  -1.14400 27.86500 24.51100
H  -3.68100 25.25900 32.16900
H  -6.33900 24.34300 31.66500
H  -4.23700 22.92800 32.71200
H  -3.92600 22.57800 30.98900
H  -5.39000 22.09200 31.69600
H  -6.46700 26.70800 31.61700
H  -5.15000 27.78100 31.64900
H  -6.60000 27.30900 33.75000
H  -4.95000 27.72300 33.87200
H  -7.88300 20.83100 27.02900
H  -9.13700 22.04500 26.74600
H  -8.35500 22.05100 28.33600
H  -9.74900 21.88800 24.65400
H  -8.74000 20.50500 25.03700
H  -9.16600 20.83200 23.33900
H  -3.68400 24.92400 21.79900
H  -1.09100 26.14900 22.87000
H  -1.01400 24.17700 22.41000
H  -2.12000 23.55300 21.13700
H  -2.17300 22.92400 22.90400
H  -3.66000 27.80400 22.51700
H  -3.19600 26.89700 21.12500
H  -0.92400 28.24800 21.77900
H  -2.16900 29.49400 21.75700
H  -1.91300 28.39700 20.39700
H  -0.36400 29.60800 25.45900
H  0.72800 29.22900 26.84100
H  -0.41100 30.52600 26.95900
H  -2.87800 28.63000 31.14500
H  -0.39400 27.39800 34.41000
H  -1.67600 26.13400 34.12500
H  -1.94700 27.62200 35.09500

