158

Mg 40.77500 7.90100 29.70300
C  42.42400 9.40900 32.53300
C  38.43900 6.81400 31.93100
C  39.38900 6.35000 27.06600
C  43.56100 8.89100 27.71600
N  40.56600 8.11400 31.96500
C  41.18800 8.80100 32.88400
C  40.48700 8.84300 34.23100
C  39.28400 7.96300 34.01200
C  39.48300 7.50400 32.57900
C  39.21900 6.69900 34.98400
C  40.05400 10.30000 34.59600
C  39.31200 10.48900 35.87400
H  40.01600 11.25800 36.98900
N  39.11100 6.76200 29.54500
C  38.29100 6.42600 30.55700
C  37.10500 5.68000 29.95700
C  37.40700 5.52300 28.55800
C  38.71300 6.22300 28.33800
C  35.93000 5.23300 30.87600
C  36.64300 4.76300 27.51500
O  37.13100 4.35200 26.50900
C  35.24200 4.35100 27.87700
N  41.45700 7.60800 27.73100
C  40.65900 6.90900 26.80500
C  41.39700 6.81100 25.44800
C  42.62500 7.84500 25.64700
C  42.59200 8.06600 27.17600
C  41.85000 5.32200 25.05500
C  42.63800 9.13900 24.80200
C  41.37400 10.06800 24.81800
N  42.50900 8.93900 29.89700
C  43.53400 9.26500 29.01500
C  44.50900 10.06500 29.67100
C  44.14300 10.17000 31.03800
C  42.89800 9.50000 31.13800
C  45.89500 10.55400 29.08200
C  44.49700 10.69800 32.34800
O  45.38100 11.45000 32.60600
C  43.35400 10.29200 33.34200
C  43.83200 9.73500 34.58000
O  44.28200 8.60600 34.61400
O  43.71300 10.62400 35.65300
C  43.72700 9.99600 36.96800
H  37.71600 6.51200 32.69200
H  38.79700 5.94700 26.24100
H  44.25100 9.41400 27.05000
H  41.17400 8.51200 35.00900
H  38.35000 8.52600 34.02600
H  39.83900 6.92500 35.85200
H  39.68100 5.89500 34.41100
H  38.19100 6.66800 35.34500
H  39.38800 10.68200 33.82200
H  40.89800 10.99000 34.58700
H  38.90200 9.65200 36.43800
H  38.46000 11.15500 35.73500
H  34.95300 5.60100 30.56100
H  36.10200 5.59900 31.88800
H  35.89900 4.14400 30.85200
H  34.69200 5.23300 28.20500
H  35.38400 3.73200 28.76300
H  34.74300 3.88000 27.02900
H  40.79200 7.08400 24.58400
H  43.52400 7.40300 25.21800
H  41.54800 5.20200 24.01500
H  41.38700 4.63400 25.76300
H  42.92700 5.22200 25.18900
H  42.67200 8.85000 23.75100
H  43.61000 9.59500 24.98900
H  40.65700 9.67600 25.53900
H  40.82400 10.04700 23.87700
H  41.78800 11.06300 24.97700
H  46.34300 9.90100 28.33300
H  46.57400 10.62200 29.93200
H  45.82800 11.54600 28.63600
H  42.91800 11.25900 33.59200
H  44.43500 9.18600 37.13900
H  42.72000 9.61700 37.14200
H  43.97600 10.73400 37.73100
Mg 47.21700 24.54500 28.58600
C  47.81000 26.76400 31.33300
C  46.53400 22.11500 30.76500
C  46.68800 22.56500 25.92800
C  48.50800 27.02700 26.43600
N  47.33700 24.42500 30.82200
C  47.51800 25.43700 31.74200
C  47.29000 24.95800 33.18600
C  46.66900 23.53300 32.92700
C  46.85400 23.33100 31.42600
C  47.24100 22.39800 33.80600
C  46.40000 25.92700 34.01000
C  45.41800 25.51300 35.11900
H  45.51800 26.36500 36.46300
N  46.66500 22.60600 28.38300
C  46.36600 21.69300 29.41300
C  45.88900 20.41800 28.90600
C  46.03900 20.52700 27.46600
C  46.47400 21.98400 27.20200
C  45.39200 19.31400 29.85400
C  45.85500 19.50700 26.41700
O  45.68800 19.74500 25.21700
C  45.58000 18.09800 26.84600
N  47.65100 24.73300 26.47900
C  47.27500 23.78000 25.54100
C  47.63700 24.14500 24.14100
C  47.88600 25.64400 24.34400
C  48.13100 25.83000 25.84200
C  48.80900 23.39400 23.56400
C  46.76400 26.60600 23.90600
C  45.29700 26.23600 24.36400
N  47.95200 26.48100 28.76300
C  48.41800 27.36900 27.82100
C  48.98200 28.55700 28.47900
C  48.64900 28.39400 29.83100
C  48.07200 27.11200 29.95300
C  49.62000 29.80300 27.83300
C  48.59700 29.01400 31.05100
O  48.95600 30.13500 31.41100
C  48.08000 28.04800 32.08100
C  48.87600 27.96900 33.28500
O  49.86600 27.28500 33.50500
O  48.34700 28.90300 34.18100
C  48.90400 28.88400 35.48500
H  46.30100 21.25700 31.40000
H  46.60300 21.82900 25.12600
H  48.94600 27.79000 25.78900
H  48.21300 24.85400 33.75600
H  45.59900 23.69600 33.05200
H  46.47900 21.75700 34.25000
H  47.84300 22.87200 34.58200
H  47.80500 21.70100 33.18500
H  45.82200 26.54000 33.31800
H  47.09600 26.51800 34.60500
H  45.35300 24.44800 35.34300
H  44.45400 25.75500 34.67200
H  44.42200 18.99500 29.47200
H  45.38400 19.57500 30.91200
H  46.08700 18.47500 29.83100
H  46.23600 17.82300 27.67200
H  45.71600 17.26800 26.15300
H  44.52400 18.09900 27.11600
H  46.75500 23.92600 23.53900
H  48.69800 26.01200 23.71800
H  49.74700 23.94800 23.56400
H  48.67800 23.02300 22.54800
H  48.91500 22.49300 24.16800
H  46.70300 26.59800 22.81800
H  46.92200 27.64700 24.19100
H  44.83800 25.78300 23.48500
H  44.81600 27.17500 24.63500
H  45.33900 25.61000 25.25500
H  48.96900 30.62300 27.53000
H  50.20600 29.52300 26.95700
H  50.32500 30.26600 28.52400
H  47.10200 28.38800 32.42100
H  48.59300 28.11400 36.19100
H  48.67200 29.84000 35.95300
H  49.99300 28.83900 35.49800

