158

Mg 5.59200 54.55400 40.99700
C  5.42100 51.00900 41.25100
C  8.90000 54.19000 39.73700
C  5.60100 57.71000 40.25500
C  2.36300 54.75700 42.18400
N  6.93700 52.73100 40.39000
C  6.61800 51.39400 40.65100
C  7.87300 50.55900 40.35200
C  9.03800 51.59100 40.21000
C  8.23700 52.96700 40.08600
C  10.17500 51.70000 41.33500
C  7.83300 49.56000 39.10800
C  6.77600 49.80500 37.97900
H  7.32200 50.49600 36.79900
N  7.05200 55.75400 40.06000
C  8.36200 55.50200 39.71100
C  8.95200 56.72700 39.22400
C  7.98500 57.70500 39.19900
C  6.77100 57.07600 39.80400
C  10.41800 56.82200 38.75300
C  8.18700 59.06900 38.65900
O  9.28500 59.40700 38.24300
C  6.94500 60.08200 38.38300
N  4.10100 56.01900 41.06200
C  4.45800 57.28800 40.96500
C  3.37700 58.30600 41.39500
C  2.26100 57.29500 41.97400
C  2.92900 55.93600 41.72600
C  3.85000 59.32200 42.47400
C  0.84800 57.39500 41.23700
C  -0.36900 57.32700 42.20200
N  4.16100 53.23900 41.60200
C  2.91900 53.45300 42.19100
C  2.35800 52.17600 42.71400
C  3.31600 51.22100 42.40200
C  4.37100 51.87300 41.69400
C  1.16200 51.96000 43.55800
C  3.69500 49.82000 42.51100
O  3.20800 48.90400 43.10800
C  5.05700 49.61500 41.70600
C  4.70800 48.67200 40.62800
O  4.06000 49.03100 39.64300
O  5.23700 47.43900 40.87800
C  5.06800 46.47100 39.79000
H  9.88400 54.08600 39.27400
H  5.65800 58.80000 40.24700
H  1.33900 54.62400 42.54000
H  8.08900 49.96700 41.24200
H  9.59800 51.42900 39.28900
H  10.07600 50.78300 41.91600
H  9.97100 52.58700 41.93500
H  11.16300 51.78700 40.88100
H  7.65000 48.59500 39.58000
H  8.77100 49.37300 38.58600
H  5.96100 50.45800 38.29000
H  6.29200 48.86000 37.73200
H  10.94800 55.87400 38.66700
H  11.07500 57.45700 39.34900
H  10.45800 57.16100 37.71700
H  6.05400 59.49900 38.14700
H  7.28400 60.66600 37.52800
H  6.66300 60.64800 39.27000
H  3.12700 58.83100 40.47300
H  2.20600 57.49000 43.04500
H  3.67600 59.01000 43.50400
H  3.32700 60.27200 42.36000
H  4.91000 59.55400 42.37100
H  0.86000 56.58800 40.50600
H  0.80600 58.37400 40.75900
H  -0.88100 58.28900 42.18000
H  -0.12500 57.21900 43.25900
H  -1.10700 56.57600 41.91900
H  0.88700 50.90900 43.46400
H  0.30500 52.58800 43.31800
H  1.36800 52.13400 44.61500
H  5.80700 49.12200 42.32600
H  5.62100 45.55000 39.97300
H  5.48900 46.85200 38.86000
H  4.01600 46.19500 39.73100
Mg 0.91200 43.62200 25.91900
C  3.08600 43.24300 28.70100
C  -1.79300 42.93200 28.15000
C  -1.20200 43.52400 23.32400
C  3.57500 43.74200 23.83300
N  0.65800 43.19700 28.23900
C  1.67600 43.20000 29.14200
C  1.19200 43.10500 30.55200
C  -0.34200 42.75600 30.35400
C  -0.52300 42.94900 28.82200
C  -0.83000 41.34800 30.85100
C  1.48900 44.36500 31.42100
C  1.66800 44.22000 32.90700
H  1.04200 43.01300 33.65000
N  -1.23600 43.36300 25.79200
C  -2.16000 43.19700 26.81500
C  -3.47900 43.18600 26.24000
C  -3.31500 43.25500 24.84200
C  -1.88900 43.36100 24.57700
C  -4.69500 42.96800 27.08800
C  -4.41700 43.22300 23.75900
O  -4.18900 43.11600 22.52500
C  -5.85700 43.35500 24.22500
N  1.10300 43.49200 23.87300
C  0.13200 43.67700 22.98800
C  0.67800 43.85100 21.58200
C  2.17500 44.23300 21.78200
C  2.29500 43.84500 23.24300
C  0.42700 42.62100 20.81100
C  2.49600 45.77000 21.55200
C  3.82500 46.07400 20.81100
N  2.86500 43.40900 26.12900
C  3.84900 43.42900 25.18500
C  5.20200 43.39600 25.83300
C  4.95500 43.30300 27.16000
C  3.50600 43.37700 27.35000
C  6.50100 43.46300 25.12400
C  5.56600 43.21600 28.43600
O  6.74500 43.09800 28.77700
C  4.44800 43.26300 29.40900
C  4.56000 42.04700 30.25200
O  4.19900 40.93400 29.93600
O  5.13800 42.39000 31.44200
C  5.10400 41.35900 32.57900
H  -2.60200 42.59800 28.80400
H  -1.81600 43.49200 22.42100
H  4.44300 44.00500 23.22400
H  1.78100 42.26800 30.92700
H  -0.94900 43.56800 30.75400
H  -0.11400 40.59400 31.17700
H  -1.29400 40.91000 29.96700
H  -1.62700 41.64400 31.53300
H  0.79700 45.17600 31.19400
H  2.46700 44.75400 31.14000
H  1.27100 45.09400 33.42400
H  2.72300 44.29000 33.17200
H  -5.23600 43.86500 27.38800
H  -4.46600 42.46000 28.02400
H  -5.33200 42.27200 26.54200
H  -6.19700 42.41000 24.64900
H  -6.28300 43.55400 23.24200
H  -5.98600 44.29900 24.75600
H  0.16400 44.69600 21.12400
H  2.85200 43.68300 21.12800
H  -0.18800 41.87600 21.31700
H  1.35800 42.05500 20.82300
H  -0.02100 42.75900 19.82700
H  2.67000 46.24000 22.51900
H  1.66600 46.26900 21.05200
H  4.58100 46.53000 21.45000
H  3.65400 46.77100 19.99000
H  4.17700 45.24500 20.19800
H  6.60800 42.77300 24.28700
H  7.26900 43.04100 25.77100
H  6.77900 44.45400 24.76400
H  4.33300 44.14300 30.04200
H  4.86700 41.81800 33.53900
H  6.07000 40.93600 32.85700
H  4.47500 40.48800 32.39500

