158

Mg 46.84200 24.91600 28.83600
C  47.32200 27.14600 31.38300
C  45.61500 22.54800 30.93900
C  46.88400 22.68000 26.34200
C  47.88600 27.41900 26.71100
N  46.47600 24.93700 30.88000
C  46.84600 25.85700 31.76800
C  46.44600 25.41200 33.16300
C  46.09200 23.98800 33.01400
C  45.98600 23.80800 31.45800
C  46.96700 22.92000 33.70900
C  45.39300 26.31700 33.81800
C  45.85200 26.95100 35.15000
H  44.87700 27.10300 36.31800
N  46.31000 22.86000 28.65200
C  45.64900 22.08400 29.64800
C  45.28300 20.75700 29.19300
C  45.71900 20.83500 27.77700
C  46.26100 22.16000 27.46800
C  44.74000 19.64700 30.12100
C  45.52600 19.77000 26.67600
O  45.84000 19.98400 25.55400
C  44.80600 18.42100 27.07400
N  47.53000 24.95900 26.85900
C  47.39100 23.94800 26.00500
C  48.01500 24.29800 24.63800
C  47.77900 25.83300 24.63700
C  47.60400 26.14300 26.13700
C  49.46100 23.89500 24.47800
C  46.57700 26.43400 23.82900
C  45.24400 26.59000 24.57400
N  47.60400 26.91900 28.99100
C  47.85000 27.83900 28.00800
C  48.28900 29.04300 28.65000
C  47.99900 28.88500 29.96300
C  47.61200 27.61900 30.09000
C  48.81900 30.29300 27.99300
C  47.98000 29.48400 31.31500
O  48.24200 30.61300 31.74000
C  47.72700 28.26700 32.33500
C  49.00700 28.06000 33.03900
O  50.05100 27.69900 32.51500
O  48.84900 28.36700 34.35500
C  49.97200 28.25600 35.25400
H  45.24200 21.94800 31.77200
H  46.94200 22.06700 25.44000
H  48.08300 28.24700 26.02700
H  47.31300 25.53400 33.81200
H  45.06900 23.81100 33.34500
H  47.17400 22.02100 33.12800
H  46.26800 22.72100 34.52100
H  47.90900 23.40600 33.96400
H  44.42300 25.85200 33.99500
H  45.19900 27.14100 33.13200
H  46.30200 27.91600 34.91700
H  46.62100 26.29000 35.54800
H  44.48500 20.13900 31.05900
H  45.45200 18.84900 30.33300
H  43.80900 19.31800 29.66000
H  43.99500 18.66400 27.76100
H  45.42900 17.84300 27.75700
H  44.40000 17.85200 26.23700
H  47.47300 23.93400 23.76400
H  48.63900 26.33700 24.19600
H  50.06100 24.80200 24.55600
H  49.76900 23.45800 23.52800
H  49.74600 23.19700 25.26600
H  46.35100 25.74800 23.01300
H  46.92800 27.44200 23.60600
H  45.23800 27.48400 25.19700
H  45.03400 25.77600 25.26700
H  44.39700 26.63400 23.89000
H  48.28100 31.10600 28.48000
H  48.71200 30.25200 26.90900
H  49.89700 30.29400 28.15800
H  46.97500 28.48000 33.09500
H  50.19700 29.22200 35.70700
H  50.89100 27.83500 34.84800
H  49.75000 27.61000 36.10300
Mg 16.42700 51.85700 25.42300
C  18.24300 50.82900 28.34500
C  13.68100 52.37900 27.46800
C  14.64500 52.20700 22.71100
C  19.18900 50.72000 23.58800
N  16.05300 51.64900 27.66700
C  16.98800 51.32400 28.65100
C  16.34500 51.54900 30.00200
C  14.83600 51.84000 29.66100
C  14.82300 51.90900 28.17000
C  13.78100 50.76600 30.15300
C  16.99800 52.69200 30.77500
C  17.58000 52.48800 32.18500
H  16.88400 51.39800 33.04200
N  14.37800 52.29300 25.10000
C  13.43500 52.51000 26.09300
C  12.16800 52.76800 25.35100
C  12.39400 52.82300 23.93700
C  13.83900 52.36900 23.86400
C  10.91200 53.08900 26.18200
C  11.48000 53.21100 22.84800
O  11.73700 53.19300 21.61700
C  10.16000 53.68800 23.20500
N  16.91500 51.55400 23.50300
C  15.92200 51.68900 22.56400
C  16.45400 51.23800 21.18100
C  18.00400 51.12000 21.35500
C  18.05300 51.13100 22.88900
C  15.73800 49.91200 20.69900
C  18.80800 52.23500 20.59600
C  19.83000 51.86600 19.54000
N  18.32900 51.06300 25.84500
C  19.30700 50.66400 24.96000
C  20.43800 50.15800 25.69300
C  20.09200 50.24500 27.04700
C  18.79200 50.75200 27.04400
C  21.74800 49.78100 25.12300
C  20.50200 49.99800 28.39200
O  21.57000 49.51300 28.81100
C  19.29500 50.40400 29.33600
C  18.90000 49.27300 30.09800
O  17.98000 48.53000 29.75600
O  19.65300 49.22100 31.27000
C  19.48200 48.02100 32.13500
H  12.78400 52.48100 28.08300
H  13.99600 52.47600 21.87500
H  20.00300 50.44900 22.91200
H  16.39600 50.61400 30.56100
H  14.51800 52.77700 30.11800
H  13.34900 51.08900 31.10000
H  14.39000 49.90300 30.42100
H  12.90700 50.59000 29.52600
H  16.25100 53.48100 30.86600
H  17.89100 53.11600 30.31600
H  17.50900 53.39700 32.78300
H  18.63900 52.24400 32.25800
H  10.86800 54.02300 26.74300
H  10.88500 52.22200 26.84200
H  9.98800 52.94800 25.62100
H  10.16500 54.50300 23.92900
H  9.60100 52.82100 23.55600
H  9.70200 54.03400 22.27900
H  16.21000 52.10400 20.56600
H  18.25700 50.09500 21.08400
H  15.42900 49.32500 21.56400
H  16.38900 49.21500 20.17000
H  14.90800 50.29400 20.10400
H  19.39900 52.71900 21.37300
H  18.28200 53.06500 20.12500
H  19.82200 50.79400 19.34200
H  20.83400 52.22900 19.76000
H  19.58000 52.37700 18.61100
H  22.04000 48.75500 25.34600
H  22.61300 50.32800 25.50200
H  21.71300 49.92400 24.04300
H  19.70500 51.16300 30.00200
H  18.93000 47.29300 31.54000
H  18.87700 48.28300 33.00300
H  20.41700 47.62300 32.52800

