158

Mg 0.62700 7.65900 27.00600
C  1.27600 9.78700 29.63400
C  0.69000 4.94700 29.24700
C  0.16800 5.52600 24.44100
C  1.35200 10.24500 24.75900
N  0.87700 7.40100 29.14700
C  1.09200 8.42400 30.00800
C  1.52200 7.94200 31.43300
C  1.27500 6.37200 31.31700
C  0.97800 6.16300 29.81600
C  2.24800 5.36700 31.92200
C  0.64400 8.58400 32.64400
C  1.16700 8.52300 34.01900
H  0.21800 8.03500 35.13200
N  0.48000 5.46400 26.79900
C  0.55600 4.61900 27.89200
C  0.23100 3.27000 27.36900
C  -0.04600 3.41200 25.93500
C  0.15900 4.85300 25.67200
C  0.32200 2.03600 28.23600
C  -0.41200 2.35600 24.91700
O  -0.55100 2.58300 23.70200
C  -0.71000 0.97600 25.40100
N  0.80500 7.83700 24.87900
C  0.42000 6.81500 24.10800
C  0.28700 7.24900 22.61800
C  0.50600 8.87000 22.77100
C  0.89000 9.02500 24.18200
C  1.37300 6.59800 21.73400
C  -0.79500 9.57500 22.33100
C  -0.58500 10.67200 21.23200
N  1.01600 9.68400 27.06800
C  1.37100 10.64700 26.12100
C  1.68900 11.89600 26.68800
C  1.70100 11.59100 28.08900
C  1.26800 10.24800 28.21600
C  2.00300 13.19200 25.97000
C  2.06300 12.15300 29.39000
O  2.53200 13.18800 29.75400
C  1.67600 10.96000 30.40600
C  2.81600 10.71600 31.35800
O  3.87200 10.12700 31.06000
O  2.74500 11.58400 32.40900
C  3.92600 11.89600 33.22700
H  0.44800 4.07300 29.85500
H  0.09900 4.82900 23.60300
H  1.49100 11.05300 24.03900
H  2.58500 7.86900 31.66400
H  0.33100 6.03500 31.74500
H  2.89000 5.12400 31.07500
H  1.63400 4.55800 32.31600
H  2.88800 5.90900 32.61800
H  -0.32000 8.07600 32.67500
H  0.42000 9.62200 32.39400
H  1.51400 9.50800 34.33300
H  1.99300 7.81300 34.02000
H  -0.66200 1.57300 28.15600
H  0.58500 2.17800 29.28400
H  1.07100 1.37000 27.80700
H  0.23600 0.46000 25.56100
H  -1.16300 0.46500 24.55100
H  -1.43700 0.87100 26.20600
H  -0.70800 6.99700 22.25000
H  1.38300 9.18500 22.20600
H  1.82300 5.81500 22.34400
H  2.08700 7.40100 21.54900
H  0.95100 6.32000 20.76900
H  -1.28200 10.06500 23.17500
H  -1.54500 8.84100 22.03600
H  -1.38500 10.40500 20.54100
H  0.40100 10.58400 20.77700
H  -0.70900 11.66100 21.67400
H  2.21600 12.96800 24.92400
H  2.75600 13.73100 26.54300
H  1.03400 13.68300 26.06300
H  0.82800 11.36200 30.96100
H  3.84200 12.90600 33.62800
H  4.85000 11.73700 32.67100
H  3.77800 11.15300 34.01100
Mg 24.49700 -4.40700 45.34700
C  26.79400 -2.04500 44.10100
C  22.11200 -3.14800 43.53600
C  22.75700 -7.25900 46.02000
C  27.29200 -5.85700 47.10300
N  24.43300 -2.73300 43.99300
C  25.44900 -1.90900 43.64300
C  25.01600 -1.00400 42.53500
C  23.43900 -1.10200 42.64100
C  23.23500 -2.34600 43.42600
C  22.62000 0.17300 43.16700
C  25.61900 -1.50600 41.13600
C  26.31500 -0.47100 40.17000
H  26.17700 -0.80400 38.64700
N  22.56900 -5.05900 44.89800
C  21.75100 -4.36300 44.09300
C  20.48600 -4.99600 44.08800
C  20.66900 -6.31800 44.62200
C  22.08600 -6.25400 45.24100
C  19.25300 -4.44000 43.67400
C  19.64400 -7.41700 44.80900
O  18.53700 -7.30600 44.40700
C  19.95400 -8.84300 45.26200
N  25.05700 -6.40000 46.34900
C  24.07400 -7.31700 46.57000
C  24.61700 -8.48600 47.32900
C  25.93700 -7.92700 47.88900
C  26.15000 -6.62500 47.14500
C  23.71300 -9.26100 48.40100
C  27.12200 -8.86800 47.72700
C  28.33800 -8.76900 48.66900
N  26.61000 -4.02200 45.59400
C  27.56600 -4.68100 46.37000
C  28.83700 -3.91900 46.22800
C  28.54600 -2.88500 45.37600
C  27.19300 -2.96200 45.11500
C  30.16700 -4.35200 46.76300
C  29.16300 -1.68600 44.80900
O  30.27700 -1.17700 44.99400
C  27.97800 -1.12400 43.88900
C  27.83100 0.29700 44.47400
O  27.25900 0.64500 45.48200
O  28.25500 1.13100 43.44500
C  27.64100 2.46400 43.47900
H  21.30300 -2.69200 42.96100
H  22.17100 -8.14800 46.26400
H  28.15900 -6.31300 47.58500
H  25.32900 -0.00500 42.83800
H  23.05300 -1.29600 41.64100
H  21.67200 0.37000 42.66600
H  23.33100 0.99800 43.11900
H  22.29600 -0.06100 44.18100
H  24.79700 -1.91800 40.55100
H  26.34300 -2.30400 41.30100
H  27.37600 -0.35000 40.38800
H  25.95300 0.54200 40.34900
H  19.35300 -3.46800 43.19100
H  18.58600 -4.30000 44.52500
H  18.83500 -5.08000 42.89600
H  20.89400 -9.25900 44.90100
H  19.18300 -9.57100 45.01100
H  19.96400 -9.00300 46.34000
H  24.89900 -9.21900 46.57200
H  25.81300 -7.64900 48.93600
H  23.41300 -10.24600 48.04500
H  22.84400 -8.60500 48.43900
H  24.07400 -9.26700 49.43000
H  27.44300 -8.71800 46.69600
H  26.60400 -9.82000 47.84800
H  28.58700 -9.74200 49.09100
H  28.11100 -8.02800 49.43600
H  29.19300 -8.27100 48.21200
H  30.72700 -5.00600 46.09500
H  29.99000 -5.09300 47.54200
H  30.82100 -3.50300 46.96600
H  28.17500 -1.02100 42.82200
H  27.66700 2.99700 42.52900
H  28.09200 3.05500 44.27600
H  26.59300 2.35400 43.76000

