158

Mg -1.67400 17.53500 26.29600
C  -1.78700 15.16800 28.84200
C  -2.39200 19.95000 28.69900
C  -2.02000 19.84600 23.86600
C  -1.68100 14.90700 23.98300
N  -2.17300 17.50300 28.39800
C  -1.92400 16.47400 29.28900
C  -2.35200 16.84000 30.71700
C  -2.79000 18.33900 30.60500
C  -2.45100 18.62200 29.11100
C  -4.31900 18.63700 30.83100
C  -1.42600 16.59900 31.89300
C  -2.22800 15.97100 33.05400
H  -1.32800 15.38100 34.13500
N  -2.02100 19.66600 26.27100
C  -2.23500 20.44200 27.35600
C  -2.28600 21.83800 26.95200
C  -2.15900 21.80500 25.53300
C  -2.15000 20.41100 25.16600
C  -2.47200 22.97000 27.86600
C  -2.04600 22.89900 24.58800
O  -2.08300 22.76800 23.41600
C  -1.62700 24.35000 25.09500
N  -2.06900 17.36400 24.21900
C  -1.98800 18.49700 23.47800
C  -1.80700 18.15000 21.98800
C  -1.54500 16.61100 22.00100
C  -1.75600 16.26900 23.48100
C  -3.09900 18.57300 21.19500
C  -0.14300 16.28400 21.45700
C  -0.06100 15.50900 20.14200
N  -1.70500 15.45700 26.34700
C  -1.69800 14.51700 25.34100
C  -1.61900 13.25000 25.94000
C  -1.60600 13.46000 27.32100
C  -1.67400 14.80000 27.52900
C  -1.53300 11.95300 25.17400
C  -1.44000 12.84700 28.56900
O  -1.33200 11.63700 28.86700
C  -1.66200 13.86600 29.63300
C  -0.43500 13.79500 30.49500
O  0.65700 14.27600 30.25300
O  -0.73100 12.99900 31.56000
C  0.35700 12.77500 32.60200
H  -2.45700 20.70800 29.48300
H  -2.00100 20.51600 23.00400
H  -1.67300 14.00400 23.36800
H  -3.31300 16.36700 30.92000
H  -2.18700 19.00300 31.22400
H  -4.89600 17.83000 31.28100
H  -4.77600 18.97900 29.90200
H  -4.35700 19.55400 31.41900
H  -1.13100 17.58500 32.25200
H  -0.53800 16.07000 31.54800
H  -2.95900 15.19800 32.81700
H  -2.74900 16.85000 33.43400
H  -2.81400 22.65800 28.85300
H  -3.18600 23.71100 27.50700
H  -1.50900 23.43300 28.08300
H  -0.61200 24.36800 25.49200
H  -2.31600 24.81300 25.80100
H  -1.60600 25.10800 24.31200
H  -1.00300 18.77600 21.60100
H  -2.30800 16.08000 21.43000
H  -3.76800 19.09100 21.88300
H  -3.54600 17.76000 20.62200
H  -2.87900 19.37600 20.49300
H  0.36900 15.62400 22.15800
H  0.45800 17.17600 21.28100
H  0.51300 16.01800 19.36700
H  -1.04000 15.29700 19.71300
H  0.51100 14.61200 20.38000
H  -0.61900 11.39400 25.37600
H  -1.58200 12.05900 24.09100
H  -2.40300 11.38600 25.50600
H  -2.48300 13.52300 30.26200
H  -0.07800 12.77600 33.60100
H  1.06200 13.60600 32.62300
H  1.00000 11.91700 32.40500
Mg 47.79400 14.61800 28.85400
C  45.67200 14.63400 31.59200
C  49.93300 16.80600 30.68000
C  49.34800 15.63000 26.02800
C  45.32200 12.93400 27.00300
N  47.77000 15.64700 30.91500
C  46.86700 15.38900 31.89300
C  47.32700 15.98400 33.18300
C  48.50100 16.91300 32.78500
C  48.71600 16.52000 31.34100
C  48.25600 18.49700 32.98100
C  47.66500 14.98100 34.36000
C  46.96200 15.25300 35.70700
H  47.46700 16.46700 36.51600
N  49.49600 15.94700 28.36300
C  50.24700 16.60000 29.33400
C  51.38100 17.19100 28.62800
C  51.24000 16.97900 27.19800
C  50.01600 16.14200 27.08700
C  52.51600 17.95500 29.39700
C  52.10700 17.46800 26.06700
O  51.90500 17.26700 24.89100
C  53.38800 18.26800 26.29200
N  47.42700 14.34600 26.84500
C  48.19900 14.89800 25.89200
C  47.81000 14.30100 24.51700
C  46.70400 13.25400 24.92700
C  46.44000 13.47300 26.35400
C  47.42200 15.46000 23.46100
C  47.12800 11.74000 24.68800
C  47.89300 11.10300 25.85200
N  45.85700 13.95800 29.13700
C  44.94300 13.25400 28.29200
C  43.76600 12.85700 29.09700
C  44.00700 13.36400 30.39500
C  45.28700 14.02500 30.38100
C  42.65200 12.04100 28.69500
C  43.39400 13.60600 31.67800
O  42.35900 13.27800 32.22000
C  44.56200 14.28800 32.54100
C  44.00800 15.40200 33.25300
O  43.98700 16.58500 32.85000
O  43.48400 15.01800 34.42200
C  42.44100 16.02000 34.97400
H  50.67200 17.37300 31.24900
H  49.78400 15.97700 25.08900
H  44.59000 12.29400 26.50700
H  46.46600 16.53900 33.55600
H  49.43600 16.71500 33.30900
H  48.95100 18.95500 33.68500
H  47.26100 18.59100 33.41600
H  48.33800 19.04800 32.04500
H  48.74300 14.96600 34.52500
H  47.42800 13.93400 34.17100
H  47.24900 14.39000 36.30700
H  45.88600 15.39100 35.59500
H  52.58400 18.91000 28.87800
H  53.43600 17.37900 29.29200
H  52.35300 18.25200 30.43300
H  53.25500 19.32000 26.54100
H  54.03800 18.19700 25.42000
H  53.80900 17.68800 27.11300
H  48.63500 13.68500 24.16100
H  45.75300 13.49900 24.45500
H  46.34500 15.38800 23.30800
H  47.90800 15.26300 22.50500
H  47.80900 16.43400 23.76000
H  47.61700 11.63400 23.72000
H  46.20200 11.18500 24.53200
H  48.50900 11.89300 26.28300
H  48.68700 10.49800 25.41600
H  47.23800 10.78600 26.66400
H  42.62200 11.85200 27.62200
H  41.80200 12.58200 29.11000
H  42.64300 11.10300 29.25000
H  44.88900 13.55100 33.27400
H  42.52500 17.01400 34.53400
H  42.56200 16.06900 36.05600
H  41.41800 15.70500 34.76600

