158

Mg 0.75000 7.54100 27.24000
C  1.38500 9.67900 29.91500
C  0.38200 4.97500 29.54700
C  0.01500 5.74200 24.69600
C  1.34500 10.30600 25.07900
N  0.89800 7.34200 29.42200
C  1.19700 8.38700 30.33300
C  1.32000 7.80900 31.74500
C  1.34800 6.28600 31.57600
C  0.83300 6.19500 30.09700
C  2.87100 5.83500 31.68500
C  0.11600 8.35600 32.60700
C  0.15700 7.97200 34.05700
H  1.32600 7.27100 34.83300
N  0.17300 5.63200 27.14400
C  0.00800 4.68000 28.17500
C  -0.56900 3.49200 27.58000
C  -0.67700 3.71800 26.15300
C  -0.23000 5.08400 25.92900
C  -0.99500 2.25500 28.33200
C  -1.02600 2.68300 24.98100
O  -0.79800 2.91200 23.82100
C  -1.56300 1.29700 25.29400
N  0.75800 7.98300 25.15800
C  0.41000 6.99300 24.32800
C  0.50500 7.47000 22.82400
C  0.68600 9.06000 23.00100
C  1.00800 9.13000 24.49300
C  1.60700 6.72900 22.03200
C  -0.61700 9.86400 22.67700
C  -0.39200 11.31200 22.21900
N  1.27700 9.56200 27.37800
C  1.43500 10.59500 26.45600
C  1.76400 11.79200 27.06600
C  1.87300 11.52000 28.42900
C  1.43200 10.15700 28.56500
C  2.11200 13.09300 26.47600
C  2.21000 12.05700 29.71000
O  2.47600 13.18000 29.96500
C  1.74900 10.93900 30.74000
C  2.67000 10.79300 31.82400
O  3.82200 10.39300 31.68300
O  2.18000 11.24000 33.04000
C  2.97000 11.15100 34.26900
H  0.30500 4.19200 30.30500
H  -0.38500 5.12800 23.88700
H  1.40800 11.22100 24.48600
H  2.22900 8.30200 32.08800
H  0.68000 5.72000 32.22500
H  3.02400 5.15300 32.52200
H  3.56100 6.63600 31.95000
H  3.17800 5.37700 30.74500
H  -0.81400 7.88700 32.28400
H  0.10000 9.44100 32.50600
H  -0.80400 7.50000 34.26000
H  0.04500 8.82300 34.73000
H  -2.05700 2.01400 28.29400
H  -0.74900 2.37600 29.38700
H  -0.42000 1.40700 27.96100
H  -0.69800 0.80300 25.73700
H  -1.88200 0.78300 24.38700
H  -2.42100 1.31200 25.96700
H  -0.48300 7.30500 22.39500
H  1.65000 9.36000 22.59100
H  1.27400 6.22000 21.12800
H  2.01400 5.99400 22.72600
H  2.47500 7.24000 21.61400
H  -1.27400 9.83500 23.54600
H  -1.01700 9.22500 21.89000
H  -0.53800 12.01400 23.04000
H  -1.05000 11.56800 21.39000
H  0.63000 11.55700 21.92900
H  1.23300 13.73600 26.45400
H  2.57700 12.97200 25.49800
H  2.77200 13.56500 27.20400
H  0.84500 11.41400 31.12200
H  2.63100 10.43600 35.01800
H  2.90400 12.10100 34.79900
H  4.00300 10.88100 34.05300
Mg 41.98900 42.62900 27.44500
C  40.64100 44.82400 29.78900
C  42.34500 40.32100 29.74600
C  43.49600 40.76600 25.06700
C  41.72900 45.24900 24.97700
N  41.56400 42.64800 29.55700
C  40.94400 43.53400 30.30700
C  40.69000 43.00500 31.72600
C  41.39000 41.59800 31.79500
C  41.81200 41.51500 30.24900
C  42.55300 41.48000 32.79700
C  39.27500 43.19300 32.32300
C  39.16200 43.88700 33.70400
H  38.69700 43.02000 34.90100
N  42.82000 40.69100 27.46800
C  42.80300 39.90200 28.50200
C  43.48900 38.63300 28.22400
C  43.92200 38.84800 26.83000
C  43.43700 40.17000 26.37000
C  43.65700 37.57900 29.20600
C  44.70600 37.89500 25.97800
O  45.11500 38.16700 24.83900
C  44.97900 36.57000 26.47200
N  42.74100 43.03400 25.44400
C  43.23100 42.06100 24.64700
C  43.53600 42.58000 23.25300
C  42.69400 43.84100 23.18400
C  42.32100 44.03800 24.60400
C  45.04700 42.74100 22.87200
C  41.51900 43.90300 22.15200
C  40.06900 43.86000 22.74000
N  41.36200 44.59600 27.31200
C  41.39600 45.57400 26.31600
C  40.75700 46.78000 26.76100
C  40.50500 46.60100 28.15900
C  40.82900 45.21300 28.42900
C  40.65600 48.04000 25.91500
C  39.98400 47.15500 29.34700
O  39.47800 48.25900 29.52200
C  40.11800 46.02300 30.47400
C  41.06500 46.63700 31.47600
O  42.28000 46.76700 31.33000
O  40.43500 46.88600 32.66100
C  41.25500 47.56200 33.69200
H  42.32400 39.61500 30.57900
H  43.86700 40.11400 24.27300
H  41.53500 46.10700 24.33000
H  41.29000 43.66800 32.35000
H  40.64100 40.82500 31.97100
H  42.75400 40.42000 32.95400
H  42.15100 41.99500 33.67000
H  43.45400 41.94000 32.39200
H  38.91200 42.19400 32.56600
H  38.58900 43.49200 31.53000
H  38.30600 44.54400 33.55000
H  40.06300 44.48400 33.84400
H  43.13000 37.78200 30.13900
H  44.72600 37.59000 29.42000
H  43.42100 36.55100 28.92900
H  45.29400 36.37100 27.49600
H  45.66200 36.16400 25.72600
H  44.07900 35.95700 26.44700
H  43.17700 41.77700 22.60900
H  43.43600 44.59200 22.91600
H  45.17900 42.45900 21.82800
H  45.64400 42.02600 23.43700
H  45.28700 43.79400 23.02200
H  41.56100 43.03500 21.49300
H  41.72000 44.80800 21.57700
H  39.43400 43.30100 22.05400
H  39.62500 44.85100 22.83500
H  39.98200 43.35100 23.70000
H  40.07500 47.81300 25.02200
H  41.68300 48.29200 25.65200
H  40.12500 48.76400 26.53300
H  39.25800 45.81200 31.10900
H  42.11800 48.11000 33.31600
H  41.60400 46.80100 34.39000
H  40.60300 48.22500 34.26200

