158

Mg 23.45500 -7.18700 47.33500
C  25.64400 -4.73000 45.78900
C  21.07100 -5.80100 45.43500
C  21.56300 -9.65300 48.40300
C  26.28800 -8.64400 48.62600
N  23.37800 -5.45100 45.79300
C  24.35100 -4.61900 45.38600
C  23.88000 -3.58300 44.35900
C  22.30600 -3.74300 44.41400
C  22.18700 -5.00700 45.28200
C  21.54800 -2.47900 45.05200
C  24.43000 -3.64100 42.98200
C  25.35100 -2.46600 42.47800
H  24.99900 -1.82600 41.11800
N  21.53000 -7.70000 46.83800
C  20.73400 -7.01700 46.06600
C  19.38800 -7.63800 46.15200
C  19.47700 -8.82300 46.96000
C  20.86000 -8.77500 47.47100
C  18.20600 -7.16400 45.41700
C  18.40000 -9.80600 47.28200
O  17.25200 -9.60100 46.91700
C  18.65000 -11.01200 48.08000
N  23.89600 -8.92800 48.30000
C  22.92600 -9.76800 48.82600
C  23.52300 -10.95100 49.49600
C  25.01300 -10.52400 49.69000
C  25.09400 -9.31200 48.77500
C  22.76800 -11.37600 50.77000
C  26.06900 -11.65400 49.24300
C  27.08100 -12.09100 50.28300
N  25.57700 -6.71700 47.41200
C  26.60600 -7.45300 47.96800
C  27.86000 -6.69400 47.87200
C  27.55000 -5.59900 47.02000
C  26.17400 -5.70100 46.73900
C  29.15800 -7.06200 48.37400
C  28.09100 -4.46100 46.38500
O  29.19900 -3.93000 46.35800
C  26.91500 -3.85400 45.50200
C  26.82200 -2.41100 45.99300
O  26.29200 -2.08900 47.06300
O  27.44700 -1.59700 45.07600
C  27.73900 -0.32800 45.81100
H  20.21400 -5.28300 45.00000
H  20.84600 -10.39400 48.76200
H  27.24300 -8.95500 49.05400
H  23.99200 -2.64400 44.90100
H  21.81100 -3.86400 43.45100
H  21.55300 -2.60800 46.13500
H  20.55800 -2.34600 44.61500
H  22.16500 -1.67000 44.66300
H  23.67600 -3.62200 42.19500
H  24.97100 -4.57000 42.80000
H  26.41700 -2.68800 42.52900
H  25.25900 -1.67500 43.22200
H  17.73800 -6.30300 45.89300
H  17.40800 -7.84500 45.12000
H  18.48400 -6.62900 44.50900
H  17.69000 -11.52200 48.16200
H  18.76900 -10.84600 49.15000
H  19.32700 -11.70100 47.57600
H  23.46900 -11.74700 48.75400
H  25.26000 -10.25100 50.71600
H  21.92100 -10.77900 51.10700
H  23.52300 -11.45400 51.55200
H  22.40500 -12.39100 50.60600
H  26.62100 -11.50200 48.31500
H  25.46900 -12.54400 49.05500
H  28.03400 -11.73700 49.89000
H  27.10900 -13.17600 50.38300
H  26.92200 -11.57700 51.23100
H  28.97700 -7.65600 49.26900
H  29.81200 -6.25800 48.71300
H  29.67500 -7.67500 47.63500
H  27.27100 -3.88700 44.47300
H  26.79600 0.17300 46.02700
H  28.22900 0.45600 45.23300
H  28.31200 -0.51100 46.72000
Mg 42.99000 41.41800 25.42200
C  42.24000 43.84000 27.83900
C  43.76200 39.27900 27.88500
C  43.54600 39.31500 23.00100
C  41.95300 43.92100 22.94000
N  43.19200 41.62000 27.63900
C  42.72300 42.61500 28.42100
C  42.81900 42.23000 29.94100
C  43.36300 40.75400 29.88400
C  43.46300 40.50200 28.38700
C  44.74000 40.56200 30.70500
C  41.49600 42.41500 30.76400
C  41.42300 41.71100 32.14200
H  41.45800 42.66100 33.33000
N  43.64500 39.59100 25.43800
C  43.84900 38.80400 26.53700
C  44.10000 37.48800 26.09700
C  44.20300 37.48900 24.71000
C  43.79900 38.85200 24.29200
C  44.22300 36.28100 27.12100
C  44.51700 36.33100 23.76700
O  44.76500 36.41400 22.55300
C  44.43300 34.91200 24.22600
N  42.65300 41.60000 23.31400
C  43.01200 40.51500 22.53700
C  42.77700 40.76000 20.97000
C  42.11200 42.14400 21.03500
C  42.19900 42.58200 22.49300
C  44.14700 40.76300 20.17500
C  40.68200 42.12100 20.46900
C  39.66600 41.37900 21.29200
N  42.44200 43.46800 25.34800
C  42.10000 44.30400 24.28200
C  41.90100 45.62500 24.83800
C  41.76800 45.41400 26.20500
C  42.13300 44.14000 26.47300
C  41.61400 46.84800 24.02200
C  41.45600 46.17600 27.37300
O  41.07000 47.31300 27.50300
C  41.64600 45.09300 28.57200
C  42.71700 45.64000 29.41100
O  43.89500 45.81800 29.17600
O  42.11200 46.12700 30.62500
C  43.06600 46.84900 31.48200
H  43.79800 38.50200 28.65100
H  43.79700 38.55400 22.25900
H  41.67500 44.67000 22.19500
H  43.44400 42.93200 30.49300
H  42.67900 39.97800 30.22800
H  44.75300 39.90300 31.57400
H  45.13200 41.55900 30.90500
H  45.45500 40.07600 30.04200
H  40.69900 42.25000 30.03800
H  41.34300 43.48800 30.87600
H  42.27900 41.06400 32.33200
H  40.51300 41.11300 32.19900
H  43.50400 35.49900 26.87900
H  43.86200 36.51200 28.12300
H  45.26700 35.96800 27.10600
H  43.54300 34.76600 24.83700
H  45.27000 34.55600 24.82600
H  44.47400 34.23000 23.37600
H  42.04000 40.05400 20.58600
H  42.67500 42.88900 20.47300
H  44.98400 40.35600 20.74300
H  44.42100 41.79100 19.93900
H  44.07200 40.12800 19.29300
H  40.72400 41.62200 19.50000
H  40.38100 43.16200 20.36000
H  39.17400 40.56700 20.75600
H  38.95100 42.13200 21.62200
H  40.03300 40.85200 22.17300
H  42.53000 47.22100 23.56600
H  41.30200 47.71300 24.60700
H  40.77100 46.56000 23.39300
H  40.68900 44.92600 29.06600
H  43.54800 47.71300 31.02400
H  43.88700 46.23100 31.84600
H  42.51000 47.21800 32.34400

