158

Mg 9.33700 3.82000 27.23500
C  10.29200 2.19200 30.31500
C  7.63000 6.07400 29.19600
C  7.88000 4.99000 24.47400
C  10.55200 1.05600 25.43800
N  9.02600 4.03600 29.57000
C  9.56800 3.28100 30.60800
C  9.07600 3.85100 31.94700
C  8.01900 4.90400 31.47800
C  8.23300 5.02900 30.02300
C  6.51900 4.51800 31.82100
C  10.31100 4.41100 32.71700
C  10.71500 3.70200 34.02700
H  11.09700 4.48500 35.34100
N  8.06100 5.43000 26.81600
C  7.59000 6.30100 27.76100
C  6.85600 7.33200 27.07600
C  6.76500 6.99700 25.67700
C  7.59100 5.75700 25.61400
C  6.19700 8.49200 27.76000
C  5.99700 7.62000 24.51600
O  5.91800 7.08100 23.41500
C  5.50000 9.07600 24.66200
N  9.15400 3.05900 25.35100
C  8.52000 3.75000 24.33000
C  8.56500 3.02800 22.98500
C  9.84700 2.01300 23.24800
C  9.85300 2.04600 24.77800
C  7.22100 2.37100 22.59000
C  11.22300 2.46300 22.58800
C  11.22900 2.32800 21.01200
N  10.30600 1.99000 27.76400
C  10.79100 1.07200 26.90700
C  11.36600 -0.05700 27.69300
C  11.21200 0.36500 29.02800
C  10.59800 1.65300 29.05400
C  11.85200 -1.40900 27.26100
C  11.38400 -0.04400 30.45100
O  11.83200 -1.09800 30.88600
C  10.91200 1.14600 31.32900
C  10.09800 0.51400 32.39100
O  8.88400 0.17100 32.26900
O  10.88800 0.33000 33.54600
C  10.18000 -0.30300 34.63200
H  7.08200 6.82700 29.76600
H  7.37800 5.28200 23.54900
H  10.73700 0.17000 24.82800
H  8.68600 3.03500 32.55700
H  8.17700 5.89400 31.90300
H  5.99100 4.32000 30.88700
H  6.12000 5.37300 32.36600
H  6.32700 3.57700 32.33700
H  10.28300 5.46000 33.01100
H  11.15600 4.32300 32.03500
H  11.64500 3.23300 33.70400
H  10.03200 2.92800 34.37700
H  6.18400 8.50600 28.85000
H  5.15900 8.40300 27.43700
H  6.54300 9.46900 27.42300
H  4.48900 9.07200 25.06900
H  5.38700 9.61200 23.72000
H  6.11700 9.59800 25.39400
H  8.82800 3.70500 22.17200
H  9.45800 1.04500 22.93400
H  7.40500 1.31100 22.42000
H  6.92400 2.88700 21.67700
H  6.50000 2.46500 23.40200
H  12.00900 1.77800 22.90500
H  11.41900 3.48700 22.90500
H  11.36000 3.31500 20.56800
H  10.30300 1.76900 20.87300
H  12.08600 1.73400 20.69600
H  12.93100 -1.49200 27.39100
H  11.69700 -1.52700 26.18800
H  11.28700 -2.17900 27.78500
H  11.73000 1.48800 31.96200
H  9.55400 -1.06300 34.16400
H  9.52500 0.36700 35.18900
H  10.88400 -0.84800 35.26000
Mg -10.27700 39.81300 42.51600
C  -9.27600 36.57400 41.50700
C  -7.30100 41.00800 41.32900
C  -11.55700 42.88900 42.53900
C  -13.44700 38.37800 42.85400
N  -8.67200 38.88900 41.30100
C  -8.41800 37.59800 41.08400
C  -6.95700 37.29800 40.45900
C  -6.33900 38.77100 40.49100
C  -7.51100 39.60000 41.18900
C  -4.95700 38.83900 41.16900
C  -6.90900 36.53000 39.08700
C  -5.66200 35.66400 38.90500
H  -4.83200 36.10000 37.73400
N  -9.48800 41.69500 42.09300
C  -8.21200 42.00200 41.65900
C  -7.97600 43.40200 41.73700
C  -9.16300 43.94200 42.21600
C  -10.13000 42.84500 42.30300
C  -6.70200 44.06400 41.30900
C  -9.39900 45.35000 42.66600
O  -8.50100 46.22400 42.55300
C  -10.67500 45.76200 43.39600
N  -12.21600 40.52700 42.75300
C  -12.49800 41.82200 42.63700
C  -14.02200 42.05100 42.83300
C  -14.65200 40.65600 43.00300
C  -13.40200 39.77600 42.78400
C  -14.37100 43.04900 43.94300
C  -15.77000 40.44800 41.95900
C  -16.91100 39.48400 42.32000
N  -11.19900 37.88600 42.56400
C  -12.47600 37.44200 42.87000
C  -12.49900 35.94500 43.00500
C  -11.24400 35.59600 42.52400
C  -10.52700 36.80400 42.20600
C  -13.66700 35.05500 43.16500
C  -10.32500 34.44400 42.14600
O  -10.51000 33.28300 42.17600
C  -9.02600 35.07300 41.53600
C  -7.83000 34.74100 42.43900
O  -7.52600 35.29600 43.46100
O  -7.06500 33.79500 41.79800
C  -5.79900 33.45600 42.56600
H  -6.28300 41.28500 41.04800
H  -11.97000 43.88500 42.36900
H  -14.44600 37.93700 42.87700
H  -6.48700 36.70900 41.24700
H  -6.27500 39.15300 39.47200
H  -4.26300 39.13700 40.38300
H  -4.67000 37.85500 41.53700
H  -4.84700 39.54000 41.99600
H  -6.80000 37.25100 38.27700
H  -7.74200 35.87600 38.83000
H  -5.98200 34.63200 38.75900
H  -5.15000 35.61100 39.86500
H  -6.66900 45.02000 40.78600
H  -6.31200 43.38900 40.54700
H  -5.93000 44.14800 42.07300
H  -11.44100 45.99600 42.65700
H  -10.42000 46.66100 43.95700
H  -10.94200 45.05700 44.18400
H  -14.29100 42.54100 41.89700
H  -15.04000 40.38100 43.98400
H  -13.68800 43.18000 44.78200
H  -15.18400 42.50800 44.42700
H  -14.71500 43.98700 43.50800
H  -15.29700 40.12600 41.03100
H  -16.31300 41.38700 41.85300
H  -17.89500 39.95200 42.34600
H  -16.81000 39.19700 43.36700
H  -16.99100 38.64100 41.63400
H  -13.41100 34.49600 44.06500
H  -13.83900 34.36700 42.33700
H  -14.53300 35.64700 43.45900
H  -8.91500 34.67700 40.52700
H  -5.17800 34.30400 42.27400
H  -5.28100 32.57700 42.18200
H  -5.99400 33.45100 43.63800

