158

Mg 23.50200 -5.48100 45.86000
C  25.92500 -3.61600 44.11800
C  21.24100 -4.56500 43.42700
C  21.48000 -8.05800 46.88100
C  26.20100 -7.00600 47.69100
N  23.57900 -4.26400 44.01300
C  24.61900 -3.52100 43.54200
C  24.22200 -2.66100 42.36000
C  22.61000 -2.74600 42.54300
C  22.51700 -4.00600 43.34200
C  22.03000 -1.50200 43.25800
C  24.77600 -3.33300 41.07600
C  25.53400 -2.42100 40.02200
H  25.01900 -2.46300 38.58600
N  21.56700 -6.07700 45.30400
C  20.76100 -5.60500 44.24600
C  19.60500 -6.37800 44.19600
C  19.58700 -7.30900 45.27700
C  20.92400 -7.19700 45.87800
C  18.51200 -6.16400 43.13400
C  18.51300 -8.23300 45.65700
O  17.43000 -8.09200 45.09500
C  18.57400 -9.34200 46.73400
N  23.87300 -7.42400 46.90200
C  22.79000 -8.15700 47.29300
C  23.33600 -9.25500 48.28500
C  24.74700 -8.76100 48.71000
C  24.97800 -7.58600 47.74900
C  22.50500 -9.60100 49.52000
C  25.78600 -9.91700 48.67600
C  26.25100 -10.30200 47.23900
N  25.64600 -5.28500 46.04800
C  26.53600 -5.92400 46.88800
C  27.83900 -5.28600 46.60800
C  27.61600 -4.28700 45.61800
C  26.30200 -4.44300 45.25000
C  29.17300 -5.67000 47.35800
C  28.20100 -3.26900 44.83700
O  29.33400 -3.02200 44.82000
C  27.12300 -2.85700 43.72700
C  26.94600 -1.41000 43.99200
O  26.59500 -0.93500 45.09600
O  27.34200 -0.69500 42.92300
C  27.19700 0.75800 43.11800
H  20.46700 -4.18800 42.75700
H  20.92700 -8.87600 47.34800
H  26.90000 -7.37900 48.44300
H  24.69400 -1.69500 42.53800
H  22.08700 -2.89300 41.59700
H  22.77100 -0.89900 43.78400
H  21.22700 -1.78300 43.94000
H  21.48100 -0.81000 42.62000
H  24.00500 -3.80000 40.46200
H  25.31900 -4.25400 41.28900
H  26.58300 -2.71800 40.04400
H  25.54400 -1.39500 40.38900
H  18.02600 -7.11100 42.90200
H  19.09900 -5.88800 42.25800
H  17.86800 -5.30700 43.33400
H  17.74200 -10.00400 46.49400
H  18.54200 -8.84100 47.70100
H  19.46700 -9.95400 46.60800
H  23.50300 -10.17000 47.71600
H  24.75700 -8.34800 49.71900
H  21.76500 -8.83700 49.75800
H  23.07900 -9.72200 50.43900
H  21.96800 -10.51100 49.25400
H  25.44100 -10.83100 49.16000
H  26.72300 -9.64600 49.16200
H  27.27700 -9.96500 47.09000
H  25.68300 -9.73400 46.50200
H  26.11200 -11.37500 47.10000
H  29.95000 -6.01300 46.67500
H  28.93200 -6.51300 48.00600
H  29.42200 -4.77200 47.92300
H  27.45100 -3.08100 42.71200
H  26.22400 1.04100 43.52100
H  27.51700 1.49500 42.38100
H  27.97200 1.00400 43.84300
Mg 40.42400 10.08300 29.94100
C  42.59400 11.26500 32.44500
C  38.38800 8.72900 32.27300
C  38.42900 8.90400 27.53600
C  42.72400 11.05300 27.57900
N  40.48600 10.09500 32.10800
C  41.47200 10.60300 32.93600
C  41.03200 10.44300 34.42500
C  39.69300 9.56000 34.36800
C  39.56600 9.39900 32.84700
C  39.80600 8.16900 35.09100
C  40.84500 11.79400 35.04200
C  40.22000 11.97300 36.42200
H  40.89500 12.89300 37.42100
N  38.65300 8.88000 29.87600
C  37.94000 8.48200 30.98100
C  36.76700 7.70200 30.59100
C  36.75300 7.83000 29.22600
C  37.97700 8.55600 28.77900
C  35.70700 7.08500 31.62200
C  35.77000 7.23500 28.20700
O  35.82100 7.34600 27.01400
C  34.51800 6.50700 28.68800
N  40.63500 9.79600 27.77700
C  39.58600 9.47100 26.99100
C  39.83100 9.74500 25.51900
C  41.21400 10.60000 25.55200
C  41.63500 10.45500 27.08100
C  39.89700 8.43700 24.66900
C  41.10800 12.05000 25.12300
C  40.00500 12.89300 25.74100
N  42.35400 10.81400 29.98000
C  43.12500 11.21900 28.93000
C  44.29900 11.77000 29.39900
C  44.11500 11.87900 30.81700
C  42.93500 11.23100 31.08300
C  45.37900 12.29000 28.58200
C  44.62700 12.48300 31.98800
O  45.66000 13.12000 32.13300
C  43.70800 12.01800 33.19000
C  44.45500 11.11400 34.17800
O  44.93500 10.03800 33.94800
O  44.47700 11.75100 35.35700
C  45.09200 11.18400 36.52700
H  37.63000 8.33500 32.95400
H  37.69000 8.58900 26.79600
H  43.29800 11.66200 26.87700
H  41.79600 9.87100 34.95100
H  38.78200 10.05300 34.70600
H  39.32800 7.37900 34.51200
H  39.25600 8.35900 36.01200
H  40.85000 8.13400 35.40200
H  40.34000 12.40700 34.29500
H  41.84200 12.22800 35.12000
H  40.30900 11.03400 36.97000
H  39.17500 12.26100 36.30700
H  36.14500 7.11900 32.62000
H  35.37900 6.06700 31.41300
H  34.82900 7.72900 31.57000
H  34.57600 5.66600 29.37800
H  33.91500 6.26300 27.81400
H  34.05200 7.37200 29.16100
H  38.99900 10.37200 25.19900
H  41.99600 10.13100 24.95500
H  39.50500 8.59200 23.66300
H  39.38600 7.59500 25.13600
H  40.93400 8.10200 24.64900
H  40.75200 12.10800 24.09500
H  42.07700 12.52500 25.27800
H  40.49800 13.64100 26.36200
H  39.22600 12.39700 26.31900
H  39.41800 13.46900 25.02500
H  44.96200 13.13800 28.03900
H  45.57700 11.55600 27.80100
H  46.32200 12.60500 29.02800
H  43.33700 12.95600 33.60500
H  45.53900 11.94000 37.17300
H  45.93600 10.59800 36.16300
H  44.44800 10.46700 37.03600

