158

Mg 15.84400 51.77100 25.23400
C  17.36900 50.71000 28.16000
C  13.06100 52.74600 27.14200
C  14.35200 52.49900 22.47800
C  18.52700 50.33900 23.38800
N  15.28900 51.74100 27.44900
C  16.21700 51.46400 28.43800
C  15.65200 51.81400 29.84500
C  14.18500 52.34400 29.50500
C  14.09800 52.27500 27.94700
C  13.04100 51.67000 30.33800
C  16.66000 52.65100 30.63700
C  16.95300 52.22600 32.05300
H  15.93200 51.44300 32.81900
N  13.99500 52.54900 24.88500
C  12.99300 52.87100 25.79900
C  11.84900 53.49700 25.05000
C  12.27800 53.53800 23.63100
C  13.60900 52.84400 23.61400
C  10.69200 54.20700 25.74300
C  11.57400 54.03100 22.48800
O  11.93900 53.93700 21.30500
C  10.30100 54.79000 22.69200
N  16.41200 51.59100 23.18100
C  15.56300 51.96500 22.22800
C  16.09400 51.58800 20.82400
C  17.47600 50.87100 21.14000
C  17.46700 50.93400 22.65100
C  15.03000 50.73000 20.05500
C  18.66400 51.63800 20.43200
C  18.41200 52.16800 19.04800
N  17.57000 50.68700 25.63100
C  18.56900 50.19200 24.78000
C  19.52800 49.41500 25.65400
C  19.05900 49.63700 26.93900
C  17.84100 50.41500 26.87400
C  20.63100 48.60800 25.17900
C  19.51100 49.51200 28.36500
O  20.57100 49.10400 28.85500
C  18.41400 50.20400 29.23200
C  18.01000 49.13100 30.21900
O  17.02600 48.42500 30.10300
O  18.78600 49.22200 31.38400
C  18.46800 48.34000 32.54800
H  12.28300 53.22500 27.73900
H  13.97200 52.85300 21.51700
H  19.32400 49.83500 22.83600
H  15.49900 50.81800 30.26100
H  14.13200 53.37400 29.85800
H  12.23300 51.29800 29.70700
H  12.64700 52.35600 31.08700
H  13.36000 50.78900 30.89500
H  16.23100 53.64900 30.72600
H  17.55400 52.76500 30.02300
H  17.12700 53.17000 32.57000
H  17.83800 51.59600 31.95800
H  10.63700 53.93400 26.79700
H  9.71700 53.97200 25.31600
H  10.75700 55.29300 25.81200
H  9.93600 55.05600 21.70000
H  10.56300 55.68400 23.25700
H  9.53900 54.20800 23.21100
H  16.06700 52.51600 20.25400
H  17.47300 49.80400 20.91800
H  15.48100 49.97000 19.41700
H  14.28400 51.36500 19.57600
H  14.45000 50.12700 20.75300
H  19.54700 51.00000 20.47200
H  18.81000 52.52100 21.05400
H  19.30100 51.99500 18.44200
H  18.27500 53.22800 19.26100
H  17.56700 51.85400 18.43500
H  20.29600 48.13600 24.25600
H  20.82900 47.78800 25.86900
H  21.46200 49.30100 25.04600
H  18.90200 50.97600 29.82700
H  19.29000 47.64300 32.71200
H  17.57300 47.74800 32.36000
H  18.30200 49.00100 33.39800
Mg -2.43800 35.42800 26.25200
C  -3.69600 33.51500 28.91400
C  -1.18100 37.72700 28.54900
C  -1.22100 37.21600 23.75000
C  -3.86100 33.16300 24.09100
N  -2.47500 35.58700 28.46400
C  -3.01900 34.67700 29.32600
C  -2.83200 35.08600 30.82000
C  -1.92500 36.42100 30.62400
C  -1.85800 36.61400 29.12100
C  -2.31600 37.67200 31.39300
C  -2.28100 34.02500 31.79500
C  -1.25500 34.43300 32.82700
H  -1.21500 33.59700 34.10900
N  -1.28400 37.21400 26.13000
C  -0.83300 37.92900 27.20200
C  -0.02900 39.04300 26.72600
C  -0.01000 38.95000 25.26300
C  -0.79300 37.69400 25.00300
C  0.69700 40.01800 27.68200
C  0.69800 39.80900 24.15000
O  0.58800 39.58000 22.97400
C  1.49600 40.93800 24.61700
N  -2.83300 35.44700 24.23700
C  -2.13000 36.28400 23.44800
C  -2.45000 35.99000 22.02800
C  -3.01700 34.57200 22.05100
C  -3.25000 34.27800 23.53400
C  -3.36200 37.11500 21.55100
C  -2.09800 33.47800 21.32300
C  -0.64700 33.32700 21.81800
N  -3.60600 33.71800 26.41600
C  -4.10300 32.86000 25.42100
C  -4.79100 31.75400 25.99300
C  -4.64700 31.97500 27.37600
C  -3.88700 33.16100 27.58300
C  -5.31400 30.55700 25.25100
C  -4.95900 31.44700 28.62000
O  -5.68000 30.49100 28.89300
C  -4.30900 32.42200 29.66800
C  -5.43800 32.87900 30.59600
O  -6.39700 33.56500 30.25300
O  -5.24400 32.28700 31.84000
C  -6.31800 32.57600 32.82600
H  -0.76600 38.31700 29.36900
H  -0.83600 37.70800 22.85400
H  -4.23600 32.44000 23.36400
H  -3.76000 35.45600 31.25400
H  -0.96200 36.11100 31.03100
H  -3.10200 37.53000 32.13500
H  -2.50100 38.52600 30.74100
H  -1.54700 37.93300 32.11900
H  -1.75400 33.20300 31.31100
H  -3.17000 33.60300 32.26400
H  -1.46900 35.46900 33.08800
H  -0.30800 34.16600 32.35600
H  -0.08200 40.78000 27.67100
H  1.70800 40.28700 27.37500
H  0.81300 39.49500 28.63200
H  0.84900 41.57300 25.22200
H  1.87700 41.54800 23.79800
H  2.38200 40.55300 25.12300
H  -1.54900 36.07600 21.42200
H  -3.99600 34.46400 21.58400
H  -4.42500 36.89100 21.46000
H  -3.07500 37.44100 20.55100
H  -3.22500 38.03300 22.12300
H  -1.93600 33.72400 20.27300
H  -2.54000 32.49100 21.45200
H  -0.39200 34.15400 22.48000
H  0.09300 33.36800 21.01900
H  -0.47600 32.38300 22.33400
H  -5.41200 29.70000 25.91700
H  -4.57500 30.22800 24.52100
H  -6.17900 30.77300 24.62300
H  -3.61600 31.75800 30.18400
H  -5.87500 33.25500 33.55400
H  -6.61100 31.56700 33.11800
H  -7.18700 33.17200 32.54700

