158

Mg 54.40500 24.30000 45.99400
C  51.54200 26.26100 45.10800
C  52.67500 21.53200 45.08900
C  57.26300 22.71700 45.85400
C  56.10600 27.38300 46.60900
N  52.45100 23.96100 44.87000
C  51.43900 24.87300 44.72100
C  50.18300 24.20500 44.28100
C  50.43600 22.68800 44.65100
C  51.94000 22.71500 44.93200
C  49.60100 22.46900 45.94800
C  49.91200 24.46200 42.77900
C  48.40000 24.90700 42.48000
H  47.53100 23.90300 41.81600
N  54.95100 22.32300 45.56800
C  54.06900 21.33000 45.24600
C  54.78600 20.10700 45.07800
C  56.12400 20.44600 45.16700
C  56.18600 21.86700 45.52700
C  54.22200 18.74100 44.57900
C  57.32100 19.49900 45.08700
O  57.07600 18.32300 44.89600
C  58.77500 19.85600 45.24000
N  56.38400 24.94200 46.27500
C  57.43400 24.06400 46.22700
C  58.78300 24.68400 46.52800
C  58.45700 26.22000 46.69900
C  56.86700 26.19500 46.50300
C  59.49500 24.03200 47.76100
C  59.12900 27.24200 45.65000
C  59.53300 28.58600 46.30500
N  53.96000 26.39700 46.06600
C  54.73700 27.44200 46.37200
C  53.82800 28.64200 46.36600
C  52.62400 28.18800 45.98100
C  52.76900 26.80800 45.74900
C  54.14300 30.12000 46.54600
C  51.27300 28.60700 45.55300
O  50.77600 29.69100 45.54000
C  50.52000 27.38400 44.96000
C  50.16900 27.73200 43.60000
O  50.98600 28.00700 42.74400
O  48.80100 27.91700 43.55200
C  48.32400 28.56800 42.33400
H  52.11200 20.61900 44.88500
H  58.22900 22.25800 45.63100
H  56.70000 28.28800 46.74900
H  49.45200 24.78600 44.84300
H  50.25900 21.96400 43.85500
H  50.21300 22.14400 46.79000
H  48.84700 21.75900 45.60700
H  49.18200 23.40700 46.31200
H  49.87900 23.53400 42.20900
H  50.61200 25.18200 42.35500
H  48.46500 25.73700 41.77600
H  47.82700 25.23600 43.34600
H  54.12600 17.99400 45.36700
H  54.94300 18.35800 43.85700
H  53.27500 18.78800 44.04100
H  59.05300 20.49400 44.40100
H  59.33100 18.92800 45.10900
H  59.04400 20.24100 46.22300
H  59.53700 24.63500 45.74300
H  58.50000 26.35600 47.78000
H  58.93300 23.09900 47.80200
H  59.42000 24.55000 48.71700
H  60.50500 23.80200 47.42300
H  58.48200 27.41700 44.79100
H  60.00300 26.84500 45.13400
H  60.52000 28.98800 46.07500
H  59.38700 28.66900 47.38200
H  58.86800 29.37200 45.94700
H  53.70100 30.83800 45.85600
H  55.22900 30.21800 46.52400
H  54.04000 30.52400 47.55300
H  49.63100 27.15800 45.54800
H  47.24900 28.74400 42.31300
H  48.46700 28.08700 41.36700
H  48.79500 29.54700 42.25100
Mg -11.34100 17.04100 43.34000
C  -7.87300 17.48000 43.39300
C  -11.74100 20.44700 43.30300
C  -14.64600 16.48400 43.23400
C  -10.75000 13.63800 42.55300
N  -9.91500 18.80500 43.24600
C  -8.58900 18.69500 43.35200
C  -7.93400 20.09500 43.41600
C  -9.22000 21.06900 43.58100
C  -10.38400 20.04400 43.36100
C  -9.28600 21.87800 44.85500
C  -7.08100 20.35800 42.08300
C  -5.66600 20.98500 42.22100
H  -5.22800 21.64400 40.93200
N  -12.98500 18.26500 43.21200
C  -12.95000 19.63200 43.16500
C  -14.28700 20.08100 43.11800
C  -15.18900 18.96100 43.03400
C  -14.29100 17.82200 43.11300
C  -14.69800 21.53700 43.32300
C  -16.69200 19.07700 43.01400
O  -17.29700 20.19100 42.98000
C  -17.49900 17.78100 42.84200
N  -12.49200 15.34900 42.83200
C  -13.79400 15.34500 43.06600
C  -14.38000 13.90100 43.09400
C  -13.21700 13.06000 42.53400
C  -12.07700 14.08400 42.51900
C  -14.90900 13.43700 44.48900
C  -13.63000 12.42700 41.09300
C  -12.84000 11.23500 40.58600
N  -9.68100 15.80500 42.99800
C  -9.64300 14.46300 42.70000
C  -8.24800 14.02500 42.76100
C  -7.53900 15.19600 43.07800
C  -8.47100 16.27100 43.14200
C  -7.68600 12.67300 42.68100
C  -6.19800 15.73200 43.28200
O  -5.16500 15.15300 43.22800
C  -6.32600 17.28900 43.58000
C  -5.99300 17.43100 45.07000
O  -6.45000 16.81500 46.00600
O  -5.05200 18.48400 45.17800
C  -4.96500 19.07600 46.56200
H  -11.86500 21.53000 43.36800
H  -15.67300 16.11500 43.25100
H  -10.67600 12.56800 42.34800
H  -7.22300 20.19800 44.23600
H  -9.24200 21.71000 42.69900
H  -9.53200 21.29700 45.74300
H  -9.95100 22.73400 44.73700
H  -8.27600 22.28300 44.93000
H  -7.60500 21.15800 41.55900
H  -6.95300 19.58800 41.32200
H  -4.93300 20.22000 42.47600
H  -5.63600 21.60300 43.11900
H  -13.95400 22.26800 43.00700
H  -15.03800 21.77800 44.33100
H  -15.48600 21.61200 42.57400
H  -17.21100 17.35200 41.88200
H  -18.55600 18.04100 42.79300
H  -17.41600 17.11000 43.69700
H  -15.23500 13.91600 42.41800
H  -13.05100 12.26000 43.25500
H  -15.96800 13.32100 44.25500
H  -14.79700 14.18100 45.27800
H  -14.63300 12.45000 44.86100
H  -13.60700 13.17800 40.30300
H  -14.64600 12.05300 41.21800
H  -12.56300 11.34200 39.53700
H  -13.40500 10.30400 40.62100
H  -11.84500 11.15400 41.02300
H  -8.28800 12.06900 43.36100
H  -6.64000 12.69800 42.98500
H  -7.90600 12.33600 41.66700
H  -5.73700 17.85200 42.85600
H  -5.80800 18.86800 47.22200
H  -5.05300 20.16200 46.54800
H  -4.00700 18.92600 47.05800

