158

Mg 8.68800 3.09800 27.43600
C  9.94100 1.65500 30.43300
C  6.99500 5.43200 29.28400
C  7.47800 4.41300 24.63200
C  10.43400 0.58600 25.66000
N  8.42000 3.41000 29.64900
C  9.00900 2.68700 30.66200
C  8.56500 3.26000 32.02200
C  7.63800 4.54300 31.65700
C  7.68600 4.48200 30.10100
C  6.18500 4.40700 32.23400
C  9.77900 3.62400 32.92200
C  9.42900 4.51700 34.07200
H  10.20000 4.31400 35.39200
N  7.39400 4.73900 27.01500
C  6.87100 5.62000 27.90400
C  5.98700 6.59700 27.21500
C  6.25300 6.32700 25.82300
C  7.07300 5.10200 25.78800
C  5.18900 7.68900 27.96400
C  5.83400 7.15400 24.64900
O  6.07400 6.81300 23.50500
C  5.22000 8.57600 24.91100
N  8.73800 2.43300 25.42700
C  8.21800 3.20600 24.48300
C  8.65500 2.73400 23.08700
C  9.79700 1.76300 23.48200
C  9.61100 1.52400 24.94800
C  7.50700 2.10000 22.24900
C  11.24500 2.13700 23.11100
C  12.19800 1.01000 22.55900
N  9.89100 1.36400 27.91400
C  10.52200 0.46500 27.06200
C  11.35100 -0.41000 27.87300
C  11.17400 -0.02100 29.23500
C  10.21300 0.99900 29.19000
C  12.15200 -1.58100 27.39600
C  11.61400 -0.17700 30.65400
O  12.44900 -0.84900 31.21600
C  10.76900 0.87300 31.43300
C  10.01100 0.22100 32.56300
O  8.98700 -0.39800 32.40000
O  10.71100 0.34300 33.70300
C  10.15400 -0.23700 34.93700
H  6.61100 6.28700 29.84400
H  7.13100 4.87600 23.70600
H  11.06800 -0.03600 25.02400
H  7.94300 2.48800 32.47500
H  8.08900 5.50000 31.91800
H  5.87200 3.55400 32.83600
H  5.43900 4.37100 31.44100
H  6.04600 5.24200 32.92100
H  10.55000 4.15500 32.36300
H  10.36200 2.78900 33.30900
H  8.37000 4.44300 34.31800
H  9.66100 5.48600 33.63000
H  5.75100 8.61000 28.11700
H  4.99500 7.32600 28.97400
H  4.31400 7.99600 27.39100
H  5.10100 9.22700 24.04500
H  5.88000 9.06000 25.63100
H  4.24200 8.41600 25.36400
H  8.98300 3.62000 22.54200
H  9.61100 0.76200 23.09300
H  6.53700 2.30300 22.70400
H  7.68000 1.04100 22.05700
H  7.46500 2.62500 21.29400
H  11.77000 2.49300 23.99700
H  11.16000 3.03300 22.49600
H  11.63200 0.08400 22.46100
H  13.00400 0.85100 23.27600
H  12.55800 1.39900 21.60700
H  12.77400 -1.20500 26.58400
H  11.57400 -2.44000 27.05600
H  12.70400 -1.77000 28.31700
H  11.52100 1.59200 31.75900
H  10.94400 -0.20500 35.68900
H  9.94100 -1.29700 34.80200
H  9.29100 0.27600 35.36100
Mg 9.55400 48.04100 26.74500
C  7.61800 47.92300 29.59800
C  12.17000 49.49500 28.38200
C  11.32500 47.67600 23.88500
C  6.61800 47.20800 25.02800
N  9.72200 48.86800 28.71600
C  8.89000 48.47400 29.75900
C  9.63000 48.68900 31.08800
C  10.89600 49.48400 30.63300
C  10.97600 49.28200 29.13700
C  10.90300 50.93500 31.11800
C  9.93900 47.54600 32.11900
C  9.60400 47.86000 33.58900
H  9.61900 46.63200 34.54200
N  11.51300 48.54900 26.13500
C  12.40300 49.10200 27.01500
C  13.71400 49.13700 26.37000
C  13.45600 48.54900 25.07200
C  12.05800 48.23900 24.95800
C  14.95900 49.73800 26.98400
C  14.43300 48.31100 23.94500
O  14.08500 47.79700 22.87300
C  15.93400 48.53900 24.18500
N  9.02400 47.59600 24.76400
C  9.88800 47.48300 23.79200
C  9.34900 46.77900 22.62400
C  7.83300 46.87400 22.86200
C  7.78300 47.30400 24.34100
C  9.84800 47.30500 21.27000
C  7.06200 45.53600 22.58900
C  5.82600 45.82700 21.68700
N  7.46100 47.65900 27.15300
C  6.45500 47.26900 26.39000
C  5.26400 47.00800 27.13400
C  5.64200 47.32600 28.53000
C  7.01500 47.59100 28.39800
C  3.89100 46.63800 26.58900
C  5.21400 47.49700 29.86500
O  4.13200 47.31600 30.42200
C  6.55500 47.67900 30.68400
C  6.88600 46.37100 31.32000
O  7.47500 45.48400 30.80000
O  6.30400 46.29200 32.49800
C  6.30400 45.04300 33.24300
H  12.95000 50.03200 28.92600
H  11.83900 47.32100 22.99000
H  5.76200 46.97500 24.39200
H  8.93700 49.30400 31.66300
H  11.83600 49.03500 30.95200
H  10.83300 51.49100 30.18300
H  11.84100 51.10700 31.64600
H  10.03500 51.14900 31.74100
H  11.02800 47.53400 32.15000
H  9.72800 46.51800 31.82400
H  8.70300 48.43200 33.81200
H  10.54400 48.29900 33.92400
H  15.64400 48.93000 27.24300
H  14.70300 50.35800 27.84300
H  15.41700 50.37900 26.23000
H  16.18800 48.15100 25.17200
H  16.17500 49.60100 24.15700
H  16.52300 48.08400 23.38900
H  9.60600 45.73900 22.82900
H  7.41200 47.64200 22.21300
H  10.23300 48.30800 21.45600
H  9.05000 47.28300 20.52700
H  10.63900 46.66300 20.88300
H  6.77400 44.99100 23.48700
H  7.73300 44.91700 21.99300
H  5.74600 45.17100 20.82100
H  5.75900 46.84700 21.30800
H  4.89200 45.60500 22.20300
H  3.81500 46.36400 25.53600
H  3.26300 47.51900 26.72400
H  3.51700 45.79500 27.17000
H  6.42700 48.49700 31.39400
H  5.84000 45.03300 34.23000
H  7.35700 44.79200 33.36800
H  5.84700 44.24700 32.65500

