158

Mg -0.17300 7.50900 26.07900
C  0.75300 9.69700 28.82600
C  0.38000 4.92500 28.05100
C  -0.51300 5.69100 23.36400
C  0.14800 10.48000 24.01500
N  0.35200 7.39600 28.27300
C  0.55500 8.33300 29.20200
C  0.56700 7.70300 30.58700
C  0.91600 6.21700 30.16200
C  0.42200 6.13300 28.77600
C  2.36200 5.69500 30.26100
C  -0.75800 8.00000 31.32600
C  -0.70500 8.28400 32.80600
H  0.65800 7.90800 33.50700
N  -0.31900 5.53400 25.75200
C  0.03900 4.63900 26.72100
C  -0.24400 3.37100 26.15300
C  -0.62200 3.51600 24.76300
C  -0.53000 4.94400 24.54400
C  -0.03800 2.07700 26.88400
C  -0.99400 2.49200 23.64500
O  -1.43700 2.76400 22.56300
C  -1.00200 1.03700 24.12500
N  -0.06400 8.06100 23.92100
C  -0.29700 7.02600 23.03100
C  -0.41200 7.58800 21.57200
C  -0.11100 9.12100 21.81100
C  -0.01800 9.27000 23.34200
C  0.57600 6.81900 20.66500
C  -1.20100 10.01900 21.22700
C  -2.54800 9.94600 21.92500
N  0.29300 9.65900 26.28600
C  0.44000 10.69700 25.38300
C  0.75400 11.98200 26.06400
C  0.89900 11.62100 27.42400
C  0.68500 10.16400 27.50200
C  0.74200 13.33400 25.45200
C  1.12600 12.13200 28.76500
O  1.36900 13.29500 29.11600
C  0.96700 10.90800 29.72800
C  2.14300 10.75100 30.55700
O  3.02700 9.88400 30.53600
O  2.09600 11.71300 31.52400
C  3.19300 11.64800 32.53400
H  0.39500 4.05200 28.70700
H  -0.71100 5.15900 22.43100
H  0.32100 11.35800 23.38900
H  1.42800 8.02900 31.17000
H  0.34600 5.75700 30.96900
H  2.62800 5.09900 31.13500
H  3.12400 6.47400 30.25200
H  2.59900 5.05100 29.41500
H  -1.40000 7.12900 31.19800
H  -1.15400 8.88200 30.82100
H  -1.33800 7.62800 33.40400
H  -0.87900 9.34700 32.97100
H  0.35500 2.22900 27.88900
H  0.72500 1.53200 26.32900
H  -1.00200 1.57800 26.99000
H  0.02300 0.87900 24.46000
H  -1.36300 0.42700 23.29700
H  -1.68700 0.87000 24.95600
H  -1.41000 7.51700 21.14000
H  0.86200 9.40700 21.41200
H  -0.01200 6.45900 19.82100
H  1.16300 6.10300 21.24000
H  1.31900 7.40800 20.12800
H  -1.11500 9.79900 20.16300
H  -0.87800 11.05400 21.34000
H  -3.30700 9.47200 21.30300
H  -2.84100 10.98000 22.10700
H  -2.58300 9.47200 22.90600
H  0.51400 14.07500 26.21700
H  -0.01900 13.37500 24.67300
H  1.74200 13.49800 25.05100
H  0.08200 10.93100 30.36300
H  2.89900 12.20100 33.42700
H  4.09600 12.07700 32.10000
H  3.27700 10.58100 32.73800
Mg 46.70700 25.73800 28.75000
C  47.60900 27.86900 31.54800
C  46.13100 23.30000 31.08900
C  46.35500 23.80100 26.25400
C  47.91000 28.35200 26.62300
N  46.94400 25.63700 31.10000
C  47.23000 26.64400 31.96000
C  46.98100 26.21700 33.40300
C  46.75200 24.67000 33.28300
C  46.64800 24.49300 31.69100
C  47.84600 23.81500 33.95200
C  45.72300 26.84400 34.15300
C  46.01700 27.56300 35.51900
H  46.70800 26.73700 36.63700
N  46.15900 23.88800 28.65900
C  45.90100 23.04400 29.74300
C  45.54800 21.72900 29.21900
C  45.67800 21.83000 27.81000
C  46.04700 23.23000 27.51600
C  45.11000 20.52000 30.11500
C  45.48300 20.79000 26.77200
O  45.60100 20.94400 25.56900
C  45.32200 19.45500 27.28400
N  46.99100 26.07200 26.64000
C  46.83400 25.04000 25.81000
C  47.16900 25.41600 24.35600
C  47.44500 26.95000 24.51600
C  47.45400 27.15400 26.02000
C  48.32200 24.67300 23.65800
C  46.42000 27.90200 23.81900
C  46.64600 27.98000 22.32800
N  47.56200 27.73300 28.96600
C  47.99700 28.62100 28.00800
C  48.58100 29.70100 28.69200
C  48.39700 29.53700 30.09000
C  47.76200 28.29100 30.20000
C  49.20400 30.94200 28.12800
C  48.61000 30.11700 31.45900
O  48.99100 31.23600 31.74300
C  48.09300 29.00700 32.43600
C  49.19800 28.74900 33.37200
O  50.31500 28.32600 33.03500
O  48.90800 29.07600 34.67100
C  49.77800 28.85400 35.81800
H  46.11900 22.41400 31.72800
H  46.43100 23.11400 25.40900
H  48.06300 29.11600 25.85800
H  47.92800 26.53500 33.84000
H  45.86500 24.31100 33.80500
H  47.59400 23.38800 34.92300
H  48.73600 24.44500 33.92700
H  48.16300 23.11300 33.18100
H  44.92600 26.15300 34.43000
H  45.16900 27.52700 33.50900
H  44.97000 27.76400 35.74300
H  46.43200 28.54500 35.29500
H  44.12400 20.17000 29.81000
H  45.13000 20.79900 31.16800
H  45.83000 19.71600 29.96300
H  46.24600 19.34700 27.85200
H  45.32000 18.73000 26.47100
H  44.35700 19.49700 27.78900
H  46.29800 25.34000 23.70500
H  48.44400 27.20500 24.16200
H  48.68100 23.99800 24.43500
H  49.14300 25.32600 23.36300
H  47.93000 24.09300 22.82300
H  46.48100 28.90700 24.23700
H  45.40300 27.53600 23.96100
H  47.53000 27.46500 21.95200
H  46.68500 29.04100 22.08200
H  45.77700 27.60500 21.78700
H  50.28200 30.82900 28.01200
H  48.95400 31.74700 28.81900
H  48.70600 31.11900 27.17500
H  47.32000 29.42300 33.08200
H  49.40700 29.54300 36.57800
H  50.80500 28.96900 35.47000
H  49.72500 27.79600 36.07400

