158

Mg 8.93200 3.81300 27.08900
C  10.02900 2.33800 30.01800
C  6.86700 5.81100 29.08700
C  7.68600 5.07400 24.27700
C  10.66100 1.39100 25.26000
N  8.41400 3.94300 29.30100
C  9.15200 3.34300 30.29900
C  8.73800 3.88800 31.66400
C  7.55200 4.78900 31.30700
C  7.57000 4.85600 29.86200
C  6.14100 4.27000 31.74700
C  9.97100 4.62300 32.25800
C  10.39700 4.05400 33.60000
H  10.84100 4.96500 34.73100
N  7.53800 5.25400 26.76800
C  6.86600 6.03700 27.67500
C  6.03900 7.03300 26.97700
C  6.48100 6.96800 25.64900
C  7.26600 5.73800 25.51700
C  5.11100 7.99300 27.62000
C  6.18600 7.93400 24.57000
O  6.55800 7.75000 23.41800
C  5.51500 9.16100 24.93500
N  9.18500 3.37200 25.05900
C  8.61700 4.05000 24.10200
C  9.10800 3.52800 22.75100
C  10.18900 2.54300 23.03700
C  9.96400 2.33900 24.58600
C  7.82100 3.01800 22.05500
C  11.68500 3.02600 22.70500
C  12.55900 2.08100 21.89800
N  10.05000 2.04500 27.51500
C  10.79400 1.23400 26.69500
C  11.67400 0.33800 27.44200
C  11.31000 0.64300 28.79900
C  10.37200 1.73500 28.78300
C  12.66200 -0.56200 26.88800
C  11.62300 0.46000 30.16700
O  12.48500 -0.30100 30.58600
C  10.85500 1.53300 31.03200
C  10.02800 0.69400 31.91700
O  8.83300 0.33000 31.72700
O  10.78200 0.51500 33.08900
C  9.99400 -0.30200 34.05300
H  6.33000 6.49900 29.74300
H  7.28400 5.51800 23.36400
H  11.12500 0.69300 24.56000
H  8.42100 3.11200 32.36200
H  7.68600 5.76900 31.76400
H  5.95500 4.69300 32.73400
H  6.37400 3.22200 31.93500
H  5.24400 4.39400 31.14000
H  9.83400 5.70400 32.22900
H  10.80200 4.43500 31.57800
H  11.30600 3.47200 33.44800
H  9.62700 3.37200 33.96100
H  4.86300 7.60200 28.60700
H  4.17400 8.10100 27.07400
H  5.55600 8.98200 27.73700
H  4.48600 8.91700 25.19900
H  5.49800 9.80700 24.05800
H  6.06100 9.70200 25.70800
H  9.39800 4.39600 22.15900
H  9.93600 1.56900 22.61700
H  6.92900 2.98000 22.68000
H  7.93300 2.06500 21.53900
H  7.63900 3.76500 21.28300
H  12.23800 3.29700 23.60400
H  11.58800 3.91500 22.08200
H  12.89000 2.59200 20.99300
H  11.99700 1.18700 21.62900
H  13.40900 1.73100 22.48400
H  12.21700 -1.22900 26.15000
H  13.06400 -1.20200 27.67300
H  13.48100 -0.02100 26.41300
H  11.51700 2.18200 31.60600
H  9.39700 -1.06900 33.55900
H  9.37700 0.29100 34.72800
H  10.75500 -0.75300 34.69000
Mg 0.75100 43.92700 26.43400
C  2.89500 44.10800 29.35700
C  -1.82700 43.07200 28.68900
C  -1.24400 43.16800 23.80800
C  3.47400 44.34300 24.40900
N  0.66600 43.54200 28.80200
C  1.57100 43.90000 29.72900
C  0.95000 43.83800 31.15900
C  -0.45700 43.03100 30.94400
C  -0.56000 43.19900 29.36500
C  -0.44900 41.57100 31.38000
C  0.84200 45.21300 31.94700
C  1.01500 45.18100 33.45500
H  0.61700 43.84800 34.09600
N  -1.25800 43.46200 26.18000
C  -2.17900 43.22700 27.30500
C  -3.49300 43.20700 26.76600
C  -3.32400 43.14100 25.34600
C  -1.92300 43.27300 25.05400
C  -4.80200 43.10500 27.57500
C  -4.43700 43.00400 24.24500
O  -4.26300 43.14600 23.01400
C  -5.84300 42.83800 24.64300
N  1.07300 43.72400 24.45100
C  0.14300 43.35000 23.58500
C  0.69800 43.50400 22.14400
C  2.06700 44.22300 22.34400
C  2.21700 44.06400 23.82400
C  0.83500 42.15000 21.35600
C  2.05700 45.73600 21.95300
C  3.48200 46.17600 21.35600
N  2.77800 44.14600 26.77000
C  3.72800 44.32600 25.78800
C  5.04100 44.32400 26.41100
C  4.72500 44.26500 27.78300
C  3.34100 44.21100 27.99200
C  6.37900 44.29500 25.78400
C  5.30000 44.10200 29.11800
O  6.47300 44.11500 29.42300
C  4.11200 44.15500 30.25400
C  4.32300 43.01800 31.16800
O  4.62900 41.88300 30.88100
O  4.27600 43.46200 32.44300
C  4.63500 42.47000 33.48200
H  -2.62900 42.81500 29.38300
H  -1.86300 42.93000 22.94100
H  4.24400 44.59000 23.67500
H  1.67400 43.21400 31.68400
H  -1.17800 43.61200 31.51800
H  -0.93800 40.90100 30.67300
H  -1.09600 41.38200 32.23600
H  0.58700 41.37200 31.65400
H  -0.06900 45.68700 31.58200
H  1.61600 45.83100 31.49200
H  0.47900 45.96600 33.98700
H  2.08200 45.37900 33.55400
H  -4.51400 43.27900 28.61200
H  -5.53000 42.31700 27.38300
H  -5.48400 43.91500 27.31500
H  -6.11500 43.77900 25.12200
H  -6.03700 42.04500 25.36600
H  -6.51100 42.77700 23.78400
H  0.03900 44.15500 21.56900
H  2.91800 43.68500 21.92500
H  0.16500 41.41000 21.79300
H  1.88000 41.87100 21.22400
H  0.49100 42.25800 20.32800
H  1.86100 46.32500 22.84900
H  1.34400 45.94400 21.15500
H  3.91700 47.11800 21.69000
H  3.37800 46.28900 20.27700
H  4.21800 45.38100 21.47800
H  6.27600 43.60900 24.94300
H  7.14500 44.06200 26.52400
H  6.71700 45.22100 25.32000
H  4.16300 45.11600 30.76700
H  5.30000 41.69500 33.10000
H  3.72000 42.04700 33.89500
H  5.15600 42.99100 34.28500

