158

Mg 46.66500 24.36900 28.33200
C  47.56300 26.75700 30.90300
C  46.08800 22.19100 30.87200
C  46.48900 22.10400 26.13800
C  47.82400 26.72700 26.02000
N  46.58900 24.57700 30.67600
C  46.99300 25.60300 31.47800
C  46.78100 25.23800 32.94500
C  46.38900 23.78400 32.94100
C  46.35000 23.48500 31.39800
C  47.32000 22.89200 33.70900
C  45.86700 26.17900 33.76600
C  46.52500 26.77900 35.09600
H  45.54300 27.19300 36.12800
N  46.17300 22.44100 28.40300
C  45.99300 21.73800 29.53900
C  45.48700 20.41100 29.17200
C  45.69300 20.30800 27.76600
C  46.09100 21.63100 27.35700
C  44.98600 19.34100 30.14000
C  45.37100 19.19600 26.81900
O  45.20400 19.32500 25.59900
C  45.03500 17.81500 27.47200
N  47.14300 24.38100 26.31500
C  46.75800 23.31200 25.58900
C  47.01200 23.54800 24.11300
C  47.14000 25.09700 24.07800
C  47.42400 25.48300 25.60600
C  48.30900 22.94000 23.50100
C  45.97000 25.92800 23.52600
C  44.76700 26.23100 24.40300
N  47.50000 26.35400 28.36500
C  47.91300 27.15400 27.37000
C  48.56300 28.32400 27.82700
C  48.39900 28.25500 29.21500
C  47.78600 26.99000 29.50400
C  49.17900 29.42500 26.97100
C  48.61300 28.91700 30.43900
O  49.06200 30.02700 30.62600
C  48.16300 27.97400 31.62100
C  49.29900 27.46400 32.46300
O  49.83700 26.37700 32.48000
O  49.72000 28.45000 33.33500
C  50.52600 28.08300 34.48200
H  45.87100 21.47700 31.66900
H  46.52100 21.31700 25.38100
H  48.01900 27.54000 25.31700
H  47.73600 25.26700 33.46900
H  45.34200 23.81300 33.24300
H  46.70600 22.06800 34.07200
H  47.75100 23.39800 34.57200
H  48.11900 22.48000 33.09200
H  45.00100 25.57500 34.03600
H  45.47700 27.01800 33.19000
H  47.14300 27.62600 34.79800
H  47.23400 26.03600 35.46100
H  44.00900 19.00300 29.79500
H  44.64900 19.81500 31.06200
H  45.72400 18.55300 30.28800
H  45.91000 17.31000 27.88100
H  44.82900 17.10500 26.67100
H  44.14300 17.69700 28.08800
H  46.11000 23.33700 23.53900
H  47.92200 25.40100 23.38200
H  49.10100 23.61900 23.18700
H  48.04400 22.28100 22.67400
H  48.72200 22.26400 24.25000
H  45.65600 25.36900 22.64400
H  46.43400 26.86500 23.21800
H  44.83900 25.72200 25.36500
H  43.82000 25.81700 24.05700
H  44.79000 27.31800 24.47600
H  49.59600 28.96800 26.07300
H  49.95700 29.96100 27.51300
H  48.45400 30.14500 26.59100
H  47.42200 28.44500 32.26600
H  50.47400 28.88900 35.21500
H  51.51500 27.76400 34.15500
H  50.16700 27.18600 34.98600
Mg 6.84500 53.24100 41.61200
C  6.37000 49.74600 41.05400
C  9.99300 52.94300 40.54700
C  7.02600 56.73500 41.40300
C  3.48500 53.49300 42.42300
N  7.99400 51.49000 40.81200
C  7.71800 50.18100 40.71800
C  8.98100 49.36800 40.50100
C  10.15000 50.40000 40.62600
C  9.36200 51.69800 40.73100
C  11.01400 50.24600 41.95700
C  9.00000 48.71500 39.07300
C  8.78600 49.64900 37.79300
H  7.72000 49.24400 36.73800
N  8.24200 54.61000 40.95400
C  9.47100 54.27100 40.65600
C  10.29700 55.52400 40.50600
C  9.48100 56.63400 40.76300
C  8.17900 55.97700 41.06300
C  11.67900 55.53500 40.12200
C  10.01900 58.13700 40.69500
O  11.20300 58.39900 40.43500
C  9.20300 59.24900 41.10100
N  5.42300 54.88100 41.82700
C  5.74800 56.20700 41.68400
C  4.51900 57.05500 42.12700
C  3.43200 56.02200 42.43800
C  4.10000 54.69300 42.08000
C  4.85900 58.04300 43.28700
C  2.09500 56.26100 41.63800
C  2.06700 55.68200 40.16100
N  5.24600 51.92100 41.79500
C  3.94000 52.19100 42.12800
C  3.08600 50.96400 42.11200
C  4.02800 49.98200 41.76500
C  5.31500 50.58800 41.54300
C  1.59000 50.90600 42.57500
C  4.23900 48.59300 41.51200
O  3.50300 47.60100 41.51900
C  5.77300 48.32900 41.02500
C  5.61600 47.80500 39.64300
O  5.47000 48.39700 38.57300
O  5.77100 46.45500 39.63500
C  5.55400 45.79400 38.37600
H  11.08400 52.88600 40.51800
H  7.14000 57.80600 41.58000
H  2.52400 53.64200 42.91900
H  8.99600 48.65300 41.32400
H  10.82500 50.57600 39.78800
H  12.05600 50.46800 41.72500
H  10.97100 49.23100 42.35200
H  10.66700 50.95800 42.70500
H  8.23500 47.93900 39.02900
H  9.94900 48.18400 38.99700
H  9.71700 49.72200 37.23000
H  8.53000 50.66800 38.08300
H  12.09600 54.57600 39.81200
H  12.28900 55.87700 40.95900
H  11.84300 56.25600 39.32200
H  8.35300 59.37200 40.43100
H  9.78400 60.17200 41.11000
H  8.79200 59.08600 42.09700
H  4.00700 57.72100 41.43300
H  3.07600 55.81900 43.44800
H  5.89300 57.89800 43.59900
H  4.21200 58.01500 44.16300
H  4.75900 59.08900 42.99500
H  1.95300 57.32200 41.43500
H  1.31100 55.81700 42.25200
H  1.51100 56.29900 39.45400
H  1.73000 54.64800 40.22300
H  3.09200 55.50300 39.83700
H  0.92600 50.91400 41.71100
H  1.41600 51.89000 43.01000
H  1.45200 50.06200 43.25100
H  6.32400 47.62600 41.64900
H  5.53500 44.71400 38.52100
H  6.38700 46.10400 37.74500
H  4.65200 46.05500 37.82200

