158

Mg -1.09400 18.10700 26.81000
C  -1.64200 15.76000 29.52500
C  -1.44000 20.62400 29.25800
C  -0.59100 20.19000 24.41800
C  -0.96300 15.29000 24.75900
N  -1.39600 18.12700 29.19600
C  -1.58700 17.10400 30.03500
C  -1.77400 17.62800 31.43400
C  -1.93800 19.16100 31.19200
C  -1.46200 19.38000 29.79800
C  -3.40900 19.58500 31.50400
C  -0.64100 17.30800 32.45200
C  -1.18500 16.99000 33.85300
H  -0.07100 16.72500 34.92300
N  -0.92100 20.12600 26.87500
C  -1.11100 20.95300 27.93900
C  -0.98200 22.33800 27.38300
C  -0.66700 22.23000 25.98000
C  -0.79400 20.80100 25.68100
C  -0.93200 23.57400 28.25400
C  -0.50800 23.26900 24.89100
O  -0.33200 23.08000 23.69200
C  -0.44100 24.66800 25.41600
N  -0.72800 17.77900 24.84500
C  -0.59600 18.83700 24.01300
C  -0.58600 18.40200 22.49900
C  -0.49500 16.82000 22.64500
C  -0.74500 16.56300 24.13500
C  -1.84800 18.93400 21.72500
C  0.78000 16.22700 22.03200
C  1.94600 15.85200 22.96400
N  -1.30900 16.01300 27.04500
C  -1.25100 15.02800 26.05200
C  -1.58800 13.77500 26.60400
C  -1.75400 14.01600 27.93900
C  -1.54300 15.38100 28.17200
C  -1.92500 12.56600 25.74100
C  -2.04300 13.34900 29.21600
O  -2.27200 12.21300 29.45100
C  -1.95400 14.48600 30.32900
C  -0.95100 14.09500 31.45800
O  0.28300 14.11900 31.42700
O  -1.60300 13.75400 32.67600
C  -0.75200 13.25000 33.68300
H  -1.75500 21.48600 29.84900
H  -0.49600 20.82700 23.53700
H  -0.89200 14.53300 23.97500
H  -2.65200 17.22100 31.93400
H  -1.29700 19.67600 31.90700
H  -3.83800 20.25400 30.75800
H  -3.41200 20.17500 32.42000
H  -4.16400 18.83000 31.72500
H  0.09600 18.09100 32.63100
H  -0.01700 16.49500 32.08300
H  -1.83100 16.12600 33.70000
H  -1.77500 17.83100 34.21700
H  0.06300 23.99800 28.38800
H  -1.33900 23.37500 29.24500
H  -1.61600 24.29200 27.79900
H  -1.36300 25.08800 25.81700
H  -0.23000 25.33900 24.58300
H  0.34100 24.73700 26.17200
H  0.34400 18.78000 22.07400
H  -1.30700 16.33300 22.10500
H  -2.34000 18.24600 21.03700
H  -1.45500 19.76200 21.13500
H  -2.64900 19.32900 22.34900
H  1.20100 16.86000 21.25100
H  0.49200 15.29200 21.55300
H  1.92100 16.52800 23.81900
H  2.85300 16.13000 22.42700
H  2.09900 14.80300 23.21800
H  -2.69000 12.78500 24.99700
H  -2.41900 11.85000 26.39800
H  -1.08700 12.05500 25.26700
H  -2.91600 14.63800 30.81800
H  -0.42500 14.13600 34.22800
H  0.14500 12.71800 33.36600
H  -1.19500 12.52500 34.36500
Mg 34.80700 2.68700 30.56200
C  32.48600 3.60800 32.90200
C  37.37900 3.05300 32.71500
C  36.93400 1.68700 28.11600
C  32.10500 2.77900 28.21400
N  34.87400 3.16700 32.50700
C  33.82700 3.52100 33.34100
C  34.24600 3.64800 34.76100
C  35.81500 3.70700 34.65100
C  36.08600 3.32600 33.15100
C  36.35900 5.21400 35.02400
C  33.68100 2.43200 35.60900
C  33.76900 2.63500 37.09900
H  34.17400 4.00400 37.67600
N  36.86300 2.41900 30.39800
C  37.78900 2.63300 31.41000
C  39.11600 2.16600 31.03600
C  39.00300 1.89200 29.65900
C  37.58800 2.04000 29.34000
C  40.26100 2.02300 32.00900
C  40.12700 1.58900 28.68000
O  39.84800 1.41200 27.46800
C  41.63100 1.59600 29.14600
N  34.57900 2.35300 28.49700
C  35.63700 1.92600 27.74600
C  35.21300 1.94200 26.22200
C  33.70300 2.08000 26.36900
C  33.44700 2.49400 27.86000
C  35.84000 3.11100 25.45800
C  32.91400 0.82000 25.99500
C  32.60800 0.67600 24.51500
N  32.75300 3.19200 30.47300
C  31.80200 3.13700 29.48200
C  30.48400 3.47400 30.00200
C  30.72200 3.65300 31.36600
C  32.10900 3.55800 31.57600
C  29.20000 3.56300 29.32100
C  30.01800 4.03300 32.54300
O  28.81100 4.10700 32.71600
C  31.14200 3.92400 33.64000
C  31.11000 5.07100 34.52100
O  31.76700 6.09800 34.37100
O  30.22900 4.88200 35.60100
C  30.25500 5.89300 36.63600
H  38.20400 3.27700 33.39500
H  37.54700 1.20900 27.34900
H  31.33200 2.79300 27.44200
H  33.93600 4.59700 35.19900
H  36.26400 3.00600 35.35400
H  36.94200 5.03700 35.92800
H  35.64600 5.98200 35.32600
H  37.05200 5.64800 34.30300
H  34.35900 1.63900 35.29400
H  32.66800 2.08800 35.40300
H  34.45000 1.92600 37.56900
H  32.78300 2.35000 37.46600
H  41.09800 2.64000 31.68100
H  40.49000 0.95700 32.01800
H  39.99600 2.31900 33.02400
H  41.87000 0.86900 29.92200
H  41.73300 2.63300 29.46700
H  42.26700 1.40700 28.28200
H  35.47400 1.05800 25.64100
H  33.34000 2.95900 25.83600
H  36.48900 2.62000 24.73300
H  36.27500 3.83400 26.14800
H  35.19900 3.65200 24.76200
H  31.97400 0.81700 26.54700
H  33.46300 -0.08500 26.25700
H  33.39900 1.06600 23.87400
H  31.70600 1.18000 24.16800
H  32.53600 -0.40800 24.43400
H  29.34800 3.16900 28.31600
H  28.84100 4.59200 29.34300
H  28.52400 2.89200 29.85100
H  30.80700 3.13600 34.31400
H  29.61800 6.69600 36.26500
H  31.25600 6.28700 36.81200
H  29.85500 5.59100 37.60500

