158

Mg 2.46500 -1.58000 44.25900
C  5.53000 -0.47200 43.37400
C  0.96800 0.86000 42.32500
C  -0.51800 -3.24100 44.49200
C  4.07100 -4.44200 45.70800
N  3.19500 -0.08300 42.96800
C  4.50300 0.30100 42.84600
C  4.62100 1.52800 41.92900
C  3.25400 2.11000 42.05200
C  2.40100 0.89100 42.38300
C  3.03800 3.30200 43.03600
C  5.12300 1.04800 40.58200
C  6.21200 1.90600 39.94200
H  5.72000 2.57700 38.63300
N  0.49600 -1.14700 43.62700
C  0.04300 -0.07900 42.83900
C  -1.30000 -0.18900 42.59400
C  -1.81700 -1.32400 43.27700
C  -0.60700 -1.94900 43.88000
C  -2.08700 0.71000 41.70900
C  -3.29200 -1.78200 43.37200
O  -4.16800 -1.14100 42.74700
C  -3.69600 -3.10400 44.07100
N  1.88000 -3.40800 45.09600
C  0.59800 -3.90700 45.05900
C  0.42200 -5.33700 45.62500
C  1.97000 -5.66000 45.88600
C  2.66800 -4.45600 45.55900
C  -0.39700 -5.47000 46.96800
C  2.51600 -6.87200 44.98900
C  3.39700 -7.93300 45.61500
N  4.38500 -2.24600 44.70700
C  4.91200 -3.40200 45.30300
C  6.32300 -3.34300 45.31100
C  6.66400 -2.23600 44.54300
C  5.39200 -1.63400 44.20100
C  7.34300 -4.40600 45.88900
C  7.68000 -1.35700 44.01700
O  8.89500 -1.43200 44.03300
C  7.00000 -0.19800 43.27300
C  7.38200 1.11200 44.00500
O  6.72400 1.54900 44.94800
O  8.50200 1.60700 43.39800
C  8.83000 2.96900 43.94900
H  0.54600 1.62400 41.66900
H  -1.41200 -3.86800 44.44800
H  4.47900 -5.36900 46.11500
H  5.27000 2.24900 42.42700
H  2.89800 2.51700 41.10500
H  3.97700 3.68600 43.43600
H  2.50600 2.93600 43.91400
H  2.36000 4.06400 42.65200
H  4.19000 1.10700 40.02200
H  5.38000 -0.00400 40.71200
H  7.09100 1.36500 39.59400
H  6.45500 2.73500 40.60600
H  -2.77300 1.30200 42.31500
H  -2.65400 0.06200 41.04100
H  -1.63400 1.34900 40.95100
H  -4.76300 -3.13900 44.29300
H  -3.24500 -3.15600 45.06200
H  -3.40300 -3.95900 43.46200
H  -0.03100 -5.87400 44.79100
H  2.16200 -5.97100 46.91200
H  0.17400 -5.69000 47.87000
H  -1.15700 -6.24100 46.84300
H  -0.87500 -4.50000 47.11100
H  3.13600 -6.47900 44.18400
H  1.64500 -7.43700 44.65700
H  2.93900 -8.92100 45.57400
H  3.41900 -7.60000 46.65300
H  4.35900 -8.00200 45.10700
H  7.42000 -5.19500 45.14100
H  6.86800 -4.76000 46.80500
H  8.35000 -4.01100 46.01800
H  7.27200 -0.13500 42.21900
H  9.70300 2.71800 44.55000
H  8.09700 3.54800 44.51100
H  9.16600 3.48400 43.04900
Mg 17.48400 -1.46500 27.59900
C  16.60100 0.62700 30.18000
C  19.54200 -3.19400 29.71500
C  18.51900 -3.32100 24.91000
C  15.77700 0.74500 25.46500
N  17.84900 -1.39400 29.70600
C  17.46300 -0.44600 30.60900
C  17.98700 -0.70500 32.03100
C  19.02400 -1.87700 31.81200
C  18.85700 -2.13000 30.30600
C  20.43000 -1.48100 32.21900
C  16.77100 -1.08100 32.91200
C  16.66800 -0.34800 34.31400
H  17.82100 0.33500 34.92300
N  18.75500 -3.10200 27.39100
C  19.51300 -3.69900 28.36000
C  20.19100 -4.89200 27.85100
C  19.81800 -5.04700 26.48900
C  19.00700 -3.74200 26.17000
C  21.10000 -5.75600 28.69100
C  20.18200 -6.20600 25.50300
O  19.89400 -6.19400 24.34700
C  20.80700 -7.44500 26.07400
N  17.38700 -1.20700 25.49900
C  17.84800 -2.11600 24.57000
C  17.59800 -1.67300 23.15700
C  16.62700 -0.48200 23.35900
C  16.59700 -0.25100 24.86100
C  18.92300 -1.27400 22.46200
C  15.20300 -0.66200 22.77200
C  14.98500 0.14700 21.47600
N  16.36600 0.26500 27.79200
C  15.66500 1.03800 26.82200
C  14.94700 2.12100 27.44300
C  15.38200 2.07700 28.79000
C  16.15900 0.93200 28.93200
C  13.98700 3.14300 26.83200
C  15.35400 2.77400 30.08500
O  14.75900 3.79400 30.33500
C  15.95700 1.78000 31.06000
C  16.91400 2.55100 31.91100
O  18.10100 2.64300 31.80200
O  16.08700 3.26100 32.68400
C  16.78600 4.26000 33.50500
H  20.21800 -3.70500 30.40400
H  18.85700 -3.88200 24.03600
H  15.24400 1.35000 24.72900
H  18.49000 0.15300 32.47600
H  18.80900 -2.78600 32.37400
H  20.37900 -0.62900 32.89700
H  21.02300 -1.25000 31.33500
H  20.94100 -2.22700 32.82800
H  16.66000 -2.14200 33.13500
H  15.81500 -0.88500 32.42800
H  16.31500 -1.09800 35.02200
H  15.86700 0.39000 34.27000
H  22.07300 -5.95200 28.24100
H  20.62600 -6.70300 28.94800
H  21.23200 -5.22100 29.63100
H  20.88600 -8.28500 25.38400
H  20.29900 -7.69100 27.00700
H  21.83400 -7.26600 26.39500
H  17.07000 -2.46400 22.62400
H  17.12600 0.38100 22.91900
H  18.94700 -0.25300 22.07900
H  19.06000 -1.91300 21.58900
H  19.86700 -1.34100 23.00200
H  14.50600 -0.31700 23.53600
H  15.03000 -1.72600 22.60900
H  14.55400 -0.58700 20.79600
H  15.99100 0.32200 21.09700
H  14.46900 1.09800 21.61400
H  13.26800 2.69900 26.14300
H  14.56100 3.80500 26.18500
H  13.46800 3.76600 27.56000
H  15.21000 1.25400 31.65400
H  16.95400 5.16100 32.91600
H  17.63000 3.75700 33.97600
H  16.18800 4.65300 34.32700

