158

Mg 1.77900 -0.98300 44.87800
C  5.09300 -0.17100 44.22500
C  0.83800 1.85400 43.27400
C  -1.42900 -2.23100 44.67600
C  2.90600 -4.13700 45.88400
N  2.89200 0.57800 43.66300
C  4.21400 0.75700 43.73000
C  4.56600 2.10500 43.13500
C  3.20900 2.90100 43.10600
C  2.24100 1.74600 43.43200
C  3.16500 4.07800 44.14100
C  5.35200 2.04200 41.79100
C  4.99100 0.81300 40.84600
H  4.77000 1.17000 39.39200
N  -0.09400 -0.22500 44.23800
C  -0.24100 0.95500 43.57100
C  -1.61700 1.15500 43.19000
C  -2.27900 -0.00800 43.58800
C  -1.24700 -0.93000 44.15000
C  -2.05200 2.39400 42.39400
C  -3.78900 -0.36500 43.40400
O  -4.61200 0.55200 43.11300
C  -4.42800 -1.72300 43.56500
N  0.82100 -2.91400 45.10900
C  -0.51200 -3.16100 45.06900
C  -0.81700 -4.57800 45.55000
C  0.57100 -5.02600 46.10200
C  1.51600 -3.97000 45.67400
C  -2.06600 -4.76300 46.44900
C  0.92700 -6.44500 45.56000
C  1.91400 -7.35000 46.30200
N  3.62500 -1.92700 45.29000
C  3.92800 -3.21900 45.63400
C  5.35300 -3.41900 45.75400
C  5.89000 -2.21500 45.30700
C  4.78100 -1.36400 44.91000
C  6.07300 -4.57600 46.25000
C  7.12500 -1.55800 44.99300
O  8.26800 -1.86500 45.18300
C  6.65300 -0.18000 44.29800
C  7.11900 0.94000 45.14300
O  6.91400 1.16700 46.32100
O  7.80900 1.77500 44.21600
C  8.09800 3.12000 44.64300
H  0.57800 2.79400 42.78400
H  -2.44300 -2.61600 44.80200
H  3.34600 -5.08500 46.20000
H  5.21700 2.58500 43.86600
H  3.01900 3.27000 42.09800
H  3.43500 4.98200 43.59500
H  3.80400 3.81100 44.98200
H  2.11600 4.13900 44.43100
H  6.42600 2.09500 41.96900
H  5.05900 2.96000 41.28000
H  4.16100 0.21600 41.22300
H  5.80600 0.09100 40.90300
H  -3.07400 2.23400 42.05100
H  -1.48800 2.58700 41.48100
H  -2.02400 3.29000 43.01400
H  -5.45600 -1.71800 43.20300
H  -4.43600 -1.84500 44.64800
H  -3.83000 -2.54000 43.16100
H  -0.97300 -5.14400 44.63200
H  0.43500 -4.99300 47.18300
H  -2.83500 -5.24700 45.84700
H  -2.48200 -3.82400 46.81200
H  -1.89100 -5.29200 47.38600
H  1.40200 -6.19700 44.61100
H  0.02400 -6.93400 45.19700
H  1.34600 -8.27000 46.44500
H  2.28000 -6.86000 47.20400
H  2.71100 -7.53700 45.58200
H  5.79400 -5.03300 47.19900
H  7.15000 -4.42700 46.31800
H  5.86100 -5.43100 45.60900
H  7.00400 -0.04100 43.27600
H  7.15500 3.51500 45.02100
H  8.59100 3.69800 43.86100
H  8.77800 3.09500 45.49400
Mg 48.97900 35.88300 27.43500
C  47.06100 33.99400 29.99900
C  49.08100 38.41500 29.65200
C  50.22400 37.66400 25.01700
C  48.50500 33.23100 25.24200
N  48.00600 36.18200 29.52700
C  47.44700 35.28800 30.42600
C  47.49900 35.93800 31.83400
C  47.68500 37.45900 31.60300
C  48.29900 37.36200 30.15600
C  46.39600 38.34100 31.54400
C  48.60300 35.23100 32.73100
C  48.25600 34.80100 34.16500
H  46.99400 35.38300 34.82400
N  49.72600 37.69900 27.44600
C  49.79100 38.57500 28.48000
C  50.59600 39.74600 28.11300
C  50.86000 39.56600 26.71800
C  50.21700 38.27800 26.30700
C  51.02000 40.77000 29.09300
C  51.62600 40.48800 25.82400
O  51.69100 40.28300 24.61600
C  52.28500 41.72100 26.46500
N  49.31400 35.47600 25.37300
C  49.92200 36.34000 24.59300
C  50.17200 35.81200 23.17900
C  49.96800 34.27500 23.42800
C  49.26400 34.25900 24.74800
C  49.26100 36.54200 22.15300
C  51.26500 33.39400 23.53800
C  51.20100 32.09100 22.80100
N  48.05800 33.96800 27.56500
C  47.83100 33.09800 26.51100
C  47.03600 31.98900 27.01900
C  46.78600 32.36400 28.30600
C  47.36600 33.53000 28.66700
C  46.54100 30.71700 26.30600
C  45.99700 31.88400 29.47100
O  45.30600 30.95200 29.69100
C  46.08600 33.12000 30.51200
C  46.24400 32.58300 31.88800
O  47.24100 32.05100 32.37400
O  45.06700 32.75600 32.44100
C  44.71200 32.15000 33.70200
H  49.03000 39.21700 30.39100
H  50.65200 38.33900 24.27200
H  48.39500 32.40800 24.53300
H  46.53100 35.84900 32.32500
H  48.36600 37.95200 32.29700
H  46.02400 38.38200 32.56800
H  45.58200 37.91500 30.95700
H  46.56100 39.36700 31.21600
H  49.44600 35.90400 32.88700
H  49.11100 34.41500 32.21700
H  49.01800 35.10800 34.88100
H  48.24700 33.72500 34.34300
H  50.80500 40.45300 30.11300
H  50.66800 41.75800 28.79800
H  52.10900 40.79400 29.12900
H  51.49000 42.42400 26.71100
H  52.78200 42.27600 25.66900
H  53.07600 41.38100 27.13300
H  51.18700 36.11800 22.92500
H  49.20800 33.95000 22.71700
H  49.60500 37.48500 21.72700
H  48.40800 36.81900 22.77300
H  49.05300 35.87600 21.31600
H  51.45600 33.25100 24.60200
H  52.15000 33.86200 23.10500
H  51.10500 31.22900 23.46200
H  52.05200 31.98500 22.12800
H  50.24700 31.98600 22.28600
H  47.31900 30.05800 25.92100
H  46.00800 31.10700 25.43900
H  45.83200 30.11100 26.87000
H  45.13800 33.63500 30.35700
H  45.47600 32.26300 34.47100
H  44.72900 31.07300 33.53700
H  43.77300 32.49900 34.13400

