158

Mg 47.40400 16.57500 28.58300
C  45.32700 15.97100 31.37300
C  49.70000 17.89300 30.82100
C  49.31500 17.30700 25.97000
C  44.83600 15.55800 26.51700
N  47.49700 16.92900 30.82700
C  46.51900 16.56900 31.70100
C  46.89100 16.96000 33.16100
C  48.17700 17.80400 32.95300
C  48.49500 17.51000 31.45800
C  48.03300 19.35400 33.29800
C  47.08600 15.76500 34.19800
C  46.15400 15.69300 35.41100
H  45.59300 16.96900 35.92500
N  49.28900 17.40700 28.44100
C  50.10800 17.78400 29.49000
C  51.39800 18.16300 28.93100
C  51.30200 18.04300 27.51400
C  49.94400 17.49100 27.23400
C  52.52800 18.55000 29.84700
C  52.30100 18.35400 26.46700
O  52.12800 18.11700 25.23200
C  53.72900 18.84900 26.79200
N  47.04700 16.53100 26.59100
C  47.99600 16.99200 25.70400
C  47.50300 16.87100 24.28300
C  46.18500 16.12400 24.43600
C  45.99000 16.02900 25.89700
C  47.38100 18.23900 23.57500
C  46.04400 14.69300 23.75100
C  46.61800 13.45100 24.40900
N  45.57100 15.74800 28.84700
C  44.61800 15.42600 27.91900
C  43.45000 14.87400 28.62300
C  43.78000 14.92000 29.95600
C  45.03800 15.60000 30.02900
C  42.16400 14.30200 28.11500
C  43.24200 14.77800 31.26800
O  42.13900 14.32900 31.51300
C  44.20600 15.44600 32.26200
C  43.39500 16.47200 32.94100
O  43.17500 17.63400 32.56400
O  42.80500 15.88000 33.95500
C  41.68400 16.65300 34.50300
H  50.41500 18.33700 31.51700
H  49.91600 17.44500 25.06900
H  44.00900 15.26800 25.86600
H  46.01300 17.52700 33.47000
H  49.02100 17.46000 33.55200
H  47.09100 19.57400 33.80000
H  48.18300 19.97100 32.41100
H  48.87900 19.60500 33.93800
H  48.13000 15.78700 34.51100
H  47.04500 14.85100 33.60600
H  46.70700 15.26400 36.24700
H  45.38600 14.99400 35.07800
H  52.28500 19.07600 30.77000
H  53.33500 19.11800 29.38300
H  53.00700 17.59500 30.06800
H  53.70500 19.84200 27.24100
H  54.40400 18.84600 25.93600
H  54.02100 18.11600 27.54500
H  48.12400 16.10400 23.82100
H  45.40400 16.77900 24.05000
H  46.39100 18.34600 23.13000
H  48.04700 18.08800 22.72600
H  47.75900 19.09600 24.13200
H  46.56300 14.81200 22.80000
H  44.98400 14.49600 23.59100
H  47.38600 13.71700 25.13500
H  47.13800 12.79400 23.71100
H  45.88100 12.86500 24.95800
H  42.40300 13.32600 27.69400
H  41.74300 14.88200 27.29300
H  41.43200 14.03200 28.87600
H  44.52700 14.61100 32.88500
H  42.05800 17.57900 34.94000
H  41.17500 15.93800 35.14900
H  41.02700 16.84500 33.65500
Mg -5.27500 25.32600 25.39700
C  -3.67000 26.83300 28.32100
C  -6.96300 23.37000 27.63500
C  -6.72500 23.81400 22.82800
C  -3.24700 27.20800 23.38500
N  -5.14100 25.02200 27.61500
C  -4.51600 25.81900 28.64300
C  -5.06100 25.44700 30.07800
C  -5.91300 24.17100 29.75800
C  -6.04700 24.25700 28.23400
C  -5.34500 22.72600 30.27900
C  -5.85500 26.68900 30.72000
C  -5.68600 27.01600 32.23600
H  -5.36600 25.77000 33.12500
N  -6.65900 23.74700 25.21300
C  -7.27800 23.15900 26.29800
C  -8.14300 22.16700 25.71300
C  -8.00800 22.19600 24.30300
C  -7.11900 23.33100 24.03500
C  -8.93600 21.23700 26.63200
C  -8.71600 21.24100 23.21100
O  -8.59100 21.44300 22.04300
C  -9.59400 20.24500 23.66900
N  -4.93000 25.38900 23.45000
C  -5.81300 24.77200 22.54000
C  -5.46100 25.26000 21.11300
C  -4.52000 26.41500 21.33400
C  -4.09500 26.28100 22.78600
C  -4.81700 24.14100 20.21000
C  -4.86000 27.76200 20.72700
C  -4.45400 27.86600 19.20700
N  -3.69200 26.75200 25.72900
C  -3.02900 27.45900 24.80800
C  -2.21700 28.42800 25.55400
C  -2.41600 28.20300 26.90800
C  -3.36000 27.19400 26.97800
C  -1.30800 29.50600 24.96800
C  -1.98300 28.62800 28.25100
O  -1.05900 29.35600 28.71100
C  -2.83100 27.81600 29.10900
C  -1.96800 27.11700 30.10300
O  -1.02900 26.39300 29.82400
O  -2.25300 27.53100 31.34700
C  -1.51800 26.87600 32.43800
H  -7.48700 22.85200 28.44200
H  -7.22200 23.47500 21.91600
H  -2.70700 27.95300 22.79800
H  -4.18800 25.26100 30.70300
H  -6.92200 24.24700 30.16400
H  -5.48700 21.93600 29.54200
H  -5.95200 22.40200 31.12400
H  -4.31500 22.86600 30.60700
H  -6.90900 26.65500 30.44300
H  -5.38900 27.59000 30.32300
H  -6.62300 27.47000 32.55500
H  -4.85800 27.70900 32.38300
H  -8.60200 21.30100 27.66800
H  -9.08700 20.20300 26.32100
H  -9.90100 21.73600 26.72100
H  -8.96300 19.54400 24.21600
H  -10.13000 19.81500 22.82300
H  -10.28400 20.78000 24.32100
H  -6.38000 25.51800 20.58600
H  -3.58900 26.18400 20.81500
H  -5.19700 23.15100 20.46400
H  -3.75100 24.17800 20.43000
H  -4.97000 24.36400 19.15400
H  -4.52500 28.57600 21.37100
H  -5.94700 27.79100 20.79800
H  -4.42800 26.84700 18.82000
H  -3.48300 28.35700 19.26900
H  -5.11000 28.52800 18.64200
H  -1.89800 30.08900 24.26000
H  -0.45000 29.07700 24.45100
H  -1.00200 30.16600 25.78000
H  -3.51200 28.39100 29.73700
H  -2.01800 27.05500 33.39000
H  -0.54200 27.35400 32.52800
H  -1.47100 25.80300 32.25400

