158

Mg 44.93800 4.51200 48.30700
C  43.04900 7.15500 47.27600
C  42.43900 2.43800 47.62700
C  47.05600 1.83800 48.85600
C  47.75600 6.56800 48.31100
N  43.04200 4.81200 47.43700
C  42.35600 5.94900 47.14800
C  40.90300 5.71000 46.59500
C  40.67300 4.24100 47.12200
C  42.14700 3.80200 47.49600
C  39.49700 4.08600 48.16000
C  40.82200 5.84000 45.03500
C  40.01400 7.01300 44.39100
H  39.05500 6.71900 43.27800
N  44.75200 2.44400 48.06000
C  43.64900 1.76100 47.82900
C  43.89500 0.39900 47.78500
C  45.24200 0.16900 48.18000
C  45.79000 1.48400 48.35900
C  42.73800 -0.60800 47.66900
C  45.87300 -1.15000 48.48600
O  45.31500 -2.18900 48.12400
C  47.23300 -1.38400 49.01500
N  47.16700 4.19000 48.42700
C  47.75400 3.06000 48.93200
C  49.15800 3.15000 49.24000
C  49.32900 4.69300 49.07200
C  48.02700 5.21600 48.44800
C  49.59600 2.59800 50.59500
C  50.56600 5.16300 48.24000
C  51.43900 6.20300 48.87600
N  45.34100 6.50100 47.99300
C  46.54500 7.19300 47.99900
C  46.23100 8.62300 47.77700
C  44.86100 8.63500 47.55900
C  44.42400 7.36800 47.59700
C  47.08200 9.79900 47.79300
C  43.74500 9.61700 47.27100
O  43.63900 10.81800 47.15000
C  42.49600 8.54300 47.08600
C  41.44700 8.84700 48.19300
O  41.15800 8.09300 49.11400
O  40.89100 10.05400 47.89700
C  39.82700 10.44800 48.83200
H  41.49600 1.88900 47.59800
H  47.77800 1.03100 49.00200
H  48.61100 7.23400 48.45000
H  40.26700 6.47600 47.03900
H  40.30000 3.67900 46.26600
H  39.20100 5.06900 48.52600
H  39.91000 3.57700 49.03100
H  38.57400 3.71100 47.71800
H  40.42800 4.87100 44.72900
H  41.84400 5.91900 44.66300
H  40.71000 7.76900 44.02800
H  39.55500 7.50100 45.25200
H  42.92500 -1.29400 46.84300
H  41.79600 -0.11800 47.42500
H  42.58500 -1.25500 48.53400
H  47.41100 -2.44600 49.18200
H  47.38700 -0.74500 49.88400
H  47.78800 -1.08300 48.12700
H  49.69300 2.59900 48.46700
H  49.38200 5.08700 50.08700
H  48.68800 2.47900 51.18700
H  50.33300 3.21300 51.11200
H  50.09100 1.64300 50.41800
H  50.36800 5.60900 47.26500
H  51.28900 4.35100 48.15400
H  51.56200 6.02200 49.94300
H  50.84000 7.10700 48.76700
H  52.41200 6.32800 48.40100
H  46.70100 10.49300 48.54200
H  47.03600 10.22700 46.79200
H  48.07300 9.38800 47.98200
H  41.93600 8.62200 46.15500
H  38.95500 10.96300 48.43000
H  40.15800 10.91800 49.75800
H  39.27700 9.61100 49.26100
Mg 6.32800 53.50000 41.66200
C  5.59000 49.97400 41.18400
C  9.53400 52.76400 40.52000
C  6.76000 56.65900 41.20200
C  2.84700 53.99500 41.99100
N  7.40500 51.61500 40.84500
C  6.85900 50.27800 40.73500
C  7.94300 49.32600 40.27700
C  9.27700 50.18100 40.60500
C  8.73200 51.62200 40.65800
C  10.06200 49.64400 41.85100
C  7.82200 49.00700 38.76500
C  7.24900 50.12000 37.81400
H  6.70500 49.86000 36.39400
N  7.97700 54.63600 41.13000
C  9.16900 54.14700 40.72600
C  10.06300 55.29100 40.49700
C  9.24000 56.48600 40.62300
C  7.93900 55.97200 41.02000
C  11.53700 55.05400 40.09000
C  9.74000 57.96300 40.37000
O  10.88300 58.17700 39.97000
C  8.81600 59.13600 40.47300
N  4.94100 55.09100 41.58800
C  5.39200 56.35400 41.36300
C  4.38500 57.46200 41.60300
C  3.12100 56.57600 41.63600
C  3.60000 55.15200 41.86800
C  4.67700 58.35300 42.89100
C  2.25400 56.71500 40.32300
C  1.02200 57.66700 40.54900
N  4.55700 52.32100 41.71800
C  3.25100 52.62400 41.93100
C  2.43200 51.39100 42.22300
C  3.36700 50.39800 41.88300
C  4.65200 50.92800 41.54900
C  0.96800 51.37200 42.71800
C  3.49900 48.91100 41.77500
O  2.65100 48.01500 41.89300
C  4.95400 48.55900 41.24200
C  4.84500 47.82600 39.93900
O  4.27400 48.24900 38.89500
O  5.58100 46.67700 40.01800
C  5.43800 45.75100 38.89600
H  10.56500 52.51400 40.25800
H  6.89700 57.74000 41.27600
H  1.76300 54.10300 42.06000
H  7.96800 48.38200 40.82200
H  10.10500 50.08000 39.90300
H  11.07200 49.37500 41.54100
H  9.51200 48.80600 42.27800
H  10.03400 50.49600 42.53100
H  7.24200 48.08600 38.69900
H  8.85700 48.95500 38.42500
H  8.09900 50.75100 37.55500
H  6.50200 50.78400 38.25000
H  11.66700 55.16100 39.01300
H  11.88700 54.13000 40.55200
H  12.04800 55.82400 40.66800
H  9.38500 60.02500 40.20100
H  8.25600 59.23600 41.40200
H  8.09600 58.96200 39.67400
H  4.35700 58.15700 40.76400
H  2.44000 56.77500 42.46300
H  5.02500 59.27700 42.43000
H  5.44400 57.87800 43.50300
H  3.73800 58.49900 43.42500
H  1.83300 55.74100 40.07500
H  2.82000 56.84000 39.40100
H  0.98900 58.44000 39.78100
H  1.12700 58.11700 41.53600
H  0.10100 57.08400 40.59200
H  0.52800 52.36900 42.76100
H  0.88500 50.89900 43.69700
H  0.43600 50.75900 41.99100
H  5.45400 47.82300 41.87100
H  4.44900 45.29700 38.95600
H  6.21700 44.99300 38.81900
H  5.42300 46.37100 38.00000

