158

Mg 2.40600 -1.98800 44.83800
C  5.62200 -1.30100 44.46100
C  1.55100 0.74600 42.89700
C  -0.90800 -3.08100 44.73600
C  3.23700 -4.92100 46.55400
N  3.46400 -0.61200 43.69100
C  4.82300 -0.53400 43.63200
C  5.29400 0.62500 42.76100
C  4.00500 1.51100 42.70300
C  2.89600 0.51200 43.15000
C  4.02200 2.86300 43.51700
C  5.99500 0.14300 41.47500
C  7.37300 0.88100 41.18700
H  7.49000 1.94300 40.08400
N  0.61000 -1.34200 43.75900
C  0.47400 -0.11400 43.10800
C  -0.88700 0.05400 42.72300
C  -1.63300 -1.02100 43.24800
C  -0.65800 -1.91100 43.96700
C  -1.28500 1.26200 41.86900
C  -3.14000 -1.15700 43.17400
O  -3.82500 -0.36100 42.55900
C  -3.95300 -2.23400 43.89700
N  1.32500 -3.77000 45.53800
C  0.00300 -3.97800 45.37900
C  -0.47700 -5.28400 46.09000
C  0.80800 -5.77300 46.79700
C  1.84800 -4.78700 46.22400
C  -1.65900 -5.15000 47.01500
C  1.15200 -7.30500 46.59300
C  1.74400 -8.16800 47.77200
N  4.14800 -2.96700 45.45800
C  4.35100 -4.11300 46.17000
C  5.77900 -4.20600 46.50000
C  6.35300 -3.06400 45.91100
C  5.27900 -2.40400 45.19600
C  6.51500 -5.35900 47.13700
C  7.54900 -2.26400 45.77000
O  8.64200 -2.43700 46.26000
C  7.13400 -1.07300 44.76800
C  7.38800 0.24600 45.42800
O  6.77700 0.74600 46.42700
O  8.40400 0.95700 44.76600
C  8.49100 2.44400 45.07200
H  1.39600 1.71600 42.42000
H  -1.92400 -3.47800 44.70000
H  3.56700 -5.81400 47.08900
H  5.99100 1.15800 43.40800
H  3.89000 1.77300 41.65100
H  4.33100 3.56200 42.74100
H  4.69800 2.66000 44.34800
H  3.04900 3.13900 43.92400
H  5.24500 0.35300 40.71300
H  6.26200 -0.91400 41.50300
H  7.98200 0.13600 40.67400
H  7.87600 1.24200 42.08500
H  -0.51500 2.03000 41.80900
H  -2.27000 1.59200 42.19800
H  -1.43700 0.77700 40.90500
H  -4.96300 -1.94000 43.61100
H  -3.86100 -2.20000 44.98200
H  -3.76100 -3.23500 43.50900
H  -0.69000 -6.09900 45.39900
H  0.62200 -5.54100 47.84600
H  -2.13700 -4.18900 46.82300
H  -1.51600 -5.30800 48.08400
H  -2.40900 -5.88500 46.72300
H  1.96500 -7.19300 45.87600
H  0.22800 -7.81300 46.31300
H  0.92500 -8.69700 48.25900
H  2.34800 -7.59700 48.47700
H  2.35900 -8.93800 47.30500
H  6.32300 -6.26500 46.56300
H  6.11300 -5.52900 48.13600
H  7.58900 -5.17500 47.11500
H  7.55100 -1.02200 43.76200
H  7.68900 2.85200 45.68700
H  8.52700 2.88600 44.07600
H  9.44300 2.71000 45.53100
Mg 26.29700 49.98600 27.16900
C  24.47900 51.27700 29.80600
C  28.72000 49.15500 29.67300
C  28.37500 49.10800 24.74400
C  24.08100 51.35600 24.84300
N  26.54500 50.28900 29.57700
C  25.62800 50.78100 30.42700
C  25.97000 50.47700 31.83200
C  27.40500 49.99500 31.76900
C  27.59200 49.72800 30.24100
C  28.52700 51.01300 32.11300
C  24.92400 49.47100 32.45100
C  24.58300 49.83900 33.89000
H  25.54100 50.39000 34.92200
N  28.27400 49.22600 27.25300
C  29.11800 49.01300 28.29400
C  30.36700 48.46400 27.80200
C  30.32600 48.44200 26.36600
C  28.97000 48.98500 26.07100
C  31.58200 48.20600 28.70500
C  31.33600 47.96600 25.35400
O  31.14500 47.97200 24.16200
C  32.60600 47.57400 25.81800
N  26.22800 50.23000 25.13300
C  27.15000 49.65400 24.34100
C  26.72100 49.74700 22.87200
C  25.20400 50.17000 23.02300
C  25.15400 50.67600 24.43000
C  27.63200 50.84900 22.22400
C  24.11700 49.03000 22.79600
C  22.81500 49.46400 22.04500
N  24.54900 51.03600 27.28100
C  23.72900 51.48700 26.23200
C  22.62600 52.17400 26.79800
C  22.77000 52.07000 28.19400
C  24.05600 51.46300 28.46700
C  21.49900 52.76000 25.97500
C  22.18400 52.32500 29.52200
O  21.17000 52.78800 29.76000
C  23.19400 51.74900 30.56100
C  23.49300 52.75100 31.52700
O  24.22500 53.74500 31.40700
O  22.75900 52.49600 32.63700
C  22.80600 53.45300 33.73200
H  29.47700 48.79200 30.37100
H  29.03500 48.85500 23.91200
H  23.19900 51.47400 24.21100
H  25.99700 51.46800 32.28400
H  27.46900 49.13400 32.43400
H  28.90400 50.80900 33.11500
H  28.10500 52.01800 32.12000
H  29.30200 51.04300 31.34700
H  25.35600 48.47200 32.38600
H  24.01300 49.48600 31.85300
H  24.13000 48.98300 34.38900
H  23.65400 50.39800 33.78200
H  31.45700 48.66500 29.68600
H  32.43700 48.76500 28.32400
H  31.72800 47.14300 28.89300
H  33.11200 46.97500 25.06100
H  32.67600 46.91100 26.68000
H  33.21000 48.47500 25.92500
H  26.74700 48.75500 22.42000
H  24.98600 50.96200 22.30600
H  28.63800 50.92900 22.63600
H  27.14400 51.81300 22.36900
H  27.81300 50.66500 21.16500
H  23.77800 48.54700 23.71200
H  24.62200 48.25600 22.21900
H  22.86300 49.52600 20.95800
H  22.35300 50.42500 22.26800
H  22.15200 48.61800 22.23000
H  21.99800 53.48500 25.33300
H  20.83800 53.34500 26.61400
H  20.99900 52.02700 25.34200
H  22.67200 50.91700 31.03300
H  23.63400 53.36400 34.43600
H  21.87900 53.23700 34.26400
H  22.81600 54.42700 33.24300

