158

Mg 28.59400 56.68400 40.37800
C  26.76200 53.66000 39.82000
C  31.33400 55.03500 39.43100
C  30.10900 59.62400 40.29300
C  25.42500 58.21300 40.62300
N  28.91300 54.64400 39.44400
C  28.09400 53.53300 39.50100
C  28.88400 52.25600 39.16600
C  30.40100 52.78600 39.51400
C  30.23600 54.29500 39.36200
C  30.98000 52.29900 40.88900
C  28.58800 51.82300 37.66200
C  29.28600 52.51200 36.48700
H  28.28600 53.09500 35.44600
N  30.53300 57.30400 40.01200
C  31.54700 56.41400 39.63300
C  32.73600 57.17400 39.48100
C  32.46500 58.55600 39.84700
C  31.01600 58.54300 40.02400
C  34.12100 56.60600 39.05800
C  33.34900 59.75100 39.98500
O  34.56900 59.72600 39.76700
C  32.82800 61.16200 40.33100
N  27.83500 58.72700 40.36300
C  28.69100 59.77200 40.36700
C  27.85300 61.07700 40.57800
C  26.37400 60.57600 40.66200
C  26.55600 59.05900 40.51700
C  28.37800 62.04600 41.69100
C  25.38100 61.32300 39.71500
C  24.28300 62.21500 40.43900
N  26.45200 56.07500 40.26400
C  25.33600 56.81800 40.57200
C  24.18200 55.85000 40.66800
C  24.70700 54.62400 40.47700
C  26.05500 54.83200 40.12300
C  22.81700 56.24200 41.03300
C  24.41800 53.20000 40.46000
O  23.42200 52.60200 40.71900
C  25.81600 52.50700 39.98100
C  26.06500 51.54400 41.11300
O  26.93900 51.65400 41.96900
O  25.20000 50.51000 40.92800
C  25.37600 49.34600 41.79000
H  32.25000 54.45800 39.28600
H  30.59700 60.60000 40.26600
H  24.45900 58.70900 40.74200
H  28.70900 51.42800 39.85400
H  31.10700 52.47400 38.74400
H  31.51900 51.37100 40.69800
H  30.18000 51.99000 41.56200
H  31.53400 53.15500 41.27500
H  27.52800 52.04600 37.53900
H  28.82500 50.76700 37.53000
H  29.79200 51.76600 35.87400
H  30.14400 53.09900 36.81700
H  34.61700 57.33200 38.41300
H  33.94200 55.74800 38.41000
H  34.69500 56.36500 39.95300
H  32.32200 61.56400 39.45300
H  33.70800 61.76200 40.56700
H  32.20400 61.01000 41.21200
H  27.92300 61.64600 39.65000
H  26.05700 60.57700 41.70500
H  27.59700 62.40800 42.36000
H  28.91900 62.82300 41.15200
H  29.06300 61.58400 42.40200
H  24.92200 60.72700 38.92700
H  25.96100 62.03100 39.12300
H  23.27000 61.85000 40.26900
H  24.23100 63.18700 39.94800
H  24.40600 62.39500 41.50700
H  22.22400 55.38300 41.34800
H  22.27900 56.65100 40.17700
H  22.75400 56.93500 41.87300
H  25.68600 52.02100 39.01500
H  25.39200 49.77200 42.79300
H  26.28800 48.79300 41.56100
H  24.57100 48.61200 41.75700
Mg 27.49400 49.94800 26.95900
C  25.41400 50.69200 29.75400
C  29.91700 49.15100 29.36300
C  29.32800 49.01700 24.53200
C  24.87100 50.94000 24.92600
N  27.60800 49.91000 29.35900
C  26.61300 50.19100 30.24900
C  27.02300 50.01900 31.71900
C  28.58500 49.74500 31.57000
C  28.73300 49.58100 29.99200
C  29.47600 50.84600 32.16100
C  26.20900 48.92600 32.40100
C  25.48400 49.38600 33.71600
H  25.73200 48.44100 34.94000
N  29.40600 49.21600 26.95200
C  30.24900 48.92100 27.98300
C  31.45200 48.36300 27.44500
C  31.35000 48.47000 26.06100
C  30.02300 48.88100 25.79300
C  32.56100 47.75900 28.36600
C  32.47600 48.21500 25.12300
O  32.40500 48.43800 23.91300
C  33.75600 47.79700 25.62400
N  27.19500 50.11300 25.01700
C  28.10800 49.56500 24.18100
C  27.53900 49.29500 22.72300
C  26.02600 49.78800 22.90700
C  25.98700 50.31400 24.39900
C  28.38000 49.98600 21.61100
C  24.92700 48.63100 22.65300
C  24.31200 48.64600 21.27900
N  25.59400 50.84700 27.21100
C  24.61400 51.08800 26.28100
C  23.49500 51.66300 26.94100
C  23.73800 51.44400 28.28100
C  25.01300 50.93300 28.38500
C  22.17900 52.16000 26.36700
C  23.10800 51.43700 29.61800
O  22.02100 51.80700 29.96600
C  24.23700 51.02300 30.66300
C  24.43800 52.20100 31.48400
O  25.22300 53.13300 31.27900
O  23.76000 52.08000 32.68300
C  23.84200 53.10100 33.79700
H  30.74200 49.00700 30.06300
H  29.90900 48.58700 23.71400
H  24.04600 51.15100 24.24200
H  26.89000 50.90100 32.34500
H  28.77900 48.73800 31.93900
H  28.90200 51.51600 32.80200
H  29.89900 51.40000 31.32300
H  30.35100 50.50900 32.71600
H  26.77700 48.04600 32.70200
H  25.35500 48.63900 31.78700
H  24.42100 49.25900 33.51300
H  25.68400 50.43100 33.95500
H  32.59000 46.67100 28.30700
H  32.30400 47.72700 29.42400
H  33.57100 48.15500 28.26300
H  34.11000 48.63800 26.22000
H  34.52900 47.66300 24.86700
H  33.59400 46.84700 26.13200
H  27.54200 48.21900 22.54600
H  25.83900 50.64400 22.25800
H  28.43400 49.30000 20.76500
H  29.41400 50.05500 21.94800
H  28.01600 50.98300 21.36000
H  24.14200 48.73100 23.40200
H  25.50400 47.71800 22.79800
H  23.23400 48.74000 21.40900
H  24.58200 47.74500 20.72900
H  24.52200 49.57200 20.74400
H  21.54400 51.42700 25.86900
H  22.33400 53.04200 25.74400
H  21.70000 52.32400 27.33200
H  23.83400 50.13700 31.15400
H  23.66200 54.11200 33.43100
H  24.79700 53.10600 34.32300
H  23.04900 53.03400 34.54200

