158

Mg 23.90700 -5.62400 45.47300
C  26.32700 -3.45900 44.06100
C  21.63500 -4.31600 43.19900
C  21.86300 -8.22200 46.15300
C  26.40600 -7.10400 47.27100
N  24.02000 -4.09800 43.81100
C  25.11000 -3.41500 43.36100
C  24.69700 -2.59200 42.06000
C  23.15200 -2.81600 41.95200
C  22.89000 -3.76200 43.07300
C  22.27600 -1.53800 41.88100
C  25.60800 -2.93100 40.85000
C  26.62100 -1.81100 40.40900
H  26.44400 -1.27000 38.99900
N  21.98300 -6.07500 44.91600
C  21.18200 -5.37800 44.00600
C  19.93300 -6.10400 43.83700
C  20.03600 -7.27500 44.58500
C  21.32000 -7.24600 45.31300
C  18.82100 -5.56900 42.93700
C  18.92900 -8.30400 44.66700
O  17.89900 -8.07600 44.01000
C  18.96500 -9.46200 45.61700
N  24.04600 -7.35200 46.80400
C  23.14700 -8.25600 46.78000
C  23.70400 -9.54100 47.35900
C  25.06100 -9.08700 47.95700
C  25.18000 -7.79600 47.25200
C  22.86300 -10.40400 48.45300
C  26.26700 -10.08900 47.77500
C  27.20900 -10.12200 48.95200
N  25.90500 -5.23400 45.85400
C  26.80800 -5.95700 46.57400
C  28.14500 -5.27700 46.45900
C  27.97700 -4.27000 45.50200
C  26.58900 -4.30600 45.13700
C  29.26200 -5.74600 47.23800
C  28.62000 -3.13500 44.91200
O  29.69600 -2.57500 45.07800
C  27.61700 -2.67100 43.74900
C  27.44400 -1.16100 43.97700
O  26.62600 -0.63300 44.72800
O  28.23000 -0.45300 43.10200
C  28.25000 0.99900 43.09700
H  20.98700 -4.06500 42.35700
H  21.29900 -9.15600 46.20700
H  27.22500 -7.59600 47.79900
H  24.87500 -1.56500 42.37900
H  23.04500 -3.31000 40.98700
H  22.08000 -1.13000 42.87300
H  21.38200 -1.56900 41.25800
H  22.83200 -0.68700 41.48800
H  25.04500 -3.07200 39.92700
H  26.06500 -3.91900 40.90200
H  27.63900 -2.17600 40.54800
H  26.53200 -0.90900 41.01400
H  18.86100 -5.86200 41.88800
H  18.79300 -4.48600 43.05900
H  17.79100 -5.74700 43.24500
H  19.29200 -9.12400 46.60100
H  19.67200 -10.07700 45.06000
H  18.01000 -9.98300 45.68200
H  23.92200 -10.19400 46.51500
H  24.95200 -8.97500 49.03500
H  21.80200 -10.22200 48.27900
H  23.08100 -10.11100 49.48000
H  23.12300 -11.45400 48.32500
H  26.77500 -9.74900 46.87200
H  25.79900 -11.04300 47.53500
H  27.12500 -11.13200 49.35400
H  26.97600 -9.36100 49.69600
H  28.22100 -9.96600 48.57600
H  30.07700 -5.10300 46.90600
H  29.36900 -6.81500 47.05600
H  29.00000 -5.61700 48.28800
H  28.00500 -3.02000 42.79200
H  27.77300 1.43000 43.97700
H  27.61000 1.20700 42.23900
H  29.27900 1.33800 42.97600
Mg 48.02200 15.98200 28.51700
C  46.06800 15.53300 31.48300
C  49.94200 18.10900 30.43800
C  49.47200 16.85100 25.77600
C  45.34600 14.47000 26.75100
N  47.92600 16.73800 30.67100
C  47.07700 16.44800 31.67600
C  47.58100 16.89300 33.07500
C  48.70400 17.85400 32.65500
C  48.85800 17.55400 31.15600
C  48.44000 19.36900 33.06200
C  48.05600 15.66900 33.91900
C  48.17000 15.85300 35.44200
H  47.58400 17.11900 36.11500
N  49.58700 17.13800 28.18900
C  50.26500 17.95000 29.06700
C  51.41300 18.56900 28.41200
C  51.36200 18.11500 27.08200
C  50.08800 17.35900 26.96600
C  52.38300 19.44100 29.09800
C  52.37800 18.27700 25.93600
O  52.32700 17.55800 24.99200
C  53.58800 19.11100 26.18800
N  47.42600 15.76300 26.48500
C  48.26000 16.21200 25.52700
C  47.83400 15.79900 24.15300
C  46.53600 14.92300 24.47400
C  46.36400 15.10700 25.96200
C  47.67700 17.04500 23.17300
C  46.43000 13.44800 24.02900
C  47.00700 12.31600 24.93000
N  46.14600 15.06300 28.99000
C  45.20800 14.53300 28.19400
C  44.12800 13.98700 28.94500
C  44.49700 14.31100 30.26900
C  45.72300 15.01300 30.26500
C  42.83300 13.31000 28.52100
C  44.14600 14.10000 31.58000
O  43.24400 13.41900 32.11500
C  45.07000 14.96700 32.45100
C  44.35000 16.03700 33.17500
O  43.92400 17.09500 32.71400
O  44.16100 15.64400 34.44700
C  43.33600 16.48600 35.32400
H  50.50800 18.80800 31.05700
H  49.99600 17.32600 24.94400
H  44.48700 13.94300 26.32900
H  46.76800 17.31400 33.66700
H  49.58500 17.53400 33.21200
H  48.35800 20.01100 32.18500
H  49.35300 19.65700 33.58300
H  47.58100 19.46700 33.72500
H  49.07800 15.43900 33.61500
H  47.51500 14.77300 33.61400
H  49.22200 15.95900 35.70700
H  47.88400 14.93000 35.94700
H  52.75000 20.20700 28.41500
H  53.19900 18.87000 29.54000
H  52.03900 20.07500 29.91600
H  53.96400 18.81500 27.16800
H  53.28400 20.15500 26.25900
H  54.33400 18.95000 25.41000
H  48.58600 15.10800 23.77100
H  45.67400 15.39300 24.00000
H  46.64300 17.15700 22.84700
H  48.44800 16.72800 22.47000
H  48.05200 17.92000 23.70300
H  46.84100 13.23400 23.04200
H  45.34800 13.32300 23.99200
H  47.73100 12.56700 25.70500
H  47.57300 11.63100 24.29900
H  46.13600 11.89600 25.43400
H  42.05700 13.31400 29.28600
H  42.97100 12.26700 28.23500
H  42.42200 13.81000 27.64400
H  45.63700 14.38500 33.17800
H  42.69900 15.89500 35.98200
H  42.56800 17.09400 34.84600
H  43.99200 17.08700 35.95400

