158

Mg 16.21100 51.29400 24.40400
C  18.04800 50.71000 27.26800
C  13.57300 52.21400 26.32400
C  14.43700 51.60600 21.59100
C  18.99200 50.04800 22.55200
N  15.85500 51.47300 26.55800
C  16.78700 51.17100 27.55400
C  16.19500 51.59000 28.91600
C  14.66400 51.91100 28.67500
C  14.66400 51.76800 27.11300
C  13.66900 50.93600 29.33700
C  16.86900 52.81900 29.55900
C  17.05100 52.82800 31.10800
H  16.25500 51.77200 31.94300
N  14.23300 51.73800 23.96700
C  13.34800 52.23300 24.93400
C  12.19200 52.63700 24.21800
C  12.31700 52.39500 22.81800
C  13.75000 51.94000 22.72900
C  10.96900 53.18400 24.88200
C  11.39300 52.55900 21.62100
O  11.70800 52.17900 20.50500
C  10.11500 53.13900 21.79300
N  16.68900 51.03100 22.39400
C  15.79500 51.13900 21.35700
C  16.31900 50.95100 19.96800
C  17.79400 50.64500 20.33000
C  17.82000 50.52700 21.81900
C  15.65400 49.69600 19.39400
C  18.97300 51.49500 19.66700
C  20.09100 50.55100 19.10400
N  18.23400 50.59200 24.76000
C  19.21900 50.13000 23.92600
C  20.33400 49.72800 24.64200
C  19.99300 50.01800 26.02300
C  18.62400 50.44800 26.02300
C  21.62800 49.29500 24.06900
C  20.47000 49.96900 27.40200
O  21.48900 49.53300 27.88300
C  19.27200 50.44900 28.29200
C  18.96700 49.34700 29.26200
O  18.38500 48.30000 28.96300
O  19.44600 49.57400 30.53400
C  19.19500 48.58500 31.52200
H  12.82800 52.57700 27.03600
H  13.95400 51.78600 20.62900
H  19.75000 49.54400 21.94900
H  16.38900 50.69600 29.50800
H  14.34800 52.91700 28.95100
H  14.08400 50.07200 29.85700
H  13.07600 50.51200 28.52600
H  12.99700 51.43100 30.03800
H  16.41600 53.79500 29.38500
H  17.84500 52.94900 29.09000
H  16.85500 53.81800 31.52000
H  18.11300 52.61100 31.22100
H  11.30300 53.70400 25.78000
H  10.26700 52.40900 25.18900
H  10.35800 53.89800 24.32900
H  9.65900 52.37600 22.42300
H  9.62000 53.22700 20.82600
H  10.05400 54.11200 22.28100
H  16.12900 51.72700 19.22600
H  18.01700 49.60600 20.08700
H  16.22000 49.18000 18.61900
H  14.65300 49.92700 19.03100
H  15.45300 48.98800 20.19800
H  19.39700 51.97400 20.54900
H  18.53800 52.10800 18.87800
H  19.75700 49.52300 18.95800
H  20.86900 50.61100 19.86600
H  20.38800 50.87400 18.10600
H  22.16800 49.13500 25.00200
H  21.96500 50.20800 23.57700
H  21.70100 48.38100 23.48000
H  19.55300 51.39000 28.76500
H  18.13300 48.58500 31.76900
H  19.83400 48.91200 32.34200
H  19.46100 47.57400 31.21400
Mg 0.32700 43.33500 26.48900
C  2.62800 42.73100 29.24900
C  -2.17600 41.94100 28.47900
C  -1.65300 43.53400 23.93600
C  3.12800 43.74400 24.50400
N  0.23400 42.52400 28.52300
C  1.24100 42.54900 29.48000
C  0.62200 42.44500 30.90800
C  -0.79600 41.86100 30.53900
C  -0.92700 42.09400 29.04600
C  -1.18600 40.41900 30.95400
C  0.70200 43.78700 31.72000
C  1.17800 43.69300 33.15500
H  0.64100 42.53600 34.06400
N  -1.75900 42.94300 26.21800
C  -2.64800 42.30400 27.15700
C  -3.95900 42.25900 26.54500
C  -3.82400 42.79500 25.24100
C  -2.36900 43.08900 25.05100
C  -5.23000 41.77800 27.27200
C  -4.87600 42.90600 24.19800
O  -4.57700 43.15400 22.99900
C  -6.29500 42.79600 24.61300
N  0.72600 43.52500 24.45900
C  -0.33000 43.82300 23.66600
C  0.14500 44.29100 22.29300
C  1.65600 44.39300 22.41700
C  1.90000 43.87500 23.88800
C  -0.32500 43.38400 21.08100
C  2.15400 45.84800 22.22900
C  2.20900 46.83400 23.41800
N  2.40900 43.29900 26.73100
C  3.41900 43.45300 25.84100
C  4.72000 43.30000 26.52200
C  4.43700 43.08900 27.88200
C  3.03300 42.98800 27.92600
C  6.05900 43.17200 25.74100
C  5.07300 42.84100 29.16800
O  6.29200 42.92000 29.48200
C  3.87600 42.76800 30.16200
C  4.01100 41.51300 30.98400
O  4.42900 40.46200 30.57800
O  3.74900 41.77600 32.30600
C  3.96700 40.64700 33.18400
H  -3.01100 41.61600 29.10400
H  -2.29800 43.68400 23.06800
H  4.02600 43.97000 23.92500
H  1.15800 41.60400 31.34900
H  -1.57500 42.50400 30.94900
H  -2.10000 40.50200 31.54200
H  -0.53300 40.04000 31.73900
H  -1.20000 39.65700 30.17400
H  -0.25100 44.31600 31.74200
H  1.45500 44.39300 31.21500
H  0.93800 44.64600 33.62500
H  2.26400 43.61100 33.10700
H  -4.83100 41.22800 28.12400
H  -5.65700 40.90000 26.78700
H  -5.86100 42.60300 27.60400
H  -6.55100 41.76400 24.85400
H  -6.90500 43.19300 23.80200
H  -6.52700 43.48700 25.42300
H  -0.27800 45.26700 22.05600
H  2.16400 43.81600 21.64400
H  -0.85300 42.46500 21.33400
H  0.48800 43.08200 20.42100
H  -1.01500 44.01700 20.52400
H  1.59700 46.31100 21.41500
H  3.17100 45.69100 21.87000
H  3.19900 46.85200 23.87200
H  1.39700 46.57800 24.09900
H  2.04800 47.84500 23.04500
H  6.85500 42.70700 26.32200
H  6.40500 44.15800 25.43200
H  5.94600 42.50600 24.88600
H  3.80300 43.66400 30.77900
H  3.78000 40.92100 34.22300
H  4.97000 40.22100 33.15900
H  3.32400 39.79700 32.95500

