158

Mg 0.20700 7.79300 26.34700
C  1.24500 9.51600 29.16700
C  0.13100 4.87900 28.03100
C  -0.16000 6.16800 23.40800
C  0.31000 10.85500 24.55300
N  0.73100 7.27800 28.32700
C  1.05200 8.13400 29.39800
C  0.99400 7.37600 30.66500
C  0.79200 5.83200 30.26800
C  0.47300 5.98800 28.77700
C  2.07600 4.96700 30.51500
C  -0.15900 7.99800 31.52900
C  0.19100 8.38600 32.98400
H  1.27200 7.58400 33.80500
N  0.08300 5.75700 25.79800
C  0.01100 4.74700 26.61700
C  -0.24200 3.51000 25.94100
C  -0.18300 3.84600 24.60000
C  -0.18100 5.31200 24.52500
C  -0.45100 2.19900 26.65800
C  -0.34900 2.94300 23.32600
O  -0.38700 3.36800 22.15400
C  -0.38600 1.50900 23.45600
N  0.02900 8.43300 24.37000
C  -0.08600 7.52000 23.35800
C  -0.12000 8.14800 22.03600
C  -0.36900 9.68400 22.38300
C  0.04100 9.67600 23.84800
C  1.09100 7.92300 21.08700
C  -1.82400 10.22400 22.18700
C  -2.03000 11.48100 21.28000
N  0.60300 9.83100 26.81600
C  0.70500 10.90000 25.88200
C  1.19100 12.06400 26.64100
C  1.50100 11.62100 27.94300
C  1.03500 10.22600 27.95300
C  1.57600 13.43300 26.03700
C  2.00400 11.94200 29.27000
O  2.47800 13.03400 29.69600
C  1.67000 10.61600 30.09100
C  2.78000 10.21800 30.97100
O  3.84700 9.69900 30.62900
O  2.54100 10.74000 32.25100
C  3.68500 10.78000 33.13600
H  -0.09100 4.01700 28.66300
H  -0.33100 5.55600 22.52000
H  0.25000 11.74900 23.92900
H  1.95100 7.42000 31.18400
H  -0.05500 5.35500 30.76100
H  2.75300 5.43700 31.22800
H  2.58900 4.73800 29.58100
H  1.63300 4.08800 30.98300
H  -0.99000 7.29800 31.44700
H  -0.42100 8.88300 30.95000
H  -0.74900 8.28800 33.52700
H  0.49100 9.43000 32.89500
H  -0.93500 1.52200 25.95500
H  -1.07000 2.38000 27.53600
H  0.48500 1.81300 27.06200
H  -1.35400 1.27300 23.89900
H  0.45100 1.14200 24.05000
H  -0.47200 1.20500 22.41300
H  -0.97800 7.68300 21.55000
H  0.26600 10.36000 21.81100
H  1.23000 6.87900 20.80800
H  2.00200 8.29300 21.55700
H  0.76500 8.43200 20.18000
H  -2.29800 10.25200 23.16800
H  -2.36100 9.40100 21.71600
H  -2.68100 11.20100 20.45200
H  -1.10500 11.82300 20.81700
H  -2.47900 12.35000 21.76000
H  2.47600 13.88400 26.45600
H  0.77500 14.09500 26.36400
H  1.51900 13.31900 24.95400
H  0.85100 10.87000 30.76400
H  4.67800 10.51500 32.77200
H  3.41000 10.08700 33.93000
H  3.80700 11.78900 33.53000
Mg 24.23700 -7.30400 47.04100
C  26.77300 -5.20900 46.11000
C  22.04400 -5.57300 44.93800
C  22.00300 -9.79000 47.41900
C  26.64400 -9.28600 48.76700
N  24.41800 -5.52100 45.63200
C  25.57700 -4.89000 45.38100
C  25.36000 -3.74400 44.34300
C  23.82200 -3.73100 44.18900
C  23.38000 -5.02200 44.97400
C  23.06300 -2.41700 44.67300
C  26.22300 -3.98200 43.13200
C  26.71700 -2.60900 42.54900
H  25.89400 -2.00900 41.42100
N  22.25600 -7.58600 46.41200
C  21.59600 -6.76300 45.53300
C  20.24800 -7.26000 45.46000
C  20.13700 -8.44000 46.30800
C  21.49100 -8.64700 46.77000
C  19.16400 -6.51400 44.62700
C  18.87800 -9.16600 46.62600
O  17.74400 -8.77300 46.21700
C  18.87600 -10.38100 47.58400
N  24.30800 -9.27300 48.08400
C  23.21300 -10.02900 48.14300
C  23.50700 -11.27000 48.98300
C  24.93000 -11.08000 49.45200
C  25.34200 -9.82000 48.72400
C  22.44000 -11.70400 50.13500
C  25.87800 -12.21000 49.12700
C  26.32500 -13.01600 50.30800
N  26.32200 -7.26700 47.40800
C  27.15400 -8.08600 48.13400
C  28.50100 -7.55800 48.11600
C  28.41400 -6.35800 47.37300
C  27.06200 -6.31400 46.97800
C  29.72200 -8.18200 48.67700
C  29.07400 -5.22500 46.82300
O  30.18800 -4.76900 47.00300
C  28.04200 -4.51200 45.93900
C  28.08800 -3.02800 46.24600
O  27.73800 -2.53400 47.34300
O  28.64000 -2.37600 45.19200
C  28.82300 -0.91500 45.50900
H  21.30300 -4.98200 44.39600
H  21.36900 -10.65500 47.62700
H  27.39100 -9.82100 49.35800
H  25.68700 -2.84200 44.86000
H  23.66600 -3.86100 43.11800
H  23.76900 -1.87400 45.30300
H  22.20600 -2.64200 45.30800
H  22.79500 -1.86900 43.77000
H  25.72500 -4.43400 42.27400
H  27.05100 -4.65200 43.36300
H  27.76800 -2.70300 42.27500
H  26.65100 -1.90900 43.38200
H  18.30300 -7.15200 44.42700
H  19.52800 -6.10200 43.68500
H  18.93000 -5.68500 45.29500
H  17.83100 -10.68600 47.63700
H  19.19100 -10.18700 48.61000
H  19.44600 -11.22200 47.19000
H  23.46600 -12.05300 48.22500
H  25.11000 -10.92000 50.51500
H  22.64300 -11.12300 51.03500
H  22.77100 -12.73300 50.27400
H  21.41500 -11.62400 49.77200
H  26.79500 -11.87100 48.64300
H  25.34300 -12.88300 48.45700
H  27.19700 -12.58700 50.80000
H  26.56800 -14.01400 49.94300
H  25.58900 -13.09800 51.10800
H  29.87200 -9.18500 48.27700
H  29.64500 -8.26900 49.76100
H  30.58700 -7.57900 48.39800
H  28.38800 -4.67600 44.91900
H  27.92900 -0.30300 45.40000
H  29.46000 -0.42900 44.77000
H  29.17800 -0.73800 46.52500

