158

Mg 9.05700 3.15700 27.57700
C  10.33200 1.62000 30.42000
C  7.26000 5.33600 29.52100
C  7.79800 4.45900 24.76600
C  10.63600 0.61000 25.69100
N  8.64000 3.22400 29.78400
C  9.42200 2.67300 30.74400
C  9.07400 3.33100 32.10500
C  7.89400 4.35600 31.77300
C  7.93900 4.31900 30.31100
C  6.48800 3.94500 32.34800
C  10.25300 3.95100 32.81400
C  9.91900 4.51600 34.18800
H  10.46300 3.72800 35.39900
N  7.74500 4.67400 27.23800
C  7.15200 5.45000 28.15700
C  6.36300 6.49000 27.45700
C  6.52600 6.25100 26.03300
C  7.38100 5.10100 25.96500
C  5.55200 7.45100 28.23800
C  6.01100 7.03000 24.87700
O  6.40700 6.85200 23.75800
C  5.08500 8.13900 25.11500
N  9.18300 2.61600 25.53800
C  8.59700 3.40100 24.57300
C  8.89300 2.84400 23.21100
C  9.82500 1.60400 23.47500
C  9.90800 1.60300 24.97800
C  7.75800 2.46600 22.28900
C  11.20000 1.73500 22.72900
C  11.33000 0.97400 21.43800
N  10.28300 1.41500 27.91700
C  10.80300 0.51100 27.03600
C  11.57600 -0.42900 27.79000
C  11.50000 -0.03800 29.13800
C  10.66100 1.10100 29.12800
C  12.27700 -1.73600 27.32600
C  11.98500 -0.24300 30.48100
O  12.80400 -0.98200 30.96600
C  11.12600 0.74400 31.36900
C  10.28200 0.00300 32.34800
O  9.19300 -0.51100 32.12900
O  10.97600 -0.00100 33.52000
C  10.19100 -0.63700 34.65300
H  6.72300 6.07600 30.11800
H  7.48500 4.96900 23.85300
H  11.02100 -0.22500 25.10100
H  8.66900 2.56800 32.76900
H  8.18700 5.32100 32.18600
H  6.32700 4.45500 33.29800
H  6.57300 2.87900 32.55400
H  5.67400 4.05600 31.63200
H  10.65900 4.73300 32.17100
H  11.00300 3.16100 32.77500
H  8.88100 4.79800 34.35900
H  10.54700 5.40600 34.20300
H  5.59800 8.44700 27.79900
H  5.84200 7.57500 29.28100
H  4.48600 7.22700 28.23800
H  4.74500 8.58900 24.18300
H  5.49800 8.87300 25.80700
H  4.16700 7.70200 25.50900
H  9.35500 3.57200 22.54500
H  9.27400 0.70100 23.21300
H  6.93000 2.39700 22.99500
H  7.88000 1.52900 21.74600
H  7.53700 3.30000 21.62300
H  11.97400 1.38600 23.41200
H  11.39300 2.79500 22.56100
H  11.99500 1.64400 20.89200
H  10.38400 0.92100 20.90000
H  11.77500 0.00300 21.65400
H  13.03000 -2.05100 28.04800
H  12.80500 -1.52700 26.39500
H  11.54100 -2.52900 27.19800
H  11.84800 1.30600 31.96000
H  10.06000 -1.69500 34.42700
H  9.20600 -0.23200 34.88400
H  10.66900 -0.50600 35.62400
Mg -5.46400 25.04200 25.49200
C  -4.24100 26.60700 28.45500
C  -6.89600 22.69200 27.62200
C  -6.74000 23.65000 22.74700
C  -3.78700 27.45400 23.63600
N  -5.50900 24.79600 27.80300
C  -4.99500 25.52900 28.80300
C  -5.56400 25.08600 30.19900
C  -6.17700 23.70400 29.89200
C  -6.18700 23.71800 28.34200
C  -5.26100 22.52400 30.45200
C  -6.57300 26.21200 30.67100
C  -6.27500 26.81100 32.04600
H  -6.16300 25.89800 33.28100
N  -6.62100 23.33100 25.17200
C  -7.12400 22.49200 26.19900
C  -7.70500 21.41800 25.50100
C  -7.74100 21.71700 24.09100
C  -7.02900 22.92300 23.99600
C  -8.39900 20.29100 26.25200
C  -8.47800 20.95300 22.93000
O  -8.50600 21.30800 21.79200
C  -9.22900 19.69000 23.17100
N  -5.37000 25.53300 23.45900
C  -5.92400 24.78600 22.50000
C  -5.54300 25.25800 21.10800
C  -4.98900 26.64500 21.45300
C  -4.62100 26.52800 22.91900
C  -4.44400 24.29700 20.44100
C  -5.93700 27.88000 21.33600
C  -5.94100 28.59800 19.98300
N  -4.19600 26.67900 25.84100
C  -3.59500 27.53200 25.01100
C  -2.76300 28.41500 25.75200
C  -3.01000 28.06500 27.09700
C  -3.92300 27.04500 27.13400
C  -1.85200 29.42200 25.20800
C  -2.56900 28.41000 28.49900
O  -1.78600 29.27600 28.83100
C  -3.47000 27.52500 29.45200
C  -2.62900 26.66900 30.32800
O  -1.87500 25.83200 29.87000
O  -2.81200 26.93100 31.69400
C  -2.12100 26.06900 32.66700
H  -7.39500 21.97400 28.27600
H  -7.24200 23.25800 21.86000
H  -3.17200 28.14500 23.05500
H  -4.82100 24.95100 30.98400
H  -7.14500 23.58900 30.38000
H  -5.85400 21.63000 30.64400
H  -4.77400 22.88700 31.35700
H  -4.56000 22.15200 29.70500
H  -7.57900 25.79100 30.69200
H  -6.48700 27.02400 29.94900
H  -6.98800 27.62400 32.17800
H  -5.34200 27.29800 31.76000
H  -7.99100 19.33700 25.91900
H  -9.45900 20.26900 25.99700
H  -8.35600 20.16300 27.33300
H  -10.00900 19.98100 23.87400
H  -8.63900 18.89800 23.63300
H  -9.61800 19.31300 22.22500
H  -6.45200 25.30700 20.51000
H  -4.06200 26.86800 20.92500
H  -4.15900 23.45200 21.06800
H  -3.59000 24.76200 19.94800
H  -4.96600 23.76100 19.64800
H  -5.84000 28.68200 22.06700
H  -6.94600 27.47500 21.42300
H  -5.09700 29.28600 20.03700
H  -6.88600 29.06100 19.70100
H  -5.77000 27.85500 19.20400
H  -2.49500 29.97400 24.52100
H  -0.92800 29.07600 24.74500
H  -1.51800 30.10200 25.99100
H  -4.07000 28.28300 29.95600
H  -2.33800 25.00400 32.57500
H  -2.37700 26.40500 33.67200
H  -1.04200 26.14800 32.53400

