158

Mg 45.00200 4.43300 47.89300
C  42.73800 7.11400 47.17400
C  42.34500 2.41100 47.68100
C  47.15400 1.86700 47.52900
C  47.66700 6.72600 47.55000
N  42.73300 4.78000 47.59000
C  42.05000 5.90200 47.28000
C  40.60300 5.60800 46.86000
C  40.44600 4.17400 47.41800
C  41.96300 3.71800 47.65700
C  39.64400 4.08300 48.80400
C  40.33700 5.79200 45.30800
C  39.40200 6.97000 44.91800
H  39.77700 7.83000 43.69800
N  44.77200 2.39600 47.61000
C  43.57100 1.72400 47.58000
C  43.74700 0.32100 47.36100
C  45.16000 0.13000 47.28400
C  45.77200 1.50400 47.48800
C  42.60700 -0.78100 47.28100
C  45.94800 -1.20900 47.20900
O  45.27100 -2.26200 47.21800
C  47.41000 -1.34300 47.17400
N  47.16600 4.29000 47.68400
C  47.84800 3.09300 47.70100
C  49.33000 3.35000 47.50000
C  49.43000 4.87900 47.57700
C  47.99600 5.37500 47.52700
C  50.23900 2.63000 48.45400
C  50.33900 5.59600 46.51100
C  51.86700 5.16800 46.64600
N  45.21700 6.50500 47.63000
C  46.36100 7.26700 47.43900
C  46.03000 8.59800 47.20500
C  44.63200 8.62400 47.21000
C  44.17300 7.29800 47.35500
C  47.03300 9.71900 47.03500
C  43.49400 9.47100 47.08200
O  43.39800 10.67700 47.12000
C  42.19600 8.50500 47.03500
C  41.39600 8.90000 48.31300
O  41.54300 8.42700 49.44600
O  40.62000 9.87800 47.99200
C  39.98800 10.52500 49.16600
H  41.46600 1.76800 47.59800
H  47.81500 1.02600 47.30600
H  48.54600 7.37200 47.52400
H  39.88300 6.25200 47.36500
H  39.90400 3.53900 46.71700
H  40.12100 3.69900 49.70600
H  38.80600 3.41500 48.60500
H  39.18700 5.03200 49.08400
H  39.72900 4.91400 45.09300
H  41.23500 5.82100 44.68900
H  39.24300 7.60900 45.78700
H  38.38700 6.62600 44.71900
H  42.57200 -1.21500 46.28100
H  41.59700 -0.40200 47.44000
H  42.78200 -1.48000 48.09900
H  47.83400 -0.72500 46.38300
H  47.74900 -2.32900 46.85500
H  47.76500 -1.27500 48.20200
H  49.52400 2.97800 46.49400
H  49.78300 5.20100 48.55600
H  49.70200 1.92000 49.08200
H  50.71600 3.25800 49.20700
H  50.95400 2.10600 47.82000
H  50.15900 6.66500 46.39400
H  49.83500 5.35500 45.57500
H  52.14600 4.54900 45.79400
H  51.96100 4.55500 47.54200
H  52.41600 6.10600 46.72900
H  47.55300 9.74300 46.07700
H  47.75700 9.70700 47.85000
H  46.41700 10.61700 47.08200
H  41.62000 8.58100 46.11200
H  39.90200 9.89700 50.05200
H  38.98900 10.90000 48.94100
H  40.64900 11.35500 49.41400
Mg 42.62200 42.04900 26.84100
C  41.76200 44.17500 29.45000
C  43.52900 39.71200 29.23900
C  43.68100 40.07900 24.37400
C  41.80200 44.54900 24.53200
N  42.72900 42.09300 29.15800
C  42.31000 43.04400 29.97700
C  42.20400 42.54500 31.48700
C  43.07000 41.14800 31.31000
C  43.02300 40.87400 29.78700
C  44.52400 41.26500 31.85300
C  40.71200 42.31300 31.95500
C  40.47700 41.76300 33.41900
H  39.79000 42.58000 34.44300
N  43.65000 40.19400 26.83100
C  43.86100 39.38200 27.92800
C  44.34700 38.13900 27.49100
C  44.15700 38.15100 26.03300
C  43.85300 39.52700 25.68400
C  44.89400 37.10300 28.45500
C  44.22200 37.01400 25.02000
O  44.09300 37.17400 23.80800
C  44.59900 35.69600 25.40200
N  42.92900 42.29500 24.78300
C  43.23400 41.30000 23.94100
C  43.05500 41.58200 22.46800
C  42.39700 43.04100 22.54800
C  42.28300 43.27400 24.03900
C  44.51100 41.40900 21.77900
C  41.03900 43.14400 21.81600
C  39.97700 42.20600 22.49700
N  42.06500 44.01600 26.94600
C  41.79200 44.87800 25.88300
C  41.27800 46.09100 26.48600
C  41.17600 45.83100 27.86100
C  41.67700 44.57400 28.09900
C  40.96400 47.30400 25.79500
C  40.85200 46.42600 29.12600
O  40.35000 47.54000 29.42100
C  41.05700 45.31400 30.18300
C  41.80700 45.92800 31.30900
O  42.81700 46.59900 31.22100
O  41.03100 45.78300 32.48600
C  41.68100 46.21400 33.76200
H  43.67800 38.95300 30.01000
H  43.64700 39.37500 23.53900
H  41.41500 45.29600 23.83600
H  42.66400 43.21200 32.21600
H  42.51100 40.39100 31.86200
H  45.25700 40.90300 31.13200
H  44.60800 40.65600 32.75300
H  44.82200 42.29500 32.05100
H  40.36000 41.56200 31.24800
H  40.15600 43.24900 31.88500
H  41.43100 41.52400 33.88900
H  39.80900 40.90200 33.41100
H  45.16200 37.59600 29.39000
H  45.85600 36.71500 28.12200
H  44.25500 36.25100 28.68700
H  43.81400 35.14800 25.92400
H  45.41100 35.74000 26.12800
H  44.85400 35.11800 24.51400
H  42.31900 40.86300 22.10900
H  43.06000 43.74500 22.04500
H  44.77700 42.44900 21.59300
H  44.44100 40.87600 20.83100
H  45.19100 40.78500 22.36000
H  41.27900 42.70100 20.84900
H  40.60500 44.13800 21.71400
H  39.69900 41.44400 21.76900
H  39.13300 42.81600 22.81900
H  40.35400 41.62600 23.33900
H  40.24100 47.90400 26.34800
H  40.80100 47.19600 24.72200
H  41.84200 47.94600 25.86800
H  40.03100 45.13500 30.50600
H  42.75500 46.05700 33.65900
H  41.36900 45.49300 34.51800
H  41.37700 47.20900 34.08600

