158

Mg 16.96100 -2.81800 28.77100
C  16.06400 -0.79100 31.44600
C  18.48300 -4.96600 31.10400
C  18.01700 -4.70500 26.20100
C  15.75200 -0.38600 26.63300
N  17.19700 -2.92600 30.96700
C  16.72800 -1.99900 31.82200
C  16.97100 -2.38300 33.32000
C  18.02500 -3.51800 33.16500
C  17.92500 -3.88500 31.68500
C  19.50100 -3.23500 33.63200
C  15.64900 -2.61500 34.18900
C  15.63700 -2.10600 35.65900
H  16.98600 -2.11200 36.47900
N  18.01000 -4.59200 28.68100
C  18.48300 -5.30600 29.74900
C  19.23400 -6.49100 29.22800
C  18.98900 -6.52900 27.79400
C  18.26300 -5.29700 27.47300
C  19.84000 -7.54600 30.07900
C  19.43100 -7.51300 26.76100
O  19.07100 -7.49100 25.62600
C  20.22900 -8.74200 27.12100
N  17.01100 -2.45300 26.66900
C  17.50600 -3.43400 25.86900
C  17.44400 -2.90700 24.40700
C  16.71100 -1.50100 24.47300
C  16.33700 -1.48300 25.98500
C  18.80300 -2.71800 23.69400
C  15.59500 -1.43600 23.43200
C  14.15300 -1.88200 23.82600
N  15.99700 -0.96600 28.96600
C  15.50900 -0.14400 28.00200
C  14.86000 0.97900 28.60700
C  15.04400 0.76200 29.97100
C  15.77600 -0.43200 30.12900
C  14.15400 2.07100 28.04200
C  14.77500 1.28500 31.35300
O  14.17000 2.22500 31.73100
C  15.39100 0.30500 32.34800
C  16.41300 1.03400 33.07300
O  17.41600 1.57400 32.69600
O  15.91000 1.25900 34.34900
C  16.79600 1.97000 35.33100
H  19.07100 -5.56000 31.80700
H  18.43200 -5.26300 25.36000
H  15.16700 0.29100 26.00700
H  17.54600 -1.58800 33.79600
H  17.71200 -4.34300 33.80500
H  19.81200 -3.96500 34.38100
H  19.60300 -2.24800 34.08200
H  20.14700 -3.29500 32.75600
H  15.56700 -3.69300 34.33000
H  14.78200 -2.31300 33.60200
H  14.93800 -2.72200 36.22500
H  15.29200 -1.07600 35.56300
H  19.50300 -8.54000 29.78700
H  19.54100 -7.27600 31.09100
H  20.92600 -7.53800 29.98400
H  21.07200 -8.54300 27.78200
H  20.60400 -9.19600 26.20300
H  19.58100 -9.50000 27.56200
H  16.99700 -3.62400 23.71900
H  17.34400 -0.62600 24.32700
H  19.54700 -2.74700 24.48900
H  18.81000 -1.75400 23.18600
H  19.10900 -3.47800 22.97500
H  15.78300 -2.13700 22.61900
H  15.54100 -0.42200 23.03500
H  13.56400 -1.15100 24.38000
H  14.23100 -2.70100 24.54100
H  13.73600 -2.39700 22.96100
H  13.88100 2.79000 28.81500
H  13.25000 1.79400 27.50100
H  14.75300 2.55300 27.27000
H  14.57300 -0.02900 32.98700
H  17.86200 1.85600 35.13500
H  16.56300 1.80700 36.38400
H  16.67700 3.03900 35.15500
Mg 8.72700 48.40700 28.02000
C  7.17600 47.58000 30.97900
C  11.61200 48.84700 29.64400
C  10.17900 49.44600 25.17500
C  5.58900 48.60900 26.46800
N  9.25600 48.28500 30.10700
C  8.44000 47.96700 31.19600
C  9.21100 48.30900 32.50000
C  10.43100 49.13700 31.90700
C  10.46600 48.76000 30.42000
C  10.37900 50.67100 32.09800
C  9.51000 47.08100 33.44000
C  9.07500 47.27900 34.91400
H  9.50800 46.29000 35.99800
N  10.67400 48.70000 27.39600
C  11.74300 48.82500 28.23900
C  12.94500 48.79100 27.40200
C  12.56500 48.92000 26.06600
C  11.06100 48.97600 26.14400
C  14.27600 48.68700 28.08300
C  13.36800 49.02000 24.79200
O  12.80300 49.03500 23.74900
C  14.91300 48.97400 24.90900
N  7.99200 48.92000 26.13200
C  8.81200 49.50700 25.15700
C  8.05700 50.08900 24.00400
C  6.60900 49.58500 24.28200
C  6.68900 48.96000 25.72200
C  8.09200 51.66200 24.08600
C  6.13800 48.55300 23.19800
C  5.00200 49.07500 22.29300
N  6.74300 48.18100 28.56300
C  5.60100 48.15200 27.78600
C  4.53000 47.78600 28.64100
C  5.10900 47.48700 29.91100
C  6.45000 47.75200 29.79200
C  3.00200 47.66300 28.27400
C  4.78400 47.10300 31.28600
O  3.64800 46.83800 31.71400
C  6.15100 47.06000 31.97800
C  6.30600 45.74700 32.52600
O  6.93200 44.84100 31.94300
O  5.92100 45.75500 33.84000
C  6.43500 44.59800 34.63300
H  12.46300 49.06400 30.29200
H  10.64500 49.96300 24.33300
H  4.62600 48.59800 25.95200
H  8.56300 48.96200 33.08400
H  11.28300 48.81500 32.50600
H  9.56900 50.95400 32.77000
H  10.18600 51.24200 31.18900
H  11.32800 51.02400 32.50300
H  10.54700 46.76100 33.34200
H  8.88700 46.28300 33.03600
H  7.98600 47.25500 34.96400
H  9.27000 48.28500 35.28500
H  14.17500 48.41400 29.13400
H  14.75100 49.66700 28.11900
H  14.83000 47.85100 27.65800
H  15.23400 49.88000 25.42400
H  15.31100 48.83100 23.90500
H  15.33000 48.12800 25.45500
H  8.53700 49.82700 23.06200
H  5.91700 50.41600 24.41900
H  7.20900 52.18600 23.72100
H  8.87500 52.08200 23.45500
H  8.29800 51.88600 25.13300
H  6.00200 47.57100 23.65300
H  6.95300 48.33200 22.50800
H  5.07800 49.11000 21.20600
H  4.69900 50.07400 22.60800
H  4.17200 48.36900 22.30500
H  2.33700 47.64800 29.13800
H  2.89800 46.67900 27.81600
H  2.74900 48.39000 27.50200
H  6.02800 47.81100 32.75800
H  7.25300 44.85100 35.30700
H  6.64500 43.65600 34.12700
H  5.56100 44.40500 35.25600

