158

Mg 25.18900 -5.52100 45.54100
C  27.24600 -3.08100 44.02400
C  22.57500 -4.45900 43.41400
C  23.52100 -8.37000 46.09700
C  27.96700 -6.71400 47.26400
N  24.92400 -3.88600 44.00900
C  25.95800 -3.07600 43.49100
C  25.44900 -1.97600 42.55400
C  23.90500 -2.44900 42.35000
C  23.72500 -3.64200 43.38100
C  22.77500 -1.31900 42.44500
C  26.34300 -1.73100 41.32600
C  26.61700 -2.97900 40.43400
H  26.29800 -2.77900 38.89200
N  23.26100 -6.31900 44.91500
C  22.34300 -5.64400 44.13500
C  21.11300 -6.49500 44.03700
C  21.40900 -7.65900 44.84000
C  22.76900 -7.45200 45.31300
C  19.82600 -6.14200 43.26600
C  20.41500 -8.76400 45.15700
O  19.23400 -8.74000 44.72000
C  20.73300 -9.89900 46.09700
N  25.72000 -7.28000 46.55500
C  24.83500 -8.27400 46.72200
C  25.48700 -9.47000 47.53200
C  26.89900 -8.89000 47.84100
C  26.86500 -7.54900 47.12700
C  24.53800 -10.05500 48.63700
C  28.08000 -9.85400 47.57900
C  28.97500 -10.16200 48.76100
N  27.19200 -4.91100 45.75000
C  28.18100 -5.54600 46.48000
C  29.40800 -4.79700 46.36600
C  29.07400 -3.79400 45.38100
C  27.74000 -3.91800 45.04700
C  30.72400 -4.98600 47.06200
C  29.69600 -2.80600 44.52800
O  30.77800 -2.36800 44.49800
C  28.50900 -2.25800 43.64800
C  28.47400 -0.87900 44.06700
O  28.05200 -0.49300 45.14500
O  28.84500 -0.01300 43.08000
C  29.08100 1.42000 43.34400
H  21.80600 -4.04800 42.75700
H  23.09800 -9.34200 46.36100
H  28.75200 -6.92500 47.99300
H  25.36100 -1.06100 43.14000
H  23.64500 -2.84600 41.36900
H  21.80500 -1.59600 42.85700
H  22.53900 -0.99300 41.43200
H  23.07900 -0.45100 43.03100
H  27.31700 -1.42500 41.70800
H  25.90300 -0.87600 40.81400
H  25.79400 -3.64800 40.68400
H  27.58300 -3.43300 40.65700
H  19.30400 -7.06400 43.01200
H  20.07600 -5.61400 42.34600
H  19.35400 -5.45300 43.96700
H  19.88400 -10.55900 46.27600
H  21.10100 -9.54900 47.06200
H  21.43200 -10.53000 45.54900
H  25.44600 -10.22900 46.75100
H  27.03100 -8.59100 48.88100
H  23.62400 -9.47100 48.73700
H  25.11100 -9.87800 49.54800
H  24.48200 -11.14300 48.58400
H  28.66300 -9.46800 46.74300
H  27.56200 -10.74500 47.22200
H  28.73600 -9.78400 49.75500
H  30.02500 -9.90000 48.62900
H  28.99100 -11.24700 48.86600
H  30.70700 -4.63800 48.09500
H  31.55800 -4.53500 46.52600
H  31.00000 -6.03900 47.00800
H  28.90800 -2.36100 42.63900
H  29.07000 1.65500 44.40900
H  28.33200 2.07700 42.90300
H  30.08000 1.72800 43.03500
Mg 9.44200 48.02200 25.40300
C  7.30000 48.06500 28.09200
C  11.95200 49.17200 27.59300
C  11.58400 47.95400 22.92600
C  6.75300 47.47500 23.21800
N  9.50500 49.03000 27.65600
C  8.54400 48.58100 28.51000
C  9.04600 48.77400 30.00500
C  10.37000 49.53100 29.67200
C  10.68400 49.27900 28.19200
C  10.35500 51.07100 29.97100
C  9.29600 47.46600 30.87700
C  8.88000 47.53400 32.30000
H  9.06100 46.34000 33.16200
N  11.47700 48.37200 25.33900
C  12.33000 48.79400 26.36200
C  13.72900 48.64200 25.82900
C  13.56100 48.25200 24.47600
C  12.14700 48.17200 24.16400
C  14.95100 49.11800 26.63300
C  14.78700 47.98200 23.55500
O  14.70700 47.93900 22.36300
C  16.21100 47.77800 24.19100
N  9.16400 48.12300 23.29700
C  10.27800 47.86500 22.50400
C  9.85000 47.50400 21.06400
C  8.30600 47.33600 21.20600
C  8.03900 47.70500 22.66500
C  10.41800 48.36500 19.87400
C  7.78300 46.04500 20.63800
C  8.27200 44.73400 21.33500
N  7.41900 47.83100 25.56400
C  6.42500 47.50900 24.61600
C  5.18800 47.34100 25.23100
C  5.49400 47.47500 26.62000
C  6.86100 47.81700 26.76900
C  3.86700 46.92600 24.73200
C  4.93200 47.35000 27.90100
O  3.76600 47.06900 28.17600
C  6.04800 47.79300 28.96100
C  6.27600 46.57400 29.80000
O  6.88100 45.56100 29.53200
O  5.51200 46.70600 30.90400
C  5.40300 45.52200 31.82200
H  12.78700 49.24600 28.29300
H  12.38800 47.71100 22.22800
H  6.06700 47.22300 22.40700
H  8.24700 49.35700 30.46200
H  11.16100 49.14200 30.31400
H  9.36600 51.49700 29.80300
H  11.10000 51.53900 29.32900
H  10.58900 51.23600 31.02300
H  10.37800 47.48100 31.00300
H  8.89100 46.59400 30.36400
H  7.81000 47.73000 32.37200
H  9.38700 48.43700 32.64000
H  15.48000 48.30000 27.12100
H  14.59400 49.78900 27.41500
H  15.65900 49.67000 26.01500
H  16.17200 47.27900 25.16000
H  16.73600 48.73000 24.26500
H  16.87300 47.24400 23.50900
H  10.42100 46.59400 20.88000
H  7.70900 48.04400 20.63200
H  11.16800 49.02700 20.30600
H  9.64700 48.97900 19.41000
H  10.99400 47.76500 19.17000
H  8.15500 46.00600 19.61400
H  6.69600 45.96700 20.62100
H  7.47200 44.09600 21.71100
H  8.79100 44.93800 22.27100
H  8.82600 44.14300 20.60700
H  4.20900 46.28600 23.91800
H  3.49300 47.84300 24.27800
H  3.16300 46.53000 25.46300
H  5.79800 48.64500 29.59300
H  5.91200 45.70300 32.76900
H  5.73500 44.57300 31.39900
H  4.36200 45.44300 32.13500

