158

Mg 40.00700 10.32600 29.27900
C  42.16500 11.46800 31.82800
C  38.06200 8.97500 31.58600
C  38.20100 9.35600 26.72900
C  42.68800 11.06300 26.94100
N  40.08000 10.33900 31.51100
C  40.96700 10.96100 32.31400
C  40.39800 10.93400 33.72900
C  39.08400 10.03700 33.63200
C  39.06400 9.72900 32.21400
C  39.13000 8.75800 34.46100
C  39.86200 12.36300 34.09100
C  39.25400 12.49100 35.48800
H  40.13200 13.04600 36.65000
N  38.23800 9.39700 29.15900
C  37.60100 8.81700 30.24400
C  36.46300 8.15100 29.78100
C  36.45700 8.17700 28.31400
C  37.65100 9.00000 28.00000
C  35.61600 7.45500 30.69600
C  35.49400 7.53400 27.33600
O  35.76200 7.51100 26.13400
C  34.29800 6.86700 27.79000
N  40.44800 10.15800 27.11800
C  39.48700 9.85700 26.35500
C  39.92400 9.75200 24.85700
C  41.34300 10.48200 24.90300
C  41.52400 10.53700 26.47000
C  39.89600 8.35600 24.21800
C  41.42100 11.96400 24.33300
C  40.85600 13.11300 25.19000
N  42.00400 11.09900 29.30400
C  42.97200 11.34200 28.27500
C  44.11700 11.83700 28.86200
C  43.81700 11.99600 30.21100
C  42.56700 11.45800 30.48300
C  45.30500 12.29000 28.19600
C  44.46300 12.41600 31.46500
O  45.53300 12.88000 31.75400
C  43.34100 12.12000 32.51400
C  43.87800 11.34600 33.67100
O  44.10300 10.11700 33.64800
O  43.74100 12.02300 34.82800
C  44.14700 11.25900 36.01500
H  37.45100 8.43500 32.31200
H  37.63200 8.96500 25.88200
H  43.45000 11.40100 26.23700
H  41.17000 10.67600 34.45400
H  38.10700 10.50400 33.75900
H  40.09700 8.71200 34.96300
H  38.97500 7.89900 33.80900
H  38.33500 8.77800 35.20600
H  39.15900 12.71100 33.33400
H  40.75900 12.98300 34.11300
H  38.59400 11.64500 35.67700
H  38.50100 13.26700 35.35300
H  34.63400 7.31200 30.24600
H  35.50900 7.97300 31.64900
H  35.90300 6.41700 30.86300
H  33.84700 6.24400 27.01800
H  33.53600 7.59600 28.06600
H  34.58100 6.26000 28.64900
H  39.20400 10.34400 24.29200
H  42.20700 9.87300 24.64000
H  40.92900 8.09500 23.99000
H  39.38100 8.44600 23.26100
H  39.27100 7.65800 24.77500
H  40.87400 11.94100 23.39000
H  42.42400 12.34900 24.15400
H  41.78100 13.42600 25.67400
H  40.13700 12.82700 25.95800
H  40.50000 13.86700 24.48800
H  45.11100 12.75100 27.22700
H  45.98600 11.44700 28.08600
H  45.79400 13.06700 28.78400
H  43.08400 13.13000 32.83300
H  43.33000 10.58700 36.28100
H  44.35800 11.96400 36.81900
H  45.07700 10.71500 35.85400
Mg 49.98300 45.71700 42.97100
C  46.69300 46.11700 41.61200
C  50.27300 42.83800 41.06500
C  53.32900 45.82700 43.17200
C  49.88100 49.18000 43.85300
N  48.61300 44.63300 41.51100
C  47.34300 44.96400 41.13500
C  46.77300 44.02600 40.10600
C  47.90200 42.88700 40.03100
C  49.00900 43.49900 40.94700
C  47.38400 41.44600 40.51200
C  46.66200 44.80900 38.72900
C  45.24800 44.87800 38.20300
H  45.00000 44.10100 36.94900
N  51.49900 44.31400 42.62200
C  51.41500 43.21800 41.81700
C  52.71100 42.51200 41.91600
C  53.53000 43.26600 42.74400
C  52.83400 44.54600 42.89100
C  52.94500 41.16700 41.19900
C  54.89800 42.86500 43.20200
O  55.40500 41.83900 42.81700
C  55.81200 43.85400 43.92900
N  51.31000 47.32300 43.30400
C  52.66900 46.99200 43.50500
C  53.45500 48.19900 43.97100
C  52.43000 49.26300 44.37200
C  51.14200 48.56900 43.77600
C  54.69900 48.01900 44.98600
C  52.68000 50.60000 43.72900
C  52.74400 51.79700 44.65100
N  48.55000 47.20400 43.10200
C  48.66300 48.58300 43.43500
C  47.28700 49.17600 43.39500
C  46.50000 48.20600 42.69500
C  47.34100 47.05800 42.44400
C  46.83400 50.61300 43.77300
C  45.15700 47.96100 42.19500
O  44.12500 48.63500 42.22200
C  45.19700 46.56100 41.61100
C  44.27000 45.64300 42.29800
O  44.51600 44.92200 43.29000
O  42.97500 45.70600 41.71200
C  41.97800 44.73900 42.26800
H  50.41400 41.97400 40.41300
H  54.42000 45.86300 43.20300
H  49.87700 50.18200 44.28600
H  45.75200 43.75900 40.37900
H  48.34600 42.73300 39.04700
H  47.74100 40.61000 39.91100
H  46.30400 41.44600 40.65800
H  47.91600 41.26000 41.44500
H  47.26000 44.23300 38.02300
H  47.00900 45.83500 38.85400
H  45.03000 45.92300 37.98000
H  44.46900 44.53900 38.88600
H  52.12800 40.88100 40.53600
H  53.14600 40.33300 41.87200
H  53.87500 41.14500 40.63200
H  56.57000 43.40900 44.57300
H  55.17000 44.54600 44.47500
H  56.21000 44.40900 43.08000
H  53.88500 48.42600 42.99600
H  52.26800 49.41800 45.43900
H  54.90600 46.97300 45.21200
H  54.32000 48.49300 45.89100
H  55.64400 48.45800 44.66500
H  51.87900 50.81200 43.01900
H  53.59300 50.55400 43.13500
H  53.70200 52.24300 44.38400
H  52.71300 51.47500 45.69200
H  51.97300 52.51700 44.37800
H  45.77500 50.77400 43.97500
H  47.23100 51.22700 42.96500
H  47.38400 50.83100 44.68800
H  44.77300 46.63900 40.61000
H  42.39300 43.77000 42.54600
H  41.15900 44.65400 41.55500
H  41.48100 45.15500 43.14400

