158

Mg -1.12800 18.39400 27.43500
C  -1.69900 16.31000 30.27500
C  -1.33000 21.18200 29.61500
C  -1.19700 20.64200 24.80500
C  -1.48300 15.77200 25.39200
N  -1.55600 18.66600 29.70200
C  -1.50300 17.65300 30.64000
C  -1.75200 18.20100 32.08500
C  -2.02400 19.74700 31.78400
C  -1.57100 19.92200 30.26800
C  -3.43900 20.20400 31.96900
C  -0.60300 17.92700 33.04400
C  -1.07200 17.28800 34.35100
H  -0.05800 17.21600 35.48700
N  -1.12300 20.57500 27.23000
C  -1.19000 21.51500 28.22600
C  -1.06100 22.82500 27.71900
C  -0.90600 22.67600 26.27000
C  -1.04700 21.28300 26.06100
C  -1.16600 24.12100 28.47700
C  -0.69300 23.75200 25.08300
O  -0.64900 23.54600 23.88300
C  -0.49600 25.15900 25.55200
N  -1.47400 18.23500 25.43100
C  -1.25300 19.24800 24.48900
C  -1.25800 18.70600 23.04100
C  -1.00600 17.19300 23.36000
C  -1.36100 17.02400 24.86300
C  -2.59200 19.03400 22.41200
C  0.45000 16.69900 22.95300
C  1.63900 17.51800 23.53200
N  -1.68100 16.43200 27.70300
C  -1.63700 15.44200 26.72100
C  -1.77000 14.16100 27.42800
C  -1.74300 14.44600 28.78700
C  -1.63600 15.84500 28.93900
C  -1.98600 12.84600 26.73600
C  -1.90700 13.90400 30.09500
O  -2.04400 12.74900 30.45600
C  -1.69200 15.06300 31.08700
C  -0.40500 14.78600 31.79400
O  0.72300 14.95400 31.33800
O  -0.70800 14.20100 32.98600
C  0.39500 13.66200 33.78200
H  -1.46900 22.00600 30.31700
H  -1.11400 21.20800 23.87500
H  -1.40500 14.91500 24.71900
H  -2.66300 17.70800 32.42200
H  -1.39500 20.41900 32.36800
H  -4.13700 19.52400 32.45800
H  -3.88000 20.73300 31.12400
H  -3.38200 20.99300 32.72000
H  0.01400 18.81100 33.20700
H  0.00000 17.24300 32.44800
H  -1.39500 16.26400 34.16300
H  -1.94600 17.87600 34.63100
H  -1.55700 24.20000 29.49200
H  -1.99200 24.66700 28.02100
H  -0.31300 24.79300 28.39000
H  -1.36700 25.48400 26.12200
H  -0.44400 25.90000 24.75500
H  0.37900 25.12700 26.20100
H  -0.45500 19.06700 22.39800
H  -1.68600 16.54700 22.80300
H  -3.31800 18.22100 22.38800
H  -2.56700 19.31500 21.35900
H  -3.09100 19.81200 22.99000
H  0.55200 16.63900 21.86900
H  0.64000 15.64600 23.16100
H  2.09700 16.89800 24.30200
H  1.38500 18.53100 23.84400
H  2.33000 17.60200 22.69400
H  -3.02600 12.57800 26.54900
H  -1.57800 12.02600 27.32600
H  -1.40400 12.76000 25.81800
H  -2.49200 14.99400 31.82400
H  0.09100 13.85200 34.81100
H  1.29500 14.27400 33.73600
H  0.64700 12.61000 33.64400
Mg 6.46700 54.55900 40.43900
C  5.73700 51.09000 40.14600
C  9.66900 53.86900 39.96500
C  6.83300 57.59600 39.49400
C  2.98300 54.98500 40.90700
N  7.48200 52.75400 39.93200
C  7.04900 51.43400 39.92600
C  8.24200 50.42700 39.63100
C  9.38600 51.41100 40.05700
C  8.85200 52.77400 40.06200
C  9.98900 51.05900 41.48400
C  8.26700 49.95200 38.19300
C  8.01600 50.99300 37.09700
H  6.84100 50.65900 36.09800
N  8.15800 55.66500 39.99900
C  9.41900 55.26800 39.90400
C  10.28600 56.32800 39.64700
C  9.43800 57.50900 39.32400
C  8.05800 56.96500 39.56400
C  11.85600 56.26400 39.58900
C  9.90500 58.94400 38.98100
O  11.06900 59.25100 38.93900
C  8.97800 60.09600 38.95000
N  5.07400 56.06000 40.18000
C  5.52900 57.27000 39.81100
C  4.27400 58.27500 39.58900
C  3.09400 57.47400 40.17800
C  3.66400 56.07200 40.36200
C  4.51500 59.54500 40.49800
C  1.78800 57.47300 39.26900
C  0.43600 57.84900 39.84700
N  4.67900 53.30200 40.54600
C  3.43500 53.62500 40.92100
C  2.67600 52.47200 41.25200
C  3.53300 51.40300 40.84000
C  4.72800 51.98400 40.42600
C  1.23900 52.48100 41.65000
C  3.66500 49.91100 40.82100
O  2.96800 49.00600 41.28900
C  5.09900 49.73500 40.32800
C  5.02300 48.93500 38.99600
O  4.59800 49.45300 37.96000
O  5.37300 47.66500 39.20600
C  5.40000 46.89900 37.99000
H  10.71700 53.56800 40.02800
H  6.93000 58.60200 39.08000
H  1.97900 55.23900 41.25100
H  8.12300 49.60900 40.34200
H  10.27100 51.35100 39.42400
H  10.94700 50.58500 41.27400
H  9.35900 50.35100 42.02300
H  10.09700 51.89200 42.17900
H  7.58100 49.11500 38.06600
H  9.28500 49.65500 37.93900
H  8.91200 51.17300 36.50300
H  7.76400 51.93900 37.57600
H  12.25700 56.23100 38.57600
H  12.20400 55.40300 40.15800
H  12.36800 56.97000 40.24300
H  9.52200 60.99800 39.23100
H  8.19000 60.07100 39.70200
H  8.58200 60.14700 37.93600
H  4.22900 58.49100 38.52200
H  2.77700 57.83700 41.15600
H  4.16500 60.40600 39.92800
H  5.53200 59.60100 40.88600
H  3.93100 59.50900 41.41800
H  1.56100 56.43100 39.04100
H  1.92500 58.07500 38.37100
H  -0.38300 57.13200 39.79700
H  0.09100 58.66500 39.21200
H  0.61600 58.09200 40.89400
H  1.12000 53.32100 42.33400
H  0.90300 51.66100 42.28500
H  0.55600 52.64000 40.81600
H  5.59700 49.05300 41.01700
H  5.76500 47.49900 37.15800
H  4.36500 46.60100 37.82400
H  5.96700 45.97800 38.13300

