158

Mg 45.99100 3.74100 46.80500
C  43.95600 6.58200 46.71500
C  43.00000 1.78500 46.42900
C  47.84500 1.05900 46.61500
C  48.75400 5.84300 46.66500
N  43.69200 4.18100 46.44500
C  43.17600 5.45200 46.46600
C  41.69000 5.28700 46.25300
C  41.35400 3.78500 46.70200
C  42.75300 3.16200 46.51500
C  40.72700 3.62600 48.18000
C  41.16600 5.87600 44.90800
C  42.15300 5.99300 43.79000
H  41.57900 6.50200 42.49700
N  45.47500 1.71400 46.43700
C  44.24500 1.11800 46.36300
C  44.47800 -0.32900 46.34700
C  45.86400 -0.62000 46.37200
C  46.43300 0.77200 46.52800
C  43.36600 -1.44500 46.37500
C  46.49900 -1.99400 46.28300
O  45.84100 -3.03500 46.23200
C  47.89300 -2.23100 46.31900
N  47.98600 3.54400 46.29200
C  48.53800 2.29100 46.60700
C  50.09500 2.42000 46.76100
C  50.39200 3.91200 46.49400
C  48.99700 4.47200 46.45600
C  50.65900 1.82400 48.02800
C  51.19900 4.24600 45.23600
C  52.37000 5.19700 45.46500
N  46.32400 5.78300 46.80600
C  47.51500 6.46500 46.88600
C  47.21100 7.87000 47.09600
C  45.88200 7.97100 47.11700
C  45.36700 6.66400 46.90400
C  48.15200 9.00900 47.03700
C  44.75300 8.88500 47.10600
O  44.68500 10.11900 47.22800
C  43.46200 8.05500 46.80000
C  42.48000 8.36300 47.90500
O  42.46700 7.81900 49.00400
O  41.63400 9.34900 47.53100
C  40.46700 9.52400 48.42800
H  42.10000 1.16700 46.46400
H  48.43600 0.15100 46.75500
H  49.62800 6.48500 46.78500
H  41.25000 5.87700 47.05700
H  40.67700 3.28000 46.01300
H  41.47400 3.18600 48.84100
H  39.83200 3.00400 48.19600
H  40.45700 4.56000 48.67300
H  40.68400 6.83600 45.09400
H  40.28700 5.25400 44.73900
H  42.41400 4.94700 43.62500
H  43.08500 6.46200 44.10600
H  42.39900 -0.96300 46.23100
H  43.41700 -2.04800 47.28100
H  43.47200 -2.15100 45.55100
H  48.32500 -2.09100 47.31000
H  48.34200 -1.53500 45.61100
H  48.16000 -3.21700 45.94000
H  50.52700 1.84900 45.93900
H  50.89400 4.37500 47.34300
H  51.38800 1.02400 47.89400
H  49.79200 1.54000 48.62400
H  51.10100 2.56200 48.69700
H  50.63500 4.48300 44.33400
H  51.77700 3.37000 44.94000
H  53.30100 4.64700 45.33100
H  52.35100 5.52100 46.50600
H  52.22200 6.08300 44.84800
H  48.95800 8.93100 47.76600
H  47.65800 9.98000 47.07600
H  48.62400 9.22100 46.07700
H  43.14400 8.37300 45.80700
H  39.89900 8.62000 48.20600
H  39.96000 10.41500 48.05900
H  40.65600 9.61200 49.49800
Mg -6.19500 25.68500 26.23400
C  -4.77700 27.26300 29.11400
C  -8.02900 23.74400 28.47200
C  -7.20600 23.95100 23.62300
C  -4.20000 27.75900 24.24200
N  -6.40600 25.58400 28.51000
C  -5.73600 26.28700 29.45600
C  -6.29100 25.98700 30.86600
C  -7.07000 24.68100 30.64900
C  -7.15300 24.64600 29.11400
C  -6.56900 23.46200 31.43900
C  -7.10600 27.13900 31.44800
C  -6.98000 27.34200 32.95000
H  -6.37300 26.24600 33.88500
N  -7.49500 24.07000 26.11000
C  -8.15000 23.38700 27.08900
C  -8.95200 22.39500 26.50200
C  -8.64900 22.35800 25.12200
C  -7.66800 23.46500 24.86700
C  -9.90500 21.49200 27.32100
C  -9.15400 21.40200 24.10300
O  -8.80600 21.32300 22.93900
C  -10.14400 20.26000 24.47300
N  -5.58000 25.71100 24.22800
C  -6.26400 24.96400 23.31800
C  -5.67100 25.25200 21.96000
C  -4.99300 26.69300 22.12900
C  -4.97100 26.78300 23.64100
C  -4.69900 24.11600 21.52300
C  -5.77700 27.78400 21.51600
C  -5.62600 27.98500 19.98100
N  -4.87600 27.26400 26.49000
C  -4.10100 27.98600 25.66500
C  -3.43500 29.04900 26.37900
C  -3.67300 28.82900 27.73200
C  -4.44500 27.67200 27.77700
C  -2.53300 30.10600 25.73500
C  -3.33700 29.16000 29.12000
O  -2.52200 30.05900 29.39500
C  -4.08700 28.15800 30.10400
C  -2.89000 27.45700 30.76000
O  -2.03800 26.82200 30.17600
O  -3.02100 27.78600 32.11900
C  -2.12500 27.07200 33.00700
H  -8.51600 23.02100 29.12900
H  -7.55600 23.38500 22.75700
H  -3.61400 28.39600 23.57600
H  -5.41700 25.88500 31.51000
H  -8.11500 24.77800 30.94300
H  -6.08600 22.70800 30.81800
H  -7.42400 22.92700 31.85100
H  -5.94500 23.75600 32.28300
H  -8.17400 26.97500 31.31000
H  -6.87300 28.04700 30.89100
H  -7.99200 27.47600 33.33200
H  -6.51700 28.28900 33.22700
H  -10.85400 21.39000 26.79500
H  -10.05700 21.85900 28.33600
H  -9.40900 20.52200 27.35900
H  -9.88500 19.58800 25.29000
H  -10.60200 19.82000 23.58800
H  -10.85000 20.97900 24.89000
H  -6.45400 25.36800 21.21000
H  -3.95400 26.64800 21.80200
H  -4.97600 23.90200 20.49000
H  -4.78800 23.30200 22.24300
H  -3.65600 24.43100 21.50900
H  -5.35200 28.70800 21.90800
H  -6.83600 27.68900 21.75300
H  -6.54800 28.50000 19.71200
H  -5.62100 27.11800 19.32100
H  -4.85500 28.68800 19.66500
H  -2.39800 29.88900 24.67600
H  -1.61900 30.04800 26.32600
H  -3.04900 31.04900 25.91600
H  -4.75400 28.61900 30.83200
H  -1.09500 27.08300 32.64800
H  -2.40300 26.04500 33.24600
H  -2.13800 27.62200 33.94700

