158

Mg 0.86500 8.38700 26.59000
C  1.38200 10.17200 29.41900
C  0.99000 5.37800 28.16100
C  0.89900 6.71100 23.50600
C  1.68600 11.34600 24.84800
N  1.32100 7.86500 28.51600
C  1.20100 8.75500 29.56600
C  0.92800 8.05700 30.85300
C  1.40200 6.62800 30.54300
C  1.23800 6.57800 28.95800
C  2.82200 6.16200 30.83400
C  -0.46600 8.31000 31.39900
C  -0.65600 8.01700 32.89600
H  0.48900 7.39200 33.66000
N  0.59500 6.42500 25.92200
C  0.76300 5.27600 26.68300
C  0.53300 4.08300 25.92200
C  0.49600 4.45500 24.60900
C  0.63100 5.91500 24.61400
C  0.50900 2.66700 26.51600
C  0.24800 3.62300 23.41200
O  0.04800 4.08500 22.28500
C  0.05500 2.10700 23.59600
N  1.23900 8.90500 24.45500
C  1.30500 8.02400 23.44800
C  1.69100 8.74700 22.20300
C  1.80100 10.26700 22.52300
C  1.56000 10.24000 24.05100
C  2.95200 8.14200 21.58900
C  0.79700 11.22100 21.78400
C  -0.75900 11.01900 22.06300
N  1.25600 10.41200 26.99600
C  1.64400 11.48600 26.23300
C  1.87300 12.68000 26.99500
C  1.80500 12.13500 28.31400
C  1.49000 10.81000 28.26300
C  2.16000 14.07800 26.54600
C  1.96400 12.47600 29.76100
O  2.33700 13.49900 30.30400
C  1.55200 11.18900 30.46600
C  2.69900 10.94800 31.45700
O  3.81800 10.55400 31.22200
O  2.27600 11.46200 32.61800
C  3.21800 11.72400 33.68400
H  1.11500 4.39600 28.62100
H  1.10500 6.31800 22.50800
H  1.87200 12.30200 24.35300
H  1.66800 8.38200 31.58400
H  0.67500 5.95200 30.99300
H  3.27600 5.92200 29.87300
H  2.91100 5.34900 31.55400
H  3.29400 7.05900 31.23600
H  -1.22800 7.71700 30.89400
H  -0.75400 9.36000 31.33700
H  -1.54100 7.40000 33.05200
H  -0.86400 8.95500 33.41200
H  0.64700 2.72300 27.59500
H  1.36000 2.11500 26.11700
H  -0.39300 2.15000 26.18700
H  -0.83700 1.93500 24.19800
H  0.94500 1.69400 24.07000
H  0.00300 1.66400 22.60100
H  0.77300 8.60900 21.63100
H  2.81800 10.65400 22.44900
H  3.64100 7.80600 22.36300
H  3.45500 8.89900 20.98800
H  2.66300 7.25000 21.03200
H  0.99700 11.12100 20.71700
H  1.17900 12.18500 22.12100
H  -1.40300 10.88200 21.19500
H  -0.90000 12.02900 22.45000
H  -0.95300 10.34600 22.89800
H  1.27400 14.56500 26.13900
H  2.90900 14.06200 25.75500
H  2.55700 14.61400 27.40800
H  0.59000 11.34800 30.95300
H  4.03400 11.00600 33.77800
H  2.74400 11.62900 34.66000
H  3.54400 12.76400 33.67900
Mg 29.36800 57.53100 40.56500
C  27.07700 55.31900 39.30600
C  31.91300 55.68500 39.47300
C  31.43100 60.26900 40.97400
C  26.61800 59.74600 41.07800
N  29.45200 55.76200 39.54900
C  28.41000 54.98400 39.14600
C  28.83300 53.56100 38.73500
C  30.37300 53.63600 38.97400
C  30.63400 55.10700 39.37400
C  30.89200 52.57600 40.05700
C  28.47800 53.18800 37.23500
C  28.71300 54.37600 36.23200
H  27.73300 54.77200 35.21400
N  31.35900 57.95700 40.37400
C  32.27800 57.01400 39.90900
C  33.62800 57.62300 39.81000
C  33.49600 58.94800 40.18600
C  32.04600 59.15600 40.53500
C  34.73200 56.84400 39.16800
C  34.65100 59.96300 40.22000
O  35.80800 59.62800 39.99800
C  34.41200 61.47100 40.39200
N  29.02900 59.74000 40.76800
C  30.10900 60.52400 41.19900
C  29.63000 61.84900 41.74300
C  28.07800 61.74600 41.49100
C  27.83600 60.31000 41.16200
C  29.90700 62.13700 43.28100
C  27.59200 62.68500 40.33700
C  27.00200 63.99700 40.87700
N  27.25800 57.54800 40.41300
C  26.28000 58.46500 40.60900
C  24.94900 57.93100 40.30700
C  25.22700 56.66100 39.83200
C  26.64600 56.47600 39.77100
C  23.62200 58.62300 40.48700
C  24.59000 55.44000 39.20500
O  23.42100 55.14900 38.97600
C  25.78800 54.52300 38.77700
C  25.46500 53.19700 39.44900
O  25.50700 52.90300 40.64100
O  25.02700 52.35700 38.46000
C  24.70000 50.99600 38.82800
H  32.73700 55.13000 39.02000
H  31.99900 61.16900 41.21900
H  25.73400 60.36000 41.26100
H  28.27500 52.90100 39.39900
H  30.86400 53.47600 38.01400
H  31.49800 53.15600 40.75300
H  31.42800 51.80900 39.49900
H  29.99800 52.12600 40.48700
H  27.50800 52.71700 37.07400
H  29.24600 52.45400 36.98700
H  29.55500 53.89900 35.73000
H  29.03500 55.29100 36.72900
H  35.54500 56.85700 39.89400
H  35.13800 57.15300 38.20500
H  34.43800 55.80000 39.05800
H  34.18100 61.86700 41.38000
H  33.61100 61.65600 39.67600
H  35.18000 62.03500 39.86300
H  30.09700 62.60800 41.11500
H  27.41700 61.86700 42.35000
H  30.94200 62.47800 43.26000
H  29.64200 61.31300 43.94400
H  29.40500 63.04300 43.62100
H  26.78800 62.18100 39.80000
H  28.36900 62.82800 39.58600
H  25.91300 63.96200 40.86700
H  27.27100 64.87000 40.28200
H  27.38000 64.27700 41.86000
H  23.56000 59.40600 39.73200
H  23.64700 59.11000 41.46200
H  22.84400 57.91200 40.20900
H  25.94800 54.41100 37.70400
H  23.67000 51.01900 39.18500
H  25.37900 50.54900 39.55400
H  24.69100 50.45700 37.88000

