158

Mg 8.77000 3.33800 27.83000
C  10.11500 2.01300 30.66500
C  7.22100 5.75300 29.70200
C  7.04500 4.34100 25.05400
C  10.06300 0.65500 26.01800
N  8.79100 3.88100 29.93900
C  9.47100 3.25700 30.92400
C  9.26900 3.83400 32.35800
C  8.31900 5.01300 32.05900
C  8.10500 4.93800 30.49100
C  7.03200 5.13700 32.88700
C  10.63600 4.22400 33.07300
C  10.51100 5.26600 34.19400
H  11.22800 4.87700 35.50400
N  7.40800 4.92900 27.40200
C  6.88400 5.76200 28.34600
C  6.05400 6.74900 27.69600
C  5.98600 6.41900 26.32500
C  6.78400 5.16100 26.16000
C  5.43800 7.99800 28.28900
C  5.16700 7.03500 25.24500
O  5.34400 6.77200 24.06100
C  4.08500 8.15600 25.58000
N  8.53200 2.61300 25.84400
C  7.79900 3.21900 24.89500
C  7.89400 2.42300 23.59400
C  9.05300 1.50700 23.81700
C  9.24900 1.55700 25.34900
C  6.58300 1.62600 23.15800
C  10.36200 1.88700 23.02000
C  11.32600 0.72400 22.82500
N  10.04000 1.73800 28.17100
C  10.38300 0.71200 27.39300
C  11.16400 -0.24400 28.18400
C  11.07700 0.25900 29.43900
C  10.31200 1.41400 29.38000
C  11.75900 -1.56300 27.78100
C  11.57200 -0.02200 30.78700
O  12.40100 -0.81200 31.17400
C  10.94100 1.11600 31.60200
C  10.25900 0.51800 32.80300
O  9.21300 -0.12200 32.73200
O  11.09800 0.84200 33.89400
C  10.50000 0.23700 35.10100
H  6.80100 6.62800 30.20300
H  6.45200 4.65500 24.19200
H  10.44800 -0.24100 25.52700
H  8.74600 3.07300 32.93800
H  8.77800 5.99000 32.20900
H  6.14700 5.01200 32.26400
H  7.00600 6.13200 33.33100
H  6.87300 4.43300 33.70400
H  11.27400 4.59800 32.27100
H  11.08000 3.36300 33.57100
H  9.45500 5.33300 34.45700
H  10.78300 6.20800 33.71800
H  6.04400 8.34900 29.12400
H  4.41800 7.74900 28.58000
H  5.41900 8.90700 27.68900
H  3.62900 7.89400 26.53500
H  3.55700 8.31900 24.64000
H  4.70900 9.04300 25.68200
H  8.11200 3.19200 22.85200
H  8.88000 0.47400 23.51400
H  5.74700 2.25200 22.84500
H  6.26600 0.92900 23.93300
H  6.78100 0.96700 22.31200
H  10.92400 2.62400 23.59500
H  10.18200 2.38300 22.06600
H  12.00300 0.70800 23.67900
H  11.87700 0.95900 21.91400
H  10.73400 -0.19000 22.78600
H  11.43100 -1.97000 26.82500
H  11.58900 -2.37500 28.48900
H  12.83900 -1.42500 27.73500
H  11.73000 1.77100 31.97100
H  9.88800 -0.63300 34.86600
H  9.98300 0.98000 35.70800
H  11.26500 -0.20000 35.74400
Mg -9.44100 18.39600 43.04500
C  -5.93000 18.10600 43.10200
C  -8.99000 21.73300 42.11500
C  -12.75000 18.56100 42.30700
C  -9.75300 14.89600 43.22900
N  -7.68000 19.75000 42.66000
C  -6.29400 19.43500 42.84700
C  -5.40500 20.56900 42.54300
C  -6.40600 21.81100 42.45100
C  -7.73700 21.07100 42.36100
C  -6.39500 22.93500 43.51800
C  -4.57700 20.39000 41.14300
C  -5.33200 19.88800 39.84700
H  -4.74100 20.07400 38.47100
N  -10.68200 19.98600 42.32800
C  -10.33000 21.21800 41.97200
C  -11.48200 21.96400 41.70700
C  -12.57200 21.11300 41.57400
C  -12.03000 19.80200 42.03200
C  -11.47600 23.38900 41.45400
C  -13.98600 21.41300 41.16900
O  -14.25900 22.59400 40.87000
C  -15.07300 20.39000 40.86300
N  -10.99900 16.82800 42.73800
C  -12.26900 17.24300 42.67200
C  -13.22600 16.10000 42.79700
C  -12.32100 14.91900 43.23200
C  -10.91200 15.56800 43.12100
C  -14.46700 16.33900 43.59700
C  -12.51200 13.60100 42.45800
C  -12.91000 12.39000 43.19800
N  -8.23000 16.87100 43.20900
C  -8.43600 15.49900 43.29500
C  -7.10700 14.88100 43.51200
C  -6.18300 15.89900 43.47900
C  -6.86100 17.08300 43.21700
C  -6.88000 13.44000 43.55400
C  -4.75100 16.11700 43.55000
O  -3.81400 15.27900 43.60700
C  -4.56000 17.58200 43.24800
C  -3.83200 18.12700 44.41200
O  -2.66200 18.44900 44.47500
O  -4.70300 18.36600 45.49400
C  -4.14100 19.16200 46.59700
H  -8.94100 22.81200 41.94900
H  -13.80300 18.76400 42.10000
H  -9.79500 13.82500 43.44100
H  -4.74400 20.67100 43.40400
H  -6.24600 22.32200 41.50200
H  -6.38600 23.92200 43.05600
H  -5.68100 22.69000 44.30500
H  -7.27300 22.93500 44.16300
H  -3.85800 19.59000 41.32200
H  -3.82200 21.14700 40.93500
H  -6.34100 20.29200 39.92700
H  -5.46500 18.80600 39.85100
H  -11.81300 23.47100 40.42100
H  -10.63100 24.03100 41.70500
H  -12.16500 23.87900 42.14100
H  -15.43000 19.92200 41.78000
H  -14.70900 19.65600 40.14500
H  -15.85600 20.95300 40.35500
H  -13.55500 15.92500 41.77200
H  -12.46900 14.70500 44.29000
H  -15.40100 16.23700 43.04400
H  -14.41800 17.36800 43.95500
H  -14.50400 15.78600 44.53500
H  -11.50000 13.30400 42.18200
H  -13.24000 13.59500 41.64700
H  -13.70700 11.86700 42.67000
H  -13.25200 12.70500 44.18400
H  -12.16000 11.62800 43.41000
H  -6.37200 13.33600 42.59500
H  -7.77700 12.83300 43.67500
H  -6.27400 13.34300 44.45500
H  -3.91800 17.70500 42.37600
H  -3.40700 18.53900 47.10800
H  -4.95700 19.28800 47.30800
H  -3.70300 20.10000 46.25700

