158

Mg 26.63000 50.55400 26.93900
C  24.46100 51.56800 29.49200
C  28.95100 49.59000 29.34700
C  28.81400 49.74500 24.45900
C  24.38000 51.83300 24.61000
N  26.62800 50.57000 29.13000
C  25.63200 51.05900 29.97300
C  25.88500 50.74600 31.47200
C  27.37600 50.38300 31.46900
C  27.68500 50.07100 29.92400
C  28.40400 51.43000 32.03500
C  25.01700 49.57300 32.13700
C  25.49300 48.78700 33.48000
H  25.98300 49.67300 34.61000
N  28.62100 49.82100 26.94000
C  29.34900 49.43300 28.03600
C  30.57200 48.83100 27.50400
C  30.65000 48.97000 26.07900
C  29.32700 49.53900 25.77100
C  31.62100 48.14500 28.34000
C  31.73700 48.45400 25.15200
O  31.67700 48.64200 23.96500
C  32.82600 47.62300 25.61600
N  26.66100 50.83800 24.90700
C  27.53700 50.22600 24.12300
C  27.13800 50.13500 22.63200
C  25.80600 50.95600 22.60000
C  25.57700 51.26700 24.10700
C  28.17200 50.65200 21.66400
C  24.51800 50.19400 21.96700
C  24.74900 49.56800 20.57100
N  24.80900 51.52000 27.00300
C  24.08100 52.02900 25.98900
C  22.85400 52.66300 26.48500
C  22.93900 52.46500 27.88300
C  24.12500 51.79000 28.14400
C  21.84800 53.33300 25.73100
C  22.23700 52.67300 29.17300
O  21.18500 53.24700 29.48700
C  23.22600 52.06100 30.28700
C  23.57100 53.23000 31.19900
O  24.50300 54.05900 31.06600
O  22.73500 53.24500 32.29600
C  23.05300 54.32800 33.25100
H  29.73500 49.28500 30.04300
H  29.37900 49.18500 23.71200
H  23.64900 52.34800 23.98300
H  25.78900 51.64000 32.08800
H  27.49200 49.48700 32.07800
H  27.95300 52.40500 32.22200
H  29.22600 51.59100 31.33700
H  28.76800 51.12900 33.01800
H  25.05700 48.80600 31.36400
H  23.98300 49.88000 32.29500
H  26.25400 48.09200 33.12600
H  24.60600 48.21400 33.75100
H  31.42500 48.19800 29.41100
H  32.62700 48.56400 28.34800
H  31.53000 47.08600 28.10000
H  33.50900 48.28900 26.14300
H  33.39300 47.34700 24.72700
H  32.63400 46.75300 26.24400
H  26.86200 49.10700 22.39800
H  25.94100 51.94000 22.15000
H  27.68300 51.38100 21.01700
H  28.61300 49.82200 21.11300
H  28.94100 51.10200 22.29300
H  23.81200 51.02000 22.05100
H  24.08000 49.42900 22.60700
H  24.43800 48.52700 20.48700
H  25.79700 49.53400 20.27300
H  24.26000 50.16700 19.80200
H  22.23300 54.20000 25.19600
H  21.08800 53.74100 26.39700
H  21.27500 52.75000 25.01000
H  22.78100 51.23600 30.84400
H  23.49500 55.25000 32.87300
H  23.74900 53.90000 33.97200
H  22.16300 54.63000 33.80300
Mg 0.49100 43.59800 26.29700
C  2.51500 42.78300 29.00000
C  -2.27400 43.04300 28.32100
C  -1.50400 43.64800 23.54000
C  3.27400 43.71000 24.30400
N  0.15800 42.88500 28.34400
C  1.11800 42.66800 29.30800
C  0.55400 42.57700 30.67300
C  -0.95300 42.41200 30.36300
C  -1.04900 42.82300 28.86700
C  -1.48900 40.96400 30.74600
C  0.87000 43.88400 31.47000
C  1.62300 43.76300 32.80200
H  1.38500 42.52700 33.64200
N  -1.61400 43.41400 25.95000
C  -2.56800 43.26000 26.92200
C  -3.86300 43.34300 26.27800
C  -3.67300 43.58600 24.87900
C  -2.23700 43.54600 24.75200
C  -5.14700 43.00900 26.97900
C  -4.64500 43.91400 23.79500
O  -4.41000 44.09500 22.59400
C  -6.08900 43.97800 24.10000
N  0.78800 43.77400 24.27200
C  -0.15400 43.72400 23.29500
C  0.52000 43.89200 21.87900
C  2.03500 44.18500 22.21900
C  2.06700 43.87000 23.72200
C  0.32600 42.81500 20.82000
C  2.61000 45.59500 21.90300
C  4.16200 45.69100 21.80900
N  2.57800 43.34600 26.57400
C  3.55600 43.42100 25.64400
C  4.80800 43.29200 26.37800
C  4.46000 42.97400 27.67600
C  3.10600 43.07300 27.74200
C  6.15300 43.41400 25.74300
C  4.95700 42.55300 28.94500
O  6.07400 42.27100 29.31200
C  3.69600 42.54900 29.86900
C  3.78800 41.29300 30.69600
O  3.13000 40.26600 30.59500
O  4.67100 41.39600 31.75500
C  4.85200 40.15500 32.54100
H  -3.11200 42.90300 29.00800
H  -2.06400 43.79000 22.61400
H  4.15200 43.66800 23.65600
H  0.92700 41.69100 31.18900
H  -1.49900 43.18800 30.89900
H  -2.57600 40.91800 30.81900
H  -1.00400 40.61500 31.65800
H  -1.23900 40.26000 29.95200
H  -0.00200 44.53400 31.53800
H  1.63000 44.43500 30.91600
H  1.24500 44.53200 33.47600
H  2.67500 43.93300 32.57600
H  -5.43500 42.08700 26.47500
H  -5.94400 43.74500 26.87300
H  -5.08900 42.71800 28.02800
H  -6.42100 42.94200 24.16000
H  -6.63200 44.45000 23.28000
H  -6.41200 44.40600 25.04900
H  0.14800 44.80400 21.41200
H  2.76600 43.47900 21.82800
H  -0.54200 42.21600 21.09600
H  1.15800 42.11800 20.72200
H  0.04700 43.30600 19.88800
H  2.31800 46.31200 22.67000
H  2.26400 45.99500 20.95000
H  4.68300 44.74400 21.66700
H  4.56600 46.19600 22.68700
H  4.49000 46.25300 20.93400
H  6.05100 43.24200 24.67200
H  6.70800 42.60500 26.21800
H  6.64700 44.37100 25.91400
H  3.90100 43.43500 30.47000
H  5.08800 39.24800 31.98400
H  4.18400 40.03900 33.39500
H  5.75000 40.25300 33.15000

