158

Mg -0.26900 7.50000 26.71100
C  0.85100 9.73400 29.05300
C  -0.63200 5.11600 29.28100
C  -1.03200 5.18200 24.43200
C  0.38300 9.78600 24.25400
N  0.12500 7.45400 28.81600
C  0.52500 8.50400 29.59000
C  0.42300 8.20700 31.05300
C  0.46000 6.64000 31.07100
C  -0.00300 6.37400 29.58600
C  1.83600 5.98200 31.41100
C  -0.86100 8.86900 31.78900
C  -0.88900 8.80000 33.33800
H  0.32300 8.36600 34.15300
N  -0.84200 5.40000 26.87700
C  -0.93500 4.63300 27.99100
C  -1.36200 3.21200 27.59300
C  -1.47800 3.25700 26.18600
C  -1.09200 4.59200 25.73500
C  -1.46000 2.00000 28.52600
C  -1.74900 2.03700 25.18900
O  -1.54900 2.12000 23.98600
C  -2.19900 0.71400 25.80600
N  -0.37600 7.52800 24.66100
C  -0.75000 6.44600 23.89900
C  -0.97000 6.81100 22.42100
C  -0.75700 8.39700 22.43100
C  -0.19000 8.59500 23.89300
C  -0.04900 6.11300 21.40800
C  -2.08200 9.22000 22.18700
C  -2.17800 10.08600 20.91300
N  0.52200 9.38700 26.63700
C  0.71700 10.19900 25.57500
C  1.27400 11.46800 25.95400
C  1.31400 11.41000 27.38500
C  0.90400 10.11300 27.68000
C  1.58600 12.55800 24.93600
C  1.64900 12.13200 28.62500
O  2.09100 13.22300 28.86100
C  1.32300 11.03700 29.74900
C  2.56000 10.80200 30.59300
O  3.50200 10.14800 30.20800
O  2.34100 11.37200 31.83800
C  3.43300 10.99300 32.71800
H  -0.62500 4.29400 30.00000
H  -1.36100 4.44700 23.69400
H  0.53900 10.57500 23.51500
H  1.24700 8.70700 31.56300
H  -0.38100 6.14600 31.55700
H  2.44800 5.64900 30.57300
H  1.63500 5.13700 32.07000
H  2.49300 6.67500 31.93700
H  -1.72300 8.30800 31.42800
H  -0.82300 9.89100 31.41100
H  -1.66400 8.06400 33.55400
H  -1.18300 9.76200 33.75700
H  -0.94400 1.06900 28.28800
H  -2.53700 1.83100 28.51800
H  -1.36800 2.20400 29.59300
H  -2.54300 0.13900 24.94600
H  -3.06800 0.77500 26.46100
H  -1.40400 0.22700 26.37000
H  -1.98500 6.58100 22.09900
H  -0.04800 8.81800 21.71800
H  0.91900 5.87500 21.84800
H  0.13100 6.90500 20.68200
H  -0.56800 5.22100 21.05800
H  -2.24800 9.92700 23.00000
H  -2.92700 8.55200 22.35400
H  -1.38400 9.89600 20.19000
H  -2.00500 11.12300 21.20000
H  -3.19100 10.05500 20.51100
H  0.89500 12.54900 24.09300
H  2.52900 12.22700 24.50100
H  1.53700 13.55000 25.38400
H  0.50300 11.40300 30.36600
H  3.47500 9.93900 32.99200
H  3.27400 11.60400 33.60700
H  4.43600 11.30000 32.41900
Mg 41.13000 8.71800 29.56800
C  43.13900 10.13600 32.10200
C  39.06000 7.52600 31.98700
C  39.21600 7.24500 27.17400
C  43.41500 9.67300 27.34200
N  41.20900 8.79600 31.81600
C  42.12300 9.40600 32.67400
C  41.56800 9.36700 34.15200
C  40.45300 8.27500 34.05200
C  40.23200 8.12800 32.55400
C  40.71500 6.93400 34.74000
C  41.03600 10.85700 34.44100
C  40.34500 11.06800 35.82000
H  41.18200 11.78300 36.89100
N  39.45200 7.47300 29.57500
C  38.74100 7.25800 30.69900
C  37.41300 6.71200 30.22400
C  37.34300 6.80500 28.83900
C  38.68200 7.21000 28.47100
C  36.50700 6.07900 31.31400
C  36.17400 6.50900 27.83500
O  36.28400 6.62600 26.68400
C  34.84800 6.18500 28.46300
N  41.27700 8.47900 27.51900
C  40.48400 7.70200 26.75100
C  40.89000 7.89500 25.25100
C  42.28200 8.43700 25.43800
C  42.37100 8.88200 26.88100
C  40.88700 6.68400 24.38000
C  42.67500 9.55000 24.38900
C  43.85400 9.27400 23.44800
N  42.85600 9.86900 29.63400
C  43.73600 10.21600 28.59900
C  44.82600 11.00000 29.01100
C  44.61700 11.05900 30.45600
C  43.50100 10.25900 30.71500
C  45.84200 11.65900 28.12900
C  45.11700 11.53500 31.65300
O  46.11200 12.11500 31.94700
C  44.24400 10.92100 32.85100
C  44.89300 10.24300 34.00700
O  45.81000 9.48400 33.86200
O  44.45400 10.76800 35.18100
C  45.09100 10.21600 36.41500
H  38.41000 7.24100 32.81700
H  38.58000 6.85900 26.37500
H  44.09900 9.80800 26.50100
H  42.40200 9.04200 34.77400
H  39.61500 8.73900 34.57200
H  41.71200 6.78600 35.15500
H  40.62200 6.08700 34.06000
H  40.02100 6.73200 35.55600
H  40.27300 11.18600 33.73500
H  41.94600 11.42000 34.23700
H  40.08800 10.10300 36.25500
H  39.48900 11.70700 35.60200
H  36.29700 5.06100 30.98600
H  35.57700 6.64600 31.31500
H  36.90900 5.91500 32.31400
H  34.59400 7.10400 28.99100
H  34.94500 5.33500 29.13900
H  34.07200 5.95900 27.73200
H  40.23900 8.68400 24.87600
H  43.08400 7.70200 25.35900
H  41.91300 6.41100 24.13500
H  40.28100 6.67600 23.47400
H  40.44100 5.84000 24.90700
H  42.82100 10.53700 24.82900
H  41.88700 9.56500 23.63700
H  44.45800 10.17800 23.36700
H  43.43600 9.05300 22.46600
H  44.54300 8.45400 23.64900
H  45.98500 10.93100 27.33000
H  46.66800 11.79200 28.82800
H  45.47300 12.63600 27.82000
H  43.89700 11.87500 33.24800
H  44.37400 10.14200 37.23200
H  45.87700 10.85000 36.82500
H  45.39500 9.18200 36.24800

