158

Mg 7.98100 3.66500 27.96900
C  9.47500 2.24400 30.74700
C  6.33000 5.82100 29.81900
C  6.56900 4.74300 25.09800
C  9.19900 0.89000 26.11600
N  7.81000 3.95600 30.05300
C  8.62500 3.35400 31.03000
C  8.32000 4.00600 32.42900
C  7.16500 4.99500 32.11900
C  7.03500 4.85900 30.58800
C  5.80400 4.76500 32.89800
C  9.61900 4.61800 33.06700
C  10.20600 4.12400 34.34200
H  10.53400 5.13100 35.48600
N  6.67900 5.13600 27.53800
C  6.24400 6.07800 28.41800
C  5.59400 7.19700 27.76400
C  5.66100 6.87400 26.38700
C  6.34400 5.54500 26.29600
C  5.00800 8.42500 28.56500
C  5.16600 7.66000 25.20700
O  5.22000 7.20200 24.05200
C  4.28200 8.81400 25.33800
N  7.87700 2.88000 25.95400
C  7.18000 3.56600 24.96500
C  7.48800 2.95800 23.63300
C  8.31100 1.73400 23.94700
C  8.49400 1.83800 25.45800
C  6.25900 2.65900 22.71100
C  9.61500 1.62600 23.13900
C  9.48500 0.65600 22.01900
N  9.18700 1.89200 28.28000
C  9.56300 0.85200 27.51600
C  10.33500 -0.11200 28.21100
C  10.37900 0.43500 29.50300
C  9.73100 1.64600 29.47300
C  10.87300 -1.41200 27.73300
C  10.88700 0.23700 30.88600
O  11.58600 -0.65000 31.41900
C  10.32400 1.47200 31.76100
C  9.67500 0.92100 32.95400
O  8.59300 0.42600 33.06300
O  10.63000 0.90700 33.95100
C  10.33600 0.37300 35.27800
H  5.99200 6.58200 30.52500
H  6.19400 5.13100 24.14900
H  9.77300 0.10300 25.62300
H  7.97900 3.20700 33.08800
H  7.37300 6.05100 32.29400
H  4.93200 4.64900 32.25400
H  5.58000 5.72200 33.36900
H  5.84700 4.01700 33.69000
H  9.49300 5.69000 33.22200
H  10.38000 4.45400 32.30400
H  11.15300 3.67000 34.04800
H  9.42500 3.48400 34.75300
H  3.93400 8.26600 28.66200
H  5.37600 9.30700 28.04200
H  5.37900 8.39500 29.58900
H  4.15400 9.29500 24.36900
H  4.81600 9.54900 25.94200
H  3.31300 8.44900 25.67700
H  8.02900 3.80300 23.20700
H  7.66700 0.87000 23.78500
H  6.21200 1.59600 22.47500
H  6.37800 3.24000 21.79700
H  5.33900 2.98400 23.19700
H  10.36500 1.33900 23.87600
H  9.97000 2.57700 22.74300
H  10.08300 0.98600 21.17000
H  8.45300 0.43600 21.74400
H  9.83400 -0.24000 22.53100
H  11.88300 -1.53000 28.12500
H  10.84800 -1.66200 26.67200
H  10.27400 -2.18000 28.22400
H  11.11800 2.14500 32.08400
H  9.84800 1.19000 35.81000
H  11.28100 -0.05200 35.61800
H  9.54700 -0.37700 35.33100
Mg 48.71400 35.49100 26.66400
C  46.95200 33.89400 29.18600
C  49.07700 38.22400 28.65200
C  49.94700 37.18500 23.97900
C  47.94400 32.80700 24.63400
N  48.01400 35.93100 28.72900
C  47.51300 35.10000 29.62500
C  47.57900 35.65600 31.04600
C  47.96600 37.11600 30.73300
C  48.43200 37.12700 29.25200
C  46.77800 38.10500 31.12800
C  48.71900 34.88000 31.82800
C  48.77400 34.92100 33.31700
H  47.65700 35.78600 34.01900
N  49.36500 37.42900 26.36100
C  49.54600 38.41600 27.33400
C  50.19300 39.61700 26.78000
C  50.35300 39.41600 25.41400
C  49.81100 37.98700 25.14400
C  50.46900 40.81500 27.67000
C  50.91700 40.30800 24.36600
O  50.95000 39.95500 23.19700
C  51.26300 41.65800 24.69100
N  49.08700 34.99400 24.67500
C  49.64300 35.86300 23.75200
C  49.93900 35.10100 22.47400
C  49.12000 33.75600 22.66200
C  48.74000 33.78900 24.09200
C  49.43500 35.82800 21.09500
C  49.88000 32.39400 22.23100
C  49.52900 31.71200 20.92300
N  47.78300 33.61200 26.85100
C  47.47300 32.66300 25.94000
C  46.69000 31.59000 26.49000
C  46.47000 32.02300 27.87000
C  47.11400 33.31100 27.94500
C  46.03400 30.40400 25.85700
C  45.76600 31.75800 29.08000
O  45.13100 30.77300 29.39700
C  46.01800 32.95200 30.01500
C  46.41700 32.39300 31.33600
O  47.30400 31.59200 31.50100
O  45.55000 32.75500 32.32900
C  45.73500 31.95100 33.52900
H  49.42800 38.93000 29.40800
H  50.31500 37.64000 23.05700
H  47.67600 32.03900 23.90500
H  46.59600 35.62100 31.51600
H  48.90900 37.43800 31.17500
H  45.98400 37.57900 31.65700
H  46.43700 38.61400 30.22600
H  47.34200 38.70000 31.84600
H  49.69400 35.26700 31.53200
H  48.60000 33.84400 31.51000
H  49.79000 35.09000 33.67500
H  48.60400 33.86800 33.54300
H  50.61900 40.52300 28.70900
H  49.61000 41.48500 27.69800
H  51.37800 41.38900 27.48700
H  51.49400 42.14400 23.74300
H  52.06100 41.48900 25.41500
H  50.33700 42.03300 25.12700
H  51.02300 34.98900 22.45900
H  48.14900 33.93200 22.20000
H  48.86800 35.12600 20.48500
H  50.40300 35.96800 20.61300
H  48.88800 36.76200 21.23100
H  49.79400 31.59500 22.96700
H  50.93700 32.64700 22.31000
H  50.27300 32.06900 20.21200
H  48.61800 32.14300 20.50700
H  49.22100 30.66800 20.97300
H  45.21200 30.73800 25.22300
H  45.72200 29.72300 26.64900
H  46.64300 29.84600 25.14600
H  45.08000 33.48100 30.18500
H  46.78500 31.91600 33.81800
H  45.33800 30.95600 33.32800
H  45.12100 32.29000 34.36400

