158

Mg 47.10900 25.61800 29.28500
C  48.04600 27.86800 31.91900
C  45.66800 23.53300 31.62700
C  46.78500 23.20200 26.89800
C  48.87000 27.66500 27.15400
N  47.05000 25.69200 31.49500
C  47.29500 26.71300 32.34500
C  46.65600 26.55700 33.74100
C  46.07400 25.13100 33.60400
C  46.18400 24.75800 32.15600
C  46.69600 24.14500 34.60100
C  45.57600 27.67300 34.15800
C  45.17600 27.98500 35.60100
H  45.78100 27.19500 36.75100
N  46.20200 23.68200 29.24200
C  45.60400 23.03700 30.25700
C  44.98300 21.81000 29.76000
C  45.39100 21.60300 28.40800
C  46.15200 22.88400 28.13000
C  44.19800 20.91200 30.62800
C  45.02500 20.51100 27.42900
O  45.52100 20.60800 26.30200
C  44.01100 19.46100 27.75200
N  47.66600 25.47700 27.36900
C  47.44100 24.39400 26.52800
C  48.07600 24.57300 25.14900
C  48.47000 26.06500 25.10700
C  48.41800 26.38100 26.64100
C  49.31800 23.68000 24.93300
C  47.51600 27.04600 24.32700
C  48.27500 27.91500 23.35100
N  48.20800 27.47500 29.43600
C  48.84400 28.20100 28.46400
C  49.38400 29.37800 29.02300
C  49.10100 29.35400 30.40600
C  48.35700 28.15400 30.58100
C  50.10500 30.49600 28.35600
C  49.28700 30.00000 31.67300
O  49.85200 31.07700 31.97700
C  48.58400 29.04800 32.73400
C  49.52300 28.65600 33.74900
O  50.58200 28.10000 33.48600
O  48.97700 29.00900 34.97700
C  49.81000 28.50000 36.06600
H  45.14100 23.05800 32.45700
H  46.65800 22.47800 26.09000
H  49.60800 28.20400 26.55600
H  47.43100 26.39600 34.49000
H  45.01300 25.21300 33.84000
H  47.54800 24.50000 35.18100
H  47.05700 23.25300 34.09000
H  45.92600 23.77800 35.27900
H  44.71800 27.34000 33.57500
H  45.84700 28.65100 33.76300
H  44.11800 27.78600 35.76900
H  45.36500 29.04100 35.79600
H  44.06200 21.23200 31.66100
H  44.65400 19.92200 30.60300
H  43.20500 20.79000 30.19400
H  44.39400 19.15900 28.72700
H  44.12400 18.70500 26.97500
H  43.00900 19.89000 27.75400
H  47.27100 24.35800 24.44700
H  49.53300 26.16900 24.88900
H  49.11400 23.04900 24.06800
H  49.52500 22.97000 25.73300
H  50.23900 24.23300 24.75100
H  47.10100 27.81700 24.97600
H  46.70800 26.44100 23.91300
H  47.66100 28.08400 22.46600
H  49.17900 27.39400 23.03700
H  48.53700 28.90300 23.73000
H  50.69200 30.17100 27.49700
H  50.78500 30.99000 29.05100
H  49.47100 31.28000 27.94400
H  47.75600 29.66900 33.07400
H  50.77300 28.99900 35.95000
H  49.85900 27.41100 36.06100
H  49.22300 28.81400 36.92900
Mg 37.30400 50.56000 25.18900
C  37.01900 48.39600 27.85300
C  35.95400 53.07700 26.89000
C  37.09100 52.34300 22.28400
C  38.26600 47.70700 23.26800
N  36.40600 50.63600 27.14600
C  36.62400 49.76000 28.11500
C  36.37700 50.31600 29.49600
C  35.72400 51.69500 29.14300
C  36.07600 51.91300 27.63500
C  34.23200 51.80400 29.35600
C  37.45000 50.30400 30.56300
C  37.05300 49.66200 31.90400
H  35.66700 49.87000 32.50500
N  36.77100 52.55100 24.66000
C  36.28300 53.44400 25.53900
C  36.04100 54.70700 24.88400
C  36.31900 54.52800 23.47800
C  36.74000 53.11400 23.42800
C  35.61600 55.90700 25.63300
C  36.20500 55.41800 22.31700
O  36.47800 55.03700 21.20200
C  35.84900 56.86100 22.55800
N  37.54100 50.08000 23.10800
C  37.42200 50.99900 22.06600
C  37.82600 50.35600 20.71000
C  38.40200 49.00100 21.07100
C  38.05900 48.91000 22.62700
C  36.51800 50.30100 19.80300
C  39.85700 48.65500 20.68100
C  40.84900 49.67100 21.20600
N  37.54200 48.45000 25.39700
C  37.94400 47.41500 24.56900
C  38.01200 46.18600 25.29300
C  37.68600 46.53600 26.59700
C  37.33400 47.88500 26.58700
C  38.52300 44.93800 24.72700
C  37.63300 46.09500 27.94500
O  37.82500 44.98400 28.34300
C  37.32400 47.33400 28.84900
C  36.21200 46.93500 29.71900
O  35.04500 47.00600 29.39800
O  36.71300 46.42800 30.92900
C  35.71600 46.17100 31.94900
H  35.76300 53.88100 27.60400
H  37.05200 52.88500 21.33700
H  38.87300 46.96300 22.74800
H  35.56900 49.70400 29.89800
H  36.21400 52.53200 29.64100
H  33.99300 51.00700 30.06100
H  33.75700 51.69600 28.38100
H  34.07800 52.77900 29.81800
H  37.83400 51.30100 30.77700
H  38.25500 49.69400 30.15200
H  37.75000 50.05200 32.64700
H  37.39300 48.62700 31.87600
H  35.76200 55.85900 26.71200
H  34.56300 56.11400 25.44100
H  36.08300 56.82800 25.28500
H  35.02200 56.96900 23.25900
H  35.67600 57.32000 21.58400
H  36.80700 57.24200 22.91300
H  38.62100 50.82500 20.13100
H  37.76200 48.26000 20.59200
H  36.81800 50.69100 18.83000
H  35.80200 51.00400 20.22800
H  35.95300 49.38500 19.63100
H  39.96800 48.54700 19.60200
H  40.12300 47.66000 21.03900
H  40.42200 50.67100 21.27400
H  41.67600 49.70300 20.49600
H  41.38600 49.37600 22.10800
H  39.52400 45.13300 24.34300
H  37.85700 44.64300 23.91600
H  38.60400 44.12500 25.44900
H  38.26700 47.46200 29.38100
H  35.76700 45.08200 31.95700
H  34.70100 46.48500 31.70200
H  36.09000 46.49600 32.91900

