158

Mg 36.41200 49.28100 24.47400
C  36.53500 47.39400 27.42500
C  35.04600 51.76700 26.13900
C  35.95100 50.75600 21.47700
C  37.50900 46.33600 22.70700
N  35.79300 49.51800 26.54700
C  36.02900 48.66400 27.60400
C  35.70500 49.35400 28.94700
C  35.02200 50.67000 28.42100
C  35.25500 50.63600 26.89800
C  33.55600 50.94700 28.87300
C  36.92600 49.56400 29.88800
C  36.84400 49.30400 31.41600
H  35.45400 49.35800 32.07500
N  35.73800 51.08200 23.89300
C  35.19200 51.95800 24.76000
C  34.84500 53.12400 24.03700
C  35.21500 52.86800 22.67700
C  35.64100 51.53800 22.62300
C  34.17800 54.27800 24.69700
C  34.92000 53.80200 21.52000
O  35.12000 53.42800 20.34700
C  34.44300 55.19700 21.70400
N  36.48900 48.52600 22.36900
C  36.40600 49.48400 21.40000
C  36.90200 48.90700 20.05200
C  37.42200 47.48200 20.40300
C  37.19300 47.46400 21.92900
C  35.82900 48.87700 18.96600
C  38.89900 47.14600 19.98700
C  39.95700 48.15500 20.50400
N  36.82200 47.23900 24.91900
C  37.42600 46.27300 24.15700
C  37.66800 45.14000 24.98800
C  37.30000 45.55700 26.26800
C  36.81800 46.87700 26.18900
C  38.15500 43.77400 24.62100
C  37.11100 45.14800 27.65000
O  37.27300 44.05100 28.16700
C  36.69400 46.41200 28.48300
C  35.39300 46.07800 29.23500
O  34.23500 46.41100 28.93500
O  35.72800 45.31600 30.32200
C  34.56300 44.88200 31.05400
H  34.55400 52.55100 26.71900
H  36.00500 51.29900 20.53100
H  37.96700 45.55100 22.10000
H  34.93700 48.79600 29.48400
H  35.57500 51.53100 28.79700
H  33.54200 51.89300 29.41500
H  33.23600 50.17100 29.56900
H  32.87100 51.12000 28.04300
H  37.36200 50.56300 29.86000
H  37.75300 48.99200 29.46800
H  37.37100 50.10100 31.94200
H  37.40500 48.37900 31.54400
H  34.65900 55.18800 24.33900
H  34.24400 54.41900 25.77600
H  33.13000 54.20500 24.40800
H  33.59400 55.33100 22.37500
H  34.33300 55.76300 20.78000
H  35.23500 55.58400 22.34500
H  37.66600 49.51600 19.57000
H  36.95600 46.60000 19.96300
H  34.83400 49.06500 19.36900
H  35.99500 47.95900 18.40300
H  35.97900 49.79700 18.40000
H  39.02800 47.26700 18.91200
H  39.18600 46.12000 20.21900
H  39.52300 48.60700 21.39600
H  40.22600 48.89200 19.74800
H  40.82100 47.56300 20.80700
H  38.21600 43.17000 25.52600
H  39.04100 43.75100 23.98700
H  37.37300 43.38500 23.96800
H  37.48800 46.52200 29.22100
H  34.90500 44.33300 31.93100
H  33.90600 44.18200 30.53600
H  33.93000 45.71000 31.37500
Mg 9.97900 47.62400 25.97000
C  8.23900 47.90500 28.96900
C  12.65500 49.17600 27.56200
C  11.71000 47.58000 23.09500
C  7.06800 46.63600 24.40600
N  10.25400 48.59900 28.00400
C  9.48600 48.45500 29.07400
C  10.12500 48.98400 30.41800
C  11.37600 49.74700 29.82200
C  11.45700 49.12700 28.38400
C  11.11600 51.27900 29.79100
C  10.57700 47.84100 31.40600
C  9.96500 47.87200 32.82200
H  10.19100 46.62000 33.76000
N  11.90900 48.18100 25.44700
C  12.86100 48.76800 26.25700
C  14.12800 48.83600 25.56700
C  13.94900 48.37700 24.23100
C  12.44700 48.01200 24.21700
C  15.28400 49.50900 26.25500
C  14.90900 48.13500 23.14100
O  14.69900 47.58800 22.04400
C  16.27500 48.61100 23.36100
N  9.42300 47.39400 24.05000
C  10.37200 47.28500 22.95300
C  9.69400 46.85200 21.69000
C  8.40700 46.33500 22.22100
C  8.23200 46.87300 23.63800
C  9.53700 47.82700 20.43400
C  8.21900 44.81400 21.96200
C  9.18600 44.08400 22.90600
N  8.00100 47.50700 26.44900
C  6.93700 46.99300 25.78800
C  5.73800 46.98800 26.61700
C  6.28400 47.26400 27.87800
C  7.64500 47.58700 27.77000
C  4.37700 46.62700 26.22400
C  5.90800 47.29700 29.28200
O  4.82000 47.11800 29.77000
C  7.17700 47.67300 30.06500
C  7.45400 46.41500 30.83800
O  8.03800 45.41500 30.41600
O  6.93400 46.43200 32.17500
C  7.11500 45.17800 32.95200
H  13.47200 49.49900 28.21000
H  12.34800 47.69000 22.21500
H  6.29400 46.07400 23.87800
H  9.45600 49.68000 30.92300
H  12.19600 49.54500 30.51100
H  11.89200 51.79800 30.35400
H  10.19000 51.50100 30.32200
H  11.13600 51.55100 28.73600
H  11.65700 47.82800 31.55100
H  10.22100 46.89400 31.00200
H  8.90100 48.07600 32.70100
H  10.31900 48.81900 33.22800
H  15.90900 49.92300 25.46300
H  15.77600 48.96900 27.06400
H  15.10500 50.43600 26.79900
H  16.69500 48.15400 24.25600
H  16.25900 49.69800 23.29000
H  17.02200 48.33500 22.61700
H  10.31400 46.00600 21.39500
H  7.58000 46.71500 21.62200
H  9.95300 48.78300 20.75000
H  8.49400 47.88700 20.12300
H  10.11600 47.41400 19.60800
H  8.36200 44.59400 20.90400
H  7.19300 44.58100 22.24600
H  8.62400 43.73100 23.77000
H  10.03700 44.62500 23.31800
H  9.46500 43.19000 22.34800
H  3.97800 47.44900 25.63000
H  3.75700 46.40600 27.09300
H  4.34500 45.79900 25.51700
H  7.00200 48.45200 30.80700
H  7.51400 45.36300 33.95000
H  7.78400 44.47900 32.45100
H  6.18300 44.63400 33.10300

