158

Mg 9.02200 3.32300 27.40800
C  10.28800 1.62400 30.23600
C  7.30500 5.41200 29.50200
C  7.85000 4.73300 24.68900
C  10.56500 0.84700 25.42000
N  8.73400 3.40800 29.72000
C  9.47200 2.70900 30.65900
C  9.18400 3.19100 32.10200
C  8.24500 4.45400 31.80300
C  8.08600 4.44500 30.27100
C  6.83000 4.47800 32.46900
C  10.49000 3.60600 32.96000
C  10.11200 4.14400 34.31900
H  11.08900 3.87900 35.43500
N  7.87000 4.83800 27.14600
C  7.19400 5.62000 28.06700
C  6.38800 6.61500 27.44900
C  6.53100 6.47200 26.03600
C  7.44100 5.29100 25.88000
C  5.66400 7.72100 28.16600
C  5.94800 7.22600 24.81700
O  6.19600 6.90200 23.67300
C  4.89600 8.26200 24.98200
N  9.07700 2.77500 25.37600
C  8.55400 3.56700 24.40600
C  8.92700 3.17300 22.99300
C  9.90800 1.91300 23.30400
C  9.88200 1.81700 24.76900
C  7.83800 2.94000 21.96500
C  11.35600 2.07100 22.67800
C  11.57100 1.25300 21.36300
N  10.12000 1.59500 27.66600
C  10.66400 0.76700 26.77300
C  11.41800 -0.27200 27.47600
C  11.28700 0.02500 28.82500
C  10.49700 1.17300 28.95100
C  12.08100 -1.54500 26.91900
C  11.62600 -0.36500 30.19000
O  12.33000 -1.28800 30.58200
C  11.01200 0.60400 31.11300
C  10.13600 0.03700 32.14300
O  9.00600 -0.36100 31.92700
O  10.70000 0.11000 33.43300
C  9.87600 -0.10300 34.61400
H  6.77400 6.13100 30.13000
H  7.61300 5.20300 23.73200
H  11.01700 0.04400 24.83500
H  8.78000 2.32800 32.63000
H  8.75100 5.38300 32.06700
H  6.54600 5.43100 32.91500
H  6.92600 3.73700 33.26300
H  6.06000 4.13200 31.78000
H  11.00600 4.38100 32.39300
H  11.24300 2.81800 32.95000
H  9.17000 3.71400 34.66200
H  9.84000 5.19800 34.26500
H  5.86500 7.73200 29.23700
H  4.59700 7.72200 27.94500
H  6.18000 8.60400 27.78900
H  5.38500 9.08600 25.50200
H  4.12400 7.76500 25.56900
H  4.43200 8.72500 24.11100
H  9.66500 3.85600 22.57200
H  9.36500 1.07200 22.87300
H  7.51000 3.94900 21.71400
H  6.99900 2.30600 22.25100
H  8.41900 2.50000 21.15500
H  12.14600 1.78300 23.37200
H  11.64600 3.05700 22.31500
H  11.84700 1.88000 20.51500
H  10.66300 0.74000 21.04600
H  12.39800 0.57700 21.58400
H  11.58400 -1.78900 25.98100
H  11.98000 -2.35300 27.64300
H  13.10200 -1.25300 26.67400
H  11.80300 1.16800 31.60800
H  10.39500 -0.83400 35.23400
H  8.92300 -0.61000 34.46500
H  9.82700 0.81400 35.20300
Mg 46.95500 43.96800 42.23200
C  43.47800 43.15200 41.71300
C  47.72600 40.53300 41.49500
C  50.17800 44.81800 41.94000
C  45.99100 47.35100 42.20500
N  45.76100 42.07300 41.74300
C  44.37400 42.06900 41.54300
C  43.90800 40.69900 41.11000
C  45.27900 39.83000 41.18900
C  46.33700 40.84300 41.55500
C  45.14300 38.56600 42.11600
C  43.26100 40.61300 39.68500
C  43.91500 41.37700 38.62100
H  43.98300 40.74300 37.31400
N  48.68500 42.82900 41.79500
C  48.75900 41.47000 41.66200
C  50.17400 41.04000 41.64900
C  50.92200 42.26300 41.74800
C  49.89500 43.40600 41.83000
C  50.60600 39.64800 41.48200
C  52.47100 42.31900 41.64300
O  53.07800 41.29300 41.47500
C  53.24500 43.56700 41.47200
N  47.89400 45.78700 42.26600
C  49.32500 45.89100 42.08700
C  49.75100 47.37800 41.99000
C  48.39100 48.21000 42.11900
C  47.34800 47.06500 42.14200
C  50.71800 47.79200 43.14800
C  48.05400 49.26100 40.98500
C  47.77100 50.62800 41.59700
N  45.12000 45.05900 42.16200
C  44.92800 46.41200 42.21600
C  43.47100 46.65700 42.18500
C  42.92200 45.41100 42.02300
C  43.89600 44.43300 42.02700
C  42.79700 48.03100 42.08800
C  41.66000 44.85600 41.84700
O  40.52800 45.32700 41.92300
C  42.00800 43.27500 41.64800
C  41.40400 42.49800 42.79600
O  40.60000 41.55700 42.73000
O  41.86900 42.99700 44.01600
C  41.33900 42.27800 45.13500
H  47.87600 39.45200 41.48400
H  51.25900 44.91700 41.81900
H  45.64600 48.37500 42.36200
H  43.09700 40.49500 41.80800
H  45.67500 39.50200 40.22800
H  45.71700 38.77600 43.01900
H  45.42400 37.68900 41.53300
H  44.10900 38.28100 42.31000
H  42.25000 41.01400 39.61100
H  43.19200 39.54100 39.49800
H  44.90100 41.64000 39.00400
H  43.35600 42.30200 38.48200
H  50.46600 39.27800 40.46700
H  49.91700 39.10300 42.12700
H  51.57900 39.47300 41.94000
H  52.89700 43.97400 40.52300
H  54.31400 43.51600 41.26700
H  53.14000 44.14600 42.39000
H  50.23700 47.44500 41.01700
H  48.25300 48.53900 43.14900
H  50.66600 47.11000 43.99700
H  50.43500 48.74900 43.58800
H  51.78000 47.77300 42.90600
H  47.22300 49.00800 40.32600
H  48.94400 49.20100 40.35800
H  48.29500 51.30500 40.92300
H  48.16800 50.67000 42.61100
H  46.72700 50.92200 41.70800
H  43.46200 48.86000 42.33200
H  41.96600 48.21100 42.76900
H  42.35500 48.18400 41.10300
H  41.68300 42.97500 40.65200
H  41.65200 42.86500 45.99900
H  41.87100 41.32800 45.17300
H  40.27500 42.15000 44.93700

