158

Mg -1.61400 17.76900 27.48000
C  -2.46400 15.53400 30.12400
C  -2.57400 20.32700 29.52700
C  -1.90200 19.80700 24.79900
C  -1.48000 15.04400 25.26000
N  -2.42000 17.79700 29.50300
C  -2.46500 16.83600 30.46200
C  -2.66800 17.32900 31.87700
C  -2.67600 18.92600 31.56100
C  -2.45300 19.03100 30.10600
C  -3.93600 19.64800 32.04800
C  -1.48100 17.00100 32.84200
C  -1.25700 17.99600 34.04400
H  -0.73700 17.46800 35.35100
N  -2.05700 19.80100 27.21800
C  -2.39500 20.68200 28.17400
C  -2.54100 21.99700 27.65500
C  -2.28200 21.86100 26.23800
C  -2.02800 20.47600 26.06700
C  -2.85400 23.24200 28.42300
C  -2.16800 22.99100 25.13600
O  -1.93000 22.79700 23.94000
C  -2.21700 24.37900 25.56300
N  -1.87000 17.47200 25.34400
C  -1.78600 18.51500 24.50100
C  -1.56000 18.02900 23.05400
C  -1.13900 16.51700 23.25900
C  -1.49600 16.31300 24.72400
C  -2.76800 18.16500 22.11600
C  0.38500 16.21200 22.87800
C  1.38900 16.59300 23.89200
N  -1.80200 15.57700 27.65500
C  -1.73100 14.68900 26.64500
C  -2.13700 13.42700 27.22100
C  -2.33100 13.64100 28.62900
C  -2.18500 15.01900 28.78500
C  -2.20400 12.09200 26.56000
C  -2.69700 13.09700 29.86800
O  -2.86700 11.94400 30.16700
C  -2.75400 14.26700 30.90700
C  -1.72400 13.90500 31.94500
O  -0.51800 14.19300 31.98500
O  -2.35100 13.22400 32.93900
C  -1.49000 12.57400 33.87500
H  -2.76200 21.17400 30.19000
H  -1.77100 20.54300 24.00300
H  -1.44900 14.27900 24.48100
H  -3.61700 16.96300 32.26800
H  -1.75300 19.38300 31.91700
H  -3.61700 20.46100 32.70100
H  -4.56000 18.94400 32.59800
H  -4.60600 20.12200 31.33100
H  -0.63500 17.02400 32.15400
H  -1.55200 16.03000 33.33000
H  -2.21100 18.49300 34.21700
H  -0.50100 18.71000 33.71700
H  -3.16800 23.04200 29.44700
H  -3.75900 23.63900 27.96300
H  -1.93500 23.82800 28.45200
H  -3.11300 24.65100 26.12200
H  -2.10000 25.04800 24.71000
H  -1.41700 24.61700 26.26400
H  -0.77300 18.69700 22.70300
H  -1.73100 15.82500 22.66000
H  -3.59400 18.61700 22.66500
H  -3.05300 17.21700 21.65900
H  -2.52000 18.84400 21.30000
H  0.60800 16.55600 21.86800
H  0.45000 15.12400 22.86900
H  0.86600 16.98800 24.76300
H  1.97200 17.34000 23.35400
H  2.09600 15.82300 24.20100
H  -1.26000 11.72000 26.16000
H  -2.89000 12.10900 25.71300
H  -2.61400 11.41400 27.30900
H  -3.68600 14.30500 31.47000
H  -1.37600 13.20400 34.75600
H  -0.46800 12.35700 33.56200
H  -1.85900 11.61600 34.24200
Mg 16.73500 52.04200 25.91900
C  18.49100 50.79400 28.60900
C  14.29800 53.01000 28.08300
C  14.97100 52.97000 23.22600
C  19.36400 50.83800 23.79000
N  16.35900 51.80100 28.18500
C  17.28300 51.41000 29.06700
C  16.90000 51.43100 30.52200
C  15.35500 52.02100 30.28900
C  15.30200 52.33300 28.77000
C  14.19500 51.15300 30.79000
C  17.82900 52.41300 31.30500
C  17.61100 52.67400 32.77500
H  16.55700 51.81700 33.39300
N  14.91700 52.91400 25.68000
C  14.11100 53.25400 26.73500
C  12.94500 54.01400 26.16300
C  13.09700 54.05600 24.71400
C  14.33100 53.30600 24.47200
C  11.94900 54.61500 27.07800
C  12.24200 54.63600 23.66100
O  12.54200 54.66600 22.47300
C  11.04200 55.42900 24.02400
N  17.18400 51.91900 23.77800
C  16.29400 52.37800 22.94700
C  16.85000 52.32600 21.48800
C  18.27300 51.81000 21.66000
C  18.32000 51.48500 23.16800
C  15.92500 51.54100 20.49200
C  19.37100 52.83400 21.34900
C  20.79100 52.30100 20.88600
N  18.42500 50.95500 26.06600
C  19.44000 50.56300 25.11200
C  20.44600 49.78900 25.77700
C  20.07500 49.78200 27.13800
C  18.85100 50.52800 27.24800
C  21.64500 49.37900 25.22000
C  20.58000 49.41700 28.44500
O  21.55900 48.81200 28.76500
C  19.49300 49.98000 29.47000
C  18.99300 48.80000 30.12900
O  18.19400 48.03300 29.67300
O  19.21300 48.92000 31.51500
C  18.45000 47.95600 32.40300
H  13.59400 53.27100 28.87600
H  14.54500 53.19100 22.24500
H  20.13400 50.49700 23.09500
H  16.84900 50.41900 30.92300
H  15.21600 52.98300 30.78200
H  13.53500 51.70300 31.46100
H  14.50800 50.22500 31.27000
H  13.58900 50.80800 29.95300
H  17.72700 53.39100 30.83600
H  18.85800 52.07400 31.18500
H  17.25100 53.68000 32.98800
H  18.59600 52.45700 33.18700
H  10.91300 54.27600 27.07100
H  12.00600 55.62700 26.67600
H  12.33400 54.65000 28.09700
H  11.36600 56.26900 24.63800
H  10.32600 54.85000 24.60800
H  10.56800 55.77300 23.10500
H  16.90100 53.36900 21.17400
H  18.42800 50.88700 21.10100
H  16.56000 51.04900 19.75600
H  15.24500 52.30200 20.11200
H  15.25400 50.85500 21.01000
H  19.64000 53.44000 22.21500
H  18.98900 53.49400 20.57100
H  20.69900 51.23900 20.65700
H  21.47100 52.55800 21.69800
H  20.95500 52.91900 20.00400
H  22.48000 50.05300 25.40900
H  21.67600 49.17400 24.14900
H  21.96900 48.43200 25.65200
H  20.06100 50.54500 30.20900
H  18.32400 46.97700 31.94100
H  17.54600 48.39600 32.82300
H  19.01100 47.76900 33.31900

