158

Mg 8.79400 2.59500 27.69700
C  10.31500 1.09800 30.48100
C  6.81400 4.48300 29.74800
C  7.45000 3.87500 24.96400
C  10.63500 0.25100 25.63900
N  8.68900 2.74900 29.81900
C  9.49600 2.22000 30.79400
C  9.10900 2.70800 32.17800
C  7.94300 3.65200 31.90600
C  7.72000 3.59300 30.38300
C  6.68500 3.41300 32.81400
C  10.34800 3.27300 33.00300
C  10.19600 4.25200 34.17700
H  10.95400 3.99000 35.44000
N  7.20600 3.98300 27.42700
C  6.51300 4.64400 28.37900
C  5.59700 5.51100 27.72300
C  5.93200 5.48900 26.30600
C  6.93200 4.45600 26.11700
C  4.59200 6.40400 28.50700
C  5.44200 6.34700 25.20500
O  5.85700 6.36500 24.10200
C  4.30200 7.37800 25.57300
N  8.81900 1.88600 25.58900
C  8.21600 2.69200 24.65300
C  8.73900 2.29800 23.21600
C  9.58700 1.01700 23.40100
C  9.78200 1.10100 24.98000
C  7.64900 2.19500 22.17800
C  10.99200 1.08700 22.63400
C  11.23400 -0.20500 21.83400
N  10.26800 1.14500 27.90900
C  10.86000 0.24100 27.01300
C  11.77800 -0.67000 27.72200
C  11.57800 -0.35800 29.07800
C  10.72100 0.77900 29.12400
C  12.58300 -1.85000 27.14900
C  11.99600 -0.72700 30.42500
O  12.78200 -1.56500 30.81400
C  11.22300 0.24200 31.36000
C  10.60100 -0.59800 32.36500
O  9.39200 -0.86600 32.56000
O  11.53000 -0.92200 33.35100
C  11.00600 -1.20700 34.66900
H  6.23500 5.13800 30.40300
H  7.19400 4.44700 24.06900
H  11.21000 -0.38600 24.96400
H  8.75100 1.79700 32.65800
H  8.23000 4.64800 32.24500
H  5.81000 2.97700 32.33300
H  6.32800 4.34400 33.25500
H  6.91700 2.79300 33.68000
H  10.93000 3.72900 32.20200
H  10.88600 2.37200 33.29800
H  9.14100 4.41700 34.39500
H  10.52100 5.21000 33.77100
H  3.58800 6.48800 28.09200
H  5.16700 7.30300 28.72800
H  4.44100 5.87000 29.44600
H  4.65200 8.04000 26.36500
H  3.51400 6.68400 25.86400
H  3.90300 7.99900 24.77100
H  9.37900 3.12900 22.91900
H  9.01200 0.09400 23.32700
H  6.81400 2.83100 22.47200
H  7.33900 1.15200 22.23700
H  7.98900 2.50600 21.19000
H  11.77300 1.28300 23.36900
H  10.96400 1.91400 21.92500
H  11.63000 -0.01700 20.83600
H  10.35200 -0.81400 21.63400
H  12.04500 -0.70900 22.35800
H  13.65500 -1.67900 27.04900
H  12.13300 -2.14400 26.20000
H  12.52000 -2.72800 27.79100
H  12.01800 0.80200 31.85200
H  10.08800 -0.64600 34.84600
H  11.77100 -0.84600 35.35600
H  10.75900 -2.26100 34.79700
Mg 35.57400 2.24200 28.96300
C  33.55300 3.35000 31.47500
C  38.20500 2.12900 31.20700
C  37.68300 1.59700 26.43400
C  32.99700 2.86400 26.68300
N  35.81500 2.78900 31.06000
C  34.82200 3.09900 31.92600
C  35.29600 3.17300 33.37000
C  36.83900 3.19200 33.13200
C  37.03100 2.72200 31.71200
C  37.46900 4.54900 33.58300
C  34.79900 2.03300 34.23600
C  34.37400 2.34900 35.69400
H  34.78700 3.59100 36.36700
N  37.61400 1.69900 28.89600
C  38.51700 1.68500 29.94400
C  39.68900 1.03100 29.53800
C  39.61900 0.85400 28.07900
C  38.25800 1.36300 27.71800
C  40.81300 0.70900 30.45600
C  40.60000 0.20800 27.11700
O  40.33600 0.24800 25.92100
C  41.85800 -0.50100 27.59600
N  35.39200 2.34300 26.89800
C  36.43500 2.08300 26.06300
C  36.11000 2.25500 24.57900
C  34.59700 2.52400 24.68500
C  34.25900 2.52700 26.18700
C  37.00900 3.35400 23.89100
C  33.74600 1.53400 23.85100
C  32.56000 2.03500 22.98400
N  33.69200 2.97400 29.03900
C  32.73800 3.08500 28.03900
C  31.45900 3.43000 28.66200
C  31.71500 3.60300 30.01000
C  33.09300 3.29700 30.11800
C  30.17600 3.70300 27.93500
C  31.13800 3.70200 31.30700
O  29.92600 3.91800 31.47500
C  32.27100 3.64700 32.29600
C  32.22900 4.97000 33.01500
O  32.58200 6.01000 32.57700
O  31.63000 4.80000 34.24000
C  31.18000 5.99100 34.97300
H  39.00800 2.02200 31.93900
H  38.34400 1.33300 25.60500
H  32.27400 3.06000 25.88800
H  34.88600 4.05300 33.86500
H  37.37900 2.42600 33.68800
H  38.36300 4.34300 34.17100
H  36.76700 5.15000 34.16200
H  37.73000 5.09900 32.67900
H  35.43600 1.14800 34.25700
H  33.94000 1.59200 33.72900
H  34.75800 1.55400 36.33300
H  33.28600 2.28100 35.69400
H  40.97200 -0.36100 30.58500
H  40.61200 1.13700 31.43800
H  41.65400 1.24200 30.01200
H  42.56600 0.07300 28.19300
H  42.18800 -1.02900 26.70100
H  41.57200 -1.35000 28.21700
H  36.27200 1.26500 24.15200
H  34.36200 3.55400 24.41700
H  37.63100 2.94900 23.09200
H  37.81600 3.79000 24.48000
H  36.37200 4.20800 23.66300
H  33.34300 0.76200 24.50600
H  34.30400 1.00500 23.07700
H  31.60800 1.99700 23.51300
H  32.44700 1.23700 22.25000
H  32.78700 2.97600 22.48300
H  30.25600 3.15300 26.99700
H  29.99700 4.76900 27.79300
H  29.33100 3.36400 28.53500
H  31.97500 2.84800 32.97600
H  30.96100 6.81600 34.29600
H  31.99800 6.27900 35.63300
H  30.26000 5.71900 35.49100

