158

Mg 24.08400 -4.73500 45.98800
C  26.22500 -2.34300 44.56600
C  21.55400 -3.63900 43.95100
C  22.41900 -7.51300 46.77400
C  27.02200 -6.19700 47.51400
N  23.90500 -3.22200 44.41500
C  24.92400 -2.31200 44.06600
C  24.48000 -1.33700 42.92400
C  22.88800 -1.52200 43.09700
C  22.72600 -2.86000 43.85600
C  22.09300 -0.31800 43.62200
C  25.15400 -1.70500 41.60400
C  25.38300 -0.48000 40.78900
H  25.63200 -0.61100 39.25500
N  22.24000 -5.43100 45.48000
C  21.31700 -4.80500 44.64700
C  20.09500 -5.62600 44.51800
C  20.36400 -6.74600 45.37400
C  21.68300 -6.61000 45.96800
C  18.96400 -5.26700 43.83100
C  19.33100 -7.88800 45.52500
O  18.28700 -7.89700 44.86700
C  19.51300 -8.95700 46.63300
N  24.67100 -6.61800 46.94000
C  23.71400 -7.48100 47.17400
C  24.32800 -8.66400 47.86100
C  25.84700 -8.38200 48.07800
C  25.87000 -6.96000 47.58000
C  23.51700 -9.04300 49.15300
C  26.75700 -9.41100 47.42100
C  27.77400 -10.02900 48.34200
N  26.12700 -4.29800 46.15700
C  27.19300 -4.97000 46.80700
C  28.40900 -4.31000 46.64500
C  28.17300 -3.23400 45.71900
C  26.75600 -3.36400 45.40700
C  29.78100 -4.64200 47.24600
C  28.72400 -2.09700 45.00200
O  29.91600 -1.72500 44.98100
C  27.50200 -1.50800 44.18800
C  27.41700 -0.07500 44.57000
O  26.43200 0.39800 45.10500
O  28.53500 0.64200 44.16300
C  28.49600 2.07600 44.58700
H  20.72800 -3.24900 43.35300
H  21.92000 -8.44700 47.04000
H  27.81800 -6.66500 48.09600
H  24.65700 -0.28800 43.16000
H  22.68800 -1.74500 42.04900
H  21.60600 -0.56500 44.56500
H  21.32600 -0.11600 42.87500
H  22.65200 0.61800 43.60800
H  24.53900 -2.34800 40.97400
H  26.13800 -2.16000 41.72200
H  26.24400 0.06500 41.17500
H  24.48000 0.11900 40.90800
H  19.04900 -5.85500 42.91700
H  18.94500 -4.22700 43.50400
H  17.99200 -5.39800 44.30400
H  20.23000 -9.74500 46.40000
H  18.53700 -9.41800 46.78400
H  19.71500 -8.58900 47.63900
H  24.14400 -9.46400 47.14500
H  26.13500 -8.28800 49.12500
H  22.56300 -8.51600 49.17200
H  24.08200 -8.73200 50.03100
H  23.39000 -10.12000 49.26300
H  27.31600 -9.06800 46.55100
H  26.08200 -10.21700 47.13300
H  28.17200 -9.30300 49.05100
H  28.65100 -10.30800 47.75700
H  27.34000 -10.91900 48.79800
H  30.06200 -5.56800 46.74400
H  29.73500 -4.72100 48.33300
H  30.46000 -3.81600 47.03800
H  27.79400 -1.63700 43.14500
H  27.51000 2.54000 44.53900
H  29.00900 2.72700 43.87900
H  28.82100 2.25400 45.61200
Mg 16.81200 52.07100 26.83800
C  19.00500 50.73200 29.18800
C  14.56900 52.67000 29.37700
C  14.65300 53.10500 24.57200
C  18.95100 50.81300 24.33700
N  16.75300 51.63600 28.98100
C  17.87400 51.30500 29.77600
C  17.58100 51.43000 31.25200
C  16.07500 51.67500 31.31700
C  15.75800 52.03300 29.80900
C  15.28100 50.45300 31.79100
C  18.41000 52.67700 31.85300
C  19.01800 52.34000 33.19200
H  18.11300 51.75400 34.19700
N  14.94300 53.00200 26.95600
C  14.16800 53.07100 28.07500
C  12.94100 53.75400 27.74900
C  12.88600 53.88600 26.34500
C  14.20100 53.35300 25.87100
C  11.85500 54.18800 28.76600
C  11.72900 54.39300 25.44600
O  11.60500 54.17600 24.23400
C  10.54200 55.21500 25.99700
N  16.90700 52.06900 24.72100
C  15.85100 52.59100 24.05300
C  16.18700 52.66500 22.51900
C  17.54800 51.87600 22.39700
C  17.86300 51.58000 23.89000
C  15.15100 52.09100 21.48700
C  18.75100 52.51700 21.66000
C  19.46200 53.69100 22.37100
N  18.58800 50.98100 26.73200
C  19.25400 50.46100 25.68200
C  20.45100 49.71800 26.13200
C  20.36700 49.77200 27.50500
C  19.19600 50.51600 27.82500
C  21.58600 49.15400 25.31100
C  21.07800 49.43800 28.75900
O  22.10300 48.81700 28.91100
C  20.23300 50.11100 29.84000
C  19.90600 49.12700 30.91400
O  19.11500 48.19700 30.76300
O  20.64700 49.30700 32.01500
C  20.33800 48.43100 33.10800
H  13.77700 52.75200 30.12500
H  13.93200 53.46600 23.83400
H  19.71300 50.52300 23.61000
H  17.84200 50.48000 31.71700
H  15.79700 52.55800 31.89200
H  15.87700 49.81400 32.44300
H  14.93000 49.76100 31.02500
H  14.42100 50.78100 32.37500
H  17.82800 53.59700 31.80400
H  19.18300 52.89900 31.11800
H  19.38000 53.28200 33.60400
H  19.84500 51.63400 33.11500
H  11.59800 55.21100 28.49200
H  12.19700 54.19300 29.80100
H  11.14100 53.40900 28.49900
H  9.90200 54.68500 26.70200
H  9.88400 55.45500 25.16200
H  11.06700 56.08200 26.39900
H  16.26800 53.73400 22.32300
H  17.34900 50.86700 22.03500
H  14.45900 52.87200 21.17400
H  14.47400 51.36000 21.92900
H  15.60300 51.66000 20.59300
H  18.48400 52.84600 20.65500
H  19.41600 51.65700 21.58200
H  20.44500 53.42300 22.75900
H  18.82000 54.08200 23.16000
H  19.47500 54.49600 21.63600
H  21.27100 48.42000 24.57000
H  22.38200 48.70500 25.90500
H  21.89200 50.06800 24.80300
H  20.81100 50.92500 30.27800
H  20.88500 47.50900 32.91400
H  19.30500 48.11800 33.26100
H  20.58200 48.92000 34.05200

