158

Mg 7.23800 53.47600 40.05200
C  6.57200 50.03100 40.09900
C  10.49300 52.74600 39.70600
C  7.74800 56.74600 39.14500
C  3.77300 54.23800 40.25000
N  8.35900 51.50600 39.79300
C  7.92600 50.28700 40.10500
C  9.05200 49.31900 40.06600
C  10.28500 50.27700 40.37800
C  9.66400 51.61800 39.97000
C  11.01200 50.00800 41.65600
C  9.20200 48.37400 38.81900
C  9.19800 49.12300 37.50700
H  8.08600 48.86800 36.42100
N  8.98500 54.62900 39.53900
C  10.19900 54.05700 39.35500
C  11.15700 55.05100 38.99500
C  10.34200 56.27700 38.71300
C  8.96100 55.94800 39.16000
C  12.61000 54.87000 38.85200
C  10.81800 57.56000 38.03800
O  11.99700 57.70600 37.76300
C  9.89300 58.70000 37.71000
N  6.01600 55.19000 39.78000
C  6.48200 56.42900 39.52400
C  5.37900 57.53200 39.53200
C  4.04600 56.72600 39.61700
C  4.59400 55.26600 39.95600
C  5.58900 58.57600 40.65500
C  3.09200 56.77400 38.41700
C  2.66300 58.22900 37.95700
N  5.51300 52.42000 40.20100
C  4.20700 52.89200 40.29700
C  3.36200 51.68000 40.40000
C  4.23600 50.61300 40.40200
C  5.52200 51.08700 40.20600
C  1.77900 51.65400 40.43600
C  4.25900 49.13400 40.56100
O  3.42100 48.31000 40.82900
C  5.71700 48.76600 40.20300
C  5.70100 47.93800 38.96000
O  5.51900 48.43600 37.86100
O  5.82000 46.58000 39.23000
C  5.67700 45.67800 38.13100
H  11.54500 52.56100 39.93200
H  7.89700 57.75900 38.76800
H  2.72300 54.45000 40.46300
H  8.80100 48.74500 40.95800
H  11.05700 50.16400 39.61700
H  12.03000 49.77600 41.34300
H  10.50500 49.15400 42.10600
H  10.98400 50.90400 42.27600
H  8.39700 47.64600 38.91500
H  10.18100 47.89800 38.88000
H  10.18100 48.89800 37.09500
H  9.12600 50.19300 37.69900
H  12.88600 54.61400 37.82900
H  13.04900 54.16200 39.55400
H  13.15300 55.80100 39.01300
H  9.10800 58.09900 37.25100
H  10.25300 59.43900 36.99500
H  9.65200 59.06000 38.71000
H  5.61500 57.96400 38.55900
H  3.49100 57.00700 40.51200
H  6.33900 59.26500 40.26600
H  5.91400 58.10600 41.58400
H  4.67600 59.13200 40.87000
H  2.21900 56.27100 38.83200
H  3.48800 56.25700 37.54300
H  3.43500 58.97200 38.15700
H  1.65600 58.30900 38.36900
H  2.53400 58.27300 36.87600
H  1.36700 50.65100 40.54400
H  1.38800 52.03900 39.49400
H  1.35100 52.08700 41.34000
H  6.14400 48.06900 40.92400
H  6.46000 44.93300 38.27300
H  5.53600 46.02700 37.10800
H  4.73300 45.17700 38.34400
Mg -10.28600 39.81200 42.12100
C  -9.36400 36.47700 41.56600
C  -7.30500 40.86800 41.05300
C  -11.70000 42.76500 41.89700
C  -13.66100 38.54200 42.97300
N  -8.52600 38.74700 41.52300
C  -8.39100 37.44700 41.29700
C  -7.03000 37.21400 40.46600
C  -6.25800 38.50600 40.74000
C  -7.40300 39.47200 41.13700
C  -5.14500 38.44600 41.90700
C  -7.23400 37.04200 38.93200
C  -6.65500 35.78900 38.25700
H  -5.62800 36.12800 37.16700
N  -9.52400 41.59500 41.74600
C  -8.28000 41.87200 41.20300
C  -8.13100 43.28900 40.95300
C  -9.46700 43.83600 41.13500
C  -10.31800 42.76000 41.62600
C  -6.81000 43.89300 40.46600
C  -9.82000 45.29600 40.80700
O  -8.88000 46.06300 40.67700
C  -11.19500 45.82900 40.76200
N  -12.43900 40.48900 42.35100
C  -12.63600 41.81200 42.24800
C  -14.12800 42.18700 42.60700
C  -14.76000 40.76200 42.96800
C  -13.50700 39.87100 42.90800
C  -14.44900 43.32700 43.68800
C  -15.92200 40.30600 42.05000
C  -17.18500 39.82200 42.78900
N  -11.31900 37.87800 42.34400
C  -12.63100 37.56200 42.74400
C  -12.72800 36.08400 42.70300
C  -11.46600 35.60000 42.29400
C  -10.63700 36.74000 42.14400
C  -14.01800 35.27400 42.94900
C  -10.70400 34.41900 41.90700
O  -10.98300 33.24700 42.05800
C  -9.30800 34.96100 41.41700
C  -8.27300 34.34900 42.33800
O  -8.23500 34.34200 43.52900
O  -7.22400 33.91900 41.53300
C  -5.90600 33.59700 42.19500
H  -6.29700 41.21300 40.81300
H  -12.23300 43.71700 41.92400
H  -14.65300 38.12500 43.16000
H  -6.45400 36.34900 40.79400
H  -5.75100 38.98500 39.90300
H  -5.29900 39.27200 42.60200
H  -4.14400 38.49000 41.47800
H  -5.16600 37.52200 42.48400
H  -7.00900 37.88500 38.28000
H  -8.32100 36.98000 38.89200
H  -7.50000 35.31400 37.75900
H  -6.19300 35.04600 38.90600
H  -6.02700 43.86400 41.22200
H  -6.87600 44.92300 40.11400
H  -6.41100 43.26400 39.67000
H  -11.89400 45.05600 40.44600
H  -11.16700 46.61400 40.00600
H  -11.46900 46.16800 41.76200
H  -14.44400 42.50800 41.61500
H  -15.06900 40.92000 44.00100
H  -14.99100 44.15000 43.22100
H  -13.49300 43.68100 44.07300
H  -15.10500 43.05400 44.51500
H  -15.45100 39.57600 41.39300
H  -16.24600 41.06000 41.33200
H  -18.09600 40.22200 42.34400
H  -17.14700 39.85600 43.87800
H  -17.24000 38.74700 42.61800
H  -14.60000 35.23500 42.02800
H  -14.59500 35.49700 43.84700
H  -13.69400 34.24200 43.08100
H  -9.12600 34.61400 40.39900
H  -5.93900 32.77300 42.90800
H  -5.46500 34.47200 42.67200
H  -5.25800 33.13400 41.45000

