158

Mg 53.36700 23.48300 44.78500
C  50.61100 25.40400 43.84900
C  51.71600 20.59300 43.86300
C  56.33000 22.00900 44.93400
C  54.88500 26.52000 45.79000
N  51.40500 23.06500 43.86800
C  50.42200 23.99500 43.59900
C  49.21300 23.32200 42.98700
C  49.43000 21.82100 43.47500
C  50.92200 21.78600 43.77600
C  48.37500 21.47700 44.53500
C  49.27200 23.49400 41.47400
C  47.88000 23.43500 40.73900
H  47.70700 23.44300 39.23200
N  53.98100 21.56300 44.36100
C  53.16500 20.52400 44.03800
C  53.97500 19.35500 44.10500
C  55.36100 19.71000 44.32500
C  55.32000 21.18600 44.51700
C  53.51100 17.90000 43.76300
C  56.53500 18.75500 44.38600
O  56.50000 17.63300 43.89400
C  57.86100 19.19900 45.06700
N  55.34300 24.13000 45.39900
C  56.43500 23.38000 45.32600
C  57.72700 24.06100 45.73100
C  57.15100 25.41700 46.26700
C  55.73100 25.35100 45.78500
C  58.56000 23.34600 46.81100
C  58.04200 26.56100 45.70500
C  59.52300 26.79500 46.21300
N  52.92500 25.55400 44.76600
C  53.60500 26.61700 45.25000
C  52.83100 27.83200 45.28500
C  51.64300 27.44900 44.68900
C  51.78100 26.08100 44.31100
C  53.31100 29.19000 45.74100
C  50.30700 27.84900 44.34400
O  49.63000 28.85600 44.55800
C  49.66800 26.60100 43.70300
C  49.41000 27.08300 42.32900
O  50.26300 27.62100 41.61100
O  48.13000 26.80400 41.97300
C  47.71700 27.28900 40.68200
H  51.14400 19.67600 43.70800
H  57.32200 21.57200 44.80400
H  55.28100 27.46500 46.16800
H  48.30700 23.80000 43.35900
H  49.19700 21.14600 42.65100
H  47.75000 20.69000 44.11500
H  47.70500 22.26000 44.89100
H  48.84300 21.13200 45.45700
H  49.79400 22.61000 41.10600
H  49.77500 24.42400 41.21000
H  47.34900 24.30000 41.13800
H  47.47600 22.52200 41.17700
H  53.62700 17.68500 42.70100
H  52.44800 17.73100 43.93200
H  54.06400 17.12600 44.29600
H  58.42800 19.79100 44.35000
H  58.42400 18.27700 45.21600
H  57.62100 19.65200 46.02900
H  58.34400 24.12600 44.83500
H  57.17000 25.52700 47.35200
H  58.67500 23.98200 47.68900
H  59.59100 23.14600 46.51800
H  57.94100 22.51700 47.15100
H  57.70000 27.58400 45.86800
H  58.21900 26.40400 44.64100
H  59.60700 26.29800 47.18000
H  59.85100 27.82800 46.33200
H  60.24400 26.31400 45.55300
H  52.51900 29.91400 45.55000
H  54.07600 29.49700 45.02700
H  53.63300 29.05700 46.77400
H  48.73000 26.37700 44.21000
H  47.84500 26.52000 39.92100
H  48.21600 28.21300 40.39000
H  46.64100 27.46200 40.70500
Mg 0.29000 43.97400 25.45900
C  2.08500 43.60900 28.41600
C  -2.52700 42.90900 27.12100
C  -1.34100 43.81700 22.55000
C  3.12200 44.83700 23.88600
N  -0.16500 43.56000 27.57300
C  0.74300 43.42500 28.61000
C  0.07200 43.03700 29.94900
C  -1.43800 42.95400 29.52300
C  -1.42300 43.11700 27.99100
C  -2.05000 41.53800 29.74400
C  0.25100 44.10100 31.07800
C  0.54300 43.57500 32.51800
H  0.23900 42.16100 32.92200
N  -1.72300 43.62300 24.90200
C  -2.65100 43.09800 25.73100
C  -3.86400 42.81400 25.01000
C  -3.58900 43.27100 23.66100
C  -2.14500 43.63400 23.69600
C  -5.04600 42.17700 25.64400
C  -4.45200 43.19300 22.48700
O  -4.10900 43.75900 21.45600
C  -5.73900 42.47000 22.60200
N  0.86800 44.11900 23.49300
C  -0.02100 43.98700 22.47900
C  0.72900 44.22200 21.08400
C  2.13100 44.83200 21.54200
C  2.04600 44.65700 23.11200
C  0.79400 42.88800 20.19000
C  2.47900 46.28800 21.10200
C  1.26100 47.28600 20.85900
N  2.23800 44.05300 25.98200
C  3.29900 44.42800 25.21700
C  4.51700 44.45600 25.97700
C  4.06300 44.14600 27.27400
C  2.68300 43.94400 27.23300
C  5.92100 44.99600 25.59200
C  4.53000 43.96300 28.64000
O  5.64100 44.08200 29.23200
C  3.19100 43.63200 29.39200
C  3.37800 42.43400 30.20200
O  3.32000 41.31200 29.81900
O  3.60600 42.78800 31.50000
C  4.00700 41.73000 32.47200
H  -3.43400 42.94100 27.72900
H  -1.82900 43.58700 21.60100
H  3.99000 45.23800 23.35900
H  0.53000 42.10200 30.27200
H  -1.99700 43.73300 30.04200
H  -1.38300 40.90100 30.32500
H  -2.30900 41.00600 28.82800
H  -3.03700 41.46600 30.20100
H  -0.54200 44.83400 31.23000
H  1.02400 44.82400 30.81700
H  0.03600 44.15200 33.29200
H  1.58700 43.71500 32.79500
H  -5.34700 41.16200 25.38400
H  -5.79900 42.95500 25.52300
H  -4.96300 42.08300 26.72700
H  -6.22100 42.45800 21.62500
H  -6.39900 42.86800 23.37400
H  -5.68500 41.41100 22.85200
H  0.07300 44.88900 20.52500
H  2.91300 44.21500 21.10000
H  0.32700 42.96000 19.20700
H  0.23200 42.15200 20.76500
H  1.83100 42.58500 20.04900
H  3.03800 46.29400 20.16700
H  3.10700 46.87900 21.76900
H  0.74500 47.24600 19.90000
H  1.63300 48.29000 21.06300
H  0.50500 47.09600 21.62200
H  6.52700 45.47400 26.36100
H  5.68300 45.83400 24.93600
H  6.40200 44.18000 25.05400
H  3.16800 44.47800 30.07800
H  5.07100 41.57000 32.29600
H  3.48500 40.79800 32.25400
H  3.71600 42.06900 33.46600

