158

Mg 26.66100 50.21200 26.27700
C  25.04300 51.85100 28.91500
C  29.18400 49.29700 28.63000
C  28.66100 49.16000 23.75600
C  24.56600 51.84900 24.13600
N  27.01400 50.53700 28.52700
C  26.13100 51.14000 29.35600
C  26.53300 50.91300 30.79900
C  28.00000 50.34000 30.68800
C  28.07500 49.97400 29.18900
C  29.12600 51.28400 31.20400
C  25.46400 49.92300 31.44600
C  24.89000 50.43300 32.81700
H  25.74300 50.94300 33.95100
N  28.57500 49.19600 26.23100
C  29.44900 48.94400 27.28200
C  30.56500 48.22700 26.74700
C  30.50900 48.27900 25.32200
C  29.19600 48.89500 25.05300
C  31.75500 47.81900 27.60800
C  31.67500 47.99700 24.28700
O  31.49500 48.04200 23.10500
C  33.08900 47.71400 24.68900
N  26.71300 50.60800 24.26000
C  27.53400 49.88100 23.43400
C  27.05200 49.89600 21.99300
C  25.66400 50.73500 22.18200
C  25.61200 51.08800 23.63200
C  28.10400 50.40200 21.02700
C  24.27500 50.20200 21.60300
C  23.57300 51.10200 20.52400
N  25.04000 51.56300 26.41500
C  24.29200 52.20700 25.50000
C  23.22900 52.99200 26.07300
C  23.49000 52.90200 27.50400
C  24.62000 52.03800 27.60500
C  22.20000 53.82200 25.43800
C  23.09000 53.35200 28.80600
O  22.20500 54.05600 29.12800
C  24.15200 52.70400 29.82400
C  24.77900 53.73500 30.69300
O  25.85100 54.27500 30.50400
O  23.93400 54.01300 31.67300
C  24.49000 54.98100 32.62300
H  29.85300 48.93900 29.41500
H  29.23700 48.76500 22.91700
H  23.77500 52.22000 23.48200
H  26.44100 51.87800 31.29900
H  28.14500 49.35200 31.12400
H  28.74600 52.29700 31.33600
H  29.95400 51.44800 30.51300
H  29.48000 50.91300 32.16700
H  25.83700 48.90500 31.56400
H  24.58800 49.86000 30.80000
H  24.31300 49.54100 33.06100
H  24.22900 51.25300 32.53700
H  31.95100 46.75100 27.50900
H  31.63100 48.09900 28.65400
H  32.62700 48.44200 27.41300
H  33.49700 48.71300 24.83800
H  33.63900 47.20200 23.89900
H  33.16200 47.16000 25.62500
H  26.77500 48.87100 21.74800
H  25.87700 51.71700 21.76000
H  28.71600 49.73100 20.42400
H  28.71700 51.01900 21.68300
H  27.55300 51.08300 20.37800
H  23.57000 50.21200 22.43300
H  24.31000 49.16800 21.26200
H  22.70200 51.52000 21.03000
H  23.29200 50.50200 19.65800
H  24.26300 51.93500 20.38800
H  21.20300 53.41500 25.60900
H  22.29900 53.74600 24.35500
H  22.24300 54.83000 25.85000
H  23.60800 52.02000 30.47500
H  24.93600 55.83700 32.11700
H  25.17200 54.40000 33.24400
H  23.81200 55.35900 33.38700
Mg 1.38600 43.12700 25.87400
C  2.92300 43.32900 29.06600
C  -1.41800 41.83400 27.59600
C  0.21100 42.48300 22.90800
C  4.54300 43.95500 24.52100
N  0.79100 42.84300 28.06200
C  1.54600 43.08300 29.18200
C  0.75800 42.78300 30.50700
C  -0.65600 42.28500 29.92900
C  -0.43200 42.35600 28.43200
C  -1.09900 40.88800 30.55100
C  0.71800 43.97600 31.45000
C  0.91300 43.72900 32.94100
H  0.69800 42.34400 33.53300
N  -0.41600 42.42200 25.33900
C  -1.45200 41.86800 26.16800
C  -2.46900 41.41800 25.25600
C  -2.05500 41.61300 23.87500
C  -0.67800 42.14100 24.00300
C  -3.79800 40.71600 25.67700
C  -2.70500 41.42200 22.55500
O  -2.28900 41.74100 21.46300
C  -4.01600 40.73600 22.61000
N  2.26300 43.23600 23.89600
C  1.49900 43.01100 22.84200
C  2.29500 43.35600 21.54800
C  3.47000 44.18900 22.11500
C  3.48800 43.77000 23.57500
C  2.75800 42.07900 20.67100
C  3.36400 45.70900 21.87300
C  4.17500 46.19200 20.64500
N  3.28200 43.49900 26.56400
C  4.48800 43.75000 25.86000
C  5.59200 43.89700 26.76800
C  5.07100 43.71600 28.02800
C  3.65200 43.54200 27.86100
C  6.94600 44.31000 26.43700
C  5.26700 43.60800 29.42600
O  6.32200 43.59700 30.11900
C  3.93400 43.50100 30.13900
C  4.04700 42.25100 31.04400
O  3.78400 41.02400 30.75000
O  4.38600 42.62400 32.36200
C  4.54400 41.58200 33.39100
H  -2.27400 41.46400 28.16400
H  -0.17500 42.26600 21.91000
H  5.53500 44.29400 24.21600
H  1.28300 41.93900 30.95400
H  -1.57100 42.86000 30.07200
H  -0.45500 40.46700 31.32400
H  -0.98800 40.28300 29.65200
H  -2.14800 40.88300 30.84800
H  -0.24400 44.44000 31.23600
H  1.44000 44.78600 31.34100
H  0.24900 44.42500 33.45500
H  1.88700 44.10200 33.25600
H  -3.74300 40.53800 26.75000
H  -3.93200 39.74700 25.19700
H  -4.64800 41.34100 25.40400
H  -4.84800 41.28400 23.05100
H  -3.95100 39.70700 22.96500
H  -4.33400 40.60900 21.57600
H  1.59700 43.91500 20.92500
H  4.39600 43.84000 21.65800
H  2.30100 41.20400 21.13500
H  3.82300 41.84500 20.68000
H  2.47300 42.19100 19.62600
H  3.57900 46.27000 22.78300
H  2.32700 45.93200 21.62200
H  4.84400 46.95900 21.03500
H  3.51600 46.63800 19.90000
H  4.70000 45.34200 20.20900
H  6.97800 45.32700 26.04600
H  7.49900 43.71800 25.70700
H  7.38800 44.51200 27.41200
H  3.79500 44.37600 30.77400
H  5.62900 41.58200 33.49700
H  4.10300 40.58600 33.34800
H  4.07400 41.94500 34.30500

