158

Mg 53.38600 23.38000 44.91500
C  50.70800 25.65200 43.74500
C  51.35900 20.83800 43.77400
C  56.06900 21.53300 44.81500
C  55.18500 26.28700 45.57200
N  51.22000 23.36600 43.84900
C  50.34100 24.32900 43.46900
C  49.13300 23.69900 42.84000
C  49.18800 22.23200 43.38900
C  50.68600 22.10400 43.68500
C  48.24400 22.05500 44.57500
C  49.17900 23.93900 41.32400
C  47.88200 24.46900 40.55200
H  47.56700 23.65800 39.22000
N  53.63000 21.38300 44.48500
C  52.74000 20.54900 43.92600
C  53.37800 19.25000 43.77900
C  54.70200 19.41600 44.11000
C  54.83700 20.82900 44.46300
C  52.66200 17.95900 43.49600
C  55.70900 18.31400 44.08100
O  55.40100 17.35200 43.42700
C  57.12000 18.49800 44.74400
N  55.38400 23.86500 44.95800
C  56.25600 22.84800 45.16600
C  57.60500 23.44100 45.69500
C  57.27400 24.94900 45.97300
C  55.85200 25.05900 45.54300
C  58.33000 22.62200 46.79500
C  58.17500 26.02700 45.22300
C  58.53600 27.36400 45.90500
N  52.98500 25.52600 44.86600
C  53.83000 26.53300 45.29300
C  53.12100 27.79600 45.31000
C  51.89100 27.49400 44.73700
C  51.86700 26.09300 44.44600
C  53.78300 29.16600 45.51700
C  50.58200 28.04800 44.40000
O  50.14300 29.21100 44.51300
C  49.80700 26.94200 43.62400
C  49.51700 27.38500 42.23700
O  50.29800 27.48500 41.31000
O  48.09800 27.56000 42.07700
C  47.58200 28.18100 40.87200
H  50.60000 20.08400 43.55600
H  57.03200 21.01900 44.81400
H  55.76100 27.17600 45.84100
H  48.33300 24.28500 43.29100
H  48.97800 21.51200 42.59800
H  48.07000 22.98400 45.11800
H  48.75200 21.47600 45.34700
H  47.30100 21.55100 44.36500
H  49.38600 22.94900 40.91800
H  50.04100 24.53400 41.02300
H  47.98500 25.49500 40.20100
H  47.00100 24.36000 41.18500
H  51.59400 18.01200 43.70900
H  53.04100 17.07000 43.99900
H  52.74500 17.83300 42.41600
H  56.84900 19.00900 45.66800
H  57.78400 18.99100 44.03400
H  57.49700 17.47800 44.81600
H  58.40100 23.29600 44.96500
H  57.28200 25.16900 47.04000
H  58.72000 23.30100 47.55300
H  59.10500 21.95200 46.42400
H  57.70800 21.87500 47.28800
H  57.63600 26.38300 44.34500
H  59.10400 25.47900 45.06600
H  59.60200 27.33200 46.13100
H  58.04600 27.52400 46.86500
H  58.42300 28.21800 45.23700
H  53.40400 29.55900 46.46100
H  53.48500 29.86600 44.73600
H  54.85800 28.98400 45.51200
H  48.81600 26.81500 44.06100
H  47.70800 29.26200 40.92200
H  46.53600 27.89000 40.96500
H  48.00500 27.76400 39.95800
Mg 47.48600 34.43400 27.60500
C  45.51500 32.98400 29.93300
C  47.85900 37.11700 29.76300
C  48.85200 36.23400 24.96700
C  46.79600 31.86900 25.35600
N  46.89000 34.92000 29.59200
C  46.26000 34.05200 30.42600
C  46.37200 34.54500 31.93600
C  46.81200 36.04400 31.77600
C  47.22600 36.04700 30.27900
C  45.65800 37.11200 32.08200
C  47.45700 33.71000 32.69100
C  47.11600 33.39100 34.20800
H  48.01200 33.86000 35.31900
N  48.34000 36.40600 27.41000
C  48.36800 37.34400 28.45100
C  48.84400 38.61800 27.86400
C  49.14900 38.34100 26.48700
C  48.78600 36.91800 26.24100
C  48.70400 39.87800 28.71100
C  49.55100 39.33600 25.46100
O  49.92300 39.04700 24.31900
C  49.67600 40.85800 25.90000
N  48.00100 34.08800 25.60100
C  48.56700 34.94400 24.68300
C  48.78600 34.35800 23.31100
C  48.42800 32.83300 23.57600
C  47.70300 32.85500 24.94600
C  47.93800 35.05200 22.21400
C  49.74400 31.87800 23.70400
C  49.76300 30.98800 22.45000
N  46.43100 32.77300 27.64400
C  46.12900 31.84800 26.62700
C  45.20600 30.83300 27.16600
C  44.99200 31.19400 28.48000
C  45.69500 32.39500 28.69600
C  44.62500 29.55500 26.48100
C  44.33800 30.91000 29.69200
O  43.66800 29.95400 30.02100
C  44.47200 32.17300 30.61100
C  44.79400 31.74000 31.94600
O  45.71600 30.96700 32.29300
O  43.85300 32.23100 32.80600
C  44.03600 31.91200 34.29800
H  48.00800 37.97300 30.42400
H  49.22200 36.77900 24.09600
H  46.45500 31.10300 24.65700
H  45.44200 34.41300 32.49100
H  47.69600 36.37100 32.32300
H  45.23000 37.50800 31.16200
H  46.17800 37.92100 32.59400
H  44.88700 36.64700 32.69800
H  48.41600 34.22600 32.64700
H  47.67400 32.80000 32.13100
H  47.27100 32.32800 34.39300
H  46.11400 33.74400 34.44900
H  47.72800 39.82900 29.19300
H  48.79200 40.87300 28.27400
H  49.48800 39.95000 29.46500
H  50.33800 40.85600 26.76600
H  48.69500 41.27900 26.12100
H  50.05500 41.48600 25.09300
H  49.83400 34.56200 23.09100
H  47.76000 32.37600 22.84600
H  48.51300 35.11000 21.29000
H  47.51600 36.03100 22.43900
H  47.18100 34.30500 21.97400
H  49.55200 31.26300 24.58400
H  50.70100 32.40000 23.70200
H  50.69900 31.18500 21.92700
H  48.89100 31.11000 21.80600
H  49.72600 29.94200 22.75600
H  43.64300 29.34700 26.90600
H  45.30000 28.73700 26.73200
H  44.51000 29.73300 25.41100
H  43.54700 32.74800 30.56700
H  44.87400 31.24600 34.50600
H  43.12500 31.47500 34.70600
H  44.18400 32.85400 34.82600

