158

Mg -2.08500 16.62400 25.63100
C  -2.48700 14.41100 28.51000
C  -2.86800 19.24500 27.73300
C  -1.83100 18.53200 23.00200
C  -1.58500 13.71900 23.76800
N  -2.60100 16.74000 27.86600
C  -2.58100 15.78000 28.83600
C  -2.86200 16.34000 30.25400
C  -3.04800 17.87000 29.93700
C  -2.93000 18.00200 28.42600
C  -4.33900 18.52900 30.58100
C  -1.70400 16.06100 31.30600
C  -1.77600 16.98500 32.58800
H  -1.73700 16.22700 33.91300
N  -2.17500 18.57600 25.42600
C  -2.52400 19.49500 26.37800
C  -2.52400 20.84600 25.71700
C  -2.18800 20.62300 24.39000
C  -2.07900 19.17900 24.20200
C  -2.73000 22.19500 26.54100
C  -2.03600 21.73500 23.29400
O  -1.90600 21.42500 22.12700
C  -2.10500 23.11300 23.60500
N  -2.09900 16.15900 23.61500
C  -1.87800 17.16200 22.71800
C  -1.75500 16.63000 21.26000
C  -1.39000 15.08100 21.57400
C  -1.69100 14.94700 23.08800
C  -2.93800 16.83700 20.33300
C  0.10500 14.67600 21.28900
C  0.66100 14.72200 19.76500
N  -2.14300 14.51700 26.02200
C  -1.85100 13.50900 25.11400
C  -2.02100 12.19700 25.77700
C  -2.26700 12.57600 27.09700
C  -2.29200 14.00200 27.17100
C  -2.15400 10.77200 25.13500
C  -2.27900 12.00900 28.43800
O  -2.00800 10.85700 28.78800
C  -2.46200 13.19600 29.46600
C  -1.24500 13.16200 30.34500
O  -0.08100 13.52900 30.05800
O  -1.58100 12.53800 31.58100
C  -0.47300 12.48900 32.55300
H  -2.90900 20.08300 28.43200
H  -1.90100 19.12000 22.08500
H  -1.18200 12.85000 23.24500
H  -3.75500 15.90000 30.69900
H  -2.20000 18.36400 30.41200
H  -4.86000 17.79600 31.19700
H  -4.94000 18.79200 29.71100
H  -4.07300 19.42500 31.14300
H  -0.71100 16.15600 30.86600
H  -1.96800 15.07000 31.67400
H  -2.64400 17.62900 32.73200
H  -0.91800 17.65400 32.52500
H  -1.82600 22.79600 26.64000
H  -2.90700 21.98000 27.59500
H  -3.50900 22.83700 26.13100
H  -1.25800 23.47900 24.18500
H  -3.02400 23.32600 24.15000
H  -2.32400 23.64000 22.67600
H  -0.85100 17.14100 20.92800
H  -2.06700 14.35800 21.11900
H  -3.66100 17.48000 20.83600
H  -3.38800 15.90100 20.00400
H  -2.50600 17.37700 19.49000
H  0.27100 13.66600 21.66400
H  0.81900 15.32100 21.80100
H  0.19200 15.53500 19.21100
H  0.39800 13.83400 19.19000
H  1.73600 14.90000 19.76000
H  -2.25300 10.95300 24.06400
H  -3.05000 10.29100 25.52600
H  -1.25200 10.24000 25.43600
H  -3.26900 13.15300 30.19800
H  0.03800 13.45200 32.56500
H  0.20500 11.64200 32.44700
H  -0.94700 12.32500 33.52100
Mg 41.97800 41.21000 26.92900
C  40.65400 43.43900 29.13500
C  42.11000 38.80100 29.44800
C  43.58600 39.07700 24.83600
C  42.00600 43.65600 24.47500
N  41.36900 41.11800 28.99100
C  40.85300 42.18900 29.71100
C  40.80400 41.94000 31.27300
C  41.22900 40.46400 31.31200
C  41.63800 40.06600 29.83000
C  42.32200 40.13300 32.32700
C  39.41000 42.15300 31.94100
C  39.30700 42.64200 33.43100
H  38.53300 41.80700 34.49000
N  42.71400 39.21400 27.10200
C  42.55100 38.38200 28.17200
C  43.01900 37.02300 27.78600
C  43.43400 37.11800 26.42100
C  43.22800 38.51300 26.08900
C  42.96600 35.76600 28.76400
C  43.94600 36.01800 25.45600
O  44.15500 36.11500 24.23800
C  43.98000 34.54100 25.95700
N  42.57600 41.33400 24.84100
C  43.20200 40.30800 24.17100
C  43.68100 40.70900 22.79000
C  42.94900 42.06500 22.58200
C  42.51800 42.44500 24.07200
C  45.22100 40.81900 22.68900
C  41.71300 42.04300 21.60300
C  40.40800 41.36100 22.05800
N  41.43100 43.20300 26.80600
C  41.55400 44.06300 25.74700
C  41.15600 45.34300 26.17500
C  40.65700 45.17500 27.52200
C  40.94100 43.84600 27.87000
C  41.31600 46.60800 25.33900
C  40.14800 45.78600 28.71400
O  39.81500 46.96700 28.88600
C  40.20800 44.74300 29.85500
C  41.23500 45.34600 30.76500
O  42.34200 45.66500 30.51800
O  40.68900 45.69500 32.01600
C  41.57800 46.28100 33.00800
H  42.05700 38.08800 30.27300
H  44.15300 38.46000 24.13600
H  42.12600 44.40100 23.68600
H  41.52400 42.59000 31.77000
H  40.36900 39.82000 31.50100
H  42.50200 40.89400 33.08700
H  43.30800 40.07200 31.86500
H  42.11100 39.17800 32.80800
H  38.90400 41.18900 32.00200
H  38.82500 42.78500 31.27300
H  38.68900 43.52900 33.29800
H  40.30800 42.92100 33.75900
H  42.61700 34.96700 28.11000
H  42.25200 35.97100 29.56200
H  43.88700 35.71000 29.34500
H  44.52800 33.92600 25.24300
H  42.92900 34.25400 25.99000
H  44.56400 34.50100 26.87700
H  43.34200 40.06600 21.97800
H  43.64900 42.85600 22.31000
H  45.64800 41.79000 22.43800
H  45.57800 40.17900 21.88200
H  45.68200 40.50200 23.62400
H  41.99000 41.44100 20.73800
H  41.62200 43.07500 21.26600
H  40.60300 40.46600 22.64900
H  39.81700 41.03800 21.20100
H  39.80600 42.11300 22.56700
H  40.44100 46.62300 24.69000
H  42.27400 46.77000 24.84500
H  41.21200 47.46300 26.00800
H  39.29800 44.67700 30.45100
H  42.07200 45.47100 33.54500
H  41.04800 46.80600 33.80200
H  42.26500 47.05000 32.65300

