158

Mg 25.92300 -0.15400 29.37800
C  27.69900 -0.15400 32.29700
C  23.05600 0.17300 31.19900
C  24.29300 -0.55000 26.44900
C  28.86400 -0.63700 27.56100
N  25.45600 0.15100 31.48500
C  26.37400 0.06700 32.53500
C  25.67500 0.25800 33.90500
C  24.15600 0.24000 33.57200
C  24.19300 0.20100 31.99200
C  23.37100 -0.92800 34.27600
C  26.24400 1.58600 34.54400
C  26.94700 1.50500 35.97700
H  26.69300 2.50900 37.12800
N  23.95200 -0.19200 28.92700
C  22.89900 -0.04500 29.77900
C  21.67300 -0.04000 29.00200
C  22.02000 -0.12300 27.60800
C  23.52100 -0.29800 27.63900
C  20.26500 0.07800 29.62900
C  21.04700 -0.16300 26.43600
O  21.41000 -0.37400 25.29000
C  19.59000 0.08100 26.69100
N  26.45900 -0.51800 27.20200
C  25.59200 -0.59000 26.21300
C  26.22200 -0.67700 24.78100
C  27.73300 -0.74300 25.18200
C  27.70300 -0.65700 26.74600
C  25.69200 -1.85900 23.89600
C  28.72900 0.26000 24.52200
C  28.40300 1.71400 24.71900
N  27.83400 -0.51500 29.84100
C  28.99600 -0.66000 28.99600
C  30.22200 -0.66500 29.79300
C  29.74300 -0.47400 31.09700
C  28.30400 -0.39100 31.06900
C  31.67100 -0.85000 29.22000
C  30.15200 -0.35600 32.48000
O  31.29000 -0.31400 32.94400
C  28.88100 -0.07200 33.26100
C  28.82500 -1.18600 34.25000
O  28.33200 -2.30100 34.03000
O  29.38400 -0.79400 35.44100
C  29.44800 -1.80300 36.48700
H  22.12100 0.36800 31.72900
H  23.64100 -0.84700 25.62500
H  29.79900 -0.74200 27.00700
H  26.00600 -0.62000 34.45900
H  23.69900 1.17800 33.88700
H  22.98100 -1.70800 33.62200
H  22.47700 -0.48100 34.71100
H  23.94000 -1.44400 35.04900
H  25.44000 2.31100 34.67500
H  26.97300 2.02900 33.86600
H  27.96500 1.72500 35.65800
H  26.92700 0.44400 36.22600
H  19.74800 -0.83600 29.33800
H  19.79100 1.04000 29.43100
H  20.29200 -0.08900 30.70600
H  19.06700 0.34800 25.77200
H  19.47600 1.02400 27.22600
H  19.09500 -0.68100 27.29300
H  26.10400 0.22000 24.17300
H  28.06300 -1.75500 24.94500
H  26.54200 -2.49500 23.64700
H  25.19500 -1.59300 22.96300
H  24.98100 -2.37800 24.53800
H  28.64000 0.06000 23.45400
H  29.75900 0.07400 24.82600
H  27.34100 1.93500 24.61600
H  29.05600 2.23400 24.01800
H  28.78700 2.15500 25.63900
H  32.38000 -0.34400 29.87500
H  31.77400 -0.39500 28.23500
H  31.91600 -1.90500 29.10700
H  29.02700 0.88100 33.77200
H  28.96900 -1.43400 37.39300
H  30.50200 -1.93900 36.73200
H  29.00300 -2.76900 36.24900
Mg 43.76400 3.77600 46.68100
C  41.50200 6.70500 46.48800
C  40.98700 1.78100 46.40100
C  45.80000 1.21400 46.14200
C  46.37700 6.01400 46.77100
N  41.52600 4.28800 46.36000
C  40.80500 5.48200 46.49200
C  39.31500 5.20100 46.61100
C  39.26100 3.63400 46.78300
C  40.70500 3.15400 46.51800
C  38.71900 3.00800 48.08100
C  38.38400 5.75200 45.43100
C  38.83700 5.25500 44.01300
H  39.17100 6.39500 42.96700
N  43.44000 1.71800 46.19900
C  42.23400 1.11200 46.14600
C  42.50600 -0.29800 45.99900
C  43.81600 -0.52400 45.72300
C  44.44300 0.82900 45.95500
C  41.37100 -1.38300 45.90000
C  44.47000 -1.85500 45.27000
O  43.81900 -2.89200 45.22100
C  45.91200 -1.93600 44.89400
N  45.84200 3.59600 46.25500
C  46.43000 2.39400 46.38700
C  47.97200 2.52200 46.70600
C  48.09100 4.12000 46.83400
C  46.71600 4.66600 46.60300
C  48.44200 1.77500 47.94400
C  49.16000 4.74400 46.08100
C  50.56100 4.99900 46.68500
N  43.96400 5.93700 46.47100
C  45.08100 6.65100 46.61700
C  44.78500 8.05500 46.56200
C  43.37100 8.15500 46.58500
C  42.91000 6.83000 46.44700
C  45.77800 9.15700 46.72300
C  42.21400 9.04900 46.60000
O  42.12100 10.30100 46.57300
C  40.91000 8.08900 46.64000
C  40.30900 8.31700 47.90200
O  40.65500 7.69400 48.91200
O  39.28300 9.23400 47.76700
C  38.51300 9.28900 49.04500
H  40.05900 1.20500 46.40100
H  46.56100 0.44800 45.98100
H  47.24800 6.65900 46.90800
H  39.03700 5.65600 47.56200
H  38.64200 3.29500 45.95200
H  38.22500 3.77700 48.67500
H  39.48700 2.53000 48.69100
H  37.96500 2.25900 47.84000
H  38.28200 6.83100 45.54500
H  37.37700 5.42200 45.68700
H  38.06600 4.57800 43.64400
H  39.70800 4.60500 44.09500
H  41.21500 -1.38900 44.82200
H  40.44100 -1.06400 46.37000
H  41.68200 -2.38400 46.20000
H  46.60600 -2.06200 45.72500
H  46.09500 -0.96100 44.44200
H  46.09500 -2.69900 44.13800
H  48.57000 2.25300 45.83500
H  48.38700 4.29900 47.86800
H  49.02300 0.90100 47.65100
H  47.56400 1.34000 48.42300
H  49.04300 2.33700 48.65900
H  48.70300 5.66600 45.72300
H  49.31900 4.14900 45.18100
H  50.78200 4.15800 47.34300
H  50.61300 5.88400 47.31900
H  51.36300 5.09900 45.95400
H  46.59500 9.04200 46.01000
H  46.27100 8.94200 47.67100
H  45.49000 10.19600 46.56100
H  40.40200 8.23900 45.68700
H  39.08300 9.23700 49.97200
H  37.69300 8.57400 49.11700
H  37.91800 10.19000 49.19300

