158

Mg 46.70700 25.73800 28.75000
C  47.60900 27.86900 31.54800
C  46.13100 23.30000 31.08900
C  46.35500 23.80100 26.25400
C  47.91000 28.35200 26.62300
N  46.94400 25.63700 31.10000
C  47.23000 26.64400 31.96000
C  46.98100 26.21700 33.40300
C  46.75200 24.67000 33.28300
C  46.64800 24.49300 31.69100
C  47.84600 23.81500 33.95200
C  45.72300 26.84400 34.15300
C  46.01700 27.56300 35.51900
H  46.70800 26.73700 36.63700
N  46.15900 23.88800 28.65900
C  45.90100 23.04400 29.74300
C  45.54800 21.72900 29.21900
C  45.67800 21.83000 27.81000
C  46.04700 23.23000 27.51600
C  45.11000 20.52000 30.11500
C  45.48300 20.79000 26.77200
O  45.60100 20.94400 25.56900
C  45.32200 19.45500 27.28400
N  46.99100 26.07200 26.64000
C  46.83400 25.04000 25.81000
C  47.16900 25.41600 24.35600
C  47.44500 26.95000 24.51600
C  47.45400 27.15400 26.02000
C  48.32200 24.67300 23.65800
C  46.42000 27.90200 23.81900
C  46.64600 27.98000 22.32800
N  47.56200 27.73300 28.96600
C  47.99700 28.62100 28.00800
C  48.58100 29.70100 28.69200
C  48.39700 29.53700 30.09000
C  47.76200 28.29100 30.20000
C  49.20400 30.94200 28.12800
C  48.61000 30.11700 31.45900
O  48.99100 31.23600 31.74300
C  48.09300 29.00700 32.43600
C  49.19800 28.74900 33.37200
O  50.31500 28.32600 33.03500
O  48.90800 29.07600 34.67100
C  49.77800 28.85400 35.81800
H  46.11900 22.41400 31.72800
H  46.43100 23.11400 25.40900
H  48.06300 29.11600 25.85800
H  47.92800 26.53500 33.84000
H  45.86500 24.31100 33.80500
H  47.59400 23.38800 34.92300
H  48.73600 24.44500 33.92700
H  48.16300 23.11300 33.18100
H  44.92600 26.15300 34.43000
H  45.16900 27.52700 33.50900
H  44.97000 27.76400 35.74300
H  46.43200 28.54500 35.29500
H  44.12400 20.17000 29.81000
H  45.13000 20.79900 31.16800
H  45.83000 19.71600 29.96300
H  46.24600 19.34700 27.85200
H  45.32000 18.73000 26.47100
H  44.35700 19.49700 27.78900
H  46.29800 25.34000 23.70500
H  48.44400 27.20500 24.16200
H  48.68100 23.99800 24.43500
H  49.14300 25.32600 23.36300
H  47.93000 24.09300 22.82300
H  46.48100 28.90700 24.23700
H  45.40300 27.53600 23.96100
H  47.53000 27.46500 21.95200
H  46.68500 29.04100 22.08200
H  45.77700 27.60500 21.78700
H  50.28200 30.82900 28.01200
H  48.95400 31.74700 28.81900
H  48.70600 31.11900 27.17500
H  47.32000 29.42300 33.08200
H  49.40700 29.54300 36.57800
H  50.80500 28.96900 35.47000
H  49.72500 27.79600 36.07400
Mg 42.36500 42.20200 26.31700
C  41.54300 44.46300 28.89300
C  43.46900 39.96900 28.71900
C  43.64400 40.30400 23.77500
C  41.91500 44.83900 24.04200
N  42.64500 42.27800 28.56800
C  42.06700 43.24700 29.36900
C  42.06400 42.75200 30.83500
C  42.86500 41.40100 30.77800
C  42.92600 41.13400 29.26300
C  44.21900 41.41700 31.58400
C  40.59000 42.65100 31.23400
C  40.23600 42.77600 32.73000
H  41.18500 43.12400 33.88300
N  43.26400 40.26200 26.25800
C  43.69600 39.55400 27.36100
C  44.20200 38.29700 26.86700
C  44.08300 38.22700 25.40400
C  43.60900 39.64700 25.06200
C  44.75400 37.22800 27.79700
C  44.38200 37.18100 24.43000
O  44.04200 37.23800 23.24700
C  45.08000 35.90900 24.90000
N  42.93400 42.57600 24.28100
C  43.34700 41.57300 23.42000
C  43.23700 41.96400 21.95800
C  42.41500 43.30000 22.02400
C  42.43900 43.68500 23.49200
C  44.59000 41.92900 21.13700
C  41.02500 43.19600 21.45700
C  40.02600 42.31500 22.28400
N  41.85800 44.23600 26.35500
C  41.76500 45.20900 25.36800
C  41.23200 46.48700 25.92900
C  41.08700 46.18100 27.24400
C  41.52700 44.86600 27.47900
C  40.87300 47.64100 25.05700
C  40.68000 46.71600 28.51400
O  40.17400 47.79800 28.76600
C  41.01700 45.61500 29.61000
C  41.89000 46.12300 30.72900
O  42.97600 46.63600 30.54200
O  41.40600 45.86800 32.05400
C  42.20700 46.46600 33.11800
H  43.68100 39.20000 29.46500
H  43.90800 39.60800 22.97600
H  41.85100 45.50200 23.17600
H  42.58800 43.42200 31.51600
H  42.22700 40.57500 31.09400
H  44.92700 40.68400 31.19500
H  44.01200 41.12600 32.61400
H  44.64000 42.42000 31.64700
H  40.34400 41.60000 31.08200
H  39.97900 43.32800 30.63700
H  39.62900 41.90200 32.96400
H  39.61300 43.67000 32.68100
H  45.74900 36.86900 27.53600
H  44.17600 36.30400 27.79600
H  44.93000 37.61900 28.80000
H  44.45800 35.34100 25.59200
H  45.97500 36.14300 25.47700
H  45.42500 35.31100 24.05600
H  42.63700 41.20300 21.46100
H  42.98000 44.12200 21.58600
H  45.39200 41.46100 21.70700
H  44.95800 42.90500 20.82200
H  44.47500 41.30400 20.25100
H  41.03900 42.78700 20.44700
H  40.53500 44.16400 21.35400
H  39.52600 42.98700 22.98200
H  40.54500 41.55900 22.87200
H  39.27500 41.79000 21.69400
H  40.38400 48.36700 25.70700
H  40.26100 47.30300 24.22100
H  41.81900 48.11800 24.80000
H  40.06900 45.44500 30.12000
H  42.48200 47.47700 32.81900
H  43.12500 45.95600 33.41000
H  41.63900 46.48000 34.04800

