158

Mg 25.47300 1.65400 29.46300
C  27.68400 1.31600 32.37100
C  22.86400 1.70700 31.56100
C  23.59800 2.06400 26.80100
C  28.21500 0.96600 27.52600
N  25.33000 1.41000 31.73400
C  26.30500 1.48000 32.70700
C  25.69600 1.69000 34.05600
C  24.12100 1.59300 33.84900
C  24.10400 1.56100 32.28000
C  23.37800 0.35600 34.45300
C  26.18100 2.87200 34.87300
C  26.76900 2.68700 36.26300
H  26.59300 3.80800 37.31900
N  23.44700 1.93900 29.27700
C  22.50400 1.85500 30.21900
C  21.19900 2.06500 29.76200
C  21.35900 2.20100 28.30300
C  22.85000 2.05300 28.06100
C  19.94800 2.06100 30.66100
C  20.29400 2.31800 27.19500
O  20.55800 2.49800 26.00400
C  18.82900 2.28000 27.65200
N  25.97600 1.72900 27.43100
C  24.96300 2.01800 26.52200
C  25.59000 2.09600 25.08700
C  27.06300 1.61800 25.33100
C  27.09200 1.34000 26.86900
C  24.85700 1.42800 23.86100
C  28.07200 2.68900 24.75300
C  28.29100 3.97700 25.64400
N  27.58600 1.31400 29.82400
C  28.55900 0.91900 28.92600
C  29.81500 0.67300 29.58200
C  29.55000 0.80400 30.93700
C  28.15800 1.20100 31.03600
C  31.15700 0.36600 28.83500
C  30.10700 0.77200 32.19400
O  31.19500 0.47200 32.62400
C  28.94000 1.16000 33.25800
C  28.94100 0.06700 34.18000
O  28.52400 -1.05500 33.92100
O  29.52200 0.43100 35.43500
C  29.35700 -0.65100 36.46000
H  22.14500 1.93400 32.35100
H  22.96800 2.09200 25.90900
H  29.09200 0.68600 26.93800
H  25.95600 0.84900 34.69800
H  23.65900 2.51500 34.20200
H  24.03000 -0.28500 35.04700
H  22.95700 -0.25900 33.65700
H  22.57600 0.75900 35.07100
H  25.55600 3.76400 34.90000
H  27.02700 3.24500 34.29500
H  27.83400 2.75400 36.04000
H  26.64800 1.66900 36.63600
H  20.21900 2.17500 31.71100
H  19.52200 1.06100 30.58800
H  19.20700 2.82400 30.42500
H  18.79000 1.28300 28.09200
H  18.14100 2.38700 26.81300
H  18.60700 3.11300 28.31900
H  25.53800 3.16900 24.90000
H  27.23900 0.68400 24.79600
H  24.00700 0.84900 24.21900
H  25.52900 0.71000 23.39200
H  24.59200 2.14700 23.08600
H  27.68900 3.06800 23.80600
H  28.97000 2.18400 24.39500
H  29.36900 4.11900 25.72200
H  27.80800 3.93200 26.62000
H  27.82900 4.79000 25.08400
H  31.25000 -0.68100 28.54700
H  32.01000 0.43600 29.51000
H  31.35300 0.98600 27.96000
H  29.17100 2.11900 33.72200
H  28.58900 -0.34800 37.17200
H  30.27700 -0.79700 37.02700
H  29.18000 -1.66100 36.09000
Mg 50.72300 45.58700 41.58900
C  47.67000 46.91800 40.31200
C  49.79200 42.70200 40.01200
C  53.88900 44.74100 41.49000
C  51.66400 48.91900 42.47200
N  48.96500 44.95200 40.22600
C  47.84400 45.64700 39.87300
C  46.73000 44.74500 39.20900
C  47.34700 43.34700 39.44600
C  48.78800 43.68500 39.93800
C  46.51600 42.35400 40.35300
C  46.65200 45.25600 37.69600
C  45.16900 45.19100 37.21200
H  44.91300 44.09700 36.15900
N  51.62800 43.86000 41.14600
C  51.08500 42.76100 40.49000
C  52.12900 41.72800 40.39100
C  53.37100 42.29300 40.86400
C  52.97100 43.71600 41.24700
C  51.87600 40.30800 40.08000
C  54.67900 41.53800 40.89900
O  54.68300 40.32900 40.65400
C  55.79900 42.20700 41.49600
N  52.54100 46.62400 42.00300
C  53.76700 46.10400 41.75100
C  54.85500 47.08600 41.91700
C  54.13900 48.36200 42.46400
C  52.68800 47.92000 42.38700
C  56.13400 46.60900 42.77300
C  54.46500 49.78300 41.76200
C  54.78100 50.89300 42.82900
N  49.81900 47.53900 41.63900
C  50.28800 48.77300 41.98500
C  49.32300 49.80000 41.82800
C  48.25200 49.03900 41.19900
C  48.60700 47.68400 41.05700
C  49.33300 51.29700 42.15500
C  46.99600 49.31500 40.59700
O  46.39700 50.41000 40.46200
C  46.47900 47.83800 40.08200
C  45.32200 47.50900 40.90800
O  45.26300 46.59800 41.66500
O  44.29400 48.45200 40.70800
C  43.11600 48.22700 41.58600
H  49.44700 41.72300 39.67300
H  54.97100 44.62300 41.40500
H  51.93800 49.97400 42.55000
H  45.73900 44.78700 39.66000
H  47.37400 42.75000 38.53500
H  45.52000 42.79400 40.40000
H  46.91500 42.34600 41.36700
H  46.50200 41.36200 39.90200
H  47.19900 44.55300 37.06800
H  46.94400 46.28800 37.50200
H  44.97500 46.21400 36.89300
H  44.46600 44.92200 38.00000
H  52.31500 40.08000 39.10900
H  50.81600 40.11100 39.92000
H  52.18100 39.69300 40.92700
H  55.55300 42.57500 42.49200
H  56.05400 42.99800 40.79100
H  56.65100 41.52700 41.49200
H  55.23400 47.21300 40.90300
H  54.46600 48.47100 43.49800
H  56.09100 45.54200 42.99100
H  56.14500 47.16800 43.70900
H  57.09600 46.63900 42.26200
H  53.67400 50.09300 41.07900
H  55.32400 49.68000 41.09800
H  55.80700 51.25300 42.76000
H  54.55500 50.54800 43.83800
H  54.17900 51.78200 42.64000
H  49.99000 51.33600 43.02300
H  48.30900 51.54700 42.43600
H  49.78000 51.85700 41.33300
H  46.35800 47.78600 39.00000
H  42.37800 49.02900 41.54400
H  43.59100 48.38700 42.55400
H  42.69800 47.26900 41.27500

