158

Mg 35.62500 49.44700 24.40700
C  35.67100 48.06600 27.42000
C  34.45200 52.38800 25.86700
C  35.14700 50.85100 21.28000
C  36.42000 46.48800 22.86700
N  35.02000 50.13900 26.45900
C  35.39100 49.41800 27.54000
C  35.30700 50.23600 28.84300
C  34.92600 51.67000 28.22200
C  34.76800 51.39200 26.77600
C  33.63600 52.42100 28.85500
C  36.62800 50.36600 29.63700
C  36.44100 49.97900 31.10500
H  35.19900 50.58900 31.83000
N  34.99000 51.42500 23.63200
C  34.52800 52.42200 24.43500
C  34.17600 53.50800 23.54000
C  34.23400 53.01500 22.19600
C  34.80300 51.71600 22.30000
C  33.65300 54.89600 24.05000
C  33.73500 53.66000 20.93500
O  34.14400 53.36800 19.83800
C  32.89900 54.83600 20.99600
N  35.55000 48.67700 22.21600
C  35.58200 49.56300 21.17500
C  35.86700 48.77500 19.87100
C  36.24000 47.33800 20.42300
C  36.06200 47.47500 21.87200
C  34.70200 48.68500 18.98500
C  37.61900 46.86800 20.02900
C  38.84100 47.28600 20.99400
N  35.91600 47.61400 25.01000
C  36.26800 46.46800 24.26100
C  36.61700 45.42900 25.24100
C  36.29600 45.99000 26.46700
C  35.88600 47.31400 26.28800
C  37.16000 44.14800 24.82600
C  36.24400 45.76800 27.89400
O  36.61500 44.71900 28.47500
C  35.72000 47.04900 28.55200
C  34.51700 46.84600 29.39900
O  33.38800 46.69100 28.94900
O  34.82400 46.87400 30.74400
C  33.82300 46.52600 31.66500
H  34.06100 53.25700 26.40000
H  35.26800 51.27400 20.28000
H  36.90800 45.64900 22.36700
H  34.48500 49.79900 29.40800
H  35.73400 52.39400 28.31600
H  33.44300 52.16500 29.89700
H  32.75000 52.35600 28.22400
H  33.96200 53.44400 29.04600
H  37.02000 51.38100 29.69600
H  37.37400 49.69700 29.20900
H  37.31500 50.42900 31.57600
H  36.46000 48.89300 31.19300
H  32.58600 54.70700 24.16800
H  33.72000 55.71800 23.33700
H  34.05500 55.10900 25.04100
H  32.17900 54.66900 21.79800
H  32.32200 55.00200 20.08600
H  33.48000 55.75700 20.99900
H  36.67300 49.23100 19.29600
H  35.46300 46.69400 20.01000
H  34.17600 49.61300 18.76200
H  33.87800 48.04700 19.30400
H  34.92600 48.29400 17.99200
H  37.79400 46.98600 18.96000
H  37.56300 45.78700 20.16200
H  38.97900 46.35600 21.54500
H  38.66900 48.12100 21.67300
H  39.74900 47.40700 20.40300
H  37.95900 43.93100 25.53500
H  37.57500 44.16900 23.81900
H  36.26200 43.53100 24.84000
H  36.55700 47.27000 29.21500
H  32.92400 46.01400 31.32300
H  33.61900 47.44100 32.22100
H  34.33800 45.81200 32.30800
Mg 6.87800 54.56600 41.15100
C  6.27700 51.16500 41.28400
C  10.09800 53.97800 39.92700
C  7.14300 57.87000 40.26300
C  3.48800 55.18400 42.17300
N  8.00700 52.70400 40.43400
C  7.57000 51.45200 40.77900
C  8.76300 50.49900 40.58700
C  10.01400 51.38500 40.33700
C  9.37700 52.80300 40.35500
C  11.15600 51.23600 41.43300
C  8.61600 49.39700 39.60800
C  8.55500 49.70800 38.14800
H  7.25700 49.28900 37.48600
N  8.44000 55.77500 40.33400
C  9.68900 55.33400 39.95700
C  10.47800 56.48100 39.53000
C  9.59100 57.56600 39.37700
C  8.33100 57.10900 40.03000
C  11.91100 56.47700 39.06700
C  9.85700 58.87200 38.59600
O  10.94600 58.95400 38.11700
C  8.86300 59.84000 38.33000
N  5.47700 56.25900 41.08400
C  5.92000 57.48400 40.80500
C  4.81400 58.55500 41.23300
C  3.56000 57.68800 41.47800
C  4.20900 56.26200 41.57800
C  5.25100 59.48600 42.34200
C  2.43200 57.73000 40.32100
C  1.65900 59.00400 40.37300
N  5.23600 53.44900 41.70100
C  4.03200 53.81000 42.19900
C  3.37100 52.67700 42.69800
C  4.15900 51.60300 42.38300
C  5.27300 52.11300 41.66800
C  1.98000 52.52800 43.31800
C  4.39100 50.19900 42.42700
O  3.83400 49.29900 43.05100
C  5.60000 49.82900 41.55500
C  5.18200 49.11700 40.32700
O  4.26600 49.48000 39.59800
O  5.69200 47.77200 40.20500
C  4.71500 46.91500 39.42800
H  11.02600 53.71400 39.41600
H  7.18400 58.95800 40.17400
H  2.48200 55.30100 42.58300
H  8.91500 49.88100 41.47200
H  10.41400 51.24600 39.33300
H  10.89600 50.39200 42.07300
H  11.12800 52.14400 42.03500
H  12.06700 51.02000 40.87600
H  7.72600 48.78800 39.76700
H  9.44200 48.69500 39.72100
H  9.38700 49.21300 37.64800
H  8.68900 50.78000 38.00400
H  12.22300 56.59200 38.02900
H  12.32300 55.52800 39.41000
H  12.37400 57.35300 39.52000
H  8.10700 59.54500 37.60300
H  9.46600 60.64800 37.91700
H  8.53100 60.10100 39.33500
H  4.56600 59.18300 40.37700
H  3.14600 57.92100 42.45900
H  6.26400 59.20900 42.63300
H  4.64700 59.39500 43.24500
H  5.20200 60.51900 41.99800
H  1.72000 56.91700 40.46200
H  2.82700 57.82300 39.30900
H  1.73500 59.60900 39.47000
H  1.95600 59.56100 41.26200
H  0.63300 58.71200 40.59600
H  1.20200 53.10700 42.82000
H  2.03700 52.85700 44.35600
H  1.76200 51.46100 43.27400
H  6.23700 49.18200 42.15900
H  4.93100 45.84700 39.42500
H  4.64100 47.16900 38.37100
H  3.76900 46.99000 39.96300

