158

Mg 42.25400 41.11100 26.41600
C  41.63800 43.50500 28.95100
C  42.96000 38.73900 28.58800
C  43.49400 39.29400 23.76300
C  41.76400 43.82600 24.02600
N  42.52100 41.23400 28.58600
C  41.99300 42.19600 29.46100
C  41.89300 41.68000 30.94700
C  42.30400 40.18100 30.67500
C  42.54500 40.00800 29.18600
C  43.42100 39.69100 31.66400
C  40.47300 41.89100 31.58000
C  40.21900 41.18800 32.93800
H  39.48400 42.02300 34.02400
N  43.03800 39.25100 26.23400
C  43.34800 38.38100 27.27600
C  43.84200 37.15100 26.77500
C  44.04500 37.30200 25.36200
C  43.53200 38.69600 25.05400
C  44.02200 35.90100 27.62700
C  44.57200 36.33700 24.28900
O  44.77800 36.56700 23.11800
C  44.72500 34.83500 24.64200
N  42.47800 41.48600 24.24100
C  43.03100 40.55000 23.34600
C  43.00600 40.95300 21.86100
C  42.15700 42.24900 21.94300
C  42.18800 42.62300 23.49700
C  44.41900 41.13800 21.16000
C  40.70700 42.11500 21.47700
C  39.70200 40.97800 21.96300
N  41.90300 43.29600 26.39200
C  41.61500 44.19800 25.41300
C  41.15600 45.43600 25.97800
C  41.18100 45.24700 27.33900
C  41.64700 43.91100 27.56100
C  40.77300 46.72000 25.36600
C  40.95500 45.84200 28.66800
O  40.55500 46.93800 28.93500
C  41.10600 44.73700 29.70400
C  42.04000 45.18400 30.79900
O  43.28300 45.26900 30.74200
O  41.29200 45.41700 31.85100
C  41.96100 45.52700 33.13300
H  43.21200 37.90700 29.24800
H  43.68700 38.64300 22.90800
H  41.53900 44.59600 23.28500
H  42.69000 42.19800 31.48200
H  41.42400 39.57100 30.88300
H  44.35200 39.70100 31.09600
H  43.08800 38.75400 32.11100
H  43.53900 40.41100 32.47400
H  39.81000 41.48500 30.81600
H  40.18200 42.91300 31.82200
H  41.20300 40.85100 33.26500
H  39.53500 40.34900 32.80900
H  43.40600 35.13700 27.15300
H  43.84300 36.01400 28.69600
H  45.01300 35.45300 27.55500
H  45.07500 34.32300 23.74600
H  43.82400 34.50200 25.15700
H  45.44700 34.81100 25.45800
H  42.43900 40.19200 21.32400
H  42.54800 43.07700 21.35300
H  44.51300 40.39300 20.37000
H  45.03600 40.75500 21.97400
H  44.80600 42.10200 20.83000
H  40.84200 41.98900 20.40300
H  40.37700 43.11100 21.77200
H  39.96100 40.42900 22.86900
H  39.42800 40.46700 21.04100
H  38.78600 41.47800 22.27800
H  39.84700 47.07600 25.81800
H  40.50900 46.48100 24.33500
H  41.56700 47.46100 25.45600
H  40.13300 44.63400 30.18300
H  42.35100 44.52500 33.31400
H  41.43100 45.87800 34.01800
H  42.76800 46.25800 33.18500
Mg -10.56100 16.11100 41.97900
C  -7.25700 15.00600 41.56300
C  -9.54900 19.16800 40.62800
C  -13.82300 17.06100 41.98200
C  -11.44200 12.76200 42.43700
N  -8.60300 16.88100 41.08800
C  -7.38700 16.29300 41.09900
C  -6.27900 17.24300 40.63300
C  -7.01700 18.63200 40.50700
C  -8.46700 18.23500 40.69700
C  -6.46300 19.68700 41.54100
C  -5.71400 16.74600 39.28600
C  -4.30600 17.34500 38.95200
H  -4.14400 18.27900 37.68000
N  -11.53300 17.89700 41.48000
C  -10.93700 19.01100 40.91700
C  -11.92100 20.09500 40.78500
C  -13.17700 19.49800 41.08900
C  -12.86700 18.08800 41.53600
C  -11.58200 21.60100 40.46700
C  -14.44800 20.29200 41.17400
O  -14.55100 21.49500 40.90400
C  -15.75100 19.54700 41.30400
N  -12.42300 15.07800 42.23200
C  -13.63700 15.70200 42.29600
C  -14.76100 14.69900 42.44800
C  -13.99300 13.36900 42.65800
C  -12.51500 13.73800 42.44600
C  -15.84900 15.00200 43.43100
C  -14.56400 12.16600 41.78800
C  -14.90700 10.95600 42.58500
N  -9.63100 14.25300 42.07600
C  -10.06600 12.96500 42.33300
C  -8.98600 12.09500 42.42300
C  -7.81000 12.81400 42.21400
C  -8.26900 14.12400 41.99400
C  -9.05500 10.57100 42.62100
C  -6.28900 12.88300 42.19300
O  -5.39300 12.08600 42.47300
C  -5.92300 14.33300 41.79800
C  -5.08100 14.80900 42.91500
O  -5.45800 15.17000 44.02200
O  -3.76300 14.78900 42.41300
C  -2.62600 15.26300 43.33800
H  -9.22500 20.19700 40.45800
H  -14.88000 17.29900 42.11700
H  -11.63500 11.68800 42.48500
H  -5.40900 17.34600 41.28100
H  -6.88400 19.22400 39.60100
H  -5.37700 19.60000 41.55100
H  -6.86900 19.42500 42.51800
H  -6.71100 20.70900 41.25300
H  -6.40900 17.13600 38.54300
H  -5.77600 15.68400 39.04500
H  -3.67800 16.47500 38.76100
H  -3.90800 18.01900 39.71100
H  -11.09100 21.59100 39.49400
H  -10.85400 21.90800 41.21800
H  -12.40300 22.31700 40.42600
H  -16.55000 20.13300 40.85000
H  -16.00100 19.49200 42.36400
H  -15.74800 18.57200 40.81700
H  -15.16200 14.69000 41.43500
H  -13.89600 13.18000 43.72700
H  -15.48400 15.89300 43.94300
H  -15.90100 14.14600 44.10300
H  -16.77200 15.05900 42.85400
H  -13.71200 11.86700 41.17700
H  -15.38600 12.43600 41.12500
H  -15.31300 11.24100 43.55500
H  -14.09100 10.24100 42.68800
H  -15.81900 10.51200 42.18700
H  -8.55700 10.21000 43.52100
H  -8.50500 10.12200 41.79400
H  -10.08100 10.26700 42.41300
H  -5.33300 14.37000 40.88200
H  -2.06900 16.06300 42.85100
H  -1.97200 14.44900 43.64900
H  -3.09200 15.59900 44.26500

