158

Mg 2.31100 -1.12800 44.39600
C  5.65800 -0.16600 44.16900
C  1.41800 1.99400 43.28900
C  -0.83600 -2.13200 43.98500
C  3.36500 -4.42200 44.92600
N  3.50200 0.69600 43.85000
C  4.84100 0.87800 43.82800
C  5.20100 2.30000 43.37200
C  3.80800 3.05600 43.62900
C  2.78500 1.89300 43.63500
C  3.78700 3.93000 44.95200
C  5.78500 2.43200 41.88700
C  4.80400 2.17700 40.71900
H  4.85000 3.07400 39.46000
N  0.57700 -0.23000 43.57900
C  0.38900 1.07300 43.14000
C  -0.92900 1.30200 42.60500
C  -1.52500 -0.03100 42.70400
C  -0.61700 -0.89000 43.47900
C  -1.42900 2.60800 42.10200
C  -2.86500 -0.39800 42.13800
O  -3.46600 0.48100 41.58500
C  -3.38600 -1.73500 42.14800
N  1.47300 -2.98700 44.36200
C  0.11300 -3.08800 44.43100
C  -0.37700 -4.47100 44.76700
C  1.00700 -5.31900 44.97900
C  2.02200 -4.17300 44.72100
C  -1.44400 -4.50800 45.88700
C  1.19600 -6.53800 44.01300
C  1.23100 -7.88400 44.67100
N  4.10200 -2.09500 44.75600
C  4.40500 -3.46700 44.91400
C  5.77400 -3.65600 44.95400
C  6.34700 -2.41600 44.70200
C  5.31000 -1.50800 44.52000
C  6.47100 -4.96700 45.25400
C  7.62200 -1.67500 44.56200
O  8.78700 -2.03800 44.58600
C  7.14500 -0.29000 44.04600
C  7.92500 0.73400 44.68900
O  8.75100 1.33800 44.12700
O  7.63300 0.84900 46.02600
C  8.16000 2.11500 46.58700
H  1.19700 3.01200 42.96000
H  -1.88400 -2.43400 44.03100
H  3.66300 -5.45400 45.12300
H  5.92800 2.58400 44.13300
H  3.47200 3.53100 42.70800
H  3.31000 3.35700 45.74700
H  3.24600 4.83900 44.69000
H  4.77000 4.30400 45.23800
H  6.74400 1.95200 41.69000
H  6.11900 3.46500 41.79600
H  3.76500 1.99800 40.99500
H  5.05800 1.17900 40.36100
H  -2.49000 2.84800 42.16500
H  -1.08500 2.83900 41.09400
H  -0.87200 3.30500 42.72700
H  -4.15400 -1.66400 41.37700
H  -3.87000 -1.95600 43.10000
H  -2.54700 -2.38400 41.89900
H  -0.86700 -5.05900 43.99200
H  1.14400 -5.62200 46.01700
H  -1.46000 -3.53300 46.37500
H  -1.21700 -5.25000 46.65200
H  -2.47100 -4.71400 45.58500
H  2.11000 -6.37000 43.44200
H  0.42500 -6.58100 43.24500
H  0.68000 -8.64900 44.12400
H  0.64700 -7.91000 45.59200
H  2.20700 -8.29200 44.93500
H  6.47100 -5.11500 46.33400
H  7.50600 -4.97400 44.91200
H  5.99000 -5.81500 44.76700
H  7.39600 -0.15100 42.99500
H  8.01000 2.02100 47.66200
H  7.74700 3.06300 46.24300
H  9.24200 2.10900 46.45900
Mg -8.36600 39.70800 42.20800
C  -7.40100 36.44100 41.15600
C  -5.90300 40.95400 40.36900
C  -9.87000 42.67300 42.42900
C  -11.42100 38.20700 43.61400
N  -6.94000 38.80900 40.88300
C  -6.61600 37.46500 40.67500
C  -5.29000 37.26500 39.92800
C  -4.79300 38.76100 39.71700
C  -5.93900 39.56200 40.31400
C  -3.30300 39.03900 40.15000
C  -5.49100 36.48300 38.62900
C  -4.51600 35.33400 38.45900
H  -3.66400 35.39000 37.20900
N  -7.73800 41.60400 41.80700
C  -6.72800 41.88600 41.06800
C  -6.58500 43.31700 41.01800
C  -7.65400 43.82600 41.73800
C  -8.48200 42.70700 42.09100
C  -5.35600 43.97000 40.36900
C  -7.93900 45.38400 42.07300
O  -7.14800 46.25400 41.75700
C  -9.02600 45.80300 42.98100
N  -10.30300 40.29900 43.00400
C  -10.64500 41.61600 42.90800
C  -12.15600 41.76600 43.19100
C  -12.56300 40.39500 43.82800
C  -11.28600 39.54400 43.54400
C  -12.47600 43.00400 43.99600
C  -13.98200 39.64100 43.45900
C  -15.23400 40.62800 43.55600
N  -9.26700 37.70400 42.39700
C  -10.46500 37.30400 43.01000
C  -10.51300 35.91600 42.83100
C  -9.33700 35.52100 42.23400
C  -8.63800 36.62900 41.89600
C  -11.58100 34.98800 43.37000
C  -8.52400 34.36800 41.65100
O  -8.77600 33.15100 41.61100
C  -7.23700 34.93700 41.09000
C  -6.05200 34.54600 41.97400
O  -5.64700 34.99300 43.03300
O  -5.30300 33.63700 41.20100
C  -3.96800 33.29400 41.70500
H  -5.09100 41.38600 39.78100
H  -10.45000 43.59300 42.33700
H  -12.40900 37.82300 43.87800
H  -4.61100 36.66000 40.52900
H  -4.75200 38.90800 38.63800
H  -2.56200 38.98100 39.35200
H  -3.00000 38.22900 40.81300
H  -3.25700 39.99600 40.66800
H  -5.23900 37.09200 37.76100
H  -6.49200 36.06200 38.52600
H  -5.01700 34.36600 38.47400
H  -3.79500 35.29100 39.27500
H  -5.05100 44.89200 40.86200
H  -5.60800 44.34400 39.37600
H  -4.58900 43.20000 40.44500
H  -8.86500 46.60000 43.70700
H  -9.21500 45.04300 43.73900
H  -9.91700 46.08000 42.41800
H  -12.72900 41.88200 42.27100
H  -12.72200 40.55700 44.89400
H  -12.97000 43.61200 43.23800
H  -11.60100 43.52300 44.38800
H  -13.28200 42.74900 44.68300
H  -14.12200 38.80800 44.14700
H  -13.91300 39.27100 42.43600
H  -15.38500 41.06700 42.57000
H  -15.05200 41.51700 44.16000
H  -16.12600 40.08900 43.87400
H  -12.54100 35.09700 42.86500
H  -11.69600 35.10200 44.44800
H  -11.19400 33.96900 43.39300
H  -7.03300 34.51200 40.10700
H  -3.42600 34.23900 41.67200
H  -3.48600 32.60200 41.01400
H  -4.01900 32.84100 42.69500

