158

Mg 8.08500 3.21400 27.82900
C  9.73200 1.90100 30.60400
C  6.09400 4.99200 29.93700
C  6.65900 4.32300 25.12900
C  9.85400 0.79100 25.83300
N  7.89600 3.34600 29.95800
C  8.78700 2.88200 30.89900
C  8.41900 3.36600 32.28300
C  7.10400 4.20400 32.05500
C  7.03900 4.18800 30.57900
C  5.82200 3.49500 32.62500
C  9.60700 4.14500 32.83100
C  9.45200 4.70800 34.29400
H  9.86100 3.87600 35.55600
N  6.54200 4.52400 27.55100
C  5.82800 5.12200 28.53500
C  4.96200 6.10700 27.87800
C  5.14600 6.03800 26.44100
C  6.16600 4.92500 26.32000
C  3.99300 7.07500 28.61600
C  4.48100 6.73200 25.34500
O  4.83500 6.54000 24.18500
C  3.32300 7.68600 25.56000
N  8.35000 2.60400 25.69000
C  7.62600 3.22900 24.88200
C  7.93300 2.74400 23.43500
C  8.87500 1.57600 23.68200
C  9.03400 1.64300 25.14900
C  6.67600 2.50900 22.58100
C  10.25600 1.62900 22.93300
C  11.23100 2.74500 23.32200
N  9.49400 1.64300 28.17100
C  10.13400 0.74600 27.23300
C  11.07600 -0.10600 27.94200
C  10.95000 0.30200 29.29200
C  10.00500 1.38900 29.32900
C  11.91200 -1.17000 27.39300
C  11.45900 0.17000 30.68100
O  12.30600 -0.58800 31.17600
C  10.72400 1.18300 31.53500
C  10.05300 0.42300 32.61100
O  9.03400 -0.28100 32.50800
O  10.89300 0.54000 33.72400
C  10.44600 -0.28800 34.89800
H  5.53100 5.68100 30.57000
H  6.05700 4.76400 24.33200
H  10.47000 0.03700 25.33800
H  8.25000 2.49900 32.92100
H  7.04400 5.23900 32.39100
H  6.00800 2.56700 33.16600
H  5.14600 3.28800 31.79600
H  5.42100 4.13300 33.41300
H  9.85700 4.87600 32.06300
H  10.38200 3.37900 32.87600
H  8.42200 4.92400 34.57500
H  9.94100 5.68200 34.27400
H  4.28800 8.10300 28.82600
H  3.76400 6.69600 29.61200
H  2.98100 7.09300 28.21000
H  3.27000 8.31700 26.44700
H  2.37700 7.16400 25.41800
H  3.25100 8.35400 24.70200
H  8.46900 3.57900 22.98400
H  8.31200 0.71600 23.32100
H  5.75600 2.78900 23.09300
H  6.62400 1.44400 22.35500
H  6.71100 3.19100 21.73100
H  9.90000 1.69600 21.90500
H  10.79000 0.68000 22.96500
H  10.64800 3.31800 24.04300
H  11.41200 3.35900 22.44000
H  12.15800 2.38000 23.76400
H  11.52500 -1.35900 26.39200
H  11.77900 -2.06500 28.00100
H  12.97200 -0.91700 27.37900
H  11.52200 1.83600 31.89000
H  10.23200 -1.23700 34.40600
H  9.54300 0.09300 35.37400
H  11.30400 -0.26300 35.56900
Mg 54.29500 24.59900 44.29200
C  51.57600 26.90700 43.73800
C  52.29000 22.23000 43.44400
C  57.01400 22.59400 44.10300
C  56.25000 27.45400 44.69900
N  52.16600 24.62600 43.57600
C  51.21100 25.54600 43.46200
C  49.87700 24.97500 42.93600
C  50.10200 23.48300 43.17100
C  51.61100 23.40300 43.44800
C  49.29800 22.73100 44.30500
C  49.69100 25.21200 41.42700
C  48.16500 25.14900 40.99000
H  47.95400 24.71100 39.55900
N  54.61200 22.65900 43.86000
C  53.64300 21.78500 43.55900
C  54.14800 20.47300 43.46500
C  55.55600 20.63000 43.58000
C  55.83000 22.03100 43.81400
C  53.26000 19.23500 43.24200
C  56.59800 19.49900 43.48300
O  56.21800 18.36500 43.26500
C  58.14400 19.63400 43.59700
N  56.42500 25.00600 44.30800
C  57.33700 23.96000 44.39100
C  58.76200 24.49400 44.54700
C  58.40300 26.06500 44.80100
C  56.92000 26.21500 44.60700
C  59.44200 23.84200 45.77900
C  59.16100 27.05100 43.85500
C  59.77600 28.30500 44.59400
N  54.04400 26.78200 44.30700
C  54.92700 27.73400 44.48900
C  54.33600 29.04400 44.42200
C  53.00700 28.74100 44.14300
C  52.90800 27.38700 44.06600
C  54.86700 30.36700 44.69700
C  51.67700 29.30500 43.95300
O  51.24600 30.43700 44.04500
C  50.69000 28.20000 43.79500
C  50.08400 28.54400 42.50700
O  50.69500 28.39600 41.44100
O  48.78000 28.88200 42.58400
C  48.21600 29.49700 41.38900
H  51.67900 21.32600 43.45900
H  57.84300 21.89300 44.21800
H  56.94400 28.27200 44.90500
H  49.00300 25.44600 43.38700
H  49.96600 22.94100 42.23500
H  49.88200 22.23500 45.08100
H  48.65700 22.03500 43.76300
H  48.69900 23.44500 44.87000
H  50.17800 24.43100 40.84400
H  50.13300 26.14700 41.08100
H  47.85600 26.18400 41.13400
H  47.61200 24.39600 41.55200
H  53.02500 19.09500 42.18600
H  52.34600 19.36800 43.82000
H  53.82200 18.39000 43.63800
H  58.45500 20.37900 42.86500
H  58.59500 18.66000 43.40600
H  58.39600 19.85800 44.63300
H  59.21700 24.42300 43.55900
H  58.66800 26.22100 45.84600
H  58.75500 23.08400 46.15300
H  59.54900 24.58300 46.57200
H  60.38300 23.34600 45.54000
H  58.49900 27.44300 43.08300
H  59.98100 26.47600 43.42400
H  59.45100 29.20200 44.06700
H  60.84900 28.18000 44.44700
H  59.60300 28.26500 45.67000
H  55.19300 30.59500 45.71200
H  54.06600 31.06900 44.46400
H  55.72000 30.58700 44.05500
H  50.00200 28.18800 44.64000
H  47.25500 29.94000 41.65000
H  48.04100 28.69800 40.66800
H  48.87000 30.25900 40.96600

