158

Mg 47.30900 24.41400 28.25700
C  48.02500 26.85200 30.77000
C  46.17900 22.35400 30.78700
C  46.78400 22.09300 25.97000
C  48.72600 26.47700 25.86700
N  47.30200 24.61800 30.45100
C  47.45100 25.68500 31.24400
C  47.06200 25.41300 32.70500
C  46.60400 23.85900 32.70500
C  46.68500 23.59600 31.17700
C  47.33800 22.94300 33.72100
C  45.91800 26.40200 33.15000
C  45.14900 26.09000 34.39900
H  45.36200 27.04200 35.65400
N  46.62900 22.47200 28.34900
C  46.16700 21.79100 29.47000
C  45.80300 20.43900 29.03800
C  46.07400 20.31000 27.67000
C  46.48600 21.66400 27.26400
C  45.36500 19.43100 30.07500
C  45.88100 19.03900 26.77400
O  46.43600 18.86300 25.67700
C  45.22900 17.85700 27.40000
N  47.65300 24.33700 26.19200
C  47.31800 23.32700 25.44600
C  47.65700 23.51500 23.96500
C  48.06200 25.00600 23.91300
C  48.24900 25.27200 25.43000
C  48.67800 22.58900 23.32900
C  47.04200 25.94600 23.21900
C  47.11000 25.97000 21.66600
N  48.27900 26.30600 28.22900
C  48.78200 26.98400 27.17800
C  49.35100 28.18500 27.56000
C  49.02200 28.22000 28.94100
C  48.43200 27.00800 29.33400
C  50.26000 29.05000 26.74700
C  49.02100 29.04000 30.16600
O  49.44600 30.22600 30.24700
C  48.47600 28.13500 31.33800
C  49.54000 28.04000 32.33600
O  50.61900 27.48800 32.22300
O  49.10300 28.71800 33.45600
C  49.79200 28.35500 34.75100
H  45.48600 21.80500 31.42700
H  46.67600 21.41200 25.12300
H  49.09200 27.16600 25.10300
H  47.86000 25.60000 33.42500
H  45.53700 23.70700 32.86700
H  48.18700 22.69900 33.08200
H  46.77300 22.02900 33.90100
H  47.74100 23.37900 34.63500
H  45.33400 26.65000 32.26300
H  46.44000 27.34800 33.29400
H  45.55900 25.15600 34.78200
H  44.08900 25.94200 34.19300
H  44.57800 18.79800 29.66300
H  45.03800 19.80000 31.04700
H  46.28800 18.86500 30.19800
H  44.19100 18.14000 27.57200
H  45.70800 17.37600 28.25400
H  45.23000 16.96500 26.77300
H  46.67700 23.35100 23.51900
H  48.98200 25.07300 23.33300
H  48.69500 22.68200 22.24300
H  48.36700 21.56000 23.51100
H  49.66200 22.70700 23.78300
H  47.17700 26.94400 23.63800
H  46.01700 25.76700 23.54500
H  47.84600 25.20800 21.41000
H  47.60900 26.87300 21.31500
H  46.23300 25.74300 21.05900
H  51.10200 29.44300 27.31700
H  49.57600 29.80900 26.36800
H  50.83500 28.56400 25.95900
H  47.70300 28.75000 31.79900
H  49.81900 27.27600 34.90200
H  49.09200 28.65700 35.53000
H  50.79600 28.77300 34.82700
Mg 17.23900 52.51900 25.38400
C  18.88200 51.17800 28.14600
C  14.78800 53.67500 27.44400
C  15.84600 53.78400 22.59800
C  19.70800 50.95100 23.33100
N  16.87600 52.38900 27.65000
C  17.70700 51.82100 28.54300
C  17.15700 52.26100 29.94700
C  15.69400 52.71500 29.61800
C  15.82100 53.03100 28.15600
C  14.56800 51.64900 29.96100
C  18.14900 53.28700 30.67900
C  17.91800 53.48400 32.18600
H  16.72300 52.78900 32.87500
N  15.62000 53.53200 25.04900
C  14.64100 53.88500 26.02500
C  13.46300 54.46000 25.32300
C  13.79700 54.49300 23.86700
C  15.15900 53.92900 23.79800
C  12.36300 55.09600 26.13300
C  13.01100 55.04200 22.72000
O  13.36000 55.17200 21.52900
C  11.63900 55.52600 23.10800
N  17.74300 52.47400 23.28900
C  17.01800 53.11400 22.35000
C  17.66400 52.94500 20.96400
C  18.92600 52.11800 21.25700
C  18.81600 51.81800 22.76000
C  16.73000 52.15500 20.02600
C  20.25400 52.85300 20.84800
C  21.15600 52.23100 19.75100
N  18.82900 51.17500 25.60900
C  19.75800 50.62700 24.71400
C  20.78700 49.79700 25.42600
C  20.46500 50.00400 26.75400
C  19.34500 50.86700 26.86900
C  21.94100 48.97100 24.87600
C  20.89400 49.83400 28.10500
O  21.83400 49.21300 28.57100
C  19.89300 50.57800 29.09700
C  19.44500 49.47100 30.01200
O  18.80600 48.45700 29.67000
O  19.84600 49.87700 31.26200
C  19.45600 49.12200 32.49300
H  13.89700 54.02100 27.97100
H  15.41800 54.08200 21.63900
H  20.42400 50.51400 22.63200
H  16.91300 51.37100 30.52700
H  15.50000 53.71300 30.01200
H  15.06900 50.68400 30.04600
H  13.81000 51.68400 29.17800
H  14.05700 51.91700 30.88600
H  17.91000 54.22600 30.18000
H  19.12900 53.02000 30.28500
H  17.80900 54.56300 32.29500
H  18.89500 53.20200 32.57900
H  11.53000 54.41800 26.31600
H  12.09600 56.02900 25.63500
H  12.70300 55.56800 27.05400
H  11.05600 55.60400 22.18900
H  11.74800 56.55000 23.46500
H  11.02300 54.90700 23.76000
H  18.00200 53.90800 20.58100
H  18.91600 51.19200 20.68200
H  16.52500 52.67600 19.09100
H  15.75900 52.01500 20.50100
H  17.09800 51.15200 19.81300
H  20.84300 52.83800 21.76500
H  20.10100 53.89600 20.57200
H  21.80000 51.43400 20.11900
H  21.73000 52.98200 19.20800
H  20.49000 51.83200 18.98600
H  22.90300 49.47100 24.99100
H  21.83700 48.97100 23.79100
H  21.92200 47.93000 25.19800
H  20.40200 51.37200 29.64300
H  18.85900 48.23700 32.27500
H  18.73400 49.75400 33.01000
H  20.22900 48.88500 33.22300

