158

Mg 47.63300 16.00000 28.80700
C  45.41600 15.69600 31.39900
C  49.75800 17.66900 31.02300
C  49.59700 16.92900 26.23800
C  45.27100 14.65500 26.66100
N  47.53400 16.65200 30.84900
C  46.59700 16.21900 31.82600
C  47.00200 16.66000 33.24300
C  48.22600 17.62900 33.02400
C  48.52100 17.30800 31.54600
C  48.00400 19.11000 33.24700
C  47.29000 15.48100 34.23100
C  46.89200 15.67400 35.65000
H  46.51500 17.11300 36.06500
N  49.48800 17.09900 28.65900
C  50.18100 17.69800 29.65500
C  51.50000 18.09300 29.21400
C  51.50500 17.83300 27.76000
C  50.18800 17.25500 27.45400
C  52.57700 18.77400 30.04900
C  52.58800 18.12500 26.81700
O  52.43900 17.75500 25.69400
C  53.80800 18.86600 27.07200
N  47.43300 15.73700 26.75800
C  48.40200 16.20900 25.87700
C  47.86500 16.14200 24.44900
C  46.64100 15.20000 24.56100
C  46.42300 15.19000 26.06600
C  47.63900 17.55600 23.82400
C  46.83500 13.79600 23.92000
C  45.93300 13.52100 22.71100
N  45.74800 15.35100 28.91100
C  44.90700 14.80000 28.01100
C  43.70900 14.37400 28.64100
C  43.79400 14.75500 29.95400
C  45.05200 15.38600 30.05100
C  42.59900 13.62900 27.94400
C  43.12700 14.70600 31.27500
O  42.13500 14.10700 31.65900
C  44.18400 15.38900 32.21800
C  43.53800 16.56000 32.77000
O  43.27300 17.58600 32.15600
O  43.00100 16.27400 33.96700
C  42.12700 17.28200 34.58400
H  50.39200 18.04900 31.82700
H  50.13300 17.26400 25.34800
H  44.57300 14.27300 25.91300
H  46.16300 17.24800 33.61500
H  49.11800 17.24100 33.51600
H  46.98200 19.26300 33.59300
H  48.04600 19.54700 32.24900
H  48.69300 19.54500 33.97100
H  48.37500 15.41600 34.15100
H  46.90700 14.57800 33.75600
H  47.63400 15.27500 36.34100
H  46.06300 14.98900 35.83000
H  52.22600 18.76100 31.08000
H  52.73400 19.79200 29.69100
H  53.48900 18.18700 29.93700
H  53.70400 19.56500 27.90200
H  54.13500 19.29000 26.12300
H  54.57300 18.11600 27.27400
H  48.69700 15.76700 23.85200
H  45.82300 15.76400 24.11400
H  47.90200 18.28400 24.59100
H  46.59300 17.65900 23.53500
H  48.23200 17.72600 22.92500
H  46.63100 13.09700 24.73100
H  47.88600 13.59000 23.71700
H  46.54000 13.12300 21.89800
H  45.43000 14.42000 22.35600
H  45.09500 12.85000 22.90000
H  42.78500 12.56700 27.78400
H  42.43300 14.19600 27.02800
H  41.64800 13.66500 28.47500
H  44.51900 14.83300 33.09300
H  41.50900 17.91600 33.94800
H  42.71500 17.95600 35.20700
H  41.41100 16.86400 35.29200
Mg 29.42300 58.88600 40.07800
C  26.88400 56.70200 38.78600
C  31.85200 56.40300 39.00200
C  31.83000 61.25800 40.34700
C  26.89100 61.29900 40.33900
N  29.42800 56.84200 38.88200
C  28.17300 56.14200 38.58200
C  28.56800 54.77700 37.96400
C  30.08200 54.66500 38.29700
C  30.50600 56.05200 38.76600
C  30.43700 53.61900 39.40100
C  28.30200 54.88000 36.38500
C  27.04000 54.08600 36.00500
H  26.22700 54.58800 34.80400
N  31.56100 58.80000 39.82300
C  32.33500 57.71000 39.37800
C  33.65900 58.18400 39.47500
C  33.79000 59.52200 39.99900
C  32.36300 59.94400 40.06600
C  34.74100 57.20800 38.98400
C  35.07900 60.30300 40.35900
O  36.23000 59.93800 40.11400
C  35.04800 61.63900 40.99400
N  29.33500 60.92200 40.19300
C  30.47800 61.68700 40.33000
C  30.08400 63.16700 40.57100
C  28.55700 63.24500 40.59500
C  28.22200 61.69500 40.39400
C  30.79700 63.75700 41.85500
C  27.88300 64.20200 39.59800
C  27.39900 65.61600 39.98400
N  27.34100 58.95400 39.84500
C  26.49700 59.99300 40.05400
C  25.08800 59.53300 40.00600
C  25.23600 58.27300 39.48300
C  26.55900 57.97700 39.39000
C  23.84100 60.31800 40.34200
C  24.47200 57.10400 39.02300
O  23.23300 56.96800 38.86300
C  25.51200 56.05800 38.58700
C  25.28900 54.85400 39.48600
O  25.57400 54.86900 40.67800
O  24.62600 53.85300 38.80100
C  24.31200 52.57900 39.40900
H  32.53300 55.58700 38.75000
H  32.52300 62.08600 40.51100
H  26.11500 62.04800 40.51100
H  28.04900 53.98400 38.50200
H  30.66900 54.37200 37.42700
H  31.04800 52.84900 38.93000
H  29.56600 53.04500 39.71500
H  30.95700 54.01800 40.27200
H  29.08900 54.56600 35.69800
H  28.05700 55.89500 36.07400
H  26.44600 53.86500 36.89200
H  27.33100 53.05300 35.82000
H  35.09000 56.46700 39.70300
H  35.64900 57.80100 38.87100
H  34.45700 56.63400 38.10200
H  34.61800 62.43200 40.38300
H  36.09500 61.82700 41.23600
H  34.45900 61.51000 41.90200
H  30.48500 63.75500 39.74600
H  28.25100 63.65800 41.55600
H  30.52400 63.37200 42.83800
H  30.58100 64.82400 41.80500
H  31.87300 63.64500 41.72300
H  27.09800 63.68300 39.04600
H  28.52200 64.36700 38.73100
H  27.82500 66.28400 39.23500
H  27.73900 65.79600 41.00400
H  26.31200 65.64200 39.90700
H  23.14600 59.63600 40.83200
H  23.29500 60.64600 39.45800
H  24.08900 61.13800 41.01600
H  25.34700 55.60900 37.60800
H  23.42100 52.24600 38.87600
H  24.09900 52.61500 40.47700
H  25.14800 51.91000 39.20300

