158

Mg 16.51500 -2.31200 27.46600
C  15.11900 -0.32300 30.11000
C  18.78100 -3.51700 29.78900
C  17.79000 -3.85700 24.95400
C  14.46400 -0.46200 25.26600
N  16.98100 -1.86300 29.75800
C  16.21600 -1.11200 30.62800
C  16.79000 -1.19200 32.13200
C  18.06500 -2.15200 31.89200
C  17.96500 -2.52800 30.40000
C  19.42300 -1.49100 32.40700
C  15.74600 -1.66400 33.17400
C  15.75600 -0.92500 34.46900
H  16.98200 -0.18500 34.84500
N  18.04900 -3.54700 27.40100
C  18.73900 -4.08200 28.44200
C  19.46100 -5.17600 27.99700
C  19.23000 -5.34800 26.58400
C  18.32600 -4.27300 26.27600
C  20.29200 -5.92900 29.02500
C  19.77600 -6.44300 25.64600
O  19.41200 -6.51700 24.49300
C  20.68300 -7.57600 26.21200
N  16.43200 -1.95600 25.41300
C  16.98800 -2.85500 24.54000
C  16.66700 -2.52700 23.07300
C  15.38700 -1.70600 23.19900
C  15.36200 -1.39300 24.76200
C  17.81300 -1.82300 22.28300
C  14.06900 -2.45900 22.91900
C  13.36900 -2.18300 21.55100
N  15.00100 -0.80000 27.60500
C  14.31900 -0.18000 26.60300
C  13.43200 0.81900 27.17000
C  13.66800 0.77900 28.54000
C  14.66300 -0.24800 28.77100
C  12.63200 1.79800 26.48500
C  13.36300 1.41600 29.76700
O  12.55600 2.30600 29.97600
C  14.29100 0.68500 30.88500
C  15.06100 1.64300 31.71900
O  16.21800 1.86300 31.57900
O  14.25700 2.28500 32.67600
C  14.89200 3.42500 33.39200
H  19.45200 -3.94300 30.53700
H  18.18200 -4.42600 24.10900
H  13.80900 -0.04400 24.49900
H  17.15200 -0.19300 32.37200
H  18.02300 -3.08600 32.45200
H  19.68800 -2.06900 33.29300
H  19.28200 -0.45100 32.70200
H  20.18300 -1.49700 31.62700
H  15.83800 -2.72800 33.39100
H  14.79500 -1.62300 32.64300
H  15.64400 -1.63600 35.28700
H  14.95900 -0.21300 34.25200
H  21.08000 -5.35700 29.51500
H  20.66300 -6.88300 28.65100
H  19.73900 -6.31600 29.88100
H  21.02600 -8.21500 25.39700
H  20.03900 -8.20800 26.82300
H  21.53300 -7.16700 26.75800
H  16.52900 -3.43300 22.48300
H  15.41800 -0.81700 22.57000
H  17.67800 -0.90500 21.71100
H  18.13700 -2.43200 21.43900
H  18.63900 -1.62200 22.96500
H  13.32700 -2.28400 23.69800
H  14.22200 -3.53500 23.01000
H  12.40800 -1.70800 21.74800
H  13.22900 -3.08200 20.95000
H  13.97400 -1.52500 20.92700
H  11.70400 2.11500 26.95900
H  12.28500 1.36700 25.54600
H  13.22300 2.70000 26.32500
H  13.59200 0.31000 31.63300
H  15.70300 3.93300 32.87000
H  15.44200 3.07700 34.26600
H  14.20600 4.18900 33.75900
Mg -4.54200 25.24500 26.28300
C  -3.21500 26.66600 29.23100
C  -6.50000 23.16200 28.24600
C  -5.56100 23.85300 23.50000
C  -2.30200 27.31400 24.47500
N  -4.68000 24.92500 28.48900
C  -4.18700 25.68800 29.48600
C  -4.72700 25.25600 30.84400
C  -5.62700 23.99900 30.51100
C  -5.69300 24.04400 28.97700
C  -5.28200 22.66200 31.10400
C  -5.47200 26.42800 31.54900
C  -5.48000 26.43700 33.13700
H  -4.89800 25.17200 33.95000
N  -5.78100 23.61400 25.90500
C  -6.48800 22.88800 26.84000
C  -7.33500 21.89600 26.15200
C  -7.08600 22.10200 24.77100
C  -6.12500 23.21800 24.64700
C  -8.29900 20.95100 26.86700
C  -7.71400 21.33700 23.56600
O  -7.24600 21.46000 22.45600
C  -8.79700 20.34700 23.72900
N  -4.01400 25.50500 24.31500
C  -4.52900 24.78000 23.27000
C  -3.92700 25.16400 21.91200
C  -3.00700 26.36900 22.34100
C  -3.15800 26.50900 23.82700
C  -3.16300 24.04000 21.24600
C  -3.26200 27.68200 21.61500
C  -2.21800 28.02300 20.52400
N  -3.10800 26.75500 26.68500
C  -2.27700 27.47200 25.86300
C  -1.49100 28.38900 26.60000
C  -1.80700 28.07300 27.95600
C  -2.84200 27.08600 27.96600
C  -0.38500 29.30000 26.01900
C  -1.48900 28.44200 29.33700
O  -0.68900 29.28200 29.76000
C  -2.39800 27.48700 30.24800
C  -1.47900 26.58300 30.91600
O  -0.69500 25.76400 30.34500
O  -1.69000 26.60500 32.26900
C  -0.68500 25.99300 33.15800
H  -7.12800 22.45900 28.79700
H  -5.92700 23.44200 22.55700
H  -1.66300 27.93800 23.84700
H  -3.96900 25.01600 31.59000
H  -6.65700 24.22000 30.79500
H  -5.20600 21.90100 30.32800
H  -6.02000 22.36100 31.84800
H  -4.39100 22.70900 31.73100
H  -6.52000 26.35500 31.26100
H  -5.17500 27.35900 31.06700
H  -6.49900 26.58500 33.49300
H  -4.87700 27.29400 33.44000
H  -9.25300 20.96300 26.33900
H  -8.50200 21.14300 27.92100
H  -7.82400 19.97200 26.80000
H  -8.77000 19.82100 22.77500
H  -9.72200 20.92200 23.78200
H  -8.66900 19.66000 24.56600
H  -4.79900 25.43000 21.31500
H  -1.97600 26.13600 22.07100
H  -3.54400 23.69100 20.28700
H  -2.91100 23.22300 21.92200
H  -2.20900 24.37600 20.83800
H  -3.18200 28.54000 22.28200
H  -4.24300 27.74300 21.14400
H  -2.32300 27.32900 19.69000
H  -1.18700 27.86700 20.84300
H  -2.26200 29.08900 20.29700
H  -0.59800 29.42500 24.95700
H  0.55900 28.77500 26.16600
H  -0.48700 30.30400 26.42900
H  -3.01200 28.04100 30.95900
H  -1.00100 25.05800 33.62200
H  -0.29300 26.66500 33.92100
H  0.22400 25.68900 32.64000

