158

Mg 54.67400 22.91600 45.10100
C  52.40500 25.15000 43.73700
C  52.50300 20.31600 44.04900
C  57.10800 20.69200 45.57800
C  56.78800 25.62100 45.83100
N  52.74700 22.85800 44.06700
C  51.98700 23.83600 43.59100
C  50.65000 23.36000 43.00100
C  50.52000 21.87100 43.57500
C  52.04200 21.66900 43.95900
C  49.53700 21.67200 44.78300
C  50.47000 23.47200 41.47800
C  49.08700 23.88400 40.96600
H  48.59000 23.21100 39.66600
N  54.82200 20.75200 44.84200
C  53.84800 19.92000 44.34600
C  54.34600 18.55900 44.41600
C  55.73300 18.63100 44.91800
C  55.97000 20.08700 45.13900
C  53.59500 17.40400 43.82100
C  56.59800 17.45200 45.08900
O  56.23200 16.32300 44.76400
C  58.05900 17.61900 45.42700
N  56.79200 23.15000 45.36800
C  57.51600 22.05300 45.74100
C  58.80400 22.50700 46.46900
C  58.60500 24.08800 46.70100
C  57.36600 24.34200 45.77700
C  59.25400 21.76000 47.78800
C  59.83900 24.99600 46.30300
C  60.48200 25.80800 47.45700
N  54.59800 25.05500 45.01400
C  55.51400 26.05700 45.29300
C  54.85300 27.25200 45.23200
C  53.64500 26.94100 44.60400
C  53.59400 25.59800 44.41500
C  55.25600 28.62800 45.62500
C  52.44000 27.54900 44.10100
O  52.03100 28.72000 43.97500
C  51.63100 26.41800 43.50300
C  51.56400 26.73600 42.08100
O  52.50600 26.68400 41.33900
O  50.34700 27.22100 41.75500
C  50.24500 27.53300 40.29800
H  51.78400 19.49500 44.06700
H  57.97100 20.05900 45.79400
H  57.32900 26.52200 46.12800
H  49.82900 23.92600 43.44100
H  50.22200 21.11000 42.85300
H  49.94800 21.04000 45.57100
H  48.60500 21.17000 44.52200
H  49.35700 22.65100 45.22700
H  50.66800 22.52700 40.97200
H  51.19200 24.21200 41.13500
H  48.90800 24.92300 40.68700
H  48.38300 23.68000 41.77200
H  52.78500 17.70900 43.15800
H  53.26500 16.67600 44.56300
H  54.32400 16.95400 43.14700
H  58.60700 18.19900 44.68400
H  58.52900 16.64100 45.32800
H  58.25100 17.90900 46.46000
H  59.67500 22.38800 45.82500
H  58.33000 24.31500 47.73100
H  59.40700 22.45000 48.61800
H  60.23000 21.29700 47.64900
H  58.54300 20.97100 48.03300
H  59.66100 25.69900 45.48900
H  60.63300 24.35400 45.92200
H  60.37900 26.86500 47.21300
H  61.52600 25.62100 47.71100
H  59.89900 25.65800 48.36500
H  55.36200 28.72000 46.70600
H  54.51100 29.32800 45.24600
H  56.22900 28.87600 45.20200
H  50.63200 26.43500 43.93700
H  51.02600 28.15600 39.86300
H  49.30300 27.89700 39.88700
H  50.33800 26.58400 39.76900
Mg 30.39100 58.52100 39.09900
C  27.40700 56.66500 37.77000
C  32.22600 55.81100 37.93500
C  33.09900 60.33800 39.22000
C  28.35500 61.35400 39.23800
N  29.76500 56.36100 38.28300
C  28.59400 55.91000 37.82900
C  28.77300 54.52700 37.19000
C  30.26800 54.19900 37.50300
C  30.82000 55.49100 38.02000
C  30.48100 53.08600 38.52700
C  28.43300 54.50300 35.66800
C  27.62200 53.25000 35.21900
H  26.88300 53.39500 33.91800
N  32.38500 58.05300 38.75500
C  32.92600 56.90100 38.31600
C  34.41100 56.95800 38.25500
C  34.65100 58.37200 38.51800
C  33.35000 58.99700 38.85600
C  35.36600 55.87700 37.91900
C  36.01900 59.02500 38.57300
O  36.95500 58.35900 38.08100
C  36.35600 60.45700 39.02900
N  30.67500 60.50200 39.07100
C  31.87200 61.05000 39.26300
C  31.81000 62.51600 39.75700
C  30.32300 62.82900 39.65000
C  29.72500 61.47700 39.30500
C  32.35500 62.80200 41.16700
C  30.00100 63.98200 38.63700
C  28.89400 64.98100 39.00200
N  28.25500 58.91200 38.79200
C  27.69300 60.12700 38.83400
C  26.29900 59.99600 38.46000
C  26.11300 58.69000 37.93700
C  27.30100 58.00100 38.22100
C  25.37600 61.14800 38.39300
C  25.29300 57.73200 37.28000
O  24.16000 57.95600 36.79000
C  26.08600 56.37800 37.18600
C  25.45100 55.25500 37.99800
O  25.43900 55.07900 39.21200
O  25.03700 54.34100 37.04300
C  24.74600 53.03900 37.67600
H  32.71000 54.84400 37.78100
H  33.96100 60.97100 39.44200
H  27.71900 62.22800 39.39700
H  28.10500 53.82900 37.69500
H  30.83200 53.95200 36.60400
H  30.45300 52.10100 38.06200
H  29.73500 53.17200 39.31700
H  31.52000 53.18600 38.83900
H  29.39900 54.45300 35.16500
H  27.98600 55.45400 35.37900
H  26.78300 53.04100 35.88300
H  28.35800 52.45700 35.08200
H  35.37900 55.66000 36.85100
H  34.90900 54.96800 38.31100
H  36.39500 56.03300 38.24300
H  37.44000 60.56700 39.08100
H  35.90900 60.76100 39.97600
H  36.02800 61.18500 38.28800
H  32.34800 63.18300 39.08300
H  29.89700 63.07000 40.62400
H  32.52700 61.86000 41.68600
H  31.79100 63.57200 41.69300
H  33.32200 63.24800 40.93500
H  29.86800 63.54400 37.64800
H  30.87000 64.63600 38.55700
H  28.37700 64.45900 39.80700
H  28.38900 65.25700 38.07700
H  29.20300 65.96900 39.34300
H  25.28600 61.54000 37.38000
H  25.59200 62.00800 39.02700
H  24.35000 60.81600 38.55100
H  26.12100 56.13900 36.12300
H  24.30600 52.35300 36.95200
H  24.04700 53.10000 38.51000
H  25.61200 52.58100 38.15500

