158

Mg -1.13800 17.28100 26.07400
C  -1.58200 15.02900 28.66600
C  -1.88800 19.84200 28.25000
C  -0.86500 19.32500 23.45800
C  -1.15400 14.58300 23.82400
N  -1.52500 17.40100 28.27100
C  -1.50900 16.37900 29.15100
C  -1.74400 16.93800 30.57900
C  -1.99000 18.42800 30.36100
C  -1.78400 18.59000 28.92000
C  -3.23300 19.22800 30.99900
C  -0.70100 16.38800 31.66900
C  -0.36600 17.27500 32.82000
H  -0.43100 16.61700 34.24700
N  -1.31600 19.34300 25.87500
C  -1.69500 20.16700 26.88000
C  -1.82900 21.51700 26.24400
C  -1.41000 21.43400 24.88700
C  -1.18300 19.98100 24.67300
C  -2.25800 22.82300 27.05600
C  -1.38600 22.50700 23.86300
O  -1.28600 22.30800 22.65500
C  -1.53800 23.90100 24.23900
N  -1.03800 16.97100 23.92600
C  -0.80800 18.01600 23.02600
C  -0.52100 17.48400 21.61400
C  -0.54300 15.93400 21.86400
C  -1.03400 15.83200 23.26400
C  -1.57500 17.97900 20.43600
C  0.91200 15.32800 21.62800
C  2.10000 15.69400 22.57700
N  -1.29900 15.19000 26.17000
C  -1.33400 14.24800 25.18800
C  -1.47100 12.94000 25.86000
C  -1.47700 13.19000 27.26800
C  -1.47700 14.61600 27.35800
C  -1.61800 11.65400 25.17900
C  -1.65900 12.51200 28.53200
O  -1.85200 11.38500 28.84500
C  -1.63800 13.70700 29.55200
C  -0.50100 13.49600 30.43300
O  0.64600 13.73000 30.18300
O  -1.02900 12.93400 31.59200
C  0.12000 12.79600 32.60900
H  -2.00700 20.62900 28.99700
H  -0.65400 19.92300 22.56900
H  -1.15200 13.69200 23.19300
H  -2.72000 16.53300 30.84500
H  -1.08200 18.97500 30.61500
H  -3.62900 18.60900 31.80400
H  -4.08200 19.51500 30.37900
H  -2.95300 20.19700 31.41200
H  0.14900 16.14200 31.03300
H  -1.20000 15.50300 32.06300
H  -1.04700 18.12000 32.91600
H  0.65500 17.65400 32.76700
H  -1.33900 23.25400 27.45200
H  -2.79800 22.50000 27.94700
H  -2.83200 23.55600 26.48900
H  -2.59300 24.01300 24.48900
H  -1.33900 24.64700 23.47000
H  -0.91300 24.11200 25.10700
H  0.46500 17.84200 21.31600
H  -1.23400 15.45000 21.17400
H  -2.21000 18.69500 20.95800
H  -2.33700 17.30800 20.03900
H  -1.06600 18.56600 19.67200
H  1.02100 15.48400 20.55500
H  0.73600 14.25200 21.63700
H  2.84000 16.15500 21.92200
H  2.54000 14.77700 22.97100
H  1.78200 16.48000 23.26100
H  -1.39500 11.83300 24.12700
H  -2.65500 11.32000 25.21200
H  -0.99100 10.88000 25.62100
H  -2.52400 13.77200 30.18400
H  0.61300 13.71600 32.92200
H  0.93900 12.11900 32.36400
H  -0.31700 12.30400 33.47800
Mg 9.12800 47.35600 28.17300
C  7.25800 46.98500 31.15300
C  11.96400 47.99700 30.19400
C  10.87300 48.19200 25.45000
C  6.03600 47.92400 26.36000
N  9.51000 47.49300 30.35700
C  8.64200 47.13100 31.40600
C  9.31300 47.29800 32.78000
C  10.69400 47.88800 32.38600
C  10.73200 47.74400 30.85600
C  10.75900 49.42600 32.72300
C  9.49800 46.01400 33.65800
C  9.23400 46.19300 35.11400
H  9.63300 45.13300 36.11100
N  11.21400 47.78200 27.85000
C  12.20400 47.93000 28.78400
C  13.41900 48.06200 28.06000
C  13.14200 48.10000 26.67900
C  11.67100 48.02200 26.56600
C  14.73600 48.19600 28.71400
C  14.12000 48.05000 25.42600
O  13.69700 47.78500 24.29300
C  15.66900 48.24800 25.61200
N  8.54500 48.01500 26.29700
C  9.46900 48.32400 25.38700
C  8.87600 48.56500 24.00800
C  7.30000 48.22800 24.20000
C  7.25800 48.09300 25.71400
C  9.18700 49.90500 23.28900
C  6.70700 47.01500 23.35700
C  6.10400 47.32800 21.96600
N  7.09000 47.37700 28.60400
C  5.96100 47.57700 27.76000
C  4.73900 47.36600 28.54300
C  5.21700 47.10200 29.86700
C  6.59200 47.13200 29.85400
C  3.42600 47.38500 28.01300
C  4.81300 46.79200 31.25800
O  3.65000 46.55700 31.66900
C  6.13100 46.63100 32.13400
C  6.08000 45.29700 32.63200
O  6.56600 44.31800 32.06600
O  5.49500 45.19000 33.88700
C  5.78100 43.94000 34.54700
H  12.88100 48.04200 30.78500
H  11.31900 48.40900 24.47700
H  5.14200 48.05500 25.74600
H  8.71600 48.03100 33.32200
H  11.54100 47.36600 32.83200
H  9.90900 49.95300 33.15700
H  10.99800 49.96800 31.80900
H  11.61000 49.73200 33.33200
H  10.52400 45.66800 33.53500
H  8.96900 45.23800 33.10400
H  8.14800 46.28300 35.10700
H  9.59600 47.21500 35.22400
H  15.22600 49.01700 28.19100
H  15.42800 47.37200 28.54000
H  14.61000 48.34600 29.78600
H  15.87800 49.22500 26.04700
H  16.05400 48.35300 24.59700
H  16.09200 47.41100 26.16700
H  9.27500 47.85300 23.28600
H  6.74500 49.11000 23.88100
H  10.19300 50.19400 23.59500
H  8.48700 50.70500 23.52900
H  9.17400 49.96000 22.20100
H  6.01600 46.40600 23.94000
H  7.54500 46.39500 23.04100
H  6.31400 48.30100 21.52400
H  5.02200 47.26400 21.85100
H  6.56600 46.58700 21.31300
H  2.97800 46.51300 28.49000
H  3.36900 47.19800 26.94100
H  2.96900 48.32400 28.32600
H  6.19200 47.30500 32.98800
H  6.75300 43.89600 35.03900
H  5.72300 43.08500 33.87300
H  4.93100 43.77500 35.20900

