158

Mg 16.65300 51.82600 26.81400
C  18.84800 50.74600 29.32900
C  14.52700 52.87700 29.38900
C  14.65600 53.06300 24.57600
C  18.90300 50.75300 24.45200
N  16.65900 51.75000 29.12800
C  17.68200 51.30700 29.88600
C  17.40600 51.53000 31.32600
C  15.85800 51.92600 31.36200
C  15.59900 52.20100 29.86100
C  14.88600 50.90500 31.95400
C  18.35500 52.66500 31.86300
C  18.26100 53.04100 33.42600
H  17.38200 52.10100 34.30500
N  14.77400 52.71000 26.94600
C  14.19000 53.23100 28.08200
C  13.09600 54.03800 27.67300
C  13.07400 54.14800 26.26000
C  14.22200 53.29700 25.86100
C  12.13400 54.66600 28.71600
C  12.18800 54.86100 25.32300
O  12.29600 54.82400 24.10200
C  11.13100 55.78700 25.96000
N  16.75100 51.72000 24.82500
C  15.71800 52.30700 24.01000
C  15.88100 51.92600 22.49200
C  17.42800 51.64700 22.52300
C  17.69300 51.28400 23.98800
C  15.09100 50.65800 21.98200
C  18.23400 52.91500 21.93300
C  19.47500 52.58200 21.04700
N  18.52600 50.89600 26.75500
C  19.27600 50.48600 25.72400
C  20.52200 49.91500 26.17800
C  20.33700 49.92600 27.56600
C  19.11000 50.55500 27.90100
C  21.62500 49.45500 25.33600
C  20.98700 49.68900 28.86200
O  22.10500 49.23600 29.17800
C  20.00400 50.15000 30.00300
C  19.66300 48.93800 30.82600
O  19.14500 47.92800 30.37300
O  20.06300 49.09600 32.17200
C  19.59900 48.08700 33.15800
H  13.89300 53.20300 30.21600
H  13.97700 53.37700 23.78100
H  19.58800 50.45800 23.65400
H  17.48300 50.62900 31.93500
H  15.83900 52.91700 31.81500
H  14.21300 51.44000 32.62400
H  15.40900 50.07800 32.43400
H  14.28700 50.48300 31.14700
H  18.10900 53.55400 31.28200
H  19.39400 52.40600 31.66500
H  17.95500 54.07800 33.56200
H  19.31600 53.18900 33.65600
H  11.33500 53.95700 28.93500
H  11.75900 55.64900 28.43300
H  12.59100 54.77400 29.69900
H  11.57900 56.65200 26.45000
H  10.49500 55.20100 26.62400
H  10.48800 55.99600 25.10500
H  15.74200 52.68200 21.71900
H  17.76500 50.77000 21.96900
H  14.26000 50.45700 22.65800
H  15.64300 49.72100 22.04900
H  14.78600 50.82500 20.94800
H  18.57300 53.46100 22.81300
H  17.55700 53.67100 21.53500
H  19.24900 52.86600 20.01900
H  19.71300 51.51800 21.02800
H  20.35600 53.01900 21.51700
H  21.98300 50.14900 24.57600
H  21.41900 48.53600 24.78700
H  22.42400 49.18700 26.02700
H  20.64700 50.77000 30.62800
H  18.89400 47.34200 32.79000
H  19.01100 48.65600 33.87800
H  20.48300 47.62000 33.59100
Mg -6.20600 25.71000 26.15100
C  -4.35200 27.09400 28.63800
C  -7.56800 23.41300 28.35400
C  -7.66000 24.11300 23.52500
C  -4.24000 27.52100 23.78800
N  -5.87900 25.25100 28.23900
C  -5.22700 26.07400 29.09800
C  -5.65400 25.84500 30.59500
C  -6.25400 24.44000 30.40500
C  -6.62200 24.36300 28.92100
C  -5.48900 23.17500 30.87400
C  -6.63100 26.99600 31.30200
C  -7.63000 26.59300 32.42200
H  -7.13900 25.56200 33.47200
N  -7.67600 24.15400 26.02200
C  -8.07500 23.31000 27.05100
C  -9.10200 22.40800 26.54900
C  -9.22700 22.68700 25.15400
C  -8.14400 23.66400 24.83500
C  -9.81700 21.39800 27.52300
C  -10.21300 22.07300 24.14200
O  -10.16400 22.45800 22.97400
C  -11.28800 20.98700 24.55200
N  -5.89500 25.71600 23.93200
C  -6.61500 24.94800 23.09800
C  -6.14000 25.14100 21.66100
C  -5.01700 26.29900 21.73300
C  -5.02600 26.51100 23.22500
C  -5.65400 23.88000 20.91400
C  -5.46000 27.62300 20.98500
C  -4.34500 28.24200 20.15700
N  -4.64700 27.05100 26.19100
C  -4.04900 27.77300 25.12600
C  -3.12300 28.75700 25.74200
C  -3.31900 28.53300 27.10900
C  -4.13300 27.42900 27.31600
C  -2.22000 29.78200 25.13400
C  -3.08800 29.11500 28.44200
O  -2.47300 30.11000 28.79700
C  -3.74800 28.23500 29.50800
C  -2.75400 27.77600 30.50200
O  -1.71900 27.09600 30.35500
O  -3.20700 28.15100 31.67100
C  -2.44500 27.60400 32.84800
H  -8.01000 22.79100 29.13500
H  -8.22500 23.78200 22.65100
H  -3.59000 28.01600 23.06400
H  -4.84300 25.85700 31.32300
H  -7.19300 24.37800 30.95500
H  -5.93500 22.75000 31.77300
H  -4.51700 23.57000 31.17100
H  -5.47100 22.48100 30.03300
H  -7.19900 27.31500 30.42800
H  -6.05400 27.75600 31.82900
H  -8.39100 26.03600 31.87500
H  -8.11400 27.47200 32.84900
H  -10.83800 21.63200 27.82600
H  -9.25300 21.20400 28.43500
H  -9.91600 20.41800 27.05700
H  -10.95000 19.98700 24.82400
H  -11.89100 20.82600 23.65900
H  -11.88300 21.51500 25.29700
H  -6.99100 25.48000 21.07000
H  -4.05400 25.90400 21.40900
H  -4.73500 24.07600 20.36300
H  -6.36700 23.50100 20.18200
H  -5.39500 23.05100 21.57300
H  -5.58600 28.45800 21.67300
H  -6.39200 27.46100 20.44200
H  -4.74800 28.28600 19.14500
H  -3.41500 27.67600 20.20400
H  -4.05600 29.21600 20.55300
H  -1.20900 29.37800 25.18500
H  -2.33700 30.69300 25.72100
H  -2.48400 29.86000 24.07900
H  -4.51800 28.85000 29.97500
H  -2.17900 26.55000 32.76000
H  -3.22100 27.56600 33.61300
H  -1.74000 28.29900 33.30200

