158

Mg 52.89700 23.58400 44.97100
C  50.11400 25.60600 44.26700
C  51.13800 20.98400 43.59300
C  55.64800 21.71500 45.04100
C  54.64100 26.51100 45.83400
N  50.97800 23.45700 43.78900
C  50.01400 24.37300 43.57500
C  48.90500 23.81000 42.62200
C  49.08900 22.24200 42.87200
C  50.50100 22.18700 43.43300
C  48.15300 21.60200 43.96900
C  49.02300 24.25700 41.20100
C  47.78600 24.61600 40.41000
H  47.30100 23.56200 39.45900
N  53.34300 21.52200 44.59500
C  52.50200 20.62700 44.02400
C  53.05200 19.32300 43.94500
C  54.35200 19.43300 44.46000
C  54.50600 20.91700 44.83000
C  52.29500 18.17300 43.29300
C  55.40100 18.37600 44.64200
O  55.17100 17.17600 44.42200
C  56.80100 18.55200 45.25900
N  54.86600 24.12000 45.22500
C  55.80400 23.11000 45.28600
C  57.18200 23.76200 45.56600
C  56.87000 25.25500 45.83000
C  55.36300 25.35400 45.55000
C  58.04400 23.09900 46.75900
C  57.67600 26.21800 44.99100
C  58.38200 27.41000 45.69800
N  52.51000 25.69000 45.14000
C  53.35800 26.75200 45.56300
C  52.44500 27.89000 45.82000
C  51.15700 27.46600 45.34400
C  51.25600 26.15100 44.89100
C  52.80500 29.16900 46.48600
C  49.77500 27.84900 45.14200
O  49.22600 28.86400 45.49900
C  49.01200 26.64700 44.42300
C  48.45500 27.18300 43.15700
O  49.09700 27.57000 42.20200
O  47.10100 27.31300 43.32200
C  46.44800 28.04800 42.21600
H  50.49100 20.15700 43.29200
H  56.53300 21.07600 45.00300
H  55.33900 27.26400 46.20500
H  47.92100 24.06900 43.01400
H  49.00600 21.68000 41.94200
H  47.49100 22.36800 44.37400
H  48.72200 21.12200 44.76400
H  47.54000 20.81000 43.53900
H  49.47900 23.46000 40.61400
H  49.69900 25.11000 41.26400
H  47.94400 25.54900 39.86800
H  47.00700 24.83400 41.14000
H  52.30400 18.30200 42.21100
H  51.27800 18.14200 43.68300
H  52.77400 17.24200 43.59500
H  57.10700 17.56000 45.59100
H  56.86100 19.19900 46.13400
H  57.51100 18.80700 44.47200
H  57.66300 23.62700 44.59700
H  57.00800 25.40600 46.90000
H  58.79900 22.40100 46.39600
H  57.30800 22.53200 47.32800
H  58.44200 23.73400 47.55100
H  57.04800 26.57100 44.17400
H  58.51400 25.72900 44.49400
H  58.00900 28.35600 45.30700
H  59.47200 27.39700 45.68100
H  58.01600 27.43600 46.72500
H  52.67300 29.91300 45.70000
H  53.86000 29.04400 46.72800
H  52.18500 29.47500 47.32900
H  48.14900 26.29300 44.98600
H  46.95800 28.97700 41.96100
H  45.44800 28.41000 42.45600
H  46.41100 27.30700 41.41800
Mg 47.04100 44.78500 43.31700
C  43.60800 44.03700 42.98700
C  47.82200 41.51700 42.54600
C  50.32200 45.61600 43.22800
C  46.26800 48.15700 43.62700
N  45.73000 43.01900 42.49600
C  44.37500 42.85000 42.70500
C  43.87700 41.40700 42.68500
C  45.25400 40.61700 42.46600
C  46.41500 41.78000 42.53000
C  45.57100 39.58000 43.58000
C  42.92700 41.29100 41.43900
C  43.26900 41.93100 40.03100
H  43.15500 41.22200 38.70200
N  48.82900 43.73900 43.00700
C  48.91400 42.38200 42.73400
C  50.29300 41.97800 42.61400
C  51.09400 43.16500 42.78900
C  50.09900 44.25200 43.02500
C  50.82300 40.56000 42.35000
C  52.60700 43.18000 42.87100
O  53.28900 42.18900 42.73200
C  53.32800 44.44100 43.10400
N  48.15300 46.67100 43.27800
C  49.45100 46.70300 43.30100
C  49.94400 48.20000 43.46900
C  48.62900 49.05700 43.49400
C  47.58100 47.91800 43.41800
C  50.79900 48.42900 44.76300
C  48.44800 50.14800 42.39200
C  47.60800 51.28300 42.79800
N  45.33300 45.91300 43.31500
C  45.16900 47.28700 43.47400
C  43.79000 47.62900 43.52700
C  43.18900 46.34200 43.40600
C  44.12300 45.35200 43.19300
C  43.12200 48.99900 43.78800
C  41.92500 45.69400 43.37600
O  40.82800 46.12100 43.73700
C  42.19800 44.22300 43.11700
C  41.50400 43.41600 44.19500
O  40.53000 42.69200 44.07000
O  42.19200 43.51500 45.36400
C  41.89500 42.68400 46.52700
H  47.96600 40.45300 42.34800
H  51.33800 45.95300 43.44600
H  46.00600 49.19900 43.82100
H  43.38700 41.13000 43.61900
H  45.34100 40.21800 41.45500
H  46.35000 39.83200 44.29900
H  45.83200 38.62300 43.12700
H  44.75200 39.27900 44.23400
H  41.89400 41.44100 41.75300
H  42.96000 40.22400 41.21600
H  44.30600 42.25200 39.93000
H  42.66200 42.83300 39.94800
H  50.83800 40.42200 41.26900
H  49.94500 39.97900 42.63000
H  51.75500 40.13300 42.72100
H  53.02600 45.17400 42.35600
H  54.35500 44.33300 42.75500
H  53.30900 44.70500 44.16200
H  50.60400 48.44900 42.63800
H  48.59400 49.65700 44.40300
H  51.07900 49.47900 44.68200
H  51.68300 47.80100 44.65500
H  50.24200 48.17700 45.66500
H  47.96900 49.68700 41.52800
H  49.38800 50.49400 41.96200
H  48.11500 52.17900 42.44100
H  47.56000 51.51400 43.86200
H  46.61800 51.27600 42.34100
H  42.25600 48.89400 44.44100
H  42.88300 49.55100 42.87900
H  43.83100 49.60500 44.35200
H  41.78500 43.94400 42.14700
H  40.88500 42.29100 46.41100
H  42.01600 43.23000 47.46300
H  42.66900 41.91600 46.51800

