158

Mg 1.34200 -1.58900 43.52400
C  4.71700 -0.92700 42.90200
C  0.56500 1.03400 41.58500
C  -1.85800 -2.63500 43.58100
C  2.30300 -4.62000 44.91700
N  2.54100 -0.24500 42.26100
C  3.92400 -0.11100 42.14200
C  4.37900 1.00800 41.17600
C  3.03000 1.77100 41.03000
C  1.92100 0.77500 41.65800
C  2.85800 3.23300 41.69400
C  4.88600 0.41400 39.87200
C  6.27200 0.88500 39.28700
H  6.42000 0.96600 37.78900
N  -0.42800 -0.81200 42.72900
C  -0.56100 0.28400 42.01300
C  -1.94200 0.54100 41.77000
C  -2.67900 -0.48500 42.28800
C  -1.67700 -1.37500 43.02400
C  -2.34400 1.70400 40.86300
C  -4.17800 -0.68100 42.13700
O  -4.88900 -0.01100 41.38500
C  -4.98700 -1.77600 42.89600
N  0.35500 -3.39100 44.14500
C  -0.95700 -3.55600 44.09700
C  -1.37700 -4.98400 44.55300
C  -0.07500 -5.64200 44.92700
C  0.91300 -4.48700 44.61900
C  -2.64200 -5.16500 45.52300
C  0.14600 -7.09800 44.52900
C  -0.67300 -8.17600 45.19200
N  3.10100 -2.54700 44.02500
C  3.34700 -3.78600 44.63900
C  4.78400 -3.99800 44.84500
C  5.36400 -2.87500 44.23800
C  4.31500 -1.99700 43.80100
C  5.47400 -5.18500 45.49200
C  6.65800 -2.20600 43.88600
O  7.79500 -2.45600 44.30700
C  6.27900 -1.00000 42.99300
C  7.10000 0.21900 43.39400
O  7.86700 0.76700 42.61700
O  7.17300 0.42400 44.82300
C  8.11800 1.50500 45.20400
H  0.37200 1.90400 40.95300
H  -2.87400 -3.01600 43.46200
H  2.57800 -5.54900 45.42200
H  5.09700 1.63600 41.70300
H  2.76200 1.87500 39.97800
H  3.61400 3.48400 42.43800
H  1.90500 3.38000 42.20100
H  3.00400 4.05000 40.98700
H  4.17500 0.54200 39.05600
H  5.00100 -0.66000 40.01300
H  7.05600 0.21600 39.64400
H  6.40200 1.91100 39.62900
H  -1.86900 1.50600 39.90200
H  -1.96100 2.61400 41.32400
H  -3.43200 1.77000 40.85400
H  -6.01800 -1.45200 43.04100
H  -4.60000 -2.02600 43.88400
H  -4.86500 -2.71900 42.36400
H  -1.77800 -5.49900 43.68000
H  -0.01300 -5.77500 46.00700
H  -2.92400 -4.15600 45.82300
H  -2.11600 -5.68900 46.32100
H  -3.45600 -5.68900 45.02100
H  1.21400 -7.23500 44.69600
H  0.05500 -7.20800 43.44800
H  -1.24000 -8.72400 44.43800
H  -1.22300 -7.88200 46.08600
H  0.12800 -8.88100 45.41300
H  6.43000 -4.95500 45.96200
H  5.55600 -5.97000 44.74000
H  4.90200 -5.59000 46.32700
H  6.67300 -1.31000 42.02500
H  7.75800 2.51200 44.99600
H  9.06400 1.48200 44.66300
H  8.34100 1.43500 46.26900
Mg 44.09600 4.01900 47.61700
C  41.64000 6.65900 47.12800
C  41.40700 1.80900 47.37300
C  46.27800 1.47200 47.41100
C  46.56500 6.32100 46.96000
N  41.75400 4.29000 47.29000
C  41.03800 5.46400 47.09600
C  39.55300 5.13100 46.89700
C  39.54000 3.56900 47.15200
C  41.02800 3.14700 47.28300
C  38.70300 3.11900 48.34900
C  39.09700 5.57400 45.49800
C  37.82100 6.44000 45.36200
H  37.88200 7.75200 44.43900
N  43.92300 1.87500 47.50800
C  42.72600 1.26800 47.41800
C  42.99600 -0.14600 47.45900
C  44.43400 -0.35600 47.54200
C  44.95500 0.99100 47.53500
C  41.97000 -1.28700 47.41900
C  45.13200 -1.71200 47.77200
O  44.48000 -2.74700 47.89400
C  46.62300 -1.75900 47.84300
N  46.07200 3.96100 47.23100
C  46.78600 2.79600 47.30900
C  48.32500 3.09300 47.24100
C  48.38700 4.63900 46.99300
C  46.90000 4.97500 46.98400
C  49.19600 2.54100 48.49700
C  49.18400 5.11600 45.78100
C  50.35500 4.31100 45.27600
N  44.17200 6.13500 47.25200
C  45.27500 6.86800 47.07300
C  44.87000 8.32700 47.01900
C  43.44300 8.25500 47.10900
C  43.04600 6.93600 47.12300
C  45.73700 9.55800 46.87600
C  42.23500 9.02700 47.07500
O  42.12700 10.24200 46.87000
C  41.01400 8.02200 47.02100
C  40.06500 8.27300 48.13900
O  39.98000 7.58800 49.18200
O  39.21600 9.23500 47.82500
C  38.09200 9.50500 48.73400
H  40.63600 1.06100 47.18100
H  47.07200 0.72600 47.34100
H  47.37900 7.04800 46.90900
H  38.80000 5.54200 47.57000
H  39.18700 3.05700 46.25700
H  37.68700 3.48400 48.19800
H  39.09400 3.56400 49.26400
H  38.57300 2.05400 48.53900
H  38.95700 4.63900 44.95700
H  39.87200 6.08900 44.93000
H  37.52700 6.79900 46.34900
H  37.01400 5.84400 44.93700
H  40.96900 -0.85600 47.45000
H  42.00000 -1.91900 48.30600
H  42.02000 -1.89000 46.51200
H  47.03500 -1.24800 46.97300
H  46.88400 -2.81800 47.82300
H  47.05700 -1.35200 48.75600
H  48.71400 2.56500 46.37000
H  48.71500 5.08900 47.93000
H  49.83900 1.73300 48.14900
H  48.65300 1.97200 49.25100
H  49.62900 3.44700 48.92200
H  49.44500 6.12700 46.09600
H  48.55400 5.14900 44.89200
H  51.24400 4.93600 45.35900
H  50.18000 4.00900 44.24300
H  50.43000 3.35800 45.80000
H  46.19500 9.95500 47.78200
H  45.13000 10.35700 46.45000
H  46.53200 9.37600 46.15300
H  40.41400 8.22600 46.13400
H  38.37600 9.34000 49.77400
H  37.31600 8.79200 48.45900
H  37.74700 10.53500 48.64900

