158

Mg 16.95500 -0.88900 28.66200
C  15.70500 0.86000 31.48800
C  19.04600 -2.54300 30.80700
C  18.57800 -2.04700 26.01000
C  14.86100 0.98200 26.73300
N  17.31400 -0.88600 30.89900
C  16.66600 -0.13200 31.83700
C  17.05300 -0.53700 33.27600
C  18.40100 -1.35300 32.96800
C  18.19800 -1.70500 31.47600
C  19.81000 -0.68500 33.29600
C  15.87600 -1.22800 34.06200
C  15.69600 -0.93800 35.58000
H  16.94600 -0.49000 36.32000
N  18.53800 -2.24500 28.45000
C  19.20900 -2.89600 29.45100
C  20.13600 -3.90400 28.87000
C  19.87200 -3.83000 27.43400
C  19.01300 -2.62600 27.25000
C  20.88300 -4.93800 29.70400
C  20.36000 -4.77000 26.36000
O  20.17700 -4.67500 25.15400
C  21.13500 -6.01600 26.69400
N  16.78900 -0.51300 26.68400
C  17.58800 -1.12100 25.71100
C  17.18400 -0.76200 24.33800
C  15.99900 0.26200 24.63000
C  15.76200 0.21900 26.09000
C  18.33300 -0.18900 23.51700
C  14.68800 0.01300 23.74100
C  13.65700 -1.02400 24.18600
N  15.61900 0.68500 28.97700
C  14.75100 1.25000 28.07600
C  13.76800 2.12000 28.71800
C  14.12300 1.93400 30.08700
C  15.23700 1.09600 30.20600
C  12.60700 2.79000 28.11400
C  13.75500 2.37300 31.35100
O  12.90300 3.15700 31.74900
C  14.81600 1.73100 32.32400
C  15.65000 2.76100 33.04900
O  16.36700 3.62900 32.49400
O  15.59700 2.62800 34.46200
C  16.52300 3.52400 35.23900
H  19.57600 -3.17300 31.52600
H  18.95300 -2.46600 25.07400
H  14.11900 1.46100 26.09000
H  17.28100 0.44500 33.69100
H  18.45600 -2.31100 33.48400
H  19.64900 0.09300 34.04300
H  20.10500 -0.27700 32.32900
H  20.57800 -1.35400 33.68300
H  16.13900 -2.28600 34.06700
H  15.02600 -1.01900 33.41300
H  15.42400 -1.88400 36.05000
H  14.79700 -0.36100 35.79600
H  21.87800 -5.09200 29.28700
H  20.30200 -5.86000 29.67100
H  21.05300 -4.59500 30.72500
H  21.47500 -6.52900 25.79500
H  20.41100 -6.63200 27.22700
H  22.03300 -5.64600 27.18800
H  16.87900 -1.70200 23.87900
H  16.28100 1.28800 24.39400
H  17.92800 -0.09500 22.50900
H  19.16000 -0.89500 23.58700
H  18.53200 0.77700 23.98200
H  14.82800 -0.23200 22.68800
H  14.20500 0.98600 23.64900
H  12.75500 -0.55900 24.58300
H  14.01400 -1.60200 25.03900
H  13.55800 -1.72200 23.35500
H  11.96900 3.22500 28.88300
H  12.15900 2.06600 27.43400
H  12.90000 3.60500 27.45200
H  14.18300 1.13700 32.98300
H  16.71400 3.16700 36.25100
H  16.23200 4.57500 35.25600
H  17.49400 3.39000 34.76100
Mg 24.91300 1.46700 29.62300
C  27.22500 1.09500 32.29100
C  22.49800 2.00500 32.01300
C  22.80200 1.72600 27.08700
C  27.47900 0.45600 27.41500
N  24.83100 1.57800 31.85600
C  25.91400 1.46800 32.72600
C  25.50000 1.66300 34.25500
C  23.96800 1.73200 34.10300
C  23.69700 1.73900 32.62600
C  23.13200 0.63400 34.88000
C  26.17700 2.94700 34.82100
C  26.86300 2.82000 36.19000
H  26.60400 3.89600 37.29700
N  22.91300 1.80400 29.55700
C  22.03900 1.93100 30.67100
C  20.71800 2.04500 30.08200
C  20.81700 1.93200 28.62800
C  22.23500 1.79900 28.38300
C  19.48800 2.34800 30.95500
C  19.68300 2.08900 27.54800
O  19.86300 1.88500 26.35900
C  18.33500 2.31800 28.09300
N  25.03000 1.01300 27.53300
C  24.06000 1.30600 26.68300
C  24.58200 1.24800 25.18600
C  26.12100 0.97600 25.31600
C  26.22800 0.79100 26.84500
C  23.75700 0.13200 24.38000
C  26.91900 2.19000 24.91900
C  28.38900 1.98300 24.65000
N  26.87500 0.88700 29.72400
C  27.75500 0.47300 28.77900
C  29.04900 0.22300 29.37600
C  28.85800 0.42200 30.77000
C  27.53100 0.84300 30.94600
C  30.30600 -0.21700 28.60000
C  29.57300 0.47000 32.07400
O  30.73400 0.27600 32.36800
C  28.52000 1.00000 33.12700
C  28.52400 0.31300 34.39500
O  27.87400 -0.73100 34.61600
O  29.29100 0.88500 35.31100
C  29.25200 0.19400 36.66600
H  21.63700 2.11600 32.67600
H  22.14000 1.78000 26.22000
H  28.34800 0.16100 26.82400
H  25.81900 0.78400 34.81400
H  23.51200 2.67700 34.39700
H  22.34000 0.19200 34.27600
H  22.60800 1.04900 35.74100
H  23.84800 -0.15800 35.09600
H  25.57500 3.85200 34.89900
H  26.98100 3.09300 34.10000
H  27.94800 2.81100 36.08700
H  26.58700 1.83100 36.55400
H  19.90100 2.54200 31.94500
H  18.87400 1.45200 30.86600
H  18.99300 3.27200 30.65700
H  18.40600 3.27000 28.61800
H  18.16900 1.44400 28.72300
H  17.59200 2.34000 27.29500
H  24.39700 2.23100 24.75400
H  26.52700 0.05200 24.90600
H  23.41200 0.52800 23.42500
H  22.82900 -0.19700 24.84600
H  24.35400 -0.75100 24.15400
H  26.95700 2.99800 25.65000
H  26.44100 2.51800 23.99600
H  28.90900 2.48100 25.46900
H  28.73900 2.48000 23.74500
H  28.53500 0.90800 24.55000
H  31.17600 -0.41700 29.22600
H  30.53500 0.43300 27.75600
H  30.09100 -1.19200 28.16200
H  28.88400 2.00000 33.36500
H  30.20300 -0.26700 36.93400
H  28.48500 -0.54500 36.89900
H  29.00400 0.83800 37.51000

