158

Mg -2.18500 17.38000 26.84700
C  -2.93400 15.22700 29.46000
C  -2.80300 19.99900 29.03300
C  -1.99300 19.47000 24.16000
C  -1.87500 14.64800 24.75400
N  -2.73400 17.54500 29.04100
C  -2.97500 16.57900 29.96700
C  -3.07900 17.13000 31.45000
C  -2.97200 18.66400 31.15500
C  -2.86600 18.72800 29.64300
C  -3.99800 19.60300 31.81900
C  -2.10800 16.46500 32.39200
C  -1.33500 17.25700 33.40400
H  -1.01700 16.57900 34.82500
N  -2.25100 19.43700 26.61900
C  -2.50800 20.35500 27.66000
C  -2.39200 21.63600 27.16800
C  -2.09400 21.52400 25.76300
C  -2.13800 20.07000 25.40000
C  -2.71800 22.83500 28.05600
C  -1.79200 22.59100 24.66000
O  -1.40600 22.38100 23.51800
C  -1.65500 23.97400 25.09500
N  -2.20600 17.10600 24.76200
C  -2.11400 18.10700 23.82600
C  -1.89200 17.53600 22.39300
C  -1.53600 16.07900 22.70800
C  -1.94200 15.87700 24.20400
C  -3.17600 17.76500 21.55900
C  -0.03300 15.72300 22.57600
C  0.87500 16.48100 23.59600
N  -2.33200 15.34100 26.98200
C  -2.15000 14.31900 26.06600
C  -2.37900 13.04200 26.64000
C  -2.65700 13.30700 27.95600
C  -2.58600 14.75400 28.11400
C  -2.49100 11.67800 25.95100
C  -3.03400 12.73500 29.16700
O  -3.25800 11.52900 29.44600
C  -3.18500 13.91300 30.21800
C  -2.20700 13.56300 31.24700
O  -1.05500 13.74200 31.12300
O  -2.75700 12.90200 32.36300
C  -1.85800 12.55000 33.46900
H  -2.98400 20.81500 29.73500
H  -1.68100 20.01900 23.26900
H  -1.63500 13.85000 24.04800
H  -4.12800 16.89300 31.63300
H  -1.99200 19.07300 31.39800
H  -4.72700 19.99700 31.11100
H  -3.47500 20.36200 32.40000
H  -4.46700 18.94400 32.55000
H  -1.30500 16.05100 31.78300
H  -2.59300 15.66200 32.94800
H  -1.85700 18.14200 33.76700
H  -0.41600 17.68700 33.00600
H  -3.51700 23.42600 27.61000
H  -1.90800 23.56200 28.11800
H  -2.95500 22.67900 29.10900
H  -2.70000 24.23100 25.27400
H  -1.23400 24.55500 24.27400
H  -1.14300 23.98000 26.05700
H  -0.97700 18.05900 22.11400
H  -2.09000 15.34200 22.12600
H  -3.64600 18.71200 21.82500
H  -3.96200 17.02700 21.72000
H  -2.96200 17.81600 20.49200
H  0.34000 15.91200 21.56900
H  0.10200 14.66700 22.81300
H  0.39000 17.20000 24.25600
H  1.72800 16.92300 23.08200
H  1.27600 15.76200 24.31100
H  -3.57200 11.62300 26.07700
H  -1.88300 10.89900 26.41300
H  -2.33600 11.80100 24.87900
H  -4.16800 13.77200 30.66900
H  -1.96200 13.37300 34.17600
H  -0.82600 12.44900 33.13100
H  -2.14000 11.58700 33.89700
Mg 44.69300 5.92400 47.74200
C  42.49000 8.66500 47.25000
C  41.94300 3.81800 46.92100
C  46.72100 3.38800 47.53700
C  47.30400 8.22000 47.98900
N  42.49600 6.21700 47.17500
C  41.84600 7.48200 47.05000
C  40.33400 7.30800 46.68800
C  40.14400 5.77200 46.71700
C  41.60600 5.19700 46.93900
C  39.06300 5.11200 47.59300
C  39.96200 8.02400 45.35900
C  41.13500 7.90000 44.24100
H  40.69100 7.56900 42.81200
N  44.36900 3.76600 47.45900
C  43.18200 3.14900 47.22400
C  43.44600 1.69700 47.17600
C  44.85300 1.51900 47.39400
C  45.39300 2.92900 47.51800
C  42.43000 0.66100 46.86200
C  45.59200 0.14800 47.23700
O  44.93900 -0.79300 46.88200
C  47.13100 0.04000 47.36800
N  46.69400 5.81300 47.92900
C  47.29800 4.68300 47.79600
C  48.84200 4.80100 47.84000
C  49.03400 6.34400 47.86500
C  47.64600 6.85200 48.03700
C  49.55400 3.96200 48.99600
C  49.87200 6.88600 46.63500
C  49.06700 6.83300 45.31600
N  44.88000 7.90500 47.73000
C  45.98100 8.75600 47.87100
C  45.63900 10.17700 47.70000
C  44.22600 10.17200 47.55200
C  43.85800 8.77200 47.45400
C  46.49000 11.34100 47.63500
C  43.01200 11.04400 47.43400
O  42.88800 12.25400 47.46500
C  41.87300 10.08400 47.27700
C  40.78300 10.36200 48.38000
O  40.71300 9.72100 49.40200
O  39.81600 11.27300 47.97400
C  38.57400 11.33500 48.76300
H  41.11800 3.14500 46.67700
H  47.44500 2.60300 47.31000
H  48.05200 9.01600 48.00700
H  39.60900 7.79300 47.34200
H  40.01900 5.45900 45.68100
H  38.18800 5.76000 47.65500
H  39.35400 4.73800 48.57400
H  38.82700 4.28800 46.92000
H  39.64400 9.03200 45.62700
H  39.04400 7.63800 44.91600
H  41.70500 7.00500 44.49100
H  41.76500 8.78600 44.16300
H  42.76500 0.27600 45.89900
H  41.54800 1.20000 46.51400
H  42.14900 -0.14200 47.54300
H  47.34900 -0.99400 47.09900
H  47.37500 0.23600 48.41300
H  47.63900 0.69600 46.66200
H  49.11800 4.30200 46.91100
H  49.62400 6.68700 48.71500
H  49.99000 3.06600 48.55400
H  48.86100 3.80000 49.82100
H  50.38200 4.57200 49.35700
H  50.71100 6.21000 46.46300
H  50.29000 7.88100 46.79100
H  48.95400 7.83500 44.90200
H  48.13000 6.29800 45.47200
H  49.52200 6.18100 44.56900
H  47.33700 11.36200 48.32200
H  45.86200 12.23200 47.63500
H  46.92100 11.28100 46.63600
H  41.32000 10.27200 46.35700
H  38.16200 12.33800 48.64900
H  38.85300 11.07100 49.78300
H  37.76000 10.68300 48.44600

