158

Mg 40.81000 9.09400 29.33400
C  42.70700 10.25800 32.16400
C  38.66500 7.76900 31.72500
C  39.24500 7.80200 26.80500
C  43.48700 10.17400 27.33800
N  40.70600 8.96900 31.73600
C  41.49000 9.72700 32.56800
C  40.87700 9.61000 34.00200
C  39.51700 8.82400 33.84100
C  39.64500 8.44600 32.34700
C  39.42800 7.58300 34.81900
C  40.72800 11.07400 34.70200
C  41.03800 11.08300 36.19400
H  41.37000 12.44400 36.88800
N  39.12900 8.05200 29.23700
C  38.36300 7.57000 30.30800
C  37.18800 6.97900 29.73800
C  37.28300 7.07000 28.31100
C  38.58100 7.67000 28.05500
C  36.03900 6.49300 30.61700
C  36.30100 6.74400 27.20300
O  36.43400 6.86700 26.04000
C  34.99100 6.41900 27.70500
N  41.44500 8.89200 27.34800
C  40.53600 8.35600 26.46100
C  40.98400 8.61300 25.01100
C  42.37500 9.33500 25.15400
C  42.43800 9.56400 26.65700
C  41.11100 7.34200 24.09800
C  42.65400 10.59600 24.28300
C  42.20200 11.95500 24.80300
N  42.74100 9.98700 29.67200
C  43.66900 10.34600 28.74900
C  44.90000 10.77200 29.42100
C  44.51000 10.81000 30.72000
C  43.21000 10.31700 30.81800
C  46.16600 11.20500 28.84100
C  44.92000 11.18400 32.06300
O  45.91200 11.76900 32.36000
C  43.77400 11.00900 33.01600
C  44.18800 10.24700 34.22600
O  44.51000 9.04800 34.20300
O  44.26700 11.07600 35.35000
C  44.60900 10.37400 36.58500
H  37.90200 7.30300 32.35200
H  38.77500 7.43900 25.88800
H  44.35200 10.43900 26.72700
H  41.72600 9.02300 34.35500
H  38.65700 9.48900 33.92000
H  38.37600 7.63200 35.09700
H  40.01200 7.75600 35.72300
H  39.66600 6.62300 34.36200
H  39.70700 11.45200 34.64500
H  41.37400 11.77300 34.17000
H  41.79600 10.32200 36.38400
H  40.11400 10.79900 36.69800
H  36.30100 6.37700 31.66900
H  35.87300 5.49400 30.21300
H  35.12500 7.02000 30.34200
H  34.20700 6.44000 26.94800
H  34.86800 7.34600 28.26400
H  34.87300 5.58700 28.40000
H  40.30500 9.34800 24.57800
H  43.25300 8.70100 25.02700
H  40.42200 6.58100 24.46500
H  42.10600 6.90400 24.01500
H  40.84100 7.50500 23.05500
H  42.00100 10.48300 23.41700
H  43.66600 10.64300 23.88200
H  42.97300 12.69700 25.01400
H  41.56700 11.87800 25.68500
H  41.58400 12.38900 24.01700
H  46.26700 12.29000 28.81900
H  46.19100 10.75700 27.84700
H  46.97000 10.84100 29.48000
H  43.46200 12.02700 33.24900
H  44.56800 9.28700 36.65200
H  44.03100 10.85900 37.37200
H  45.61900 10.72400 36.80000
Mg 26.83400 49.91600 26.48000
C  24.68300 51.28200 28.84700
C  28.93100 49.14500 29.07200
C  29.16100 48.88000 24.24800
C  24.73100 51.08400 23.98700
N  26.78700 50.22600 28.80100
C  25.72000 50.64800 29.49800
C  25.90500 50.48700 31.02500
C  27.42900 49.95000 31.07900
C  27.73000 49.75900 29.49100
C  28.44500 50.92700 31.72500
C  24.95200 49.57200 31.66100
C  24.97500 49.15000 33.18700
H  25.80700 49.80400 34.28700
N  28.79400 49.17200 26.64400
C  29.42000 48.86300 27.77700
C  30.67400 48.27500 27.48400
C  30.79400 48.12400 26.04900
C  29.54700 48.69900 25.53200
C  31.74700 47.94400 28.55400
C  31.80000 47.42200 25.21100
O  31.63000 47.24500 24.02200
C  33.09200 46.88000 25.80700
N  26.95700 50.04500 24.46300
C  27.97700 49.48700 23.72200
C  27.76500 49.68200 22.16300
C  26.26400 50.14100 22.14900
C  25.95800 50.48900 23.62500
C  28.82100 50.50500 21.43200
C  25.33800 49.11200 21.47300
C  25.17300 47.73300 22.12000
N  25.00500 50.82400 26.37300
C  24.30900 51.37000 25.27200
C  23.15000 52.11200 25.71200
C  23.23000 52.06000 27.11400
C  24.39000 51.32100 27.47900
C  22.13500 52.78400 24.87800
C  22.65600 52.51300 28.36700
O  21.73700 53.32300 28.54500
C  23.47400 51.88200 29.54300
C  23.71800 52.84000 30.64400
O  24.42900 53.84200 30.59100
O  23.14200 52.44400 31.78800
C  23.39900 53.11300 33.06700
H  29.60100 48.78000 29.85300
H  29.82000 48.61400 23.41800
H  24.05200 51.45900 23.21800
H  25.71900 51.41500 31.56500
H  27.43100 48.97900 31.57400
H  27.99000 51.86500 32.04300
H  29.32300 51.07400 31.09700
H  28.79500 50.48300 32.65700
H  24.95200 48.68700 31.02500
H  23.95400 49.99900 31.56400
H  25.24700 48.10200 33.31400
H  23.93200 49.23800 33.49200
H  31.69600 48.63200 29.39700
H  32.81800 47.92500 28.35100
H  31.62700 46.93200 28.94100
H  33.72500 47.72800 26.07000
H  33.62700 46.25500 25.09300
H  33.02300 46.41500 26.79100
H  27.70900 48.72700 21.64000
H  26.13500 51.11200 21.67100
H  29.49700 50.91000 22.18400
H  28.33200 51.38100 21.00500
H  29.31900 49.88800 20.68400
H  25.58400 49.00100 20.41700
H  24.34500 49.56000 21.49500
H  24.15700 47.34300 22.05000
H  25.40800 47.68500 23.18300
H  25.72900 47.01200 21.52100
H  21.14900 52.88700 25.32900
H  21.99200 52.10100 24.04100
H  22.41100 53.81300 24.64600
H  22.89700 51.03900 29.92400
H  23.76000 54.12400 32.87900
H  24.11800 52.58000 33.69000
H  22.47400 53.30000 33.61100

