158

Mg 47.57300 24.34600 28.26300
C  48.48600 26.56900 30.84900
C  46.76200 21.97300 30.66100
C  46.71300 22.18600 25.80900
C  48.44900 26.78900 26.00400
N  47.56800 24.25300 30.48900
C  47.95800 25.29600 31.34900
C  47.63000 24.90300 32.81500
C  47.25300 23.37100 32.65700
C  47.18800 23.17700 31.18100
C  48.28800 22.41400 33.32600
C  46.56700 25.74100 33.52100
C  46.16500 25.42200 34.91900
H  46.47100 26.46000 36.03200
N  46.84500 22.36900 28.22500
C  46.49900 21.55800 29.33600
C  45.93600 20.33300 28.91800
C  45.92200 20.33600 27.48700
C  46.53900 21.62100 27.08400
C  45.41100 19.26600 29.79400
C  45.52700 19.23900 26.53200
O  45.52000 19.41100 25.29900
C  45.12700 17.86100 27.08700
N  47.78100 24.38000 26.16600
C  47.32200 23.41800 25.38000
C  47.38500 23.79200 23.80500
C  47.71000 25.28900 23.98800
C  48.02700 25.55700 25.47700
C  48.39300 23.00100 23.03100
C  46.56200 26.28400 23.50800
C  47.08100 27.59900 22.71100
N  48.26900 26.26600 28.27900
C  48.61200 27.16500 27.30400
C  48.98600 28.46000 27.78400
C  48.81400 28.24000 29.13300
C  48.48100 26.87200 29.42000
C  49.33000 29.69600 27.06400
C  48.97800 29.00200 30.42900
O  49.34400 30.15000 30.65800
C  48.77000 27.89000 31.57400
C  49.90400 27.80400 32.50300
O  51.00000 27.25800 32.32700
O  49.55100 28.43700 33.62900
C  50.37400 28.33400 34.87900
H  46.48800 21.22000 31.40300
H  46.36900 21.63300 24.93200
H  48.63900 27.55700 25.25100
H  48.59100 25.06300 33.30400
H  46.24200 23.23200 33.04000
H  48.68900 21.73300 32.57500
H  47.78500 21.72700 34.00600
H  49.14300 22.81200 33.87300
H  45.63400 25.60100 32.97500
H  46.75700 26.80300 33.37100
H  46.63700 24.49800 35.25200
H  45.11200 25.14900 34.84900
H  45.50200 19.42500 30.86800
H  46.03200 18.38000 29.65800
H  44.39500 19.09700 29.43900
H  44.26700 17.92400 27.75500
H  45.92600 17.46900 27.71600
H  44.84000 17.26200 26.22300
H  46.38200 23.60000 23.42300
H  48.58500 25.46600 23.36300
H  49.36600 23.49200 23.06600
H  48.19600 22.84500 21.97000
H  48.54600 22.02800 23.49900
H  45.96900 26.63400 24.35300
H  45.92500 25.67900 22.86300
H  48.16700 27.55200 22.63400
H  46.72000 28.47200 23.25500
H  46.52100 27.68100 21.77900
H  49.07200 30.51700 27.73300
H  48.71000 29.79500 26.17300
H  50.37500 29.75500 26.76100
H  47.82200 28.15000 32.04600
H  51.10900 29.13800 34.83200
H  50.97500 27.42500 34.85700
H  49.79000 28.41900 35.79500
Mg 16.58900 52.37500 25.81600
C  18.19500 50.80600 28.54100
C  14.01900 53.24600 27.83000
C  15.00300 53.47300 23.07000
C  18.87300 50.65400 23.71200
N  16.14800 52.03500 27.94800
C  17.04600 51.54100 28.88800
C  16.49500 51.83400 30.33500
C  14.99300 52.31600 30.04200
C  15.01000 52.49700 28.51400
C  13.96300 51.25900 30.52900
C  17.48000 52.79900 31.18800
C  17.65900 52.55000 32.71200
H  16.43500 51.93300 33.41300
N  14.84200 53.35700 25.49400
C  13.89600 53.54400 26.45800
C  12.74100 54.26100 25.93500
C  12.95300 54.40900 24.51900
C  14.27500 53.70600 24.27800
C  11.51200 54.57400 26.65000
C  12.09900 55.09100 23.45300
O  12.49200 55.14700 22.31100
C  10.73500 55.74000 23.78800
N  16.86400 51.93600 23.63300
C  16.09900 52.72500 22.78900
C  16.60800 52.49200 21.36600
C  17.85000 51.63000 21.57100
C  17.88600 51.33400 23.07500
C  15.44900 51.87600 20.49000
C  19.14100 52.26400 20.88400
C  20.13300 53.05400 21.72500
N  18.18400 50.97700 26.04300
C  19.04400 50.46300 25.08400
C  20.13100 49.72900 25.77800
C  19.78800 49.78700 27.13300
C  18.63500 50.58100 27.22800
C  21.19700 48.91300 25.17400
C  20.10500 49.30600 28.48900
O  20.98100 48.56100 28.82500
C  19.15800 50.08300 29.47100
C  18.71100 49.25300 30.58800
O  17.83500 48.39800 30.49600
O  19.37500 49.54100 31.76600
C  19.00700 48.76800 32.92100
H  13.19100 53.68600 28.39100
H  14.54800 53.92600 22.18600
H  19.59300 50.20800 23.02300
H  16.54900 50.96400 30.98800
H  14.73200 53.29000 30.45500
H  14.33000 50.23400 30.58800
H  13.11200 51.31800 29.85100
H  13.49300 51.60100 31.45200
H  17.11100 53.80900 31.01000
H  18.48600 52.88600 30.77800
H  17.80700 53.52500 33.17700
H  18.59300 52.09100 33.03500
H  11.03400 55.50300 26.34000
H  11.73100 54.78900 27.69600
H  10.99800 53.61300 26.64600
H  10.28000 56.16400 22.89300
H  10.71900 56.59500 24.46300
H  10.04900 54.99800 24.19600
H  16.91100 53.44100 20.92300
H  17.63600 50.66700 21.10800
H  14.51000 51.76800 21.03200
H  15.75100 50.87100 20.19500
H  15.32200 52.48300 19.59300
H  18.90500 52.95100 20.07100
H  19.72600 51.46100 20.43600
H  19.78600 53.24000 22.74100
H  20.15600 54.05100 21.28600
H  21.15500 52.67600 21.72600
H  20.59900 48.08300 24.80000
H  21.98900 48.65900 25.87900
H  21.52800 49.61500 24.40900
H  19.76400 50.81500 30.00600
H  17.93700 48.61300 33.05800
H  19.39900 49.32100 33.77500
H  19.36100 47.73800 32.97800

