158

Mg -2.73700 35.25500 26.30300
C  -4.14700 33.64500 29.12300
C  -1.04700 37.41700 28.40800
C  -1.57900 36.95700 23.58800
C  -4.37300 33.04900 24.22400
N  -2.59800 35.44300 28.56600
C  -3.31200 34.73600 29.46500
C  -2.81600 35.14500 30.90700
C  -1.96900 36.45500 30.59700
C  -1.81700 36.42600 29.08200
C  -2.55600 37.76400 31.18100
C  -2.10000 33.97100 31.69800
C  -2.67000 33.60700 33.13000
H  -1.80600 33.66100 34.39800
N  -1.57800 36.94100 26.05500
C  -0.95500 37.67500 27.05700
C  -0.15200 38.64700 26.48200
C  -0.16100 38.46900 25.10200
C  -1.20800 37.47700 24.83800
C  0.52900 39.72000 27.35500
C  0.78500 39.10000 24.09800
O  0.66100 38.94800 22.89600
C  1.92100 39.89100 24.53800
N  -3.00200 35.06700 24.22800
C  -2.35000 35.86200 23.32600
C  -2.66300 35.46800 21.86900
C  -3.43900 34.06400 22.07200
C  -3.59700 34.02300 23.58700
C  -3.59800 36.62500 21.31600
C  -2.61100 32.85100 21.38000
C  -1.97300 31.71400 22.24600
N  -3.98600 33.72600 26.55300
C  -4.61300 32.87700 25.59500
C  -5.36800 31.90400 26.26300
C  -5.27700 32.23400 27.59600
C  -4.35100 33.27600 27.75600
C  -6.19300 30.77400 25.71400
C  -5.66100 31.73100 28.87000
O  -6.33500 30.71900 29.11500
C  -5.02000 32.69300 29.89200
C  -6.03200 33.35000 30.61300
O  -6.51700 34.42900 30.39100
O  -6.09300 32.71000 31.79900
C  -6.69300 33.41800 32.98400
H  -0.52500 38.05400 29.12600
H  -1.17600 37.52000 22.74400
H  -4.74800 32.26200 23.56600
H  -3.73500 35.27100 31.47900
H  -1.02800 36.30200 31.12600
H  -3.49200 37.64900 31.72700
H  -2.73400 38.37500 30.29700
H  -1.73500 38.10000 31.81500
H  -1.06400 34.23400 31.91100
H  -1.98200 33.03100 31.15800
H  -3.05100 32.58700 33.07000
H  -3.59400 34.13600 33.36100
H  0.15700 39.98800 28.34400
H  0.61600 40.64400 26.78300
H  1.48800 39.20100 27.35100
H  2.48200 39.51700 25.39400
H  1.54700 40.90400 24.68500
H  2.62300 39.96700 23.70700
H  -1.80500 35.32700 21.21200
H  -4.41300 34.10700 21.58400
H  -3.06300 37.52600 21.01600
H  -4.48900 36.77900 21.92500
H  -3.98700 36.21400 20.38500
H  -1.92900 33.38900 20.72000
H  -3.29200 32.34100 20.69800
H  -0.99700 31.60100 21.77300
H  -2.51400 30.77200 22.15900
H  -1.76400 32.02100 23.27100
H  -6.03100 29.86000 26.28500
H  -5.90200 30.56000 24.68600
H  -7.23700 31.05900 25.84200
H  -4.33300 32.08500 30.48000
H  -7.15200 34.38900 32.79600
H  -6.10600 33.48900 33.90000
H  -7.49300 32.70100 33.16700
Mg -11.12100 16.50600 42.06500
C  -8.23600 14.54100 41.69900
C  -9.46900 18.89800 40.33300
C  -14.09900 18.03400 41.70800
C  -12.74400 13.53300 43.17400
N  -9.15300 16.63600 41.01300
C  -8.14000 15.74700 41.03700
C  -6.94600 16.20200 40.22200
C  -7.26900 17.69700 40.01700
C  -8.71800 17.78100 40.50800
C  -6.28100 18.69500 40.62400
C  -6.73600 15.36400 38.94200
C  -5.43500 14.54300 38.90900
H  -4.54900 14.78500 37.64500
N  -11.60800 18.30700 41.27900
C  -10.76600 19.22100 40.66200
C  -11.49400 20.51700 40.38000
C  -12.83000 20.23700 40.69800
C  -12.92900 18.82200 41.22700
C  -10.83100 21.62900 39.68400
C  -14.00600 21.13300 40.39000
O  -13.85600 22.29300 39.92400
C  -15.40800 20.65600 40.60500
N  -13.15200 15.79000 42.34800
C  -14.17600 16.66100 42.11800
C  -15.57400 15.94400 42.34500
C  -15.18700 14.69700 43.22000
C  -13.59100 14.62500 42.91200
C  -16.67400 16.88400 42.91600
C  -16.04800 13.44000 43.06900
C  -16.69400 12.88700 44.31900
N  -10.64600 14.41900 42.47100
C  -11.40000 13.39100 42.88600
C  -10.48400 12.25700 43.14800
C  -9.23000 12.71300 42.66100
C  -9.40500 14.00200 42.28300
C  -10.87900 10.93800 43.76100
C  -7.91400 12.22600 42.43100
O  -7.43300 11.10500 42.56800
C  -7.19400 13.40400 41.74600
C  -6.08100 13.83600 42.71600
O  -6.21600 14.17800 43.89800
O  -4.87400 13.76200 42.07300
C  -3.73200 14.12100 42.92800
H  -8.89600 19.67600 39.82500
H  -15.08100 18.51000 41.66600
H  -13.05800 12.60000 43.64600
H  -6.15300 16.11500 40.96400
H  -7.28900 17.92400 38.95100
H  -5.49600 18.15100 41.14900
H  -6.70700 19.41900 41.31900
H  -5.81900 19.23100 39.79500
H  -6.73800 16.09600 38.13400
H  -7.57300 14.68500 38.78100
H  -5.73700 13.49800 38.84300
H  -4.81000 14.82200 39.75700
H  -9.79000 21.66600 40.00500
H  -11.16200 22.65000 39.87600
H  -10.85600 21.53800 38.59800
H  -16.16800 21.30700 40.17500
H  -15.62200 20.60400 41.67300
H  -15.50300 19.69700 40.09600
H  -15.84700 15.58000 41.35500
H  -15.25600 15.01300 44.26100
H  -16.37100 17.48300 43.77500
H  -17.53600 16.40400 43.38000
H  -16.98800 17.54900 42.11200
H  -15.52600 12.56400 42.68200
H  -16.88000 13.59700 42.38400
H  -16.42100 11.83700 44.41700
H  -17.77300 13.02300 44.25300
H  -16.35100 13.41100 45.21200
H  -10.43400 11.08200 44.74500
H  -10.31100 10.25000 43.13400
H  -11.94600 10.72200 43.70100
H  -6.85500 13.06800 40.76600
H  -2.87400 14.25400 42.26900
H  -3.46500 13.37700 43.67800
H  -4.05500 15.06100 43.37600

