158

Mg 25.12400 1.15100 29.03100
C  27.29900 0.81700 31.71900
C  22.45300 1.56000 31.32300
C  22.87200 1.07400 26.41300
C  27.65300 0.45500 26.79700
N  24.84900 1.00000 31.23200
C  25.96900 1.19000 32.05700
C  25.43700 1.38400 33.53200
C  23.91000 1.55200 33.36900
C  23.71800 1.33800 31.90000
C  23.05900 0.60500 34.32800
C  26.10500 2.61600 34.21800
C  26.72700 2.36400 35.58800
H  26.39400 3.41700 36.73100
N  23.01900 1.33300 28.86200
C  22.12000 1.50700 29.93600
C  20.78600 1.70700 29.50400
C  20.87500 1.58700 28.08700
C  22.25700 1.32600 27.71700
C  19.62000 2.11300 30.44200
C  19.79100 1.61900 27.02900
O  19.97900 1.52600 25.81800
C  18.31700 1.67500 27.43100
N  25.30800 0.80700 26.94700
C  24.16600 0.84800 26.07600
C  24.58000 0.63900 24.62700
C  26.19600 0.63700 24.68000
C  26.41700 0.64400 26.18300
C  24.02000 -0.55800 24.03200
C  26.95100 1.84600 24.02900
C  27.02300 3.18200 24.78000
N  27.08300 0.64400 29.23900
C  28.01700 0.38900 28.23400
C  29.31000 0.15100 28.81900
C  29.06200 0.28400 30.25200
C  27.70400 0.61700 30.40700
C  30.59300 -0.21800 28.12400
C  29.63300 0.31600 31.57600
O  30.83300 0.27000 31.89300
C  28.47300 0.76200 32.61600
C  28.28500 -0.18700 33.80300
O  27.59100 -1.21200 33.82100
O  29.02400 0.32700 34.90300
C  28.86600 -0.51500 36.12000
H  21.61800 1.85500 31.96100
H  22.32100 1.33400 25.50700
H  28.52500 0.26900 26.16700
H  25.68000 0.47200 34.07900
H  23.58500 2.57500 33.55700
H  22.43800 -0.10900 33.78700
H  22.39200 1.31100 34.82200
H  23.71700 0.01500 34.96700
H  25.26700 3.29700 34.36500
H  26.85700 3.05300 33.56000
H  27.80600 2.45000 35.46200
H  26.42700 1.39300 35.98100
H  19.05200 2.80400 29.81900
H  19.80800 2.59100 31.40300
H  19.13700 1.14800 30.59400
H  18.09400 0.78400 28.01800
H  17.71100 1.71800 26.52700
H  18.11300 2.55300 28.04500
H  24.20500 1.53700 24.13500
H  26.53600 -0.32100 24.28900
H  24.73800 -1.32000 23.73000
H  23.51200 -0.19300 23.13900
H  23.35200 -1.07300 24.72200
H  26.50500 1.99900 23.04600
H  27.96500 1.59100 23.71900
H  28.09500 3.21600 24.97200
H  26.40900 3.20800 25.68100
H  26.75600 4.02100 24.13700
H  31.41000 -0.27400 28.84300
H  30.81500 0.46800 27.30600
H  30.55100 -1.26300 27.81900
H  28.69900 1.78300 32.92200
H  28.56800 0.06900 36.99100
H  29.84200 -0.86900 36.45100
H  28.29500 -1.42900 35.95900
Mg 43.07200 42.82700 26.67900
C  41.78100 45.19100 28.87900
C  44.27600 40.94000 29.26600
C  44.29800 40.75800 24.43700
C  42.16900 45.01900 23.95600
N  43.00200 43.04600 28.81400
C  42.36900 44.05700 29.53700
C  42.42300 43.69900 31.03600
C  43.52300 42.62500 31.14700
C  43.54500 42.08400 29.68200
C  44.84700 43.01100 31.80800
C  41.03300 43.08600 31.45100
C  40.40100 43.43300 32.77200
H  41.25300 43.83700 33.93300
N  44.07000 41.06300 26.80200
C  44.43500 40.44800 27.92400
C  45.02500 39.20700 27.63900
C  44.98200 39.07200 26.19700
C  44.42900 40.34900 25.75500
C  45.67300 38.30500 28.66800
C  45.34900 37.90700 25.36400
O  45.24600 37.87200 24.15800
C  45.82200 36.73800 25.99800
N  43.46400 43.00100 24.52300
C  43.87300 41.92700 23.86800
C  43.88000 42.02000 22.40700
C  42.98800 43.33100 22.25600
C  42.84100 43.83300 23.68400
C  45.28800 42.13100 21.72800
C  41.66400 43.08500 21.34900
C  40.26400 43.00200 22.00200
N  42.28100 44.77300 26.40800
C  42.04300 45.56000 25.24200
C  41.33500 46.75900 25.64700
C  41.26900 46.64500 27.07400
C  41.85900 45.44800 27.48400
C  40.71900 47.84900 24.70900
C  40.76200 47.31300 28.23700
O  40.06400 48.34500 28.34900
C  40.97200 46.32600 29.59000
C  41.85400 47.08300 30.41500
O  42.97100 47.36500 30.13400
O  41.21500 47.25500 31.63300
C  41.99800 47.94200 32.65100
H  44.66200 40.26700 30.03400
H  44.57000 39.91600 23.79800
H  41.78400 45.68500 23.18200
H  42.72800 44.54200 31.65500
H  43.15000 41.88200 31.85200
H  45.12100 42.31700 32.60300
H  44.79600 44.00500 32.25300
H  45.59600 43.08600 31.02000
H  41.02200 41.99600 31.40800
H  40.22100 43.32800 30.76500
H  39.87700 42.51000 33.02200
H  39.63700 44.19900 32.64200
H  45.83400 38.72400 29.66200
H  46.68800 38.13700 28.30800
H  45.20800 37.31900 28.68700
H  46.71900 37.10300 26.49900
H  46.07600 35.99500 25.24200
H  45.01800 36.34400 26.62000
H  43.32100 41.11800 22.15500
H  43.63600 44.08200 21.80400
H  45.49800 43.06100 21.20000
H  45.26300 41.31700 21.00300
H  46.13400 42.06900 22.41300
H  41.70100 42.17100 20.75600
H  41.78600 43.84700 20.57900
H  39.69700 43.87400 21.67500
H  40.29000 42.86800 23.08300
H  39.86400 42.03000 21.71300
H  40.29300 47.29300 23.87400
H  41.49900 48.47200 24.27000
H  39.99500 48.46400 25.24400
H  40.03900 46.00100 30.05200
H  42.74200 48.70000 32.40400
H  42.48400 47.24000 33.32800
H  41.17000 48.45600 33.14000

