158

Mg 2.08200 -1.04700 43.98800
C  5.49800 -0.45400 43.71000
C  1.41600 1.94300 42.75000
C  -1.25000 -2.07200 43.69300
C  2.75700 -4.37300 44.95400
N  3.29600 0.50100 43.21900
C  4.68200 0.56600 43.17100
C  5.17900 1.84500 42.60000
C  3.86300 2.69600 42.61500
C  2.80400 1.67000 42.82700
C  3.87900 3.87700 43.65000
C  5.85600 1.53500 41.21800
C  7.09700 2.39500 40.83400
H  7.11000 2.73000 39.30800
N  0.29300 -0.11500 43.43600
C  0.25300 1.11400 42.88000
C  -1.07300 1.47800 42.69500
C  -1.90800 0.38500 43.04500
C  -0.97200 -0.74000 43.38300
C  -1.54100 2.84600 42.32700
C  -3.44600 0.40600 43.06600
O  -4.05000 1.44100 42.80500
C  -4.19900 -0.74500 43.55300
N  0.93200 -3.00500 44.14300
C  -0.41900 -3.05100 44.17500
C  -0.92200 -4.46900 44.54400
C  0.35900 -5.13900 45.10500
C  1.45100 -4.12400 44.72000
C  -2.22900 -4.58900 45.39800
C  0.64800 -6.61000 44.54200
C  0.81600 -7.69900 45.63800
N  3.77100 -2.17000 44.34400
C  3.88500 -3.53100 44.68000
C  5.28100 -3.83300 44.89200
C  5.95600 -2.69900 44.44300
C  4.99400 -1.67300 44.13700
C  5.69700 -5.21100 45.25100
C  7.25600 -2.17900 44.18500
O  8.39600 -2.63400 44.27200
C  7.04300 -0.64100 43.64800
C  7.65800 0.29900 44.54500
O  7.33800 0.62400 45.70900
O  8.49200 1.07300 43.84400
C  9.23900 2.15300 44.39800
H  1.16300 2.96000 42.44500
H  -2.31000 -2.33000 43.65200
H  2.90600 -5.33000 45.45900
H  5.99000 2.31600 43.15400
H  3.84000 3.20900 41.65400
H  4.86400 3.92900 44.11200
H  3.23000 3.53900 44.45800
H  3.51200 4.69200 43.02600
H  5.08100 1.45000 40.45700
H  6.25000 0.52000 41.25700
H  8.02200 1.87700 41.08900
H  7.13200 3.32700 41.39800
H  -2.52700 2.98000 41.88100
H  -0.83800 3.26800 41.60900
H  -1.45100 3.47800 43.21000
H  -5.24800 -0.45000 43.57700
H  -3.79100 -1.21500 44.44800
H  -4.17200 -1.49600 42.76400
H  -1.14500 -4.86100 43.55200
H  0.33100 -5.10200 46.19400
H  -2.08700 -5.24900 46.25300
H  -2.98200 -5.16000 44.85400
H  -2.60400 -3.60200 45.67000
H  1.61600 -6.60800 44.04100
H  -0.10800 -6.93000 43.82400
H  0.50700 -7.31200 46.60900
H  1.81600 -8.11800 45.74900
H  0.18900 -8.57000 45.44900
H  5.31800 -5.93800 44.53200
H  5.30800 -5.44200 46.24300
H  6.78600 -5.24200 45.24400
H  7.45800 -0.70900 42.64200
H  10.04900 2.37900 43.70400
H  9.65500 1.88600 45.36900
H  8.67400 3.07600 44.52500
Mg 0.50900 43.19700 26.85000
C  3.17900 43.48300 29.11900
C  -1.47100 42.60200 29.56100
C  -1.89700 42.59000 24.72400
C  2.76900 43.54800 24.28300
N  0.88700 42.87000 29.13300
C  2.00600 43.26100 29.80800
C  1.75500 43.27500 31.27600
C  0.36900 42.49900 31.41700
C  -0.14100 42.68500 29.98900
C  0.44000 41.07700 31.95900
C  1.69900 44.69200 31.68500
C  1.51200 45.02300 33.18300
H  1.37100 43.95100 34.20100
N  -1.46900 42.80800 27.09500
C  -2.15200 42.59000 28.28500
C  -3.48700 42.34000 28.05800
C  -3.66000 42.29900 26.66800
C  -2.32800 42.53300 26.06200
C  -4.51700 42.03300 29.12700
C  -4.88200 42.05900 25.85300
O  -4.87100 41.96900 24.64000
C  -6.27900 41.87500 26.46100
N  0.49300 42.97700 24.84600
C  -0.64300 42.73900 24.15300
C  -0.28800 42.51700 22.67800
C  1.09900 43.14300 22.50900
C  1.51400 43.20800 23.97700
C  -0.53700 40.95100 22.29100
C  1.15200 44.45900 21.63800
C  2.29100 44.40700 20.54900
N  2.51600 43.51200 26.63300
C  3.33700 43.65400 25.50500
C  4.71600 43.64300 25.81800
C  4.65700 43.65700 27.24800
C  3.32900 43.51100 27.63400
C  5.98400 43.79800 24.95600
C  5.50400 43.66800 28.44600
O  6.76800 43.64500 28.63900
C  4.49000 43.83500 29.68400
C  4.99300 43.01400 30.80000
O  5.14300 41.79300 30.76100
O  5.31300 43.83500 31.86500
C  5.85700 43.10000 33.06400
H  -2.22200 42.33900 30.30900
H  -2.70200 42.48400 23.99400
H  3.36600 43.76100 23.39300
H  2.50500 42.60900 31.70400
H  -0.20500 42.97100 32.21500
H  0.22700 41.13800 33.02600
H  1.42200 40.61800 31.84200
H  -0.27200 40.55700 31.31800
H  1.01300 45.28600 31.08100
H  2.63500 45.15900 31.38100
H  0.71700 45.76900 33.19400
H  2.52900 45.38400 33.34000
H  -5.04700 42.89300 29.53900
H  -4.00300 41.51100 29.93300
H  -5.27700 41.31500 28.82000
H  -7.03400 42.14500 25.72200
H  -6.47700 42.61400 27.23700
H  -6.36500 40.87900 26.89500
H  -0.93400 43.16700 22.08800
H  1.67700 42.32400 22.08000
H  -1.19900 40.52700 23.04700
H  0.32800 40.29000 22.33300
H  -0.99400 40.78600 21.31600
H  1.47400 45.18500 22.38500
H  0.20700 44.86100 21.27300
H  1.73200 44.25100 19.62600
H  3.04200 43.64500 20.75500
H  2.75100 45.39500 20.58800
H  6.52000 42.85000 24.89500
H  6.66100 44.53800 25.38300
H  5.61000 43.99800 23.95200
H  4.59800 44.87900 29.97800
H  4.94200 43.03700 33.65400
H  6.61200 43.62800 33.64600
H  6.19200 42.08600 32.84400

