158

Mg 9.68100 47.75800 25.78900
C  7.71500 48.11500 28.48100
C  12.40000 49.09600 27.69000
C  11.84800 47.51000 23.20100
C  6.99800 47.54500 23.62500
N  10.01000 48.67500 27.80400
C  9.04500 48.51900 28.78100
C  9.50800 49.06400 30.16500
C  10.97400 49.58700 29.81200
C  11.13600 49.13500 28.32800
C  11.15100 51.13800 29.97800
C  9.21500 48.15300 31.44600
C  9.77800 48.58200 32.72800
H  8.96600 48.29400 33.98100
N  11.82900 48.13000 25.57000
C  12.72400 48.62900 26.42300
C  14.09600 48.36400 26.00000
C  13.94300 47.78900 24.69900
C  12.51100 47.78500 24.39600
C  15.35000 48.61500 26.79100
C  14.97300 47.30900 23.77000
O  14.69400 46.91300 22.69200
C  16.37700 47.44200 24.13200
N  9.49500 47.46500 23.75500
C  10.56600 47.50800 22.90900
C  10.06100 47.30000 21.45200
C  8.49200 47.22400 21.64300
C  8.27700 47.45100 23.09500
C  10.48800 48.36000 20.42600
C  7.86000 45.82200 21.12400
C  7.45900 45.74000 19.63500
N  7.70900 47.78500 25.96900
C  6.70300 47.62500 25.06400
C  5.43700 47.57800 25.77900
C  5.77500 47.61600 27.11000
C  7.17100 47.89100 27.17400
C  4.11600 47.26800 25.16800
C  5.22900 47.54400 28.51400
O  4.15400 47.44000 29.02800
C  6.54700 47.86300 29.40100
C  6.72200 46.65900 30.30900
O  7.59900 45.76700 30.12400
O  5.89800 46.71400 31.37500
C  6.08100 45.64200 32.41200
H  13.10400 49.59500 28.36000
H  12.43200 47.49300 22.27800
H  6.23400 47.38300 22.86100
H  8.90100 49.95800 30.31000
H  11.60800 49.00500 30.48100
H  11.90000 51.36900 30.73600
H  10.28300 51.75100 30.22000
H  11.53000 51.42200 28.99600
H  9.26200 47.08300 31.24600
H  8.18900 48.44200 31.67300
H  9.87600 49.66200 32.61600
H  10.74900 48.09200 32.79800
H  15.38400 48.97800 27.81800
H  15.90400 49.35100 26.20900
H  15.89500 47.67100 26.80900
H  16.51300 46.81800 25.01600
H  16.58100 48.47400 24.41900
H  17.07300 47.13500 23.35200
H  10.45100 46.30400 21.24300
H  8.09800 48.10800 21.14000
H  9.70000 48.59600 19.71100
H  11.41000 48.03900 19.94100
H  10.77600 49.30800 20.88000
H  7.01300 45.60100 21.77300
H  8.61100 45.05700 21.32200
H  7.79800 46.69100 19.22300
H  6.37500 45.62100 19.62100
H  7.97900 44.87100 19.23200
H  3.72300 48.10700 24.59400
H  3.46200 47.15500 26.03300
H  4.23400 46.35300 24.58700
H  6.30800 48.70800 30.04500
H  6.49300 46.11200 33.30500
H  6.73700 44.81200 32.15000
H  5.11400 45.14500 32.48400
Mg -6.12300 26.05300 26.66000
C  -4.30700 27.57300 29.22000
C  -7.71600 24.14300 28.83500
C  -7.59100 24.57800 24.03700
C  -3.90100 27.69900 24.36200
N  -5.96400 25.88900 28.74300
C  -5.22100 26.60900 29.68300
C  -5.77700 26.37100 31.10500
C  -6.44000 24.99100 30.96700
C  -6.78800 25.07600 29.44900
C  -5.53100 23.78200 31.37500
C  -6.65500 27.63000 31.51500
C  -6.97800 27.83600 33.02100
H  -6.51500 26.73800 33.98500
N  -7.50800 24.53800 26.45900
C  -8.09800 23.87400 27.49000
C  -9.15200 23.04700 26.98600
C  -9.12800 23.12700 25.56700
C  -8.02800 24.09500 25.26500
C  -10.06300 22.25600 27.96800
C  -9.83700 22.33200 24.55900
O  -9.73700 22.52600 23.38600
C  -10.73100 21.21800 25.00300
N  -5.75900 26.09900 24.49300
C  -6.54200 25.40500 23.67200
C  -6.05500 25.47700 22.16200
C  -4.95000 26.59600 22.27000
C  -4.82400 26.88000 23.74500
C  -5.61600 24.11300 21.54000
C  -5.35700 27.84700 21.45000
C  -4.27200 28.39200 20.34000
N  -4.47600 27.46700 26.73300
C  -3.72400 28.04200 25.73800
C  -2.78600 28.95700 26.30700
C  -2.98200 28.79100 27.72900
C  -4.00700 27.91400 27.88800
C  -2.09000 29.89000 25.46500
C  -2.58900 29.23000 29.06200
O  -1.83600 30.08800 29.41400
C  -3.49100 28.43600 30.07000
C  -2.69300 27.73900 31.08200
O  -2.01000 26.69700 30.88300
O  -2.83600 28.40800 32.25300
C  -1.98300 27.90100 33.35500
H  -8.34900 23.65900 29.58100
H  -8.09100 24.25500 23.12200
H  -3.27300 28.21700 23.63400
H  -4.90100 26.27300 31.74800
H  -7.39400 24.98800 31.49400
H  -5.33400 23.13100 30.52300
H  -6.00400 23.30900 32.23500
H  -4.60900 24.21200 31.76700
H  -7.57300 27.61700 30.92600
H  -6.06600 28.47000 31.14900
H  -8.05600 27.94300 33.14200
H  -6.51600 28.76200 33.36500
H  -11.06200 22.21800 27.53300
H  -10.10200 22.58300 29.00700
H  -9.66300 21.25100 28.10400
H  -10.10600 20.46000 25.47700
H  -11.14900 20.68900 24.14600
H  -11.56500 21.55300 25.61900
H  -6.90400 25.93300 21.65400
H  -3.98700 26.18200 21.97300
H  -6.55900 23.56800 21.57700
H  -4.88100 23.69900 22.23000
H  -5.30000 24.23700 20.50400
H  -5.36800 28.73800 22.07700
H  -6.38000 27.81400 21.07500
H  -3.51500 27.69100 19.98900
H  -3.69900 29.04500 20.99800
H  -4.70800 29.03600 19.57600
H  -1.68600 30.80000 25.90800
H  -2.75900 30.30500 24.71200
H  -1.32200 29.34900 24.91100
H  -4.16300 29.20500 30.45100
H  -2.22500 26.85300 33.53300
H  -2.08800 28.41400 34.31100
H  -0.92500 28.02500 33.12300

