158

Mg 0.68900 -2.01800 45.29900
C  4.19100 -1.16100 44.49500
C  -0.30900 0.70000 43.54700
C  -2.41400 -3.24700 45.42600
C  2.04300 -5.18400 46.33800
N  1.83900 -0.50900 44.08200
C  3.21800 -0.25000 43.92900
C  3.46200 1.17600 43.42200
C  2.00100 1.70300 43.15800
C  1.07600 0.56800 43.66600
C  1.71000 3.04700 43.93100
C  4.42100 1.29600 42.14800
C  5.24600 2.68800 42.06000
H  5.41700 3.19300 40.57000
N  -1.16100 -1.36700 44.61600
C  -1.37300 -0.20800 43.93500
C  -2.79800 -0.06900 43.59200
C  -3.44900 -1.26400 44.08600
C  -2.32800 -2.01700 44.72700
C  -3.46300 1.10500 42.82000
C  -4.97100 -1.58300 44.06400
O  -5.74900 -0.83100 43.48100
C  -5.55000 -2.81900 44.75300
N  -0.01300 -3.97800 45.69700
C  -1.41600 -4.08000 45.92100
C  -1.71500 -5.42500 46.62700
C  -0.28800 -6.11900 46.83700
C  0.61500 -5.04200 46.28200
C  -2.58300 -5.35700 47.90900
C  -0.18300 -7.39600 45.96300
C  -0.29500 -8.72200 46.73400
N  2.69800 -2.95700 45.54300
C  3.06500 -4.24600 45.95200
C  4.47500 -4.37600 46.09700
C  5.00400 -3.24200 45.52700
C  3.88400 -2.40100 45.14600
C  5.19100 -5.53200 46.88100
C  6.21300 -2.50600 45.31500
O  7.38300 -2.79900 45.56300
C  5.76800 -1.10300 44.64000
C  6.25400 -0.01400 45.52000
O  6.17800 0.00000 46.71800
O  6.91300 0.97900 44.79500
C  7.53900 2.05400 45.65500
H  -0.62600 1.72700 43.35300
H  -3.38200 -3.70900 45.63000
H  2.20800 -6.16700 46.78400
H  3.80700 1.65700 44.33700
H  1.81800 1.87200 42.09700
H  1.96300 3.79200 43.17600
H  2.41600 3.12000 44.75800
H  0.67200 3.12500 44.25500
H  3.87100 1.36000 41.20900
H  5.10100 0.44500 42.18100
H  6.26300 2.68400 42.45200
H  4.68500 3.43200 42.62500
H  -2.88800 2.03100 42.79500
H  -4.29300 1.56500 43.35600
H  -3.82500 0.74600 41.85700
H  -5.18800 -2.72500 45.77700
H  -5.20900 -3.67700 44.17200
H  -6.63800 -2.84500 44.79600
H  -2.31200 -5.86600 45.82900
H  -0.17700 -6.50400 47.85100
H  -3.22000 -4.47300 47.86800
H  -1.90600 -5.16400 48.74100
H  -3.14400 -6.27200 48.10200
H  0.82000 -7.54600 45.56500
H  -0.87000 -7.43100 45.11700
H  -1.06100 -9.41800 46.39300
H  -0.79000 -8.35000 47.63100
H  0.56000 -9.39500 46.79600
H  5.44300 -5.00500 47.80200
H  6.08800 -5.69200 46.28400
H  4.52600 -6.38100 47.04000
H  6.29900 -0.93700 43.70300
H  8.30600 1.59000 46.27500
H  6.88300 2.63400 46.30400
H  8.08700 2.73900 45.00700
Mg -11.68100 38.99300 41.89400
C  -9.55400 36.28800 41.02900
C  -9.76700 41.01900 39.96600
C  -14.07200 41.33400 42.19500
C  -13.91100 36.54600 43.19200
N  -9.93400 38.67100 40.59200
C  -9.20500 37.58100 40.43900
C  -7.90800 37.80100 39.62200
C  -7.93600 39.38900 39.31900
C  -9.30400 39.72400 40.00700
C  -6.65700 40.04500 39.90400
C  -7.92100 36.91400 38.27900
C  -6.82900 35.88400 38.28300
H  -5.68300 36.05700 37.32200
N  -11.81400 40.97300 41.38300
C  -10.91800 41.62300 40.60900
C  -11.28600 43.05000 40.58300
C  -12.47200 43.16500 41.30300
C  -12.84000 41.80200 41.65000
C  -10.39300 44.14700 39.98800
C  -13.28300 44.40300 41.68200
O  -12.93400 45.51100 41.35100
C  -14.59800 44.27000 42.59900
N  -13.61800 39.00000 42.65700
C  -14.44100 40.11400 42.63900
C  -15.91600 39.74800 42.96000
C  -15.79500 38.22700 43.39400
C  -14.37500 37.88000 43.07700
C  -16.53800 40.60000 44.05700
C  -16.85700 37.22700 42.73500
C  -18.06900 36.91800 43.69200
N  -11.65700 36.79400 42.21000
C  -12.66500 36.02200 42.76400
C  -12.16000 34.62500 42.73900
C  -10.91900 34.68900 42.17000
C  -10.72800 36.03000 41.74400
C  -12.83100 33.40200 43.24900
C  -9.79300 33.95100 41.79400
O  -9.47400 32.79400 41.98200
C  -8.95100 34.90200 40.88200
C  -7.56800 34.72600 41.53800
O  -6.79800 33.76200 41.39200
O  -7.21900 35.91200 42.09200
C  -5.95000 35.90700 42.77800
H  -9.15700 41.57800 39.25400
H  -14.94900 41.98500 42.20900
H  -14.66300 35.92600 43.68400
H  -7.07000 37.52900 40.26400
H  -7.99200 39.81800 38.31900
H  -5.87900 39.87900 39.15900
H  -6.45500 39.53800 40.84700
H  -6.86400 41.10000 40.08400
H  -7.70200 37.73100 37.59200
H  -8.83700 36.45100 37.91300
H  -7.32500 34.91900 38.17200
H  -6.39700 35.83900 39.28300
H  -10.86300 44.93300 39.39700
H  -9.75200 43.67100 39.24600
H  -9.73300 44.60000 40.72700
H  -14.86000 45.22200 43.06000
H  -14.44100 43.64100 43.47600
H  -15.46900 43.89200 42.06400
H  -16.54500 39.73500 42.06900
H  -15.88500 38.26600 44.48000
H  -16.95600 39.96900 44.84100
H  -17.29000 41.19300 43.53600
H  -15.92200 41.37300 44.51600
H  -16.33300 36.31500 42.45000
H  -17.37100 37.49300 41.81100
H  -18.19400 37.70700 44.43400
H  -17.85300 35.95800 44.16000
H  -19.02300 36.89600 43.16400
H  -12.59300 32.53300 42.63500
H  -13.91400 33.49900 43.16700
H  -12.41500 33.18500 44.23300
H  -9.02700 34.54200 39.85600
H  -6.12000 36.74000 43.45900
H  -5.10900 36.08000 42.10600
H  -5.78400 34.95600 43.28500

