158

Mg 24.02300 -4.70900 45.59300
C  26.02700 -2.23100 44.11200
C  21.43900 -3.53300 43.68000
C  22.52400 -7.68200 46.12100
C  27.05600 -6.11700 46.85800
N  23.74200 -3.05100 44.17800
C  24.67900 -2.20200 43.74300
C  24.13600 -1.17100 42.70400
C  22.58800 -1.39600 42.87100
C  22.59800 -2.75100 43.61000
C  21.87700 -0.27400 43.62100
C  24.62100 -1.58200 41.30800
C  25.43300 -0.50300 40.57700
H  25.40400 -0.61400 39.04700
N  22.09500 -5.37000 45.15500
C  21.20300 -4.74700 44.33200
C  20.02000 -5.53200 44.30200
C  20.28800 -6.80600 45.01400
C  21.71200 -6.66200 45.43400
C  18.76500 -5.08200 43.51000
C  19.35000 -7.89500 45.20600
O  18.31400 -7.93000 44.59100
C  19.55800 -9.04800 46.22900
N  24.76600 -6.73500 46.24200
C  23.88800 -7.76500 46.46200
C  24.46300 -8.92100 47.19000
C  25.99100 -8.33900 47.40700
C  25.97800 -6.98000 46.82100
C  23.66200 -9.46500 48.36900
C  27.08800 -9.34800 46.97000
C  28.10700 -9.65100 48.02800
N  26.10800 -4.29200 45.58100
C  27.17600 -4.90800 46.20700
C  28.35800 -4.02700 46.04100
C  27.91000 -3.01900 45.21400
C  26.52000 -3.21600 44.94500
C  29.72400 -4.30000 46.48500
C  28.41200 -1.88400 44.44100
O  29.56700 -1.47600 44.40800
C  27.16200 -1.26000 43.67000
C  26.87300 0.14000 44.06400
O  26.43400 0.39300 45.13500
O  27.39200 0.96200 43.07500
C  27.49000 2.45200 43.23400
H  20.60400 -3.04700 43.17100
H  22.01500 -8.64300 46.22400
H  27.96100 -6.54300 47.29600
H  24.36800 -0.14600 42.99500
H  22.02900 -1.36100 41.93600
H  21.41600 -0.74100 44.49100
H  21.17700 0.08500 42.86600
H  22.44800 0.59100 43.95800
H  23.74000 -1.69200 40.67500
H  25.26900 -2.45200 41.40700
H  26.46400 -0.56300 40.92600
H  25.04600 0.48300 40.83600
H  17.91600 -5.29100 44.16200
H  18.72300 -5.71800 42.62600
H  18.72900 -4.04900 43.16500
H  18.58600 -9.34100 46.62600
H  20.10200 -8.81800 47.14600
H  20.02000 -9.87600 45.69200
H  24.53300 -9.58500 46.32900
H  26.22900 -8.14800 48.45300
H  23.66100 -10.55500 48.33700
H  22.60400 -9.26600 48.19700
H  24.02200 -9.11800 49.33700
H  27.58600 -8.85100 46.13800
H  26.69600 -10.28500 46.57300
H  27.80900 -9.21900 48.98300
H  29.02200 -9.24800 47.59300
H  28.19300 -10.73700 48.06200
H  30.39400 -3.82300 45.77000
H  29.97700 -5.34400 46.66700
H  29.88000 -3.84000 47.46100
H  27.42500 -1.29000 42.61300
H  28.25500 2.49500 44.00900
H  26.58400 2.85900 43.68400
H  27.79400 3.03400 42.36400
Mg 26.98600 50.39300 26.20000
C  24.66800 51.31100 28.70100
C  29.13900 49.40200 28.74700
C  29.22000 49.89700 23.89900
C  24.81800 51.96300 23.75400
N  26.92300 50.41600 28.50900
C  25.78600 50.67700 29.27400
C  26.02100 50.51600 30.76100
C  27.47500 49.90200 30.73400
C  27.85500 49.78800 29.26100
C  28.55000 50.66100 31.60000
C  24.89200 49.50200 31.40000
C  24.23600 49.86000 32.72700
H  25.15300 50.57000 33.77800
N  28.93000 49.75400 26.25900
C  29.59900 49.39900 27.39100
C  30.99100 49.07100 26.98900
C  31.04000 49.18200 25.58500
C  29.72500 49.61400 25.16400
C  32.07000 48.63700 27.97300
C  32.21500 48.88600 24.64000
O  32.14100 49.07600 23.41500
C  33.43600 48.26400 25.07800
N  27.03700 51.02700 24.13800
C  28.08200 50.58200 23.39100
C  27.77500 50.65800 21.91100
C  26.24000 50.98300 21.86700
C  25.97500 51.31400 23.35800
C  28.66800 51.66300 21.13700
C  25.28800 49.84200 21.34900
C  23.98100 50.43300 20.85200
N  25.16100 51.50100 26.16200
C  24.42800 52.09200 25.10900
C  23.18100 52.55000 25.62300
C  23.28000 52.31800 27.08800
C  24.46400 51.61600 27.34600
C  22.09000 53.21200 24.88300
C  22.60000 52.60300 28.25800
O  21.59200 53.30900 28.44800
C  23.35600 51.83600 29.31000
C  23.49000 52.77200 30.57100
O  24.51400 53.42400 30.79900
O  22.33500 52.66200 31.28400
C  22.39700 53.32200 32.63100
H  29.80100 49.09600 29.56100
H  29.94900 49.48400 23.20000
H  24.04000 52.22300 23.03400
H  26.01300 51.51300 31.20300
H  27.41600 48.85800 31.03900
H  29.32300 51.18700 31.04000
H  28.98300 49.92700 32.28000
H  28.08600 51.38000 32.27600
H  25.40200 48.55100 31.55500
H  24.08700 49.39000 30.67300
H  23.90800 48.93100 33.19300
H  23.27900 50.34700 32.54100
H  32.51100 47.67200 27.72300
H  31.58700 48.68400 28.94900
H  32.87400 49.36900 27.90500
H  33.31600 47.31300 25.59600
H  33.84900 48.97700 25.79100
H  34.06300 48.21800 24.18700
H  27.82100 49.66800 21.45700
H  26.08100 51.87800 21.26600
H  29.62200 51.78000 21.65000
H  28.18500 52.61700 20.92900
H  28.83600 51.22200 20.15500
H  25.04300 49.11400 22.12300
H  25.68600 49.31600 20.48100
H  23.99100 51.51500 20.72400
H  23.20300 50.17100 21.57000
H  23.80200 50.07100 19.84000
H  22.63300 53.79700 24.14000
H  21.54900 54.00300 25.40300
H  21.36300 52.53400 24.43600
H  22.78200 50.98500 29.67800
H  22.89700 52.59700 33.27300
H  21.41300 53.53700 33.04800
H  22.95300 54.25800 32.59500

