158

Mg 8.72500 47.38800 27.18900
C  7.09500 46.85500 30.25100
C  11.64800 47.81300 28.97200
C  10.25300 48.68000 24.29000
C  5.64700 47.94000 25.64300
N  9.31400 47.35900 29.39000
C  8.53000 47.03000 30.42600
C  9.28000 47.17900 31.81300
C  10.71000 47.70600 31.31800
C  10.56700 47.66800 29.81400
C  11.01100 49.13600 31.82900
C  9.34900 45.84200 32.76800
C  9.04900 46.14900 34.27300
H  9.25600 45.14600 35.34900
N  10.68700 48.03000 26.66500
C  11.73300 47.95200 27.54200
C  12.98900 48.28200 26.82500
C  12.61000 48.47200 25.46700
C  11.17000 48.43000 25.38200
C  14.35000 48.39200 27.44300
C  13.52300 48.62000 24.28100
O  13.14700 48.86300 23.16700
C  14.96500 48.61600 24.37500
N  8.10200 48.18900 25.33200
C  8.88800 48.48500 24.31100
C  8.09700 48.91100 23.00500
C  6.59100 48.48300 23.41800
C  6.82900 48.07200 24.86900
C  8.34000 50.42800 22.55400
C  6.15200 47.28600 22.48200
C  5.85500 47.65400 20.97500
N  6.76900 47.25600 27.73100
C  5.65100 47.57000 27.05400
C  4.49100 47.22300 27.84500
C  5.02800 46.91300 29.14100
C  6.44400 47.00600 29.04000
C  3.08800 47.36100 27.39700
C  4.71200 46.71100 30.53500
O  3.63200 46.69700 31.04800
C  6.05200 46.52400 31.28600
C  6.07900 45.20100 32.03600
O  6.49700 44.12800 31.52300
O  5.71100 45.30000 33.34000
C  5.87700 44.10100 34.10500
H  12.55200 47.75300 29.58200
H  10.62500 49.12000 23.36200
H  4.68300 47.95000 25.12900
H  8.70600 47.90500 32.38900
H  11.50300 47.03000 31.63900
H  10.83600 49.87200 31.04400
H  12.09700 49.21500 31.88100
H  10.56100 49.48500 32.75800
H  10.35200 45.42000 32.70300
H  8.75100 45.07400 32.27700
H  8.04000 46.54300 34.39800
H  9.71100 46.94200 34.62300
H  14.99100 47.57000 27.12600
H  14.14600 48.33500 28.51200
H  14.70300 49.35800 27.08000
H  15.27700 49.44200 25.01500
H  15.36700 48.78600 23.37700
H  15.21900 47.62800 24.75800
H  8.48300 48.29400 22.19400
H  5.99700 49.39200 23.31700
H  8.93300 50.53700 21.64600
H  8.83600 51.04600 23.30300
H  7.38900 50.93700 22.39400
H  5.27100 46.73800 22.81900
H  6.96000 46.55500 22.50500
H  6.67900 47.23100 20.39900
H  5.68600 48.71800 20.81200
H  4.93300 47.09200 20.82800
H  2.90300 48.00900 26.54000
H  2.45500 47.56500 28.26000
H  2.81200 46.35400 27.08200
H  6.15700 47.28300 32.06100
H  5.86800 44.31700 35.17300
H  6.89000 43.70100 34.04600
H  5.31400 43.26500 33.68900
Mg -1.83700 34.23100 26.43600
C  -3.08900 32.54300 29.12900
C  -0.40900 36.53200 28.62900
C  -0.88700 36.03100 23.75200
C  -3.66500 31.99100 24.28400
N  -1.90100 34.53300 28.60700
C  -2.30800 33.61200 29.49200
C  -1.76300 34.01300 30.95800
C  -0.88400 35.24900 30.68700
C  -1.08400 35.49300 29.17400
C  -1.12100 36.55500 31.49300
C  -1.12200 32.79400 31.78700
C  -1.69200 32.66700 33.23900
H  -0.69000 32.62100 34.45400
N  -0.86400 36.11100 26.26400
C  -0.33900 36.88400 27.30000
C  0.34600 38.04200 26.66400
C  0.27800 37.89300 25.27700
C  -0.52600 36.66900 25.02900
C  1.03100 39.06100 27.57800
C  0.88800 38.86600 24.24900
O  0.72700 38.71900 23.05900
C  1.74800 40.00600 24.76600
N  -2.19900 34.02800 24.30100
C  -1.59700 34.90700 23.45300
C  -1.85200 34.40500 22.02300
C  -2.53300 32.99900 22.22300
C  -2.81500 32.97200 23.68100
C  -2.67200 35.55700 21.28200
C  -1.60700 31.78300 21.82600
C  -0.21100 31.64000 22.30800
N  -3.16600 32.63800 26.59200
C  -3.78200 31.80200 25.70000
C  -4.54100 30.76600 26.34700
C  -4.28000 31.08900 27.65400
C  -3.49000 32.21500 27.78700
C  -5.31100 29.64400 25.74400
C  -4.54200 30.57100 28.93700
O  -5.20100 29.57900 29.28400
C  -3.71000 31.46200 29.99000
C  -4.72400 31.95500 31.02200
O  -5.52600 32.80200 30.81800
O  -4.48900 31.11300 32.10500
C  -5.36000 31.31900 33.25000
H  0.29400 37.08300 29.25800
H  -0.34500 36.48900 22.92300
H  -4.00000 31.12100 23.71600
H  -2.65600 34.24800 31.53700
H  0.13900 35.00400 30.97400
H  -1.56900 37.33300 30.87500
H  -0.13900 36.91400 31.80200
H  -1.72200 36.25300 32.35100
H  -0.04800 32.98100 31.79500
H  -1.21300 31.88500 31.19300
H  -2.16800 31.68600 33.23300
H  -2.40400 33.44800 33.50400
H  0.59500 40.02500 27.31800
H  2.11300 39.04300 27.44900
H  0.75100 38.91400 28.62100
H  2.22500 40.48600 23.91100
H  2.55000 39.72100 25.44800
H  1.00000 40.65000 25.22800
H  -0.90400 34.32200 21.49100
H  -3.48000 32.93000 21.68800
H  -2.02600 36.03100 20.54200
H  -3.02600 36.31300 21.98200
H  -3.56400 35.27000 20.72500
H  -1.80400 31.66100 20.76100
H  -2.11600 30.94100 22.29500
H  -0.02400 32.27000 23.17700
H  0.36300 32.06800 21.48600
H  0.16500 30.62000 22.39300
H  -4.95200 29.42300 24.73900
H  -6.33700 29.97700 25.58900
H  -5.40900 28.74700 26.35600
H  -2.89400 30.88800 30.42900
H  -6.25200 30.69300 33.22600
H  -5.59500 32.38300 33.29600
H  -4.93400 31.10600 34.23000

