158

Mg -2.16200 17.14500 26.18900
C  -2.50300 14.60700 28.72000
C  -3.19900 19.44300 28.60100
C  -1.88300 19.65700 24.02700
C  -1.87800 14.61200 23.86100
N  -2.62700 17.03600 28.30000
C  -2.55900 15.91000 29.18900
C  -2.80800 16.25300 30.64300
C  -3.46700 17.66900 30.44400
C  -3.15700 18.07600 28.96100
C  -4.94700 17.74200 30.73500
C  -1.41700 16.37500 31.43200
C  -1.47400 17.24100 32.75800
H  -1.01600 16.63200 34.03600
N  -2.52000 19.31000 26.25600
C  -2.97300 20.04600 27.37500
C  -3.13400 21.46600 26.96900
C  -2.79200 21.47200 25.59800
C  -2.32500 20.13100 25.25400
C  -3.44400 22.66700 27.95600
C  -2.79100 22.57900 24.55500
O  -2.57500 22.38400 23.39300
C  -3.12300 23.96400 25.05000
N  -2.00600 17.16600 24.23700
C  -1.86500 18.30200 23.47400
C  -1.57400 17.93400 22.06100
C  -1.39300 16.35400 22.12700
C  -1.73100 16.00200 23.52300
C  -2.70600 18.45900 21.10900
C  0.12300 15.97400 21.83700
C  0.27600 15.00500 20.62800
N  -2.06100 15.01500 26.21900
C  -1.99400 14.12100 25.15000
C  -2.00700 12.77000 25.62000
C  -2.23200 12.91300 27.01100
C  -2.28200 14.32100 27.32500
C  -1.80800 11.54600 24.78800
C  -2.31400 12.18700 28.24700
O  -2.07000 10.99000 28.39400
C  -2.76300 13.25900 29.38600
C  -1.82500 12.99500 30.56200
O  -0.66500 12.85800 30.49600
O  -2.57700 12.96800 31.72500
C  -1.96100 12.44800 32.89200
H  -3.59700 19.95100 29.48200
H  -1.56000 20.39000 23.28500
H  -1.74700 13.90100 23.04300
H  -3.54200 15.64500 31.17200
H  -3.16200 18.46800 31.12000
H  -5.28900 18.73100 30.43100
H  -4.93800 17.71900 31.82500
H  -5.52700 16.94200 30.27600
H  -0.56200 16.67600 30.82500
H  -1.22000 15.33700 31.69700
H  -2.51400 17.53500 32.90500
H  -0.98700 18.21600 32.78400
H  -3.20900 22.42600 28.99300
H  -4.48900 22.97600 27.94400
H  -2.90900 23.57400 27.67400
H  -4.06600 23.81300 25.57700
H  -3.20700 24.59200 24.16300
H  -2.31600 24.24100 25.72800
H  -0.63800 18.37700 21.72100
H  -2.06300 15.85000 21.43200
H  -3.55700 18.51600 21.78700
H  -3.00800 17.74800 20.34000
H  -2.37600 19.43700 20.75700
H  0.62500 15.56000 22.71200
H  0.73800 16.85200 21.63700
H  -0.68500 14.55200 20.38600
H  1.08400 14.27500 20.68100
H  0.43300 15.74800 19.84600
H  -1.10800 11.74000 23.97600
H  -2.76400 11.25000 24.35500
H  -1.35700 10.87400 25.51900
H  -3.80700 13.10400 29.66000
H  -0.87400 12.48500 32.82400
H  -2.28600 11.42500 33.08100
H  -2.45600 12.97000 33.71100
Mg 40.77900 8.32500 30.02300
C  42.62100 9.83300 32.60000
C  38.48800 7.12500 32.08700
C  39.18100 7.26200 27.38100
C  43.62000 9.25600 27.91800
N  40.65700 8.39300 32.18700
C  41.39000 9.14600 33.02800
C  40.91100 8.94100 34.48600
C  39.58300 8.11600 34.27800
C  39.56600 7.82500 32.72600
C  39.58300 6.87400 35.23400
C  40.65200 10.32700 35.16400
C  39.72300 10.27100 36.46300
H  40.13000 11.32900 37.53800
N  39.01700 7.29800 29.82700
C  38.16600 6.89900 30.77300
C  37.05500 6.27300 30.14000
C  37.22700 6.40200 28.75800
C  38.56400 6.98600 28.62300
C  35.99500 5.50200 30.91300
C  36.32600 5.97300 27.67000
O  36.73000 5.93400 26.49700
C  34.89300 5.67300 27.93600
N  41.37300 8.10700 27.96900
C  40.48100 7.78200 27.04200
C  41.11800 7.87800 25.61900
C  42.45500 8.59100 25.83200
C  42.50800 8.65600 27.39200
C  41.22000 6.53000 24.91900
C  42.54400 9.90700 25.15200
C  41.57200 11.03600 25.62000
N  42.64600 9.46300 30.15100
C  43.67200 9.75500 29.22800
C  44.73600 10.51400 29.80500
C  44.37000 10.66200 31.13200
C  43.11600 9.90900 31.29800
C  46.03100 10.91300 29.17300
C  44.62800 11.17800 32.40200
O  45.53700 11.85200 32.79800
C  43.52200 10.67900 33.43600
C  44.18800 9.85000 34.46900
O  44.50200 8.69900 34.40100
O  44.44800 10.63100 35.61700
C  45.07900 9.92900 36.77800
H  37.76800 6.72300 32.80200
H  38.73300 6.90900 26.45000
H  44.44800 9.55500 27.27300
H  41.61600 8.25700 34.95900
H  38.68300 8.70500 34.45500
H  38.53200 6.74900 35.49300
H  40.10700 7.01000 36.18000
H  40.00700 6.03200 34.68700
H  40.31200 11.08400 34.45600
H  41.60400 10.64500 35.58900
H  39.71300 9.25400 36.85600
H  38.71200 10.56500 36.18300
H  35.04700 6.03400 30.83000
H  36.26200 5.43100 31.96700
H  36.00400 4.48600 30.51700
H  34.71900 4.82400 28.59800
H  34.41700 5.63500 26.95700
H  34.51200 6.54000 28.47700
H  40.36600 8.34400 24.98200
H  43.32100 8.01100 25.51500
H  42.24300 6.15400 24.91000
H  40.84900 6.65200 23.90100
H  40.63700 5.79900 25.48000
H  42.40100 9.71000 24.09000
H  43.54900 10.29000 25.32800
H  41.10300 10.75800 26.56400
H  40.83500 11.38900 24.89800
H  42.07400 11.97900 25.83700
H  46.01400 10.92700 28.08300
H  46.75200 10.16600 29.50700
H  46.21300 11.93600 29.50200
H  43.20200 11.62700 33.86800
H  45.62600 9.02600 36.50900
H  44.37300 9.54600 37.51500
H  45.78000 10.57100 37.31100

