158

Mg 47.32000 24.81700 27.66300
C  48.50400 26.86700 30.33800
C  46.64400 22.39700 29.99700
C  46.42700 22.81000 25.11100
C  48.37900 27.29600 25.35200
N  47.54700 24.68300 29.86100
C  47.90100 25.64900 30.75900
C  47.87900 25.19500 32.25200
C  47.44700 23.69600 32.03800
C  47.11000 23.59700 30.55000
C  48.46800 22.66300 32.48100
C  46.88500 26.11600 33.13400
C  47.15100 25.99100 34.63200
H  46.42000 26.86200 35.68600
N  46.61200 22.86000 27.58800
C  46.41200 22.02600 28.69800
C  45.90000 20.75100 28.18200
C  45.94200 20.82800 26.74700
C  46.32900 22.18000 26.39100
C  45.69300 19.56700 29.05300
C  45.78400 19.68600 25.80800
O  45.99200 19.68100 24.59700
C  45.17400 18.40300 26.35600
N  47.60000 24.92900 25.53000
C  46.95900 24.07900 24.65900
C  46.78800 24.61100 23.23700
C  47.38500 26.06900 23.34500
C  47.71800 26.15900 24.85200
C  47.46500 23.79000 22.05800
C  46.56300 27.27100 22.81400
C  47.14300 27.92900 21.55400
N  48.28900 26.63800 27.77100
C  48.76600 27.49300 26.73800
C  49.45700 28.61900 27.33900
C  49.26500 28.46400 28.70000
C  48.64100 27.19000 28.95900
C  50.08900 29.76200 26.65600
C  49.58800 29.08500 29.95800
O  50.17200 30.16100 30.19000
C  49.10400 28.05400 31.06400
C  50.09500 27.71700 32.06700
O  51.06200 26.99300 31.84800
O  49.85200 28.35600 33.24300
C  50.75600 28.22000 34.41200
H  46.32100 21.72500 30.79500
H  46.02700 22.17600 24.31700
H  48.56500 28.11500 24.65400
H  48.88000 25.34300 32.65800
H  46.58400 23.53900 32.68400
H  47.94900 21.90700 33.07000
H  49.21900 23.05500 33.16700
H  49.05500 22.20600 31.68500
H  45.83500 25.88400 32.95300
H  47.01700 27.17800 32.92800
H  48.22500 25.93000 34.81200
H  46.82300 24.99200 34.91800
H  44.65800 19.23000 28.99600
H  45.82900 19.76300 30.11600
H  46.43700 18.82900 28.75200
H  45.81300 18.01200 27.14800
H  45.21000 17.71800 25.50900
H  44.16300 18.56400 26.72900
H  45.78800 24.76100 22.83000
H  48.36100 26.02500 22.86000
H  48.30300 24.31700 21.60100
H  46.81500 23.67700 21.19100
H  47.79800 22.83700 22.47000
H  46.48000 28.10100 23.51600
H  45.56400 26.96700 22.50100
H  47.51700 28.95300 21.57700
H  46.26400 28.12300 20.93900
H  47.78500 27.32000 20.91800
H  49.56500 30.70500 26.80900
H  50.22500 29.59200 25.58800
H  51.13000 29.93400 26.93000
H  48.27800 28.62500 31.49000
H  51.25700 29.11300 34.78800
H  51.47200 27.40800 34.28700
H  50.09600 28.13500 35.27500
Mg 16.69800 51.98700 26.17300
C  18.46300 50.60600 28.94700
C  14.20100 52.92300 28.26500
C  15.12400 53.32500 23.47700
C  18.93500 50.37500 24.06500
N  16.35100 51.70700 28.29200
C  17.25100 51.27000 29.27900
C  16.86500 51.64500 30.67100
C  15.38600 52.14400 30.44700
C  15.33200 52.35500 28.90800
C  14.29900 51.12900 30.90300
C  17.90300 52.55700 31.33500
C  17.93500 52.70400 32.86700
H  16.85200 52.08100 33.65700
N  14.87200 53.00500 25.90000
C  13.94900 53.17600 26.85900
C  12.80500 53.84700 26.27900
C  13.04200 54.09600 24.87700
C  14.38600 53.49200 24.68200
C  11.54700 54.21600 27.07500
C  12.17500 54.69300 23.83900
O  12.54900 54.77000 22.66700
C  10.76500 55.13000 24.22600
N  17.05100 51.92900 24.05500
C  16.27400 52.56800 23.18100
C  16.74000 52.31800 21.79200
C  18.12600 51.58200 21.98200
C  18.08800 51.25600 23.46000
C  15.81300 51.61300 20.85400
C  19.27600 52.42200 21.63800
C  20.56100 51.67500 21.28200
N  18.41800 50.83100 26.40100
C  19.17000 50.18400 25.45000
C  20.18400 49.33300 26.12100
C  19.91600 49.48200 27.45800
C  18.89600 50.42300 27.60400
C  21.21200 48.49600 25.37900
C  20.34200 49.03500 28.79200
O  21.26000 48.31400 29.23300
C  19.41200 49.74500 29.81100
C  18.74400 48.89300 30.82500
O  17.92900 48.02000 30.64600
O  19.24200 49.20400 32.05500
C  18.77800 48.31900 33.17300
H  13.38900 53.21800 28.93300
H  14.70900 53.75800 22.56400
H  19.63800 49.84700 23.41700
H  16.86700 50.74100 31.28100
H  15.22700 53.03600 31.05300
H  13.91200 50.51500 30.09000
H  13.41100 51.52100 31.39800
H  14.64400 50.53000 31.74600
H  17.74400 53.58000 30.99500
H  18.86500 52.13900 31.03800
H  17.88500 53.77600 33.05800
H  18.91700 52.31700 33.14100
H  11.79200 54.29700 28.13400
H  10.76500 53.46000 26.99800
H  11.23100 55.24700 26.91300
H  10.21300 55.27400 23.29700
H  10.79100 56.00900 24.86900
H  10.12800 54.35800 24.65800
H  16.96600 53.31900 21.42400
H  18.17700 50.62100 21.47000
H  14.89700 51.34200 21.37800
H  16.33300 50.73600 20.47100
H  15.59200 52.26500 20.00800
H  19.63900 53.16000 22.35400
H  19.06100 53.00200 20.74100
H  21.16000 52.15300 20.50700
H  20.61800 50.60700 21.07000
H  21.17000 51.84100 22.17100
H  21.63000 47.95000 26.22500
H  21.93600 49.09000 24.82200
H  20.73000 47.82800 24.66600
H  20.02200 50.48300 30.33200
H  19.61800 48.29400 33.86600
H  18.65500 47.27000 32.90500
H  17.92900 48.69800 33.74200

