158

Mg -1.46100 17.77700 26.97600
C  -2.00300 15.83300 29.78400
C  -2.18500 20.53000 29.03800
C  -1.71700 19.82400 24.26500
C  -2.09500 14.99900 24.91900
N  -2.02500 18.16600 29.17200
C  -1.98300 17.18800 30.14900
C  -2.14400 17.78500 31.57300
C  -2.63500 19.25300 31.24900
C  -2.28700 19.35800 29.71100
C  -4.19300 19.60400 31.49700
C  -0.93800 17.75800 32.51500
C  -1.45500 17.56800 34.04100
H  -0.49200 16.78400 34.86900
N  -1.66800 19.86400 26.68700
C  -1.96300 20.81600 27.66500
C  -1.93100 22.13700 27.02600
C  -1.66000 21.86500 25.72500
C  -1.67300 20.46500 25.46900
C  -2.15300 23.41200 27.66100
C  -1.20700 22.83400 24.58800
O  -0.88000 22.60900 23.45200
C  -1.31300 24.32300 24.95800
N  -1.91100 17.39800 24.91900
C  -1.73700 18.40700 24.02500
C  -1.75300 17.86800 22.52200
C  -1.83200 16.30400 22.76700
C  -1.99900 16.17000 24.29000
C  -2.89800 18.51500 21.72300
C  -0.65800 15.53000 22.18800
C  0.74700 15.77600 22.82400
N  -1.82800 15.76900 27.24500
C  -2.03500 14.72600 26.33200
C  -2.22300 13.52100 27.05600
C  -2.19600 13.90300 28.46300
C  -1.92700 15.25900 28.49400
C  -2.34100 12.13600 26.47700
C  -2.35000 13.36200 29.80100
O  -2.62900 12.24100 30.20600
C  -2.37800 14.67900 30.73600
C  -1.35000 14.35200 31.77200
O  -0.15500 14.61000 31.66700
O  -1.89800 13.76500 32.94700
C  -0.91700 13.30500 33.94400
H  -2.45000 21.37500 29.67800
H  -1.73300 20.43800 23.36200
H  -2.33300 14.14200 24.28600
H  -3.05300 17.33000 31.96600
H  -2.07400 19.95000 31.87200
H  -4.27300 20.22700 32.38800
H  -4.68300 18.65300 31.70600
H  -4.67900 20.15700 30.69300
H  -0.39200 18.68400 32.33800
H  -0.20100 16.97700 32.32600
H  -2.51500 17.32200 34.09400
H  -1.40500 18.56300 34.48200
H  -1.23600 23.98300 27.80300
H  -2.38800 23.17600 28.69900
H  -2.97500 24.01000 27.26600
H  -2.37700 24.55300 25.02200
H  -0.85700 24.84000 24.11400
H  -0.67200 24.63300 25.78300
H  -0.79500 18.18800 22.11200
H  -2.79600 15.97800 22.37800
H  -3.80700 17.93100 21.86600
H  -2.66000 18.53700 20.66000
H  -3.14000 19.49200 22.14100
H  -0.86800 15.72000 21.13500
H  -0.90800 14.48000 22.33800
H  0.67800 16.25300 23.80100
H  1.35100 16.28300 22.07100
H  1.25200 14.82500 22.99300
H  -1.40100 11.58900 26.55800
H  -2.61600 12.14100 25.42200
H  -3.09800 11.63300 27.07800
H  -3.31100 14.77800 31.29100
H  -0.38000 12.49000 33.45800
H  -1.42200 12.86600 34.80500
H  -0.19600 14.04800 34.28500
Mg 0.48700 43.73400 26.34700
C  2.91900 43.35100 28.94800
C  -1.94600 42.90500 28.68100
C  -1.59300 43.44300 23.88800
C  3.23200 43.94300 24.09800
N  0.58500 43.29300 28.56100
C  1.58500 43.23000 29.36900
C  1.14900 43.10400 30.88800
C  -0.24500 42.51400 30.65700
C  -0.58200 42.92800 29.23300
C  -0.21600 40.86500 30.78900
C  1.12500 44.49900 31.51300
C  1.47700 44.56300 32.99800
H  1.09600 43.43000 33.91700
N  -1.52900 43.35400 26.31800
C  -2.36900 43.06200 27.36700
C  -3.66300 43.05900 26.84700
C  -3.60700 43.07600 25.45300
C  -2.26000 43.30400 25.13700
C  -4.81600 43.13900 27.78200
C  -4.82000 42.98200 24.40100
O  -4.66000 43.32000 23.22800
C  -6.25700 42.75100 24.85500
N  0.79700 43.52400 24.31800
C  -0.26400 43.48800 23.48400
C  0.19200 43.22000 22.05000
C  1.70300 43.59000 22.08600
C  1.95600 43.61700 23.62200
C  -0.05700 41.74700 21.62100
C  1.94400 44.96300 21.44500
C  2.51500 44.95200 20.02000
N  2.66500 43.80000 26.48800
C  3.57500 43.96500 25.47600
C  4.94200 43.99200 26.00400
C  4.71300 43.88800 27.38300
C  3.39200 43.59400 27.58500
C  6.16700 43.99400 25.24700
C  5.31400 43.77600 28.73500
O  6.50100 43.82700 28.96900
C  4.24700 43.41700 29.82000
C  4.53700 42.20000 30.52400
O  4.46700 41.05800 30.06500
O  4.87700 42.53800 31.81100
C  5.30400 41.51600 32.71400
H  -2.74200 42.74100 29.41000
H  -2.31400 43.27700 23.08600
H  3.97800 44.07000 23.31000
H  1.87600 42.43900 31.35400
H  -0.95300 42.85600 31.41200
H  -0.80200 40.61400 31.67200
H  0.78300 40.43200 30.73800
H  -0.74600 40.41900 29.94700
H  0.19700 45.03800 31.32000
H  1.85400 45.03500 30.90500
H  1.04700 45.45700 33.45000
H  2.55000 44.73300 33.08800
H  -5.11600 42.14600 28.11600
H  -5.62300 43.64300 27.25000
H  -4.57800 43.68100 28.69700
H  -6.90400 42.47300 24.02300
H  -6.60600 43.75400 25.10000
H  -6.22400 41.90700 25.54500
H  -0.42500 43.85400 21.41200
H  2.42600 42.90400 21.64500
H  0.74200 41.08200 21.94800
H  -0.34200 41.59300 20.58100
H  -0.93300 41.35500 22.13800
H  2.69600 45.58200 21.93400
H  0.98600 45.46400 21.30600
H  1.74500 45.17200 19.28100
H  2.81500 43.94000 19.74700
H  3.31300 45.67500 19.84600
H  6.22400 44.96000 24.74600
H  6.15100 43.18600 24.51500
H  7.10500 44.03900 25.80200
H  4.12300 44.24200 30.52100
H  6.32100 41.12400 32.68300
H  4.67000 40.63300 32.63700
H  5.10600 41.99100 33.67500

