158

Mg 43.79400 3.91000 47.14100
C  41.75300 6.85000 46.96900
C  40.74100 2.01000 47.08200
C  45.39600 1.04600 46.50700
C  46.55400 5.79200 46.71500
N  41.49600 4.39500 47.13600
C  40.95700 5.64900 47.08300
C  39.38100 5.56200 47.23900
C  39.17800 4.03500 47.29300
C  40.55800 3.42200 47.10500
C  38.44400 3.43900 48.56100
C  38.57200 6.27700 46.13100
C  38.67100 5.74600 44.76800
H  38.65000 6.73000 43.61000
N  43.22700 1.79800 46.93500
C  41.94900 1.24300 46.90300
C  42.01200 -0.18000 46.69200
C  43.41700 -0.51500 46.52800
C  44.08900 0.78200 46.56200
C  40.84300 -1.05400 46.39800
C  43.96700 -1.92900 46.24400
O  43.28000 -2.94600 46.19600
C  45.50000 -2.22000 45.91800
N  45.68000 3.52900 46.37900
C  46.13900 2.18600 46.52400
C  47.66400 2.22500 46.55200
C  48.04900 3.75800 46.73200
C  46.71600 4.42700 46.65800
C  48.25600 1.30400 47.63200
C  49.08300 4.31600 45.67100
C  50.49800 4.31500 46.25400
N  44.17300 5.92400 46.69300
C  45.38600 6.58900 46.68100
C  45.18500 7.99200 46.70300
C  43.79500 8.15800 46.89200
C  43.19500 6.87100 46.84500
C  46.25400 8.94000 46.56300
C  42.75700 9.11100 47.00700
O  42.75200 10.34500 47.07400
C  41.47200 8.27400 47.07400
C  40.71600 8.65800 48.33700
O  40.85800 8.10800 49.42300
O  39.88000 9.64800 48.04200
C  39.17300 10.24300 49.13900
H  39.81400 1.44400 47.19000
H  45.97800 0.12800 46.40100
H  47.53000 6.28100 46.68800
H  39.17600 5.99700 48.21700
H  38.58200 3.70200 46.44300
H  38.14000 4.35500 49.06600
H  39.12400 2.79300 49.11600
H  37.54700 2.88200 48.28800
H  38.90700 7.30600 46.00800
H  37.52100 6.23700 46.41900
H  37.70700 5.28300 44.56000
H  39.43500 4.97700 44.65800
H  41.07000 -1.63800 45.50600
H  39.98400 -0.42500 46.16600
H  40.42300 -1.59000 47.24900
H  45.62800 -1.64100 45.00300
H  45.56400 -3.23200 45.51900
H  46.16900 -2.10100 46.77000
H  47.89500 1.79800 45.57600
H  48.45300 3.93800 47.72800
H  49.24900 1.66800 47.89500
H  48.35900 0.26400 47.32100
H  47.67100 1.23500 48.54900
H  48.89400 5.33500 45.33600
H  49.07500 3.65300 44.80500
H  50.44100 4.15000 47.33000
H  50.90600 5.29200 45.99600
H  51.07700 3.46300 45.89700
H  47.15000 8.44300 46.19200
H  46.36600 9.39800 47.54600
H  45.94800 9.65500 45.80000
H  40.83500 8.42700 46.20200
H  39.81000 10.30900 50.02200
H  38.42600 9.50700 49.43600
H  38.58500 11.11500 48.85400
Mg -0.91100 34.30100 26.55500
C  -2.59600 32.52900 29.21200
C  0.54400 36.27800 28.79600
C  -0.00200 36.26800 24.04000
C  -2.76600 32.30300 24.30700
N  -1.13700 34.33400 28.71500
C  -1.75600 33.57400 29.71200
C  -1.34100 33.96700 31.07800
C  -0.42100 35.21800 30.80300
C  -0.37500 35.33900 29.30600
C  -0.94200 36.54800 31.49700
C  -0.70800 32.81800 31.98900
C  -1.47700 32.47400 33.28400
H  -0.78000 32.27500 34.63800
N  0.33300 35.93500 26.37200
C  0.76900 36.68000 27.47100
C  1.67500 37.65100 27.00200
C  1.61600 37.66400 25.59200
C  0.61300 36.59300 25.29700
C  2.51800 38.52400 28.05400
C  2.36200 38.47600 24.58500
O  2.20200 38.31900 23.38900
C  3.39900 39.41000 25.05600
N  -1.37800 34.37100 24.53800
C  -0.88300 35.27200 23.67300
C  -1.21100 34.97500 22.21500
C  -1.77000 33.55100 22.34400
C  -2.03300 33.36500 23.84600
C  -2.25100 35.97600 21.52700
C  -0.82500 32.50400 21.74700
C  0.37400 32.04900 22.59000
N  -2.37600 32.70600 26.69300
C  -3.01300 32.00400 25.67000
C  -3.98800 31.11900 26.26400
C  -3.82100 31.23200 27.66700
C  -2.84300 32.21100 27.85700
C  -4.94700 30.30400 25.57300
C  -4.18700 30.70100 28.96700
O  -5.14300 29.94500 29.23500
C  -3.36900 31.48900 30.00200
C  -4.27100 32.08100 31.06900
O  -4.93500 33.09100 30.93900
O  -4.33800 31.21800 32.14700
C  -5.29200 31.49000 33.19700
H  1.23700 36.75000 29.49500
H  0.40000 36.85800 23.21400
H  -3.21900 31.65900 23.55100
H  -2.13600 34.40000 31.68500
H  0.59500 34.96000 31.10000
H  -1.47900 37.12500 30.74400
H  -0.02800 37.11800 31.66400
H  -1.56900 36.42400 32.38000
H  0.23400 33.22500 32.35700
H  -0.45600 31.88800 31.48000
H  -1.98100 31.51500 33.16100
H  -2.34100 33.13700 33.33100
H  3.58800 38.56200 27.84700
H  2.39200 38.27800 29.10800
H  2.17200 39.55300 27.95600
H  3.39700 40.26500 24.38000
H  4.36000 38.89600 25.08200
H  3.16300 39.79800 26.04600
H  -0.24500 34.92900 21.71300
H  -2.70100 33.49200 21.78000
H  -2.60300 36.69500 22.26700
H  -3.17700 35.47800 21.24100
H  -1.77100 36.32300 20.61200
H  -0.52200 32.74900 20.72900
H  -1.50500 31.65700 21.65400
H  0.00800 31.71000 23.55800
H  1.04400 32.87800 22.82200
H  0.85100 31.28300 21.97900
H  -5.69000 31.00500 25.19300
H  -5.41300 29.50800 26.15400
H  -4.46100 29.93200 24.67100
H  -2.74200 30.71500 30.44500
H  -4.79600 31.46800 34.16700
H  -5.97000 30.63900 33.11900
H  -5.98200 32.33300 33.17100

