158

Mg -1.37300 18.21300 27.13100
C  -1.75600 15.92100 29.80600
C  -2.17500 20.71900 29.19500
C  -1.50400 20.10700 24.49300
C  -1.56300 15.35700 25.03700
N  -1.64700 18.33600 29.28600
C  -1.77100 17.30300 30.18000
C  -1.83200 17.77300 31.64400
C  -2.00500 19.35500 31.38400
C  -1.99200 19.48300 29.86300
C  -3.34000 19.84500 31.95100
C  -0.52800 17.46700 32.49100
C  -0.23900 18.35800 33.78500
H  0.16700 17.59200 35.04700
N  -1.65900 20.21100 26.87800
C  -2.03800 21.13600 27.82200
C  -2.12900 22.46900 27.20600
C  -1.74900 22.25600 25.84500
C  -1.67700 20.80700 25.69900
C  -2.40500 23.72600 28.03100
C  -1.52000 23.23600 24.72300
O  -1.19200 22.88000 23.60900
C  -1.71400 24.72700 24.99500
N  -1.42000 17.76100 25.09000
C  -1.37700 18.78900 24.14600
C  -1.37400 18.24600 22.70300
C  -1.23700 16.72100 22.96400
C  -1.44700 16.61400 24.43100
C  -2.46000 18.74200 21.70800
C  0.16100 16.21700 22.61900
C  0.31500 14.77200 22.05800
N  -1.58700 16.06800 27.34100
C  -1.58400 15.03500 26.42500
C  -1.61100 13.77200 27.02000
C  -1.65500 14.07700 28.34500
C  -1.72900 15.44400 28.53000
C  -1.73500 12.44600 26.35500
C  -1.75000 13.48000 29.58600
O  -1.79300 12.32100 29.92200
C  -1.74200 14.61900 30.64400
C  -0.55400 14.47200 31.44600
O  0.57400 14.88800 31.02800
O  -0.80900 13.88800 32.64800
C  0.28100 13.76400 33.64300
H  -2.45000 21.46700 29.94200
H  -1.32000 20.58700 23.53000
H  -1.30000 14.53600 24.36700
H  -2.73100 17.32900 32.07200
H  -1.19800 19.92000 31.84900
H  -4.02100 20.14300 31.15400
H  -3.08600 20.75400 32.49700
H  -3.84200 19.06400 32.52300
H  0.29400 17.49900 31.77500
H  -0.69500 16.46800 32.89500
H  -1.20700 18.76700 34.07700
H  0.44900 19.16100 33.51900
H  -2.76500 23.69900 29.06000
H  -3.16300 24.26800 27.46500
H  -1.51200 24.34200 27.92700
H  -0.88500 25.02100 25.63900
H  -2.73700 24.91500 25.32000
H  -1.55500 25.32000 24.09400
H  -0.43000 18.68100 22.37600
H  -2.00400 16.09700 22.50800
H  -3.08700 17.86200 21.57100
H  -2.00700 18.99100 20.74800
H  -3.05100 19.56700 22.10600
H  0.70400 16.17500 23.56400
H  0.70600 16.88700 21.95500
H  1.22100 14.57100 21.48500
H  -0.58400 14.47200 21.51800
H  0.45500 14.06100 22.87200
H  -1.89900 11.61600 27.04200
H  -0.80600 12.27400 25.81100
H  -2.50500 12.43300 25.58400
H  -2.66600 14.64100 31.22200
H  0.24400 12.84100 34.22200
H  0.17900 14.64500 34.27700
H  1.26500 13.78800 33.17500
Mg 48.47700 15.77100 29.22700
C  46.32300 15.39200 32.14100
C  50.35700 17.89700 30.80300
C  49.93200 16.52600 26.20900
C  45.81400 14.05200 27.38600
N  48.22200 16.61900 31.19900
C  47.43000 16.29900 32.29900
C  48.00500 16.92100 33.57000
C  48.99300 17.98000 33.00200
C  49.19900 17.49800 31.55200
C  48.59300 19.50200 33.14300
C  48.62000 15.78500 34.57800
C  47.79900 15.52800 35.86200
H  47.72400 16.66800 36.83000
N  50.02800 16.90600 28.62800
C  50.74200 17.62100 29.52800
C  51.95900 18.14600 28.91100
C  51.87100 17.71800 27.57900
C  50.55300 17.01200 27.42500
C  53.06500 18.92700 29.70700
C  52.88900 17.95600 26.48200
O  52.72200 17.40600 25.41600
C  54.13200 18.70500 26.61300
N  47.94300 15.39800 27.09600
C  48.76600 15.75200 26.03800
C  48.21400 15.26300 24.70000
C  46.88300 14.50700 25.07800
C  46.92600 14.58300 26.62200
C  47.95400 16.42200 23.63100
C  46.76600 13.03900 24.54200
C  46.18800 12.97300 23.15900
N  46.56900 14.79200 29.67400
C  45.65600 14.11600 28.84800
C  44.55900 13.59000 29.61500
C  44.75000 14.15500 30.93300
C  45.99200 14.79800 30.90300
C  43.31600 12.84200 29.10000
C  44.22000 14.23800 32.24400
O  43.19200 13.76700 32.67400
C  45.17700 15.12700 33.08100
C  44.52300 16.36500 33.57600
O  43.85500 17.16600 32.92300
O  44.39400 16.34200 34.91600
C  43.34800 17.13000 35.52500
H  50.91700 18.63400 31.38300
H  50.49700 16.63800 25.28100
H  44.98300 13.60400 26.83700
H  47.21200 17.51600 34.02300
H  49.89200 17.81600 33.59500
H  47.77400 19.62200 33.85300
H  48.37900 19.91100 32.15500
H  49.51800 19.96300 33.48700
H  49.67200 15.98200 34.78400
H  48.67500 14.90200 33.94200
H  48.17400 14.66000 36.40400
H  46.76600 15.20900 35.72500
H  54.03300 18.63600 29.29900
H  52.99700 18.67400 30.76500
H  52.97300 20.00300 29.56100
H  54.44200 19.11600 25.65200
H  54.90800 17.99600 26.90200
H  54.00800 19.56500 27.27200
H  48.89900 14.53000 24.27600
H  46.03700 15.07700 24.69500
H  48.35800 16.10700 22.66900
H  48.27100 17.40900 23.96800
H  46.88700 16.58200 23.47400
H  46.05200 12.49000 25.15500
H  47.69500 12.48200 24.66000
H  46.99200 12.86000 22.43200
H  45.58100 13.85000 22.93400
H  45.61300 12.05900 23.01000
H  43.61600 12.62500 28.07500
H  42.41700 13.38600 29.39000
H  43.35000 11.93700 29.70800
H  45.52100 14.56100 33.94700
H  42.62100 17.58200 34.85100
H  43.69400 17.93300 36.17600
H  42.89100 16.39400 36.18700

