158

Mg 46.13100 2.98800 47.46900
C  43.61500 5.36000 46.74200
C  43.71800 0.55900 47.27800
C  48.59600 0.75100 47.18500
C  48.50700 5.54900 46.98200
N  43.97600 2.97300 46.88500
C  43.08300 4.07800 46.79000
C  41.59000 3.63200 46.72600
C  41.73900 2.13200 47.18200
C  43.27000 1.81700 47.03800
C  40.92100 1.79100 48.46400
C  41.18600 3.74500 45.19800
C  39.88900 4.40300 44.79400
H  39.97800 5.59600 43.87200
N  46.14500 0.89800 47.31900
C  45.09200 0.11200 47.26600
C  45.56000 -1.31300 47.18400
C  46.97900 -1.31100 47.01800
C  47.35100 0.13000 47.16700
C  44.64700 -2.47900 47.36100
C  47.88200 -2.53500 46.77200
O  47.45800 -3.68500 46.73000
C  49.39000 -2.24800 46.61800
N  48.34900 3.12200 47.38000
C  49.05500 2.03900 47.18100
C  50.56200 2.43200 47.16800
C  50.48000 3.92000 46.72100
C  49.02000 4.24700 47.04000
C  51.44400 2.22500 48.41100
C  50.91300 4.25800 45.24600
C  52.38100 3.92300 44.79900
N  46.07600 5.02700 47.03400
C  47.09000 5.94000 46.88300
C  46.53000 7.26800 46.60200
C  45.14700 7.05600 46.61400
C  44.93600 5.67100 46.82000
C  47.28700 8.50000 46.37200
C  43.88200 7.73200 46.53400
O  43.59800 8.88700 46.41100
C  42.80300 6.66900 46.68500
C  41.94800 7.09800 47.84100
O  42.30200 7.31500 49.00400
O  40.69900 7.42700 47.30100
C  39.74700 7.91600 48.27800
H  42.87500 -0.13400 47.31600
H  49.51800 0.16800 47.22500
H  49.23300 6.27100 46.60300
H  40.81900 4.16200 47.28600
H  41.25700 1.40100 46.53300
H  40.43700 2.68300 48.86200
H  41.66100 1.44000 49.18300
H  40.14300 1.04500 48.30300
H  41.03000 2.74100 44.80300
H  42.07800 4.11400 44.69100
H  39.42000 4.88900 45.65000
H  39.14800 3.70300 44.40900
H  43.64600 -2.16000 47.65100
H  45.00100 -3.26600 48.02600
H  44.49500 -2.89600 46.36500
H  49.81600 -1.92900 47.56900
H  49.51200 -1.46400 45.87100
H  49.88300 -3.17100 46.31300
H  51.06800 2.00500 46.30200
H  51.05400 4.42800 47.49600
H  50.86700 2.01800 49.31300
H  52.17900 3.01300 48.57300
H  51.93300 1.28300 48.16400
H  50.63700 5.30500 45.11900
H  50.30300 3.74700 44.50100
H  52.89100 4.85400 44.55300
H  52.31100 3.20500 43.98200
H  52.93000 3.41500 45.59200
H  48.07000 8.60100 47.12400
H  46.65200 9.38500 46.33600
H  47.74200 8.44800 45.38200
H  42.20300 6.71700 45.77600
H  39.61700 7.29900 49.16700
H  38.81100 8.16600 47.77800
H  40.15100 8.89000 48.55500
Mg 46.91800 24.92500 28.41400
C  47.55800 27.01600 31.08500
C  46.22200 22.25200 30.61100
C  47.06100 22.81000 25.82200
C  48.51300 27.36600 26.28100
N  47.01100 24.63100 30.54900
C  47.15600 25.70800 31.47300
C  46.72600 25.39500 32.86000
C  46.43900 23.91800 32.74900
C  46.60300 23.53500 31.20700
C  47.44700 22.97800 33.49900
C  45.47800 26.22800 33.30900
C  45.50500 27.04600 34.66200
H  44.43200 26.85700 35.75300
N  46.62600 22.86900 28.21400
C  46.20900 21.98600 29.23500
C  45.76800 20.69400 28.63100
C  46.04800 20.85000 27.23800
C  46.55700 22.20000 26.99700
C  45.27100 19.49200 29.40400
C  45.81900 19.84700 26.21500
O  46.16100 20.04400 25.06300
C  44.96600 18.63800 26.62000
N  47.70900 25.03600 26.32300
C  47.65700 23.95900 25.50300
C  48.13700 24.33400 24.07800
C  48.55200 25.88700 24.21800
C  48.23300 26.12000 25.68200
C  49.36500 23.45100 23.56600
C  47.83400 26.74000 23.11000
C  46.25400 26.95900 23.28000
N  47.69700 26.83100 28.58800
C  48.26200 27.66500 27.63900
C  48.53900 28.88600 28.33400
C  48.32400 28.70700 29.66900
C  47.86600 27.38500 29.76800
C  49.11000 30.15800 27.75400
C  48.34200 29.27100 30.92600
O  48.58700 30.42600 31.22000
C  48.02400 28.18500 31.99200
C  49.22400 27.97400 32.90400
O  50.23500 27.35600 32.55500
O  48.85900 28.35800 34.20200
C  49.90500 28.12300 35.23300
H  45.85000 21.52800 31.33800
H  47.08100 22.21600 24.90600
H  49.04900 28.18200 25.79300
H  47.49500 25.67700 33.57900
H  45.41900 23.75500 33.09900
H  48.26100 23.57400 33.91200
H  47.89000 22.32100 32.75000
H  46.80000 22.52500 34.25000
H  44.65900 25.52800 33.47300
H  45.16800 26.95600 32.56000
H  45.49500 28.11500 34.44700
H  46.46600 26.95400 35.16700
H  44.22400 19.40900 29.11100
H  45.29800 19.76700 30.45800
H  45.81900 18.56900 29.21200
H  45.34900 17.92500 27.35000
H  44.64700 18.13600 25.70600
H  43.96400 18.93200 26.93300
H  47.38800 24.20300 23.29800
H  49.62000 25.98300 24.02200
H  49.72800 22.80100 24.36100
H  50.16000 23.93000 22.99300
H  48.83300 22.78800 22.88400
H  48.01600 26.17300 22.19700
H  48.21000 27.74300 22.90600
H  45.95300 26.60400 24.26600
H  45.62400 26.47700 22.53300
H  45.92600 27.99800 23.25900
H  48.40200 30.97000 27.58700
H  49.62800 30.01800 26.80500
H  49.89200 30.53200 28.41400
H  47.17500 28.48800 32.60500
H  50.73600 27.46900 34.97100
H  49.40800 27.57500 36.03400
H  50.38300 29.00800 35.65500

