158

Mg 49.00400 36.40900 27.52300
C  47.00200 34.79200 29.86400
C  49.17600 39.10700 29.78200
C  50.58100 38.28900 25.14800
C  48.37900 33.91500 25.22600
N  48.33100 36.83800 29.73800
C  47.48600 35.97400 30.41100
C  47.29600 36.46600 31.81900
C  47.63700 38.07800 31.60800
C  48.42500 38.06900 30.26200
C  46.46000 39.13300 31.41100
C  48.30100 35.78000 32.80200
C  47.76100 35.49500 34.19200
H  47.99500 36.52300 35.33300
N  49.79800 38.41000 27.50800
C  49.85100 39.30400 28.54200
C  50.70600 40.39600 28.12700
C  51.09800 40.22900 26.77900
C  50.50400 38.92200 26.41400
C  50.93200 41.42600 29.13300
C  51.90800 41.11700 26.00800
O  52.33000 40.73300 24.90000
C  52.25800 42.50300 26.40500
N  49.44800 36.11900 25.55100
C  50.01500 37.10200 24.77600
C  50.12700 36.64700 23.33500
C  49.53600 35.13800 23.33900
C  49.11000 35.00800 24.78500
C  49.49300 37.60300 22.30800
C  50.61200 34.06600 22.91500
C  50.26800 32.82500 22.10200
N  48.04900 34.68400 27.56000
C  47.90500 33.72000 26.53400
C  47.11900 32.61600 27.01800
C  46.66900 32.98900 28.31600
C  47.30600 34.26100 28.55400
C  46.85500 31.30100 26.31000
C  45.79900 32.69400 29.48500
O  45.17600 31.66500 29.75900
C  45.97300 33.87400 30.47900
C  46.27300 33.16400 31.72600
O  47.16400 32.37300 31.85900
O  45.38800 33.60500 32.71100
C  45.44800 32.91500 34.02100
H  48.97500 39.95500 30.44100
H  51.12100 38.84500 24.37800
H  48.06200 33.17100 24.49100
H  46.24800 36.27500 32.05200
H  48.39500 38.45700 32.29400
H  45.49300 38.73500 31.71800
H  46.39300 39.44300 30.36800
H  46.71600 39.98800 32.03800
H  49.24800 36.31900 32.82200
H  48.51000 34.79800 32.37900
H  48.31400 34.63400 34.56900
H  46.70900 35.21200 34.23400
H  50.90200 41.16000 30.18900
H  50.15100 42.17400 29.00500
H  51.88700 41.92500 28.96700
H  51.34300 42.98200 26.75300
H  52.67400 43.07600 25.57700
H  53.01800 42.45500 27.18500
H  51.19300 36.67600 23.10800
H  48.61500 35.09000 22.75900
H  48.92900 36.98900 21.60600
H  50.32600 38.08500 21.79600
H  48.98800 38.49700 22.67400
H  51.14900 33.76400 23.81300
H  51.41000 34.56300 22.36200
H  50.40600 31.87100 22.61000
H  50.82200 32.88900 21.16600
H  49.22100 32.76700 21.80600
H  45.89500 31.38000 25.79900
H  46.68600 30.48500 27.01300
H  47.57400 31.06500 25.52600
H  45.06900 34.48300 30.46600
H  45.28200 33.63800 34.82000
H  46.36300 32.35700 34.21700
H  44.59400 32.23900 34.06400
Mg 1.96800 41.63000 25.22500
C  2.72200 41.77500 28.71600
C  -1.04800 40.36800 26.10000
C  1.49900 40.84600 21.97200
C  5.16300 42.95600 24.57200
N  1.02300 41.01200 27.18100
C  1.43800 41.24400 28.49100
C  0.33900 41.01600 29.52800
C  -0.81500 40.49500 28.66700
C  -0.28000 40.64700 27.20800
C  -1.30400 39.01600 28.91900
C  -0.01300 42.26200 30.42600
C  0.09500 41.86800 31.88800
H  -0.77100 40.76900 32.50500
N  0.44100 40.79200 24.16800
C  -0.74000 40.37700 24.69500
C  -1.62600 39.88500 23.57800
C  -0.88000 40.10600 22.38600
C  0.43800 40.55800 22.82800
C  -3.02100 39.23300 23.72300
C  -1.29500 39.82600 20.93400
O  -0.65300 40.24600 19.97300
C  -2.54300 39.14900 20.61300
N  3.25900 41.85000 23.47800
C  2.83600 41.36100 22.23600
C  3.81900 41.85300 21.17600
C  4.90400 42.72000 21.96900
C  4.42400 42.48800 23.41900
C  4.47900 40.67500 20.36800
C  4.88700 44.29100 21.47300
C  3.87500 45.26200 22.12300
N  3.64300 42.32700 26.39500
C  4.83400 42.90200 25.94100
C  5.66000 43.19200 27.09000
C  4.81000 42.70600 28.15800
C  3.61500 42.21500 27.72000
C  7.03600 43.72900 27.10900
C  4.89600 42.55100 29.59400
O  5.75700 42.84800 30.40300
C  3.54800 41.82200 29.94600
C  3.78700 40.53200 30.51600
O  4.43600 39.60300 29.94500
O  3.27900 40.43900 31.77500
C  3.47700 39.24100 32.60100
H  -2.00800 39.90100 26.33000
H  1.38600 40.75200 20.89000
H  6.08000 43.50000 24.33700
H  0.70200 40.16100 30.09900
H  -1.67000 41.14200 28.86800
H  -0.83400 38.54500 29.78200
H  -1.06400 38.39700 28.05500
H  -2.38300 39.05900 29.06600
H  -0.96100 42.75600 30.21000
H  0.61000 43.15300 30.33500
H  0.20200 42.79500 32.45200
H  1.07500 41.41200 32.02700
H  -3.73000 39.66800 23.01900
H  -3.32700 39.35500 24.76200
H  -2.99000 38.16000 23.53400
H  -3.41100 39.79400 20.75100
H  -2.61400 38.24400 21.21600
H  -2.43200 38.95900 19.54600
H  3.15600 42.48000 20.58000
H  5.90600 42.31600 21.82100
H  5.48900 40.49300 20.73700
H  4.46500 41.09000 19.36000
H  3.76700 39.86000 20.49800
H  4.73900 44.28600 20.39300
H  5.86000 44.73400 21.68500
H  3.33600 45.58700 21.23300
H  4.35600 46.08000 22.65800
H  3.20300 44.88500 22.89400
H  7.19700 44.15300 26.11800
H  7.74700 42.91100 27.22700
H  7.10300 44.46900 27.90800
H  3.07800 42.51000 30.64900
H  4.29900 39.64500 33.19300
H  3.67500 38.26500 32.15900
H  2.46600 39.14200 32.99700

