158

Mg 1.19600 7.96500 24.64400
C  1.49200 9.69400 27.80100
C  1.56400 5.01300 26.34900
C  1.01400 6.47300 21.75800
C  1.76300 11.11300 23.02100
N  1.53100 7.50100 26.89200
C  1.47200 8.30800 28.00000
C  1.48200 7.48500 29.32100
C  1.83900 5.97800 28.76800
C  1.70600 6.15200 27.18000
C  3.30700 5.57800 29.03500
C  0.04800 7.58200 29.92600
C  -0.03000 7.33100 31.47100
H  1.10200 6.61500 32.20400
N  1.17700 6.03000 24.09000
C  1.31400 4.92600 24.91500
C  1.01800 3.65900 24.23100
C  0.93100 4.09100 22.83000
C  1.04300 5.60200 22.82900
C  0.94200 2.31300 24.82500
C  0.69300 3.22300 21.63100
O  0.38700 3.71800 20.58400
C  0.70100 1.77500 21.62200
N  1.48800 8.70900 22.70100
C  1.17900 7.81800 21.74000
C  1.16200 8.51300 20.32300
C  1.56200 9.99900 20.68300
C  1.59800 9.94400 22.23600
C  2.06800 7.96100 19.20400
C  0.82000 11.23400 20.05200
C  -0.65200 11.37700 20.38800
N  1.49800 10.02500 25.21400
C  1.66700 11.12000 24.39900
C  1.76300 12.24600 25.18300
C  1.72400 11.79200 26.49900
C  1.58200 10.38100 26.48800
C  1.94500 13.63900 24.65800
C  1.83700 12.09400 27.95400
O  2.00800 13.15000 28.53600
C  1.54100 10.79900 28.80500
C  2.66900 10.78500 29.78300
O  3.84100 10.38100 29.56300
O  2.26100 11.25500 30.96300
C  3.33100 11.46000 31.98000
H  1.67000 4.05100 26.85500
H  0.88700 6.00000 20.78200
H  2.09500 12.06000 22.59000
H  2.29000 7.64400 30.03600
H  1.21100 5.16900 29.14100
H  3.82600 6.26700 29.70200
H  3.94300 5.39500 28.16900
H  3.16200 4.61300 29.52000
H  -0.59500 6.90400 29.36300
H  -0.26300 8.62500 29.87400
H  -0.90500 6.71000 31.66000
H  -0.27000 8.17700 32.11400
H  0.90800 2.18100 25.90600
H  1.77400 1.75100 24.40100
H  0.02500 1.90100 24.40300
H  1.58000 1.33200 22.08900
H  0.63600 1.43500 20.58800
H  -0.28300 1.49100 21.99400
H  0.15300 8.39600 19.92800
H  2.57200 10.19100 20.32000
H  2.44800 8.72900 18.53100
H  1.39900 7.34900 18.60000
H  2.92000 7.44500 19.64700
H  0.89700 11.14100 18.96800
H  1.49700 12.02500 20.37200
H  -0.61100 12.24200 21.05000
H  -0.93800 10.56200 21.05200
H  -1.32800 11.56200 19.55400
H  1.74400 14.34300 25.46600
H  1.36700 13.87100 23.76400
H  3.00400 13.70800 24.40700
H  0.55400 10.90000 29.25800
H  4.07700 12.13800 31.56500
H  3.84800 10.51900 32.17100
H  2.92500 11.81800 32.92700
Mg 40.77900 8.32500 30.02300
C  42.62100 9.83300 32.60000
C  38.48800 7.12500 32.08700
C  39.18100 7.26200 27.38100
C  43.62000 9.25600 27.91800
N  40.65700 8.39300 32.18700
C  41.39000 9.14600 33.02800
C  40.91100 8.94100 34.48600
C  39.58300 8.11600 34.27800
C  39.56600 7.82500 32.72600
C  39.58300 6.87400 35.23400
C  40.65200 10.32700 35.16400
C  39.72300 10.27100 36.46300
H  40.13000 11.32900 37.53800
N  39.01700 7.29800 29.82700
C  38.16600 6.89900 30.77300
C  37.05500 6.27300 30.14000
C  37.22700 6.40200 28.75800
C  38.56400 6.98600 28.62300
C  35.99500 5.50200 30.91300
C  36.32600 5.97300 27.67000
O  36.73000 5.93400 26.49700
C  34.89300 5.67300 27.93600
N  41.37300 8.10700 27.96900
C  40.48100 7.78200 27.04200
C  41.11800 7.87800 25.61900
C  42.45500 8.59100 25.83200
C  42.50800 8.65600 27.39200
C  41.22000 6.53000 24.91900
C  42.54400 9.90700 25.15200
C  41.57200 11.03600 25.62000
N  42.64600 9.46300 30.15100
C  43.67200 9.75500 29.22800
C  44.73600 10.51400 29.80500
C  44.37000 10.66200 31.13200
C  43.11600 9.90900 31.29800
C  46.03100 10.91300 29.17300
C  44.62800 11.17800 32.40200
O  45.53700 11.85200 32.79800
C  43.52200 10.67900 33.43600
C  44.18800 9.85000 34.46900
O  44.50200 8.69900 34.40100
O  44.44800 10.63100 35.61700
C  45.07900 9.92900 36.77800
H  37.76800 6.72300 32.80200
H  38.73300 6.90900 26.45000
H  44.44800 9.55500 27.27300
H  41.61600 8.25700 34.95900
H  38.68300 8.70500 34.45500
H  38.53200 6.74900 35.49300
H  40.10700 7.01000 36.18000
H  40.00700 6.03200 34.68700
H  40.31200 11.08400 34.45600
H  41.60400 10.64500 35.58900
H  39.71300 9.25400 36.85600
H  38.71200 10.56500 36.18300
H  35.04700 6.03400 30.83000
H  36.26200 5.43100 31.96700
H  36.00400 4.48600 30.51700
H  34.71900 4.82400 28.59800
H  34.41700 5.63500 26.95700
H  34.51200 6.54000 28.47700
H  40.36600 8.34400 24.98200
H  43.32100 8.01100 25.51500
H  42.24300 6.15400 24.91000
H  40.84900 6.65200 23.90100
H  40.63700 5.79900 25.48000
H  42.40100 9.71000 24.09000
H  43.54900 10.29000 25.32800
H  41.10300 10.75800 26.56400
H  40.83500 11.38900 24.89800
H  42.07400 11.97900 25.83700
H  46.01400 10.92700 28.08300
H  46.75200 10.16600 29.50700
H  46.21300 11.93600 29.50200
H  43.20200 11.62700 33.86800
H  45.62600 9.02600 36.50900
H  44.37300 9.54600 37.51500
H  45.78000 10.57100 37.31100

