158

Mg 17.25100 -1.35700 28.48600
C  16.45200 0.22400 31.35100
C  19.34200 -3.48100 30.16800
C  18.72700 -2.21500 25.57300
C  15.71800 1.42100 26.64400
N  17.96400 -1.53600 30.51700
C  17.39900 -0.77900 31.55300
C  17.77300 -1.29300 32.92500
C  18.95800 -2.30700 32.58700
C  18.73700 -2.48600 31.00600
C  20.39300 -1.86800 33.01800
C  16.61100 -1.85900 33.70600
C  16.33700 -1.45900 35.20800
H  17.39800 -0.71300 36.06400
N  18.62400 -2.80400 27.90700
C  19.33200 -3.62100 28.77300
C  20.19000 -4.57800 28.01400
C  20.02500 -4.22800 26.67000
C  19.11000 -3.01700 26.67000
C  21.11200 -5.52300 28.64600
C  20.58100 -4.77700 25.35900
O  20.27700 -4.34000 24.22500
C  21.39400 -6.05800 25.38900
N  17.14800 -0.54300 26.35000
C  17.92200 -1.12800 25.42200
C  17.80700 -0.38400 24.03900
C  16.74300 0.74800 24.36400
C  16.58900 0.61900 25.90800
C  19.10800 0.19700 23.41500
C  15.32700 0.41700 23.67600
C  15.18200 0.35800 22.17800
N  16.23700 0.38500 28.82800
C  15.62200 1.37800 28.00100
C  14.89400 2.31000 28.84800
C  15.15600 1.90200 30.16400
C  16.03200 0.76700 30.12800
C  14.03100 3.46700 28.37900
C  14.87500 2.20000 31.53400
O  14.25900 3.17400 31.91900
C  15.65200 1.08500 32.42600
C  16.56000 1.91300 33.27900
O  17.66000 2.36000 32.86600
O  15.81300 2.30100 34.41800
C  16.50400 3.16800 35.34700
H  20.07000 -4.13300 30.65400
H  19.18300 -2.37600 24.59400
H  15.15600 2.17100 26.08400
H  18.11600 -0.37200 33.39700
H  18.74800 -3.23100 33.12500
H  20.36700 -0.83100 33.35400
H  20.89100 -1.91600 32.05000
H  20.90100 -2.51800 33.73000
H  16.71300 -2.94400 33.72800
H  15.69100 -1.70600 33.14200
H  16.00800 -2.40900 35.63100
H  15.43600 -0.85400 35.10300
H  22.05500 -5.07900 28.32700
H  20.97300 -6.57700 28.40700
H  21.07700 -5.48200 29.73500
H  22.07300 -6.08900 26.24000
H  22.05800 -6.16500 24.53100
H  20.78500 -6.93000 25.62400
H  17.35000 -1.00700 23.27000
H  16.88900 1.74400 23.94600
H  19.14900 -0.09300 22.36500
H  20.00800 -0.27000 23.81400
H  19.15000 1.28400 23.34300
H  14.84200 1.30200 24.08800
H  14.87900 -0.45900 24.14600
H  14.95700 -0.62900 21.77500
H  16.17200 0.60400 21.79500
H  14.44000 1.05900 21.79700
H  13.92800 4.21400 29.16600
H  13.05800 3.06100 28.10100
H  14.49600 3.96000 27.52400
H  15.03000 0.55200 33.14500
H  16.06700 4.16000 35.23700
H  17.56900 3.36700 35.23100
H  16.32200 2.71600 36.32200
Mg 48.92000 34.77000 26.51100
C  46.99900 33.37900 29.14600
C  48.99700 37.74400 28.36600
C  50.28700 36.27300 23.84800
C  48.21300 31.89700 24.61400
N  48.30400 35.36800 28.57600
C  47.58100 34.64500 29.49600
C  47.55000 35.32200 30.87000
C  47.77500 36.82600 30.38600
C  48.39900 36.67400 28.99100
C  46.59900 37.82300 30.57500
C  48.65600 34.70000 31.85900
C  48.17300 34.58800 33.34700
H  46.95800 35.45800 33.74100
N  49.70900 36.69000 26.20400
C  49.65100 37.77500 27.11100
C  50.31100 38.90000 26.50600
C  50.73900 38.49100 25.20800
C  50.28600 37.05000 25.02900
C  50.35200 40.24700 27.19300
C  51.52700 39.23400 24.15100
O  51.97400 38.64500 23.19100
C  51.85700 40.71700 24.23000
N  49.27600 34.05800 24.54400
C  49.78200 34.96200 23.60400
C  49.94700 34.19000 22.30100
C  49.68500 32.69100 22.65000
C  49.01800 32.86400 24.00100
C  49.10000 34.58500 21.07000
C  50.99800 31.72200 22.65300
C  51.08700 30.62100 21.52400
N  47.71800 33.01700 26.66700
C  47.53000 31.94000 25.87800
C  46.72500 30.94500 26.53000
C  46.55600 31.44200 27.85000
C  47.09500 32.71800 27.86200
C  46.23200 29.60600 25.96000
C  45.77700 31.21100 29.15300
O  45.07300 30.27800 29.50100
C  46.04300 32.54000 29.97100
C  46.33700 32.14400 31.38200
O  47.43000 31.79400 31.84400
O  45.12500 32.09500 32.04000
C  45.29200 31.42000 33.35500
H  48.99400 38.64000 28.99000
H  50.64600 36.72100 22.91900
H  47.99500 31.02600 23.99300
H  46.51400 35.24500 31.20000
H  48.62100 37.22100 30.94900
H  45.78600 37.51000 31.23000
H  46.34600 38.05400 29.54000
H  46.87400 38.78000 31.01800
H  49.55700 35.31400 31.88400
H  48.99100 33.79600 31.35000
H  48.94200 34.81700 34.08500
H  47.92400 33.54100 33.52000
H  51.40700 40.43100 27.39100
H  49.88400 40.35000 28.17200
H  49.99300 41.04200 26.53900
H  52.20400 40.99100 25.22700
H  51.11600 41.32400 23.71100
H  52.72300 40.78800 23.57200
H  51.00100 34.33000 22.06100
H  49.06600 32.13500 21.94700
H  49.72700 35.14400 20.37500
H  48.31200 35.23400 21.45200
H  48.53800 33.78100 20.59500
H  51.04600 31.35100 23.67700
H  51.88600 32.33400 22.49900
H  51.94900 30.76000 20.87100
H  50.29900 30.61600 20.77200
H  51.22700 29.62200 21.93600
H  47.09900 28.94500 25.99900
H  45.81900 29.79500 24.97000
H  45.54600 29.09900 26.63900
H  45.14300 33.15500 29.99600
H  45.54300 30.37500 33.17100
H  44.30000 31.56000 33.78500
H  45.96900 32.01700 33.96600

