158

Mg 46.04300 25.05700 28.52400
C  46.90700 27.06500 31.17700
C  45.12300 22.58200 30.72600
C  46.02600 22.82000 25.93400
C  47.33900 27.50800 26.43200
N  46.31200 24.76300 30.73200
C  46.49000 25.83300 31.64300
C  45.85800 25.40500 33.02500
C  45.40000 23.93800 32.81400
C  45.59700 23.73600 31.33200
C  46.27500 22.97500 33.69300
C  44.69300 26.27700 33.53800
C  44.94100 26.83000 34.98700
H  43.73100 26.86200 35.96800
N  45.62500 22.96300 28.37000
C  45.23600 22.15800 29.37100
C  44.73300 20.89100 28.81200
C  45.04300 20.89900 27.36800
C  45.56300 22.27300 27.15600
C  44.13700 19.75200 29.68000
C  45.01300 19.70300 26.39000
O  45.44900 19.78200 25.20300
C  44.52400 18.35400 26.79800
N  46.54000 25.09800 26.50500
C  46.44300 24.10500 25.60300
C  46.71700 24.60700 24.17600
C  46.76300 26.16800 24.28700
C  46.89800 26.25900 25.86200
C  48.04400 23.87300 23.46300
C  45.58600 26.99300 23.65400
C  44.21600 26.73900 24.33900
N  46.86900 26.98600 28.68900
C  47.33200 27.85400 27.70800
C  47.80600 29.09500 28.34200
C  47.65600 28.79100 29.69900
C  47.16700 27.52700 29.85600
C  48.45200 30.34100 27.70400
C  47.92900 29.28400 31.00400
O  48.32200 30.33200 31.48900
C  47.41700 28.15400 32.00500
C  48.48400 27.76900 33.05100
O  49.36200 26.95100 32.84800
O  48.23700 28.44100 34.18900
C  49.01700 28.01800 35.38700
H  44.66300 21.93500 31.47600
H  46.14500 22.12800 25.09700
H  47.58700 28.33800 25.76600
H  46.59800 25.47000 33.82300
H  44.35800 23.71400 33.04000
H  45.70600 22.04900 33.76600
H  46.47600 23.35900 34.69400
H  47.24000 22.81000 33.21600
H  43.74000 25.74800 33.55100
H  44.66300 27.12900 32.85900
H  45.17500 27.89200 34.91300
H  45.75600 26.29100 35.47100
H  43.20800 19.36300 29.26400
H  43.74200 20.22600 30.57800
H  44.87100 19.06000 30.09300
H  43.44000 18.27000 26.87200
H  45.09500 18.13700 27.70100
H  44.84200 17.60600 26.07200
H  45.90100 24.30500 23.51900
H  47.75000 26.48600 23.95000
H  47.89600 23.69000 22.39900
H  48.31100 22.93900 23.95700
H  48.90100 24.54700 23.44700
H  45.49700 26.83200 22.58000
H  45.76400 28.06600 23.71300
H  43.63100 26.18200 23.60700
H  43.90700 27.77000 24.51300
H  44.26400 26.16200 25.26300
H  47.68700 30.84000 27.10900
H  49.27800 29.99600 27.08300
H  48.90200 31.06600 28.38200
H  46.61800 28.54100 32.63700
H  48.23600 27.81000 36.11900
H  49.49900 28.88300 35.84300
H  49.72200 27.20100 35.23300
Mg 0.17100 42.34900 25.76300
C  2.58100 42.40000 28.32300
C  -2.02800 41.25300 28.13300
C  -2.10200 42.29800 23.48400
C  2.71500 43.15800 23.44800
N  0.31700 41.77600 27.97900
C  1.35200 41.99500 28.88100
C  0.87300 42.06300 30.31200
C  -0.51400 41.42200 30.24300
C  -0.77400 41.49000 28.70100
C  -0.71000 39.96200 30.68500
C  0.92900 43.50800 30.96100
C  1.88400 43.57700 32.19600
H  1.82600 42.48500 33.27600
N  -1.78000 41.83500 25.80100
C  -2.48700 41.35400 26.81400
C  -3.82300 41.00300 26.42100
C  -3.91500 41.52400 25.10300
C  -2.58000 41.99300 24.74600
C  -4.76900 40.43500 27.39800
C  -5.18400 41.58400 24.23200
O  -5.07400 42.04500 23.06500
C  -6.57400 41.13200 24.67400
N  0.26400 42.82700 23.73700
C  -0.84100 42.68400 22.97300
C  -0.50300 43.04700 21.50500
C  1.03500 43.44700 21.58600
C  1.42400 43.13400 22.97700
C  -0.91300 41.98200 20.52800
C  1.37000 44.92300 21.18600
C  1.01900 46.12900 22.14000
N  2.15600 42.59400 25.75900
C  3.06600 42.89900 24.78500
C  4.37700 43.04900 25.38800
C  4.22700 42.78200 26.74000
C  2.87200 42.57500 26.94400
C  5.59700 43.40000 24.56700
C  4.96300 42.66600 27.96300
O  6.19100 42.81800 28.20200
C  3.93900 42.51800 29.08000
C  4.33500 41.30000 29.87300
O  4.28400 40.13100 29.46600
O  4.83600 41.69300 31.10800
C  5.33200 40.61300 31.96600
H  -2.77800 40.89800 28.84200
H  -2.83300 42.10600 22.69500
H  3.46400 43.42200 22.69900
H  1.55100 41.36800 30.80800
H  -1.34000 41.98100 30.68400
H  0.12300 39.75100 31.35500
H  -0.94200 39.20700 29.93200
H  -1.57500 39.91400 31.34700
H  -0.06700 43.94100 31.05800
H  1.34200 44.17600 30.20600
H  1.72500 44.55700 32.64800
H  2.85400 43.59200 31.70000
H  -4.41700 39.61100 28.01800
H  -5.70500 40.08300 26.96500
H  -4.92900 41.26000 28.09200
H  -6.65200 40.07100 24.91100
H  -7.33100 41.49200 23.97700
H  -6.72400 41.59900 25.64700
H  -1.17000 43.90100 21.39300
H  1.63100 42.89100 20.86100
H  -1.35700 41.07800 20.94500
H  0.01200 41.64300 20.06300
H  -1.66400 42.36800 19.83900
H  0.94200 45.04600 20.19100
H  2.45200 45.02500 21.09400
H  1.71100 46.39900 22.93800
H  0.02400 46.02000 22.57200
H  0.84000 46.99000 21.49700
H  6.55300 43.34100 25.08700
H  5.45700 44.43900 24.26900
H  5.56600 42.85400 23.62400
H  3.88800 43.42200 29.68600
H  6.20100 40.15600 31.49400
H  4.63800 39.79300 32.15500
H  5.51700 41.13400 32.90600

