158

Mg 27.10300 51.41900 27.02700
C  24.89500 52.49000 29.34700
C  29.19200 50.30600 29.57000
C  29.27100 50.43000 24.67900
C  25.14100 52.96600 24.53100
N  26.96400 51.36600 29.22200
C  25.93000 51.79200 29.99900
C  26.21600 51.63200 31.50800
C  27.67800 51.06700 31.46100
C  27.99300 50.87700 29.97400
C  28.78200 51.87400 32.18800
C  25.19800 50.62800 32.18300
C  24.44300 51.14600 33.43800
H  25.26400 51.26900 34.77900
N  29.01000 50.54700 27.11300
C  29.64300 50.06000 28.19000
C  30.85300 49.42300 27.77500
C  30.85800 49.35500 26.38600
C  29.60900 50.10200 25.97500
C  31.89600 48.95500 28.81800
C  31.84900 48.70700 25.48400
O  31.66700 48.61900 24.24900
C  33.14800 48.28900 25.98700
N  27.22000 51.68500 24.93700
C  28.20800 51.16100 24.14000
C  27.88300 51.25500 22.66800
C  26.63400 52.21100 22.62200
C  26.36400 52.40300 24.09300
C  29.10600 51.87800 21.93500
C  25.41100 51.67700 21.81800
C  24.79100 50.38900 22.43100
N  25.27100 52.46900 26.89900
C  24.55100 53.00000 25.79000
C  23.34900 53.53800 26.27600
C  23.40800 53.39100 27.68100
C  24.63700 52.74500 27.98700
C  22.29200 54.27700 25.58000
C  22.71700 53.65700 29.00700
O  21.70300 54.25400 29.23100
C  23.66900 52.98100 30.08300
C  24.07900 53.98100 31.07500
O  25.04500 54.66500 31.02100
O  23.16300 54.02100 32.06500
C  23.47700 54.93800 33.22500
H  29.94600 50.08400 30.32700
H  29.88300 50.05900 23.85400
H  24.62400 53.55300 23.76900
H  26.20100 52.58900 32.02900
H  27.72000 50.04900 31.84600
H  29.30600 52.43100 31.41100
H  29.53100 51.20500 32.61200
H  28.33300 52.57700 32.89100
H  25.64500 49.68400 32.49400
H  24.41900 50.48600 31.43300
H  23.56300 50.54600 33.66700
H  24.00300 52.12100 33.22600
H  32.49500 49.83500 29.05100
H  32.52700 48.12000 28.51100
H  31.40700 48.64400 29.74100
H  33.88200 48.32400 25.18100
H  33.13400 47.27000 26.37300
H  33.45600 48.99200 26.76100
H  27.59200 50.26400 22.32100
H  26.90600 53.20000 22.25400
H  29.75500 52.23400 22.73500
H  28.80500 52.68600 21.26800
H  29.53400 51.04200 21.38300
H  25.73900 51.36500 20.82700
H  24.64000 52.44400 21.73800
H  23.70400 50.43800 22.36800
H  25.12800 50.18900 23.44800
H  25.13500 49.48200 21.93200
H  22.05500 53.82700 24.61600
H  22.54800 55.31900 25.39200
H  21.50000 54.28000 26.32900
H  23.08000 52.25200 30.64000
H  24.34100 54.57200 33.78100
H  22.58600 55.14600 33.81800
H  23.72000 55.92000 32.82100
Mg 1.46100 42.81000 26.13300
C  2.99300 42.74900 29.28700
C  -1.46600 41.70100 27.59200
C  0.12600 42.45100 23.01800
C  4.50100 43.57000 24.68100
N  0.90800 42.17400 28.22600
C  1.61100 42.43100 29.32700
C  0.76800 42.29000 30.61900
C  -0.61400 41.58900 29.99200
C  -0.44800 41.93700 28.48300
C  -0.76700 40.12200 30.31200
C  0.52300 43.58900 31.34800
C  0.88600 43.50000 32.89000
H  -0.09400 42.80800 33.87500
N  -0.45000 42.27700 25.40900
C  -1.46500 41.81800 26.12800
C  -2.57800 41.54200 25.29900
C  -2.19100 41.86500 23.97300
C  -0.77500 42.22800 24.10900
C  -3.85500 41.01300 25.88100
C  -3.00900 41.85700 22.69200
O  -2.58800 42.34000 21.66200
C  -4.45900 41.54800 22.68600
N  2.18500 43.04700 24.20200
C  1.49200 42.65300 23.06600
C  2.38700 42.75300 21.81200
C  3.75500 43.36900 22.30300
C  3.48600 43.31900 23.80400
C  2.67000 41.46600 21.08300
C  3.92500 44.78500 21.89400
C  2.82600 45.81800 22.15900
N  3.39800 43.16900 26.80600
C  4.54100 43.49200 26.13100
C  5.62400 43.64700 27.02500
C  5.06400 43.25200 28.25300
C  3.71200 43.03900 28.07500
C  6.92000 44.26400 26.74100
C  5.34900 43.14500 29.64800
O  6.42100 43.35900 30.25500
C  4.07700 42.82100 30.40100
C  4.31200 41.60200 31.19900
O  4.43000 40.46400 30.79600
O  4.28000 42.01300 32.51800
C  4.34800 40.84000 33.42400
H  -2.42200 41.38800 28.01800
H  -0.22300 42.21600 22.01000
H  5.44000 43.70900 24.14200
H  1.38400 41.60900 31.20700
H  -1.54400 42.01300 30.37100
H  -0.10100 39.85200 31.13200
H  -0.46300 39.43200 29.52500
H  -1.81800 40.04500 30.58900
H  -0.50900 43.86700 31.13300
H  1.09300 44.39800 30.89300
H  1.12800 44.51500 33.20300
H  1.74100 42.82600 32.94600
H  -4.74400 41.33000 25.33600
H  -4.01100 41.42500 26.87700
H  -3.81100 39.93400 26.02600
H  -4.87400 41.54900 21.67800
H  -5.01300 42.32100 23.22000
H  -4.62900 40.59900 23.19400
H  1.85300 43.38600 21.10400
H  4.60000 42.69700 22.15200
H  1.98500 41.26900 20.25800
H  2.44500 40.59700 21.70200
H  3.69900 41.21800 20.82600
H  4.19600 44.83500 20.84000
H  4.77800 45.24400 22.39500
H  3.06800 46.45500 23.01000
H  1.97200 45.25900 22.54200
H  2.63200 46.40200 21.25900
H  7.67800 43.81100 27.38000
H  7.00900 45.33400 26.93000
H  7.18800 44.22000 25.68500
H  3.81300 43.62400 31.08900
H  5.17900 40.17700 33.18200
H  3.34000 40.47200 33.23300
H  4.53200 41.16700 34.44800

