158

Mg 8.84800 3.09500 28.48700
C  10.24300 1.94600 31.47900
C  6.83200 5.33100 30.43100
C  7.19800 4.02300 25.70700
C  10.37400 0.46900 26.77200
N  8.58000 3.48700 30.72700
C  9.32000 2.92100 31.72100
C  8.99800 3.51100 33.11600
C  7.69100 4.43500 32.77300
C  7.69300 4.47100 31.25400
C  6.25700 3.94900 33.31700
C  10.14500 4.10400 33.83400
C  10.37000 3.69300 35.36400
H  9.20800 3.28600 36.31800
N  7.28100 4.51600 28.12300
C  6.59600 5.35000 29.02900
C  5.69600 6.27200 28.32900
C  5.84900 5.92700 26.94300
C  6.87600 4.77300 26.85600
C  4.66500 7.17200 28.99100
C  5.10400 6.42900 25.74100
O  5.32400 6.09900 24.57500
C  4.08000 7.39300 25.91900
N  8.90600 2.48400 26.50700
C  8.06100 2.92500 25.56600
C  8.12700 1.99700 24.26200
C  9.46200 1.21300 24.51900
C  9.66300 1.37700 26.02600
C  6.87600 1.09100 24.09800
C  10.68200 1.70400 23.76900
C  10.62500 1.35900 22.28200
N  10.04400 1.54600 28.98200
C  10.59700 0.51000 28.21900
C  11.33900 -0.38200 28.99600
C  11.31300 0.18300 30.31000
C  10.48300 1.36300 30.22000
C  12.15400 -1.51900 28.40500
C  11.68500 -0.06800 31.69900
O  12.44000 -0.93900 32.16200
C  11.06800 1.12400 32.44600
C  10.37600 0.47400 33.54300
O  9.27800 -0.00300 33.39200
O  11.17300 0.20900 34.58100
C  10.52300 -0.37600 35.72200
H  6.30200 6.09000 31.01000
H  6.69700 4.23500 24.76000
H  10.78000 -0.32000 26.13600
H  8.61200 2.67100 33.69400
H  7.85800 5.44800 33.14000
H  5.49600 4.25800 32.60100
H  6.08200 4.40500 34.29100
H  6.37100 2.87100 33.43900
H  10.07200 5.18100 33.67800
H  11.05800 3.71700 33.38100
H  10.79500 4.51900 35.93400
H  11.22100 3.01700 35.28000
H  3.60900 6.90400 28.96000
H  4.89400 8.16200 28.59700
H  4.86400 7.26000 30.05900
H  3.68800 7.56100 24.91600
H  4.54400 8.28400 26.34100
H  3.26500 6.99300 26.52200
H  8.13900 2.71300 23.44000
H  9.31400 0.14100 24.39600
H  6.38900 0.96800 25.06500
H  7.19600 0.14100 23.66900
H  6.11100 1.42300 23.39600
H  11.52200 1.20800 24.25500
H  10.86600 2.75000 24.01400
H  10.82800 2.22600 21.65300
H  9.71300 0.81200 22.04700
H  11.38300 0.58400 22.16300
H  12.21400 -1.26400 27.34700
H  11.56100 -2.43100 28.34300
H  13.04200 -1.63500 29.02600
H  11.98800 1.64400 32.71200
H  9.67000 0.23200 36.02400
H  11.21100 -0.36500 36.56800
H  10.35600 -1.42700 35.48800
Mg 40.60200 8.18800 29.05400
C  42.55800 9.47200 31.74800
C  38.33600 7.11500 31.33700
C  39.02600 6.70000 26.51900
C  43.27000 9.07100 26.86800
N  40.58800 8.27500 31.27000
C  41.31100 8.99400 32.18900
C  40.69600 8.99500 33.60700
C  39.35000 8.27300 33.37800
C  39.42900 7.88400 31.90700
C  38.99700 7.21200 34.43200
C  40.45400 10.46800 34.09100
C  39.69000 10.70600 35.37400
H  40.34400 11.64700 36.35000
N  38.86900 7.00400 28.95500
C  38.06100 6.65500 30.06400
C  36.98400 5.87200 29.52800
C  37.02300 5.88900 28.05200
C  38.34100 6.56000 27.77500
C  35.91500 5.17000 30.50500
C  35.99900 5.30100 27.14000
O  36.20300 5.36100 25.93900
C  34.63300 4.82200 27.67800
N  41.18200 7.62200 27.10000
C  40.30900 7.20600 26.17200
C  40.85700 7.15600 24.77000
C  42.24000 7.89700 24.94800
C  42.22400 8.28200 26.45800
C  41.12700 5.76800 24.09800
C  42.41800 9.24600 24.08700
C  41.30600 10.30500 24.15100
N  42.59700 9.01900 29.21200
C  43.47000 9.39300 28.25800
C  44.62300 9.93700 28.95000
C  44.25400 10.00500 30.26400
C  43.08200 9.39200 30.44000
C  45.93100 10.34400 28.18700
C  44.76600 10.49100 31.53200
O  45.79200 10.98200 31.86200
C  43.67100 10.15500 32.54500
C  44.23500 9.29900 33.60700
O  44.63200 8.19500 33.44900
O  44.06700 9.85800 34.84000
C  44.49200 9.15700 36.06800
H  37.45800 6.97300 31.97100
H  38.36500 6.42900 25.69300
H  44.09000 9.31600 26.18900
H  41.30600 8.50500 34.36600
H  38.51000 8.96100 33.47200
H  37.97900 7.40600 34.77100
H  39.74000 7.19900 35.23000
H  39.05100 6.19200 34.05100
H  39.95800 10.94600 33.24600
H  41.40900 10.97300 34.23600
H  39.34700 9.77900 35.83400
H  38.80600 11.24200 35.03000
H  36.47700 4.99500 31.42300
H  35.61900 4.19700 30.11200
H  35.06600 5.83900 30.64100
H  34.75300 3.98400 28.36600
H  34.00200 4.63700 26.80900
H  34.26300 5.64500 28.28900
H  40.15100 7.65300 24.10500
H  43.06600 7.22300 24.72000
H  40.68400 5.90300 23.11100
H  40.55200 4.97200 24.57100
H  42.17100 5.52400 23.90000
H  42.24100 8.79900 23.10900
H  43.44900 9.59700 24.13000
H  40.98800 10.42100 25.18700
H  40.45900 10.11000 23.49300
H  41.86600 11.20200 23.88500
H  45.77300 11.39400 27.93600
H  46.17400 9.62500 27.40400
H  46.65400 10.29600 29.00100
H  43.31700 11.09400 32.97000
H  45.35500 9.71400 36.43300
H  44.73100 8.09400 36.05800
H  43.69700 9.20800 36.81200

