158

Mg 46.62100 25.41100 28.57100
C  47.83700 27.72600 31.03800
C  45.51200 23.31700 31.00500
C  46.33000 23.16400 26.09900
C  48.37700 27.53000 26.18600
N  46.57800 25.62200 30.74800
C  47.11500 26.63000 31.56100
C  46.80200 26.35200 33.03400
C  46.25300 24.87800 32.98800
C  46.04900 24.54300 31.50500
C  47.25800 23.80100 33.64700
C  45.74100 27.37200 33.57400
C  45.39900 27.50100 35.10700
H  46.12300 26.67900 36.21900
N  45.89700 23.51600 28.54600
C  45.42500 22.84600 29.64000
C  44.91900 21.51600 29.12400
C  45.15700 21.45700 27.70700
C  45.79600 22.75500 27.35200
C  44.23600 20.40600 30.02100
C  44.76300 20.46800 26.61500
O  45.06400 20.60200 25.42000
C  43.72100 19.35800 27.05500
N  47.30600 25.36800 26.44700
C  46.88700 24.34800 25.65300
C  47.20000 24.62200 24.18000
C  47.74700 26.09200 24.16800
C  47.82900 26.39000 25.71300
C  48.13000 23.59600 23.43500
C  46.83400 27.10100 23.45400
C  47.55300 28.36700 22.97800
N  47.77400 27.24900 28.53600
C  48.38400 27.96500 27.51800
C  49.09800 29.11100 28.04900
C  48.87800 29.07800 29.46300
C  48.10700 27.91600 29.67200
C  49.92500 30.09900 27.13400
C  49.15500 29.73100 30.70300
O  49.78700 30.75900 30.95900
C  48.49900 28.82200 31.76800
C  49.58500 28.34900 32.73600
O  50.51500 27.65700 32.45500
O  49.25700 28.91700 33.96100
C  50.21300 28.82200 35.11000
H  45.18900 22.55500 31.71800
H  46.07000 22.53200 25.24700
H  48.71700 28.31500 25.50800
H  47.69100 26.43100 33.66100
H  45.30700 24.73200 33.51000
H  46.86200 23.06900 34.35100
H  48.03800 24.28000 34.23700
H  47.74800 23.27600 32.82700
H  44.86300 27.09900 32.98800
H  46.11800 28.32000 33.19000
H  44.34900 27.20800 35.14400
H  45.42700 28.54300 35.42700
H  43.26000 20.25900 29.55900
H  44.18300 20.59300 31.09300
H  44.79200 19.46900 30.05700
H  42.90300 19.86400 27.56900
H  44.24200 18.69400 27.74400
H  43.24900 18.73700 26.29300
H  46.25000 24.70000 23.65200
H  48.74700 26.05000 23.73700
H  47.36700 22.95900 22.98700
H  48.66700 23.14400 24.26900
H  48.70200 24.14000 22.68300
H  46.13500 27.49000 24.19400
H  46.31300 26.69300 22.58800
H  47.19400 29.22400 23.54900
H  47.46100 28.60900 21.92000
H  48.63100 28.41000 23.13400
H  49.40300 30.83600 26.52500
H  50.65900 29.62200 26.48500
H  50.64800 30.66700 27.71900
H  47.80400 29.54000 32.20300
H  49.68100 28.32000 35.91800
H  50.58300 29.83200 35.29200
H  51.18900 28.38100 34.90800
Mg 6.49700 53.88600 41.51900
C  5.72000 50.47800 41.31100
C  9.63900 53.08900 40.32000
C  7.05200 57.10500 41.03500
C  3.14400 54.46900 42.51000
N  7.50500 51.98900 40.84400
C  6.97800 50.73200 40.71700
C  8.00200 49.70600 40.18000
C  9.33500 50.51800 40.13400
C  8.80600 51.96800 40.45800
C  10.58900 50.02700 41.00400
C  7.50100 49.23700 38.73900
C  8.09100 49.87500 37.49300
H  7.45200 49.47400 36.21100
N  8.09200 54.98600 40.70500
C  9.27600 54.46400 40.34100
C  10.13800 55.53100 39.95800
C  9.39600 56.68000 40.19100
C  8.13500 56.32000 40.65000
C  11.62100 55.25900 39.59200
C  9.91600 58.07600 39.87900
O  11.07700 58.15500 39.39300
C  9.14300 59.36500 40.10500
N  5.19600 55.49300 41.44400
C  5.76600 56.73400 41.39700
C  4.59800 57.72000 41.66100
C  3.32300 56.93200 42.07000
C  3.87300 55.48700 41.87500
C  4.96100 58.74700 42.80500
C  2.00500 57.31900 41.36800
C  1.59200 56.34600 40.26000
N  4.72400 52.78500 41.93000
C  3.48600 53.13200 42.42900
C  2.71200 51.89000 42.79000
C  3.55900 50.86100 42.38500
C  4.78900 51.39500 41.89400
C  1.36500 51.81600 43.34100
C  3.58500 49.47700 42.34700
O  2.78800 48.60700 42.76800
C  4.90100 49.13800 41.55200
C  4.53300 48.56600 40.23600
O  3.83400 49.10000 39.39800
O  5.02800 47.32600 40.15000
C  4.60000 46.58100 39.02500
H  10.68900 52.84000 40.15300
H  7.14800 58.19300 41.06000
H  2.22200 54.83000 42.97000
H  8.02300 48.81000 40.80100
H  9.85800 50.54500 39.17800
H  10.72600 50.77900 41.78200
H  11.48600 49.90000 40.39700
H  10.47500 49.07400 41.52100
H  6.42900 49.37100 38.59100
H  7.78600 48.18800 38.65600
H  9.12200 49.52100 37.47000
H  8.11800 50.95900 37.60900
H  11.65100 54.35900 38.97700
H  12.17300 54.98500 40.49000
H  12.21500 56.07600 39.18200
H  8.22200 59.34000 39.52300
H  9.71300 60.20600 39.71300
H  8.85300 59.47800 41.15000
H  4.48600 58.19200 40.68500
H  3.03300 57.02900 43.11700
H  5.09000 59.77500 42.46400
H  5.90100 58.32500 43.16100
H  4.18400 58.77500 43.56800
H  2.22700 58.32400 41.01000
H  1.16900 57.48800 42.04700
H  1.98400 55.33000 40.29600
H  1.92900 56.83000 39.34300
H  0.50500 56.35000 40.33100
H  0.82500 52.71200 43.03600
H  1.36500 51.94800 44.42300
H  0.75500 50.95100 43.08100
H  5.44100 48.36600 42.10000
H  5.03200 46.97500 38.10500
H  3.53300 46.46100 38.84100
H  4.94200 45.54800 39.09100

