158

Mg 9.13300 48.61100 25.02000
C  7.37600 48.82700 27.99900
C  12.01000 49.47000 26.64000
C  10.71300 47.82600 22.29500
C  5.97600 48.25500 23.41100
N  9.57400 49.15400 27.04000
C  8.75800 49.13600 28.15300
C  9.59300 49.55600 29.41900
C  10.83500 50.25300 28.77300
C  10.87000 49.59300 27.38400
C  10.64900 51.82700 28.62200
C  9.89500 48.36900 30.40600
C  9.79200 48.61600 31.86100
H  9.24200 47.40000 32.69700
N  11.13100 48.52300 24.55000
C  12.22300 48.94700 25.31300
C  13.42900 48.66400 24.54100
C  13.00800 48.28700 23.24800
C  11.56100 48.16800 23.31700
C  14.80900 48.86600 25.17000
C  13.88100 47.86300 22.08900
O  13.39800 47.82400 20.97000
C  15.41600 47.62900 22.27900
N  8.43200 48.34100 23.09100
C  9.30600 47.92200 22.14300
C  8.55000 47.44000 20.87100
C  7.06600 47.41100 21.33400
C  7.14500 48.08800 22.68900
C  8.86900 48.39800 19.72200
C  6.38400 46.01700 21.38600
C  7.24400 44.92800 22.05800
N  7.10200 48.65400 25.52700
C  5.90300 48.52300 24.82100
C  4.71700 48.53900 25.67900
C  5.29400 48.57100 26.97500
C  6.71300 48.68500 26.81800
C  3.29200 48.35200 25.28900
C  4.98100 48.55800 28.37900
O  3.91300 48.36200 28.96100
C  6.26000 48.78000 29.08900
C  6.43400 47.62900 29.93300
O  6.70400 46.45200 29.54400
O  6.07100 48.07100 31.22100
C  5.84200 47.00400 32.20500
H  12.88800 49.83400 27.17800
H  11.10800 47.46500 21.34400
H  4.98400 48.11700 22.97600
H  9.03300 50.32400 29.95200
H  11.73500 50.02400 29.34400
H  10.96100 52.01900 27.59600
H  11.23700 52.39700 29.34100
H  9.63300 52.16400 28.82600
H  10.89900 47.96900 30.26200
H  9.26800 47.54200 30.07300
H  9.15200 49.47600 32.05500
H  10.84000 48.72800 32.13700
H  15.48700 48.03400 24.97700
H  14.76300 48.99400 26.25100
H  15.31500 49.79200 24.89500
H  15.80200 48.64300 22.37800
H  15.76400 47.14800 21.36500
H  15.63400 47.01300 23.15100
H  9.01700 46.49500 20.59300
H  6.53600 48.21500 20.82200
H  9.62700 49.14100 19.97100
H  8.00200 48.97900 19.40400
H  9.12500 47.75200 18.88200
H  6.25100 45.71200 20.34800
H  5.44700 46.09500 21.93900
H  7.92900 45.24400 22.84500
H  7.78700 44.47400 21.23000
H  6.57000 44.17900 22.47400
H  2.76500 49.11700 24.71800
H  2.77200 48.22100 26.23800
H  3.04000 47.52200 24.62900
H  6.13400 49.67800 29.69500
H  5.88300 46.00700 31.76700
H  4.89200 47.25700 32.67500
H  6.59700 47.15200 32.97800
Mg -5.87800 25.83600 26.28300
C  -4.27200 26.99600 29.16200
C  -7.61800 23.60000 28.41700
C  -6.86500 24.01700 23.80100
C  -3.56900 27.42900 24.41200
N  -5.96000 25.39100 28.54800
C  -5.36200 26.11000 29.48900
C  -5.82500 25.67800 30.92500
C  -6.76900 24.44800 30.63000
C  -6.75000 24.43600 29.09200
C  -6.65600 23.13400 31.45000
C  -6.67200 26.81500 31.51100
C  -6.51600 26.99800 32.99900
H  -5.91500 25.90400 33.91600
N  -7.15900 24.08000 26.09800
C  -7.82700 23.39000 27.05900
C  -8.76800 22.48900 26.45200
C  -8.57000 22.56200 25.05300
C  -7.51400 23.61900 24.88900
C  -9.67300 21.60600 27.30400
C  -9.17200 21.77600 23.93600
O  -8.99100 22.12200 22.79100
C  -10.06200 20.51400 24.14300
N  -5.28300 25.80600 24.40100
C  -5.81600 24.92900 23.51100
C  -5.41100 25.13500 22.04400
C  -4.37500 26.35600 22.24900
C  -4.40100 26.58900 23.76900
C  -4.76800 23.83400 21.42900
C  -4.69800 27.65800 21.49200
C  -3.48800 28.52800 21.10900
N  -4.30500 27.08200 26.64300
C  -3.50000 27.73100 25.76700
C  -2.59700 28.63000 26.48200
C  -2.84900 28.27100 27.82700
C  -3.88500 27.38600 27.84200
C  -1.66200 29.63000 25.94500
C  -2.41000 28.60200 29.13000
O  -1.48800 29.22700 29.60900
C  -3.35800 27.75800 30.07500
C  -2.49500 26.88200 31.01400
O  -1.96700 25.81900 30.71000
O  -2.29600 27.48200 32.25300
C  -1.52200 26.54300 33.12400
H  -8.22500 22.92700 29.02600
H  -7.15000 23.52000 22.87200
H  -2.92900 28.05000 23.78300
H  -5.05700 25.23900 31.56200
H  -7.78500 24.78800 30.82900
H  -6.21600 22.43500 30.73900
H  -7.69400 23.01000 31.75800
H  -5.98100 23.12200 32.30600
H  -7.71100 26.70600 31.20000
H  -6.21600 27.71600 31.10100
H  -7.47100 27.33000 33.40600
H  -5.89900 27.88800 33.12500
H  -10.49000 21.18100 26.72000
H  -10.12900 22.17600 28.11400
H  -9.08000 20.81300 27.75900
H  -9.68900 19.98500 25.02000
H  -9.98300 19.83500 23.29400
H  -11.05700 20.94500 24.25400
H  -6.30600 25.42800 21.49500
H  -3.39700 25.97200 21.95800
H  -3.74100 24.07700 21.15500
H  -5.24400 23.47000 20.51800
H  -4.72000 22.99300 22.12000
H  -5.33400 28.40100 21.97200
H  -5.19400 27.31200 20.58400
H  -3.34700 29.33500 21.82800
H  -3.58000 28.82800 20.06500
H  -2.64100 27.85800 21.24800
H  -0.67100 29.66600 26.39700
H  -2.13500 30.59800 26.11000
H  -1.52100 29.60100 24.86500
H  -3.90600 28.42000 30.74500
H  -0.51900 26.41500 32.71700
H  -2.14500 25.65100 33.18800
H  -1.27700 27.09800 34.03000

