158

Mg 27.69200 50.32500 25.35100
C  25.72700 51.70500 27.74800
C  29.80300 49.26400 27.74400
C  29.69200 49.23700 22.77500
C  25.71500 51.86200 22.87400
N  27.77700 50.62800 27.43900
C  26.80500 51.09600 28.28600
C  27.12400 50.76800 29.76700
C  28.66500 50.28900 29.75700
C  28.78300 50.08300 28.19900
C  29.66100 51.31100 30.37700
C  26.09600 49.98600 30.58100
C  25.47900 50.62000 31.81100
H  26.41600 50.92800 33.05300
N  29.50200 49.34800 25.28300
C  30.19100 48.99400 26.41700
C  31.25400 48.07100 26.00900
C  31.12100 47.99800 24.55600
C  30.12200 48.93900 24.12100
C  32.36100 47.60300 26.98100
C  31.87800 47.10400 23.57500
O  31.78000 47.15900 22.33800
C  32.62700 45.93500 24.13400
N  27.68300 50.52000 23.14500
C  28.57100 49.95000 22.28900
C  28.35300 50.26300 20.76200
C  26.89400 50.80900 20.85700
C  26.79700 51.16300 22.33400
C  29.35900 51.37600 20.33000
C  25.74900 49.90100 20.32900
C  25.69500 48.40500 20.71000
N  26.06700 51.58300 25.31300
C  25.38100 52.13700 24.23100
C  24.32300 52.93100 24.71800
C  24.37500 52.76400 26.09200
C  25.46000 51.96300 26.41600
C  23.27900 53.62500 23.88500
C  23.75300 53.14500 27.41900
O  22.80800 53.90900 27.65200
C  24.61500 52.38400 28.50400
C  24.98900 53.46800 29.44400
O  25.89400 54.24400 29.40300
O  24.07000 53.47400 30.50900
C  24.26900 54.52800 31.56900
H  30.47000 48.89400 28.52500
H  30.38600 48.83600 22.03300
H  25.00200 52.18100 22.11100
H  27.25500 51.70300 30.31200
H  28.74700 49.30900 30.22500
H  30.49200 51.50000 29.69700
H  30.18500 50.71200 31.12200
H  29.28500 52.27500 30.71900
H  26.66700 49.11600 30.90600
H  25.22800 49.67500 29.99900
H  24.77100 49.84700 32.11000
H  24.95800 51.53200 31.52000
H  32.37300 48.00500 27.99400
H  33.34500 47.82500 26.56800
H  32.32100 46.51600 27.04200
H  32.94000 45.27300 23.32700
H  31.98500 45.44100 24.86300
H  33.51700 46.26600 24.67100
H  28.44800 49.33200 20.20300
H  26.93700 51.83100 20.48100
H  28.90100 52.30000 20.68400
H  29.56000 51.45000 19.26100
H  30.28600 51.23300 20.88500
H  25.53300 50.04100 19.27000
H  24.88200 50.29700 20.85700
H  25.23700 47.78800 19.93700
H  25.00900 48.26700 21.54500
H  26.64500 47.96200 21.01000
H  22.57300 52.90000 23.48000
H  23.58800 54.23600 23.03800
H  22.64700 54.27500 24.49100
H  24.02500 51.61700 29.00400
H  25.29300 54.29400 31.86300
H  23.41000 54.38000 32.22200
H  24.29100 55.58500 31.30300
Mg -1.74500 34.23100 26.95700
C  -3.68300 32.77500 29.43000
C  -0.63700 36.53500 29.11500
C  -0.16300 35.74200 24.34000
C  -3.22100 32.07400 24.65000
N  -2.20700 34.65400 28.99900
C  -2.89600 33.81600 29.87500
C  -2.70400 34.40600 31.33500
C  -1.83000 35.67500 31.08300
C  -1.54900 35.63200 29.63900
C  -2.27600 37.00900 31.66600
C  -2.06400 33.33200 32.25800
C  -3.00800 32.73400 33.39100
H  -2.27400 32.48800 34.70200
N  -0.46100 35.85700 26.72300
C  -0.09800 36.65800 27.82100
C  0.77800 37.71800 27.26100
C  0.85900 37.50900 25.85500
C  0.05500 36.32600 25.54500
C  1.33300 38.81100 28.15600
C  1.48500 38.44200 24.85400
O  1.46200 38.24800 23.65600
C  2.35500 39.53700 25.29000
N  -1.73400 34.05700 24.72800
C  -0.96400 34.75600 23.91100
C  -1.02600 34.15400 22.46700
C  -1.96500 32.90200 22.61900
C  -2.26700 32.94200 24.10900
C  -1.49000 35.10700 21.23000
C  -1.41000 31.54300 22.14600
C  -0.79300 30.60000 23.14700
N  -3.29400 32.91200 26.92500
C  -3.76200 32.08200 25.93000
C  -4.80600 31.24200 26.43300
C  -4.74900 31.44400 27.87100
C  -3.83700 32.44700 28.06700
C  -5.67900 30.29000 25.67400
C  -5.42100 31.09300 29.11600
O  -6.39300 30.37400 29.28800
C  -4.60200 31.83600 30.25500
C  -5.56300 32.54800 31.19300
O  -6.26400 33.45400 30.85100
O  -5.80600 31.86000 32.35300
C  -6.85900 32.42600 33.23400
H  -0.26500 37.21600 29.88300
H  0.41900 36.09000 23.48400
H  -3.61700 31.32700 23.95900
H  -3.68500 34.68500 31.72000
H  -0.83500 35.55400 31.51200
H  -2.56800 37.81900 30.99800
H  -1.48700 37.38700 32.31700
H  -3.17400 37.01000 32.28400
H  -1.21100 33.79000 32.75900
H  -1.59600 32.50800 31.72100
H  -3.49900 31.79400 33.13800
H  -3.77500 33.50300 33.47900
H  2.42100 38.73500 28.14500
H  1.11300 38.57000 29.19600
H  0.88000 39.79700 28.05800
H  2.66300 40.04400 24.37600
H  3.15300 39.08100 25.87600
H  1.68200 40.18800 25.84900
H  0.02400 33.89400 22.33600
H  -2.89300 33.05200 22.06800
H  -1.79800 36.05400 21.67400
H  -2.24400 34.66700 20.57800
H  -0.59600 35.29100 20.63400
H  -0.74400 31.68000 21.29400
H  -2.34800 31.14000 21.76500
H  -0.06600 29.97800 22.62500
H  -1.60900 30.01500 23.57000
H  -0.31700 31.24300 23.88700
H  -5.35200 30.39200 24.63900
H  -6.72500 30.35500 25.97400
H  -5.30700 29.28200 25.86200
H  -4.06400 31.07500 30.82200
H  -7.85000 32.40000 32.78200
H  -6.79400 33.48700 33.47300
H  -6.78100 31.81200 34.13100

