158

Mg -1.79500 17.59700 27.55400
C  -2.82700 15.40700 30.35900
C  -2.26300 20.26100 29.58200
C  -1.24700 19.48000 24.95900
C  -2.13600 14.69100 25.47400
N  -2.56900 17.78400 29.75900
C  -2.62700 16.77500 30.69000
C  -2.71600 17.48100 32.02500
C  -2.78700 18.97600 31.73300
C  -2.49200 19.03700 30.25700
C  -4.09600 19.44600 32.26100
C  -1.71700 17.10700 33.18700
C  -2.41400 16.56900 34.52600
H  -1.40200 16.28400 35.57300
N  -1.82600 19.64800 27.25000
C  -1.92000 20.58500 28.26800
C  -1.76700 21.91000 27.66800
C  -1.33300 21.67800 26.32000
C  -1.44300 20.25700 26.07500
C  -1.70800 23.21500 28.43800
C  -0.97400 22.67700 25.29800
O  -0.63600 22.36400 24.15600
C  -0.90700 24.16300 25.60100
N  -1.78100 17.16700 25.48400
C  -1.48000 18.14600 24.61400
C  -1.29700 17.58100 23.21600
C  -1.41700 15.98700 23.38100
C  -1.73700 15.91400 24.85800
C  -2.35200 18.10800 22.20800
C  -0.14800 15.30400 22.91400
C  1.21900 15.78700 23.58500
N  -2.39700 15.47700 27.81800
C  -2.38700 14.44400 26.88300
C  -2.93900 13.22300 27.56200
C  -3.01400 13.57000 28.90300
C  -2.73100 14.92400 29.03000
C  -3.19400 11.90800 26.92700
C  -3.35500 13.05300 30.28000
O  -3.61000 11.91200 30.67300
C  -3.10900 14.21500 31.29400
C  -1.87500 13.80500 32.05900
O  -0.73000 13.93700 31.69200
O  -2.26700 13.30800 33.28400
C  -1.19200 13.07300 34.23700
H  -2.17100 21.05400 30.32700
H  -0.98500 20.12500 24.11800
H  -2.04800 13.90000 24.72600
H  -3.68800 17.13500 32.37700
H  -2.08600 19.50200 32.38100
H  -4.81300 19.70600 31.48200
H  -3.91700 20.43600 32.68200
H  -4.53900 18.87700 33.07800
H  -0.96300 17.89200 33.24500
H  -1.03000 16.37000 32.77200
H  -2.98300 15.64400 34.43700
H  -3.01000 17.40900 34.88200
H  -2.51400 23.88200 28.13300
H  -0.77100 23.77100 28.41300
H  -1.82300 23.01800 29.50300
H  -0.17600 24.29800 26.39800
H  -1.92600 24.42700 25.88600
H  -0.57300 24.74100 24.73900
H  -0.34000 17.94400 22.84100
H  -2.27400 15.52800 22.88700
H  -2.90400 18.96800 22.58700
H  -3.01600 17.29000 21.92700
H  -1.87400 18.39400 21.27100
H  -0.15700 15.48300 21.83900
H  -0.26800 14.26400 23.21700
H  1.05900 15.95500 24.65000
H  1.61700 16.69300 23.12800
H  1.95200 14.98000 23.57100
H  -3.38500 11.10700 27.64100
H  -2.37600 11.58300 26.28500
H  -4.07200 11.99100 26.28500
H  -3.97600 14.25600 31.95400
H  -1.40100 13.53400 35.20300
H  -0.24400 13.54800 33.98200
H  -1.13300 11.98500 34.21800
Mg 17.02300 -1.84300 28.18000
C  15.90500 -0.20700 30.96100
C  19.47000 -3.43600 30.09800
C  18.11300 -3.39600 25.40200
C  14.93600 0.16200 26.23100
N  17.63100 -1.80800 30.36200
C  16.91300 -1.09100 31.25400
C  17.40000 -1.41700 32.64900
C  18.72700 -2.32100 32.32700
C  18.67100 -2.53000 30.81400
C  20.00500 -1.84600 32.97000
C  16.29800 -2.11500 33.49100
C  15.91200 -1.44800 34.80100
H  17.07800 -0.72200 35.55200
N  18.50000 -3.33600 27.81100
C  19.34100 -3.84300 28.73100
C  20.12800 -4.84300 28.11600
C  19.85000 -4.84900 26.73600
C  18.74700 -3.84700 26.59700
C  21.05700 -5.67900 28.95100
C  20.48000 -5.55300 25.59500
O  20.00100 -5.42400 24.48600
C  21.53100 -6.63400 25.76900
N  16.62900 -1.65800 26.10200
C  17.26000 -2.37200 25.12100
C  16.85400 -1.88300 23.73800
C  15.61700 -0.95000 24.08000
C  15.78700 -0.73200 25.56500
C  18.03200 -1.19800 23.04400
C  14.27500 -1.61600 23.68900
C  13.98600 -1.37400 22.20000
N  15.57500 -0.34500 28.48600
C  14.80700 0.41400 27.62700
C  13.97700 1.36000 28.39300
C  14.39200 1.16500 29.68000
C  15.37300 0.14200 29.66000
C  13.10100 2.37600 27.85400
C  14.23500 1.59200 31.04500
O  13.56700 2.47700 31.51300
C  15.25500 0.73300 31.90700
C  16.21500 1.73700 32.46900
O  17.19300 2.14200 31.88000
O  15.71600 2.21300 33.63800
C  16.52500 3.28300 34.21800
H  20.21200 -3.88800 30.76000
H  18.38900 -3.83600 24.44100
H  14.23900 0.82400 25.71200
H  17.64000 -0.45600 33.10500
H  18.59500 -3.33400 32.70800
H  19.81900 -0.97600 33.60000
H  20.66600 -1.56000 32.15200
H  20.40000 -2.67500 33.55700
H  16.75800 -3.07300 33.73300
H  15.38200 -2.31200 32.93200
H  15.66600 -2.39600 35.27800
H  14.97400 -0.90400 34.90800
H  20.68000 -6.03600 29.91000
H  21.82500 -4.97600 29.27400
H  21.52500 -6.46700 28.36200
H  22.43100 -6.27700 26.27000
H  21.81800 -7.05300 24.80400
H  21.02700 -7.44000 26.30200
H  16.53000 -2.78200 23.21400
H  15.68100 0.02700 23.60200
H  18.92400 -1.45200 23.61700
H  17.78000 -0.15200 22.87100
H  18.10700 -1.64400 22.05300
H  13.46400 -1.21700 24.29800
H  14.26300 -2.69400 23.85000
H  13.77400 -2.38000 21.83900
H  14.69500 -0.85000 21.55900
H  13.05900 -0.80000 22.20700
H  13.55400 2.71700 26.92300
H  13.23200 3.18200 28.57500
H  12.09400 2.02700 27.62300
H  14.61800 0.29900 32.67800
H  17.57800 3.02300 34.11200
H  16.40100 3.29200 35.30100
H  16.24900 4.25600 33.81100

