158

Mg 26.07200 -0.78400 29.74900
C  28.09100 -0.96300 32.63600
C  23.36200 -0.08400 31.81300
C  24.26800 -0.35200 27.01400
C  28.82800 -1.46700 27.69600
N  25.82300 -0.56800 32.07300
C  26.79400 -0.67200 33.00700
C  26.25000 -0.50900 34.43900
C  24.71800 -0.17600 34.11200
C  24.57800 -0.32600 32.61000
C  23.73300 -1.14200 34.82300
C  26.95000 0.69400 35.12800
C  27.51800 0.32400 36.57000
H  27.01500 1.26600 37.71800
N  24.10900 -0.33900 29.39700
C  23.16000 -0.09900 30.38800
C  21.90900 0.10300 29.70400
C  22.10800 -0.15400 28.32600
C  23.56000 -0.37100 28.16800
C  20.66200 0.45300 30.34900
C  21.05300 -0.15300 27.16800
O  21.37900 -0.37000 25.99600
C  19.57500 0.07600 27.43700
N  26.47200 -0.98700 27.70300
C  25.51500 -0.62100 26.75100
C  26.06200 -0.81000 25.31700
C  27.61200 -0.93400 25.57400
C  27.68500 -1.14800 27.07500
C  25.46000 -2.02700 24.45600
C  28.47900 0.28100 25.09900
C  29.96800 -0.04100 24.76300
N  28.01300 -1.28100 30.09800
C  29.04200 -1.60900 29.17600
C  30.23200 -1.96600 29.94500
C  29.95700 -1.62400 31.28900
C  28.56600 -1.27900 31.34000
C  31.44200 -2.46200 29.45200
C  30.45000 -1.54100 32.60400
O  31.55700 -1.94400 33.00900
C  29.31800 -1.14300 33.49800
C  29.25700 -2.25600 34.52100
O  28.52100 -3.23800 34.47400
O  30.00900 -1.89900 35.64100
C  29.74800 -2.56300 36.86300
H  22.56700 0.20300 32.50400
H  23.67500 -0.25300 26.10200
H  29.68900 -1.58400 27.03500
H  26.37000 -1.46500 34.94900
H  24.45900 0.85100 34.37000
H  23.45000 -2.04200 34.27700
H  22.80500 -0.59000 34.97600
H  24.15600 -1.43400 35.78400
H  26.26900 1.53500 35.26000
H  27.73900 1.00200 34.44300
H  28.60700 0.35000 36.60000
H  27.18000 -0.69400 36.76300
H  20.85500 0.97600 31.28600
H  20.20900 -0.49900 30.62500
H  19.99800 1.06800 29.74100
H  19.46300 -0.58900 28.29400
H  18.96400 -0.32700 26.62900
H  19.30500 1.11700 27.61100
H  25.99300 0.09200 24.71000
H  27.99800 -1.83100 25.08900
H  24.77300 -2.65000 25.02900
H  26.27500 -2.67500 24.13300
H  24.89300 -1.52900 23.66900
H  28.60100 0.89000 25.99500
H  27.93800 0.83200 24.33000
H  30.11400 -1.12000 24.73000
H  30.65800 0.14900 25.58500
H  30.14700 0.35700 23.76400
H  32.13500 -1.64100 29.26600
H  31.16700 -2.84300 28.46800
H  31.95300 -3.14700 30.12700
H  29.48800 -0.19300 34.00500
H  29.26200 -1.72800 37.36700
H  30.73600 -2.75500 37.28200
H  29.18900 -3.48700 36.71400
Mg -1.67400 34.37500 26.09800
C  -2.59000 32.49100 29.00100
C  0.26000 36.26500 28.14200
C  -1.23100 36.31800 23.53900
C  -3.35000 32.01000 24.14000
N  -1.21800 34.29600 28.32700
C  -1.64800 33.42800 29.35000
C  -1.18700 33.84900 30.71200
C  -0.28700 35.13800 30.40500
C  -0.44300 35.27300 28.88500
C  -0.58200 36.43500 31.22700
C  -0.49300 32.69400 31.55600
C  -1.01600 32.32900 32.92700
H  0.11000 32.38400 34.02200
N  -0.63100 36.11800 25.87600
C  0.25900 36.66100 26.73200
C  0.89700 37.86300 26.15400
C  0.31900 37.96900 24.82700
C  -0.53400 36.77400 24.70200
C  1.95700 38.65600 26.96300
C  0.50700 39.10300 23.78000
O  -0.08500 39.15300 22.70400
C  1.56600 40.10400 24.10700
N  -2.29500 34.29400 24.18600
C  -1.95000 35.19100 23.22600
C  -2.42400 34.77400 21.82900
C  -2.71900 33.26700 22.03200
C  -2.78200 33.18300 23.54900
C  -3.76500 35.60300 21.47200
C  -1.65300 32.29400 21.43500
C  -0.30600 32.26700 22.18800
N  -2.89100 32.75200 26.43100
C  -3.47600 31.85600 25.53400
C  -4.19700 30.89700 26.29200
C  -3.95800 31.12600 27.63300
C  -3.16200 32.26100 27.70000
C  -4.97100 29.74700 25.64300
C  -4.16100 30.58100 28.96800
O  -4.87800 29.63500 29.30400
C  -3.27600 31.46400 29.91600
C  -4.17900 31.94100 31.08500
O  -4.82100 32.98400 31.07000
O  -4.17200 31.04600 32.10100
C  -4.80200 31.52300 33.39000
H  0.84800 36.94100 28.76600
H  -1.13500 37.01100 22.70000
H  -3.70800 31.24700 23.44600
H  -1.96400 34.26600 31.35300
H  0.69300 34.79900 30.73900
H  -0.99500 37.24600 30.62600
H  0.37100 36.76200 31.64300
H  -1.30000 36.29200 32.03500
H  0.57900 32.88500 31.61800
H  -0.48900 31.74900 31.01300
H  -1.53500 31.37100 32.91800
H  -1.70300 33.09500 33.28600
H  1.58500 39.67200 27.10000
H  2.95500 38.71700 26.52700
H  2.10300 38.22500 27.95300
H  1.67800 40.88200 23.35200
H  2.47400 39.50200 24.10800
H  1.18000 40.53700 25.03000
H  -1.61800 34.89100 21.10500
H  -3.72700 32.93400 21.78600
H  -4.44800 34.91700 20.97000
H  -3.52300 36.45100 20.83100
H  -4.21300 35.91200 22.41700
H  -1.51500 32.74300 20.45200
H  -1.96300 31.24900 21.40700
H  0.47500 32.45500 21.45000
H  -0.14100 31.27400 22.60700
H  -0.18600 32.94000 23.03700
H  -6.00400 30.07800 25.53700
H  -4.81700 28.86000 26.25700
H  -4.72700 29.52700 24.60300
H  -2.63100 30.76900 30.45200
H  -5.51800 32.34000 33.29200
H  -4.04600 31.97300 34.03300
H  -5.46300 30.80500 33.87500

