158

Mg 1.72700 -1.06900 43.98700
C  5.18900 -0.67600 43.47800
C  1.14100 1.70400 42.11800
C  -1.44100 -2.13200 43.78200
C  2.55000 -4.34900 45.39100
N  3.10000 0.30500 42.77700
C  4.42500 0.31100 42.77000
C  4.99200 1.58400 42.02400
C  3.65500 2.31000 41.63200
C  2.55500 1.44200 42.29500
C  3.53300 3.80900 42.14900
C  6.01000 1.22700 40.88300
C  5.86800 -0.03400 40.03000
H  5.69300 0.08700 38.50900
N  0.01200 -0.22100 43.23200
C  -0.01800 0.98300 42.59600
C  -1.32100 1.26700 42.19700
C  -2.11500 0.10400 42.47700
C  -1.22500 -0.84300 43.23300
C  -1.83400 2.48800 41.44100
C  -3.62500 -0.20000 42.17800
O  -4.24200 0.67200 41.60700
C  -4.36500 -1.42900 42.64800
N  0.70700 -3.08000 44.45900
C  -0.56700 -3.17300 44.38600
C  -1.11600 -4.58200 44.74200
C  0.11700 -5.11400 45.56700
C  1.20700 -4.16200 45.09700
C  -2.52700 -4.74400 45.31500
C  0.32300 -6.62300 45.28100
C  0.99000 -7.49400 46.43500
N  3.46400 -2.29300 44.39600
C  3.59200 -3.53700 44.95800
C  4.97000 -3.87900 45.06700
C  5.63000 -2.80000 44.54500
C  4.71600 -1.84500 44.09600
C  5.51600 -5.13300 45.68900
C  6.96100 -2.25700 44.25200
O  8.07900 -2.65800 44.57100
C  6.71800 -0.81300 43.63200
C  7.29400 0.20000 44.56900
O  6.99300 0.34500 45.72800
O  8.13300 1.10700 43.94300
C  8.63200 2.30900 44.68500
H  0.92300 2.62800 41.57800
H  -2.39500 -2.62500 43.58300
H  2.79400 -5.32200 45.82300
H  5.63300 2.25400 42.59600
H  3.60700 2.19800 40.54800
H  3.37100 4.00400 43.21000
H  2.68400 4.25600 41.63100
H  4.45700 4.24800 41.77400
H  6.94900 1.23900 41.43600
H  6.16400 2.08000 40.22200
H  4.92900 -0.49300 40.34000
H  6.61300 -0.74700 40.38200
H  -2.67200 2.97800 41.93600
H  -2.16100 2.37700 40.40700
H  -1.15800 3.34200 41.48100
H  -5.27200 -1.34200 42.04800
H  -4.52600 -1.53200 43.72100
H  -3.87700 -2.31800 42.25000
H  -1.24900 -5.06600 43.77400
H  -0.09900 -4.97100 46.62600
H  -3.25900 -5.13600 44.60900
H  -2.95500 -3.75400 45.47200
H  -2.51900 -5.26700 46.27100
H  0.99200 -6.74300 44.42900
H  -0.65400 -7.08000 45.12400
H  0.24000 -8.21800 46.75000
H  1.36600 -6.92300 47.28400
H  1.88400 -7.94300 46.00300
H  4.84900 -5.99300 45.62200
H  5.86800 -4.99600 46.71100
H  6.38900 -5.45900 45.12300
H  7.33900 -0.82000 42.73700
H  8.36000 2.33800 45.74000
H  8.32300 3.14800 44.06200
H  9.71900 2.29800 44.60100
Mg 8.10600 3.16800 28.74800
C  9.74600 2.02100 31.59200
C  6.03000 5.08800 30.88100
C  6.71000 4.51100 26.13600
C  9.72600 0.80900 26.80900
N  7.97500 3.53200 30.91500
C  8.78000 2.99700 31.89700
C  8.44900 3.70900 33.28800
C  6.95000 4.26100 33.13200
C  6.98900 4.33300 31.55400
C  5.71600 3.49100 33.62700
C  9.48300 4.86300 33.56600
C  10.43400 4.63900 34.71300
H  10.17800 3.73100 35.89900
N  6.49200 4.62800 28.51300
C  5.80900 5.28900 29.47900
C  4.89600 6.23300 28.84700
C  5.21100 6.18500 27.41000
C  6.17700 5.12300 27.26200
C  3.88100 7.07300 29.66100
C  4.61500 7.04500 26.29600
O  4.84000 6.78800 25.13800
C  3.76000 8.21800 26.66000
N  7.94200 2.45700 26.77600
C  7.41700 3.34200 25.87800
C  7.69400 2.91300 24.45100
C  8.95100 1.89000 24.67600
C  8.86500 1.64500 26.13500
C  6.49300 2.34400 23.71100
C  10.32900 2.35500 24.09600
C  11.12100 3.40900 24.83800
N  9.48900 1.73900 29.12700
C  9.94300 0.77000 28.21100
C  10.85200 -0.07700 28.99000
C  10.83300 0.39800 30.29700
C  9.94500 1.48600 30.31100
C  11.72400 -1.14100 28.38300
C  11.46200 0.34300 31.60200
O  12.38800 -0.32900 32.08100
C  10.62600 1.24200 32.53700
C  9.84800 0.38900 33.53700
O  8.77400 -0.12200 33.43500
O  10.54200 0.27700 34.73100
C  9.85400 -0.23200 35.83100
H  5.31300 5.66700 31.46700
H  6.46800 5.13900 25.27600
H  10.33700 0.17300 26.16500
H  8.43800 2.99500 34.11100
H  6.82700 5.27500 33.51300
H  5.48300 2.68300 32.93500
H  4.86600 4.16700 33.72100
H  5.98300 3.09900 34.60800
H  8.97100 5.77300 33.88000
H  10.06600 5.01400 32.65700
H  10.58200 5.62000 35.16300
H  11.41000 4.28000 34.38600
H  3.71400 6.52000 30.58500
H  2.90600 7.09200 29.17500
H  4.27100 8.04700 29.95600
H  2.93800 7.94900 27.32500
H  3.47800 8.61200 25.68400
H  4.38200 8.98800 27.11700
H  8.04900 3.71600 23.80500
H  8.65100 0.97400 24.16800
H  5.67000 2.18100 24.40700
H  6.65700 1.36800 23.25500
H  6.21800 3.11400 22.99100
H  10.28000 2.75000 23.08200
H  10.98100 1.48500 24.16700
H  10.65500 3.78800 25.74800
H  11.25800 4.34900 24.30300
H  12.14500 3.06100 24.97000
H  12.63800 -1.39200 28.92200
H  11.99400 -0.99600 27.33700
H  11.23100 -2.11100 28.32500
H  11.36600 1.74800 33.15700
H  9.83500 -1.32000 35.77400
H  8.81000 0.06500 35.93300
H  10.41700 0.07300 36.71200

