158

Mg 48.60100 46.05600 43.41300
C  45.32200 46.75100 42.47500
C  48.26600 42.84800 41.81200
C  51.87500 45.56500 43.59700
C  49.07200 49.45300 44.07100
N  47.01100 44.94800 42.21200
C  45.73000 45.44700 42.04600
C  44.84400 44.39200 41.26500
C  45.89100 43.16900 41.14200
C  47.12400 43.64500 41.84400
C  45.36600 41.94400 41.89700
C  44.47400 44.94600 39.85700
C  43.07000 44.93700 39.40200
H  42.66100 43.84500 38.33700
N  49.92400 44.41100 42.86300
C  49.60200 43.19000 42.24900
C  50.76800 42.34700 42.25200
C  51.86000 43.08500 42.84700
C  51.31500 44.42800 43.12300
C  50.73400 40.85900 41.99800
C  53.19600 42.60700 43.17900
O  53.55100 41.47700 42.77900
C  54.20400 43.35400 44.08300
N  50.26500 47.37200 43.76300
C  51.50600 46.89400 43.82000
C  52.57600 48.07400 43.97300
C  51.62000 49.24200 44.25000
C  50.25200 48.69800 44.05500
C  53.61700 47.90200 45.13600
C  51.80100 50.53400 43.36400
C  51.71400 52.00900 43.92800
N  47.46900 47.72500 43.49700
C  47.75800 49.03300 43.81400
C  46.53500 49.80300 43.79200
C  45.53300 48.91400 43.41500
C  46.18800 47.68300 43.07600
C  46.45100 51.26000 44.13700
C  44.09400 48.76500 43.20100
O  43.21300 49.54900 43.47300
C  43.92800 47.32600 42.60000
C  42.95300 46.53700 43.47700
O  42.98000 46.31600 44.71500
O  42.07400 45.86500 42.65500
C  41.41300 44.74300 43.29600
H  48.21100 41.84500 41.38300
H  52.96000 45.44800 43.62100
H  49.20400 50.52700 44.21500
H  43.97600 44.18200 41.89100
H  46.16000 42.95500 40.10800
H  44.36400 41.99000 42.32300
H  46.04800 41.79900 42.73500
H  45.34600 41.12100 41.18300
H  44.93500 44.27800 39.13000
H  44.99800 45.89900 39.78400
H  42.86800 45.88800 38.90900
H  42.49700 44.85300 40.32500
H  51.33700 40.61600 41.12300
H  49.76300 40.53300 41.62500
H  51.00300 40.11200 42.74500
H  53.71300 43.57100 45.03200
H  54.65500 44.13400 43.47000
H  54.95800 42.59300 44.28400
H  53.08400 48.29700 43.03400
H  51.60100 49.58400 45.28500
H  53.44400 48.40600 46.08700
H  54.54900 48.22000 44.67000
H  53.83300 46.89700 45.49800
H  51.07600 50.49200 42.55100
H  52.74700 50.39200 42.84100
H  50.93700 52.56500 43.40400
H  52.70700 52.45800 43.89300
H  51.53100 51.99900 45.00300
H  46.60900 51.84900 43.23300
H  47.24400 51.59400 44.80600
H  45.47500 51.51700 44.54700
H  43.39100 47.39800 41.65400
H  40.86800 44.94100 44.21900
H  42.09300 43.94700 43.59900
H  40.76500 44.37300 42.50300
Mg -10.14600 17.24500 41.28400
C  -6.61600 16.65700 41.48600
C  -9.38300 20.56800 40.22400
C  -13.41500 17.73200 40.66500
C  -10.54400 13.79400 41.52100
N  -8.22400 18.50000 40.89400
C  -6.91400 18.00600 41.05600
C  -6.02400 19.06800 40.46700
C  -6.84700 20.33000 40.72700
C  -8.22100 19.76400 40.46500
C  -6.68700 20.96500 42.07900
C  -5.58700 18.91900 39.06200
C  -4.13400 18.52100 38.88200
H  -3.83200 17.24400 38.04500
N  -11.21400 18.91200 40.57600
C  -10.75500 20.16500 40.25600
C  -11.85800 21.01600 39.92200
C  -13.08400 20.21200 40.09100
C  -12.62100 18.91000 40.51500
C  -11.81300 22.47700 39.41900
C  -14.55700 20.79500 39.84500
O  -14.79100 21.95100 39.42800
C  -15.76100 19.97600 40.18200
N  -11.68300 15.95400 40.85900
C  -12.96300 16.42300 40.88000
C  -14.01000 15.30400 40.98300
C  -13.06700 14.06100 41.17400
C  -11.66000 14.65200 41.04900
C  -15.06000 15.41100 42.11900
C  -13.31000 12.95400 40.14600
C  -12.88300 13.20700 38.67500
N  -8.91000 15.57500 41.59300
C  -9.21700 14.27000 41.73800
C  -7.98000 13.47600 41.88800
C  -6.94200 14.42200 41.91300
C  -7.55800 15.67700 41.68800
C  -7.92800 11.97300 42.01100
C  -5.44200 14.53000 41.86100
O  -4.58300 13.64800 41.80900
C  -5.14900 16.02100 41.66500
C  -4.36900 16.60900 42.74900
O  -3.72600 17.65500 42.66300
O  -4.52100 15.93000 43.93700
C  -3.75600 16.45700 45.06900
H  -9.02700 21.58600 40.05200
H  -14.50000 17.76200 40.54500
H  -10.71500 12.71700 41.57700
H  -5.16700 19.22100 41.12300
H  -6.77400 21.19800 40.07100
H  -6.35200 22.00100 42.03600
H  -5.92500 20.52900 42.72400
H  -7.60800 21.07200 42.65200
H  -5.78300 19.84100 38.51300
H  -6.17100 18.17300 38.52400
H  -3.66800 18.31000 39.84400
H  -3.42200 19.21100 38.42800
H  -11.01300 23.06200 39.87200
H  -12.73700 23.04600 39.51500
H  -11.46200 22.34300 38.39600
H  -15.62400 19.49400 41.15100
H  -15.95900 19.20200 39.44000
H  -16.65000 20.59900 40.27700
H  -14.47800 15.22000 40.00200
H  -13.24200 13.59000 42.14100
H  -14.88300 16.38000 42.58700
H  -15.04800 14.58000 42.82400
H  -16.00500 15.55600 41.59400
H  -14.37100 12.70400 40.13700
H  -12.78400 12.08300 40.53900
H  -13.75900 13.38200 38.05000
H  -12.28500 12.39600 38.25900
H  -12.27900 14.11200 38.72900
H  -8.58200 11.73200 42.84800
H  -6.95900 11.51700 42.21400
H  -8.31700 11.69900 41.03000
H  -4.63500 15.95800 40.70500
H  -3.11100 17.31800 44.89400
H  -3.06900 15.64000 45.29500
H  -4.29700 16.56200 46.01000

