158

Mg 26.32100 1.60800 29.25100
C  28.24400 1.06400 32.19700
C  23.57300 2.13500 31.35500
C  24.37300 1.65600 26.52400
C  29.05000 0.42100 27.44600
N  25.96700 1.54900 31.49500
C  26.92200 1.37800 32.47800
C  26.35500 1.58500 33.92800
C  24.78700 1.72300 33.59500
C  24.74600 1.80800 32.01800
C  23.86900 0.51200 34.14100
C  26.97300 2.82900 34.74600
C  26.38500 3.21200 36.11400
H  27.34900 3.62200 37.20700
N  24.24400 1.97300 28.94300
C  23.31900 2.15200 29.92700
C  22.07800 2.49700 29.25800
C  22.22900 2.17200 27.92200
C  23.67800 1.96200 27.72800
C  20.75900 2.74800 30.00700
C  21.23600 2.07100 26.78800
O  21.56100 1.68900 25.71800
C  19.79400 2.38300 27.05600
N  26.63500 1.14900 27.31200
C  25.72000 1.31800 26.32800
C  26.38800 1.00900 24.95400
C  27.85900 0.82500 25.27800
C  27.83100 0.71100 26.80500
C  25.70100 -0.17400 24.17900
C  28.83500 1.91700 24.75800
C  30.30700 1.57200 24.59300
N  28.24600 0.92800 29.68300
C  29.20900 0.41000 28.84400
C  30.33500 -0.04600 29.57800
C  30.06000 0.21400 30.90600
C  28.76900 0.83700 30.93900
C  31.43600 -0.74600 28.97400
C  30.55700 0.03900 32.24700
O  31.57200 -0.41600 32.62200
C  29.40500 0.63200 33.15000
C  28.97400 -0.49100 34.06700
O  28.29900 -1.47000 33.77800
O  29.53000 -0.25000 35.30100
C  29.30800 -1.27000 36.34900
H  22.61000 2.29200 31.84400
H  23.84000 1.70100 25.57200
H  29.93300 0.08600 26.89700
H  26.65000 0.63700 34.37800
H  24.56500 2.72200 33.97100
H  24.57800 -0.25100 34.46200
H  23.28100 0.20900 33.27500
H  23.15100 0.81500 34.90300
H  26.80800 3.58400 33.97800
H  28.03800 2.68500 34.92900
H  25.90700 2.35600 36.59000
H  25.60800 3.96100 35.96100
H  20.43500 3.72100 29.63700
H  20.88600 2.83000 31.08600
H  19.93300 2.04700 29.89400
H  19.25100 1.62900 27.62500
H  19.30600 2.36500 26.08200
H  19.61500 3.39500 27.41900
H  26.32600 1.93700 24.38700
H  28.18800 -0.09300 24.79000
H  24.82500 -0.61700 24.65200
H  26.47500 -0.91300 23.97400
H  25.23000 0.20300 23.27100
H  28.64200 2.79500 25.37500
H  28.34300 2.19600 23.82700
H  30.64800 1.96900 23.63700
H  30.54900 0.51100 24.64900
H  30.82300 2.04600 25.42800
H  32.14200 0.02900 28.67300
H  31.22100 -1.45700 28.17600
H  31.78500 -1.31500 29.83500
H  29.59200 1.54200 33.72000
H  29.00900 -2.26700 36.02500
H  28.44100 -0.96900 36.93600
H  30.12600 -1.23200 37.06800
Mg 9.07500 48.16100 25.05000
C  6.75300 49.02300 27.39900
C  11.61600 49.53000 26.87100
C  11.17300 47.45600 22.49000
C  6.37200 47.79400 22.64000
N  9.17700 49.08300 26.95400
C  8.09700 49.21900 27.83900
C  8.62200 49.63300 29.17100
C  10.06200 50.24100 28.81200
C  10.32200 49.61700 27.43600
C  10.10900 51.72200 28.70200
C  8.83300 48.36800 30.19000
C  9.29200 48.65500 31.66900
H  8.77000 47.81000 32.82600
N  11.13800 48.31700 24.80200
C  12.02900 48.82200 25.76100
C  13.35600 48.70700 25.24100
C  13.22000 48.02600 24.01800
C  11.78000 47.89600 23.71900
C  14.54900 49.18100 26.05700
C  14.32600 47.74500 22.98000
O  14.11000 47.23500 21.88200
C  15.69200 48.14100 23.26000
N  8.70800 47.88700 22.86100
C  9.81700 47.48400 22.12900
C  9.41600 47.05000 20.67600
C  7.86000 47.36700 20.69600
C  7.58000 47.58400 22.14200
C  10.09800 47.73900 19.49300
C  7.00900 46.29800 19.91100
C  6.32800 46.80500 18.69000
N  6.98300 48.15800 25.05500
C  6.06400 47.97900 24.04800
C  4.70600 47.99500 24.59900
C  4.90200 48.41800 25.91600
C  6.29400 48.57100 26.14200
C  3.43000 47.85700 23.86300
C  4.29300 48.83100 27.15600
O  3.09000 48.92400 27.41600
C  5.47000 49.34700 28.11900
C  5.29500 48.72100 29.43100
O  4.97500 47.56800 29.63300
O  5.39300 49.66600 30.42200
C  5.12200 49.37700 31.79600
H  12.44900 49.95800 27.43300
H  11.81500 47.13100 21.66800
H  5.47600 47.75700 22.01700
H  7.91200 50.33100 29.61500
H  10.81500 49.96900 29.55200
H  10.67300 52.18400 29.51200
H  9.10200 52.13900 28.66400
H  10.65300 51.86300 27.76800
H  9.56900 47.69200 29.75600
H  7.91500 47.78100 30.18400
H  9.05100 49.69500 31.88500
H  10.37700 48.58400 31.74800
H  14.96400 50.06900 25.58000
H  15.33500 48.42600 26.08800
H  14.28900 49.43000 27.08600
H  15.90900 47.37700 24.00700
H  15.62800 49.15400 23.65700
H  16.33200 48.03200 22.38500
H  9.78800 46.02500 20.66900
H  7.66000 48.37200 20.32300
H  10.23300 48.80400 19.68100
H  9.55800 47.61300 18.55500
H  11.07400 47.35300 19.19700
H  6.26100 46.05500 20.66600
H  7.57800 45.37200 19.83100
H  5.25000 46.70600 18.81300
H  6.70900 46.27400 17.81800
H  6.55400 47.86300 18.56100
H  2.68400 47.38100 24.49900
H  3.44600 47.37500 22.88500
H  3.03600 48.87200 23.81100
H  5.23100 50.40400 28.23600
H  6.03900 49.57500 32.35200
H  4.79900 48.35200 31.97800
H  4.32000 50.06200 32.07000

