158

Mg 55.16900 25.04700 43.64200
C  52.08700 26.71700 43.14000
C  53.51700 22.08800 42.94100
C  58.14600 23.63400 43.16600
C  56.64200 28.14000 44.40500
N  53.04300 24.49700 42.81800
C  51.95000 25.33100 42.79000
C  50.68900 24.57800 42.57800
C  51.11400 23.11900 42.80500
C  52.65200 23.18200 42.84700
C  50.49200 22.28700 43.92900
C  49.88700 24.80900 41.26200
C  50.61000 24.98600 39.96800
H  50.01600 24.26700 38.73400
N  55.78600 23.11900 43.29400
C  54.93100 22.04800 43.08200
C  55.77400 20.86200 42.93000
C  57.09700 21.28200 42.83300
C  57.08800 22.71900 43.10100
C  55.09900 19.48300 42.64400
C  58.24600 20.31600 42.47200
O  58.08700 19.12800 42.27100
C  59.63100 20.71300 42.20400
N  57.16200 25.76000 43.80100
C  58.22700 24.98700 43.53100
C  59.56000 25.74600 43.92300
C  59.06300 27.18800 44.21500
C  57.55900 27.07500 44.17700
C  60.35400 25.05400 45.09400
C  59.50400 28.25600 43.12900
C  59.01800 27.78700 41.62700
N  54.57600 27.13400 43.67000
C  55.20500 28.15300 44.31000
C  54.25100 29.22300 44.54700
C  53.04300 28.72200 44.11500
C  53.25600 27.42200 43.53800
C  54.36500 30.53100 45.27100
C  51.70300 29.06400 43.94300
O  51.05500 30.09500 44.17600
C  50.96000 27.81400 43.28000
C  50.35400 28.21300 42.04900
O  51.00100 28.38300 40.99200
O  49.02900 28.48000 42.23800
C  48.31500 29.16500 41.16000
H  53.09100 21.08900 43.05300
H  59.15100 23.24100 42.99600
H  57.18100 29.05700 44.65000
H  50.08800 24.94500 43.41000
H  50.90800 22.47200 41.95200
H  49.49400 22.60200 44.23300
H  51.03700 22.36700 44.87000
H  50.49200 21.24200 43.62000
H  49.22600 25.67300 41.32500
H  49.19700 23.96800 41.19100
H  51.59600 24.56200 40.15400
H  50.74600 26.03300 39.69900
H  55.81000 18.69500 42.89200
H  54.87500 19.46200 41.57700
H  54.15500 19.33100 43.16700
H  60.22800 19.88000 41.83200
H  60.08300 21.07800 43.12600
H  59.43400 21.45500 41.43000
H  60.19700 25.83500 43.04400
H  59.38200 27.59700 45.17400
H  59.86600 24.11300 45.34900
H  60.32300 25.69600 45.97400
H  61.38900 24.86200 44.80800
H  60.57200 28.47300 43.11800
H  58.92100 29.14400 43.37200
H  59.90000 27.46200 41.07500
H  58.57100 28.57800 41.02400
H  58.18800 27.08000 41.61900
H  54.09200 31.45800 44.76700
H  55.40300 30.56200 45.59900
H  53.78800 30.43200 46.19100
H  50.11500 27.58900 43.93000
H  47.62200 28.48300 40.66800
H  48.95000 29.67800 40.43800
H  47.60000 29.79700 41.68600
Mg 29.43600 58.03400 41.09400
C  26.51300 56.50200 39.71400
C  31.29100 55.36800 39.84600
C  32.18100 59.90900 41.46100
C  27.37000 60.79400 41.88600
N  28.97300 56.27100 39.95500
C  27.74100 55.91000 39.42200
C  27.98600 54.67400 38.61800
C  29.19400 54.03900 39.19300
C  29.87500 55.25800 39.72800
C  28.85100 53.05700 40.38600
C  28.00700 55.03600 37.09400
C  27.03000 54.34200 36.12600
H  26.40300 55.17600 35.06600
N  31.50100 57.70200 40.79100
C  32.04400 56.54500 40.24400
C  33.45900 56.64900 40.22200
C  33.81500 57.94800 40.70400
C  32.50900 58.58800 41.02600
C  34.33700 55.54500 39.62400
C  35.10000 58.51600 40.75600
O  35.99800 57.89800 40.27400
C  35.39700 59.89200 41.17400
N  29.66900 60.12400 41.37600
C  30.95100 60.59900 41.61200
C  30.94700 62.04400 42.14900
C  29.43300 62.34700 42.24100
C  28.74100 61.02800 41.85400
C  31.75800 62.18000 43.46800
C  28.92600 63.45800 41.33100
C  28.00100 64.50500 41.96300
N  27.37200 58.52700 41.02900
C  26.68000 59.64000 41.48600
C  25.24700 59.47100 41.24600
C  25.19900 58.22100 40.55300
C  26.43400 57.66600 40.48200
C  24.27600 60.55900 41.53500
C  24.27500 57.24800 39.91600
O  23.09000 57.28400 39.97200
C  25.14600 56.06300 39.29900
C  24.69600 54.74200 39.73700
O  24.70600 54.29500 40.86900
O  24.32800 53.99000 38.56800
C  23.87200 52.59800 38.83300
H  31.72800 54.48600 39.37400
H  33.07300 60.48100 41.72600
H  26.82400 61.66500 42.25300
H  27.09800 54.05700 38.75300
H  29.85700 53.63800 38.42700
H  29.55500 53.25600 41.19400
H  28.83300 52.02700 40.03000
H  27.94900 53.24400 40.96900
H  28.97900 54.67500 36.75700
H  28.06600 56.11100 36.92700
H  26.23100 53.92300 36.73700
H  27.56500 53.52300 35.64600
H  33.76800 54.61900 39.53600
H  35.12700 55.41600 40.36400
H  34.74100 55.96800 38.70400
H  34.90800 60.67000 40.58800
H  36.47600 60.03000 41.23700
H  35.02600 60.06800 42.18400
H  31.42700 62.72500 41.44600
H  29.18800 62.56700 43.28000
H  32.44900 63.01800 43.38200
H  32.43900 61.34300 43.62900
H  31.08200 62.30400 44.31400
H  28.36800 63.06300 40.48200
H  29.73700 64.05600 40.91600
H  28.50200 65.43200 41.68500
H  27.86800 64.42500 43.04100
H  27.03900 64.54400 41.45100
H  23.99200 61.03100 40.59500
H  24.63700 61.36700 42.17300
H  23.38600 60.20300 42.05400
H  25.13900 56.15300 38.21300
H  24.63700 52.02500 39.35600
H  23.47100 52.08300 37.96000
H  23.03900 52.68000 39.53100

