158

Mg 48.05600 25.71900 27.96000
C  48.99300 27.84500 30.62200
C  46.93400 23.49200 30.50400
C  47.35200 23.54400 25.58300
C  49.68200 27.82800 25.69500
N  48.01100 25.73700 30.26400
C  48.31800 26.73200 31.07300
C  48.02500 26.38400 32.54700
C  47.46300 24.96700 32.54400
C  47.42400 24.70000 30.98600
C  48.19100 23.92200 33.45900
C  47.11200 27.44200 33.12200
C  47.28700 27.60200 34.68300
H  46.08000 27.81600 35.62000
N  47.28000 23.78300 28.10000
C  46.78400 23.09200 29.15400
C  46.35900 21.73600 28.74700
C  46.54500 21.72200 27.30300
C  47.05800 23.04400 26.94300
C  46.13400 20.65900 29.61600
C  46.08800 20.63700 26.31600
O  46.37900 20.76100 25.16300
C  45.17100 19.53000 26.77400
N  48.43400 25.69400 25.96100
C  48.06000 24.65700 25.14600
C  48.31000 25.01000 23.60400
C  49.10500 26.36400 23.67400
C  49.09800 26.62200 25.23500
C  48.96200 23.98000 22.70000
C  48.40300 27.50800 22.83400
C  49.23200 28.29600 21.84000
N  49.19800 27.41600 28.07300
C  49.85100 28.18300 27.09000
C  50.37200 29.44500 27.66200
C  50.09200 29.28000 29.05000
C  49.28400 28.10800 29.25000
C  50.95200 30.55900 26.81200
C  50.19800 29.90600 30.33400
O  50.77200 30.95800 30.67000
C  49.43100 29.06000 31.35000
C  50.28600 28.82400 32.56300
O  51.06900 27.90000 32.67000
O  50.07900 29.91300 33.37300
C  50.70000 29.79600 34.66100
H  46.61700 22.84200 31.32200
H  47.17400 22.89000 24.72800
H  50.13600 28.55100 25.01500
H  48.99700 26.44600 33.03600
H  46.44900 24.97800 32.94400
H  48.88100 24.42900 34.13400
H  48.81400 23.18600 32.95100
H  47.44500 23.37100 34.03100
H  46.06600 27.18100 32.96300
H  47.12500 28.40900 32.61900
H  47.81000 28.54800 34.82600
H  47.92500 26.86200 35.16600
H  46.71600 20.82000 30.52300
H  46.64200 19.80400 29.17000
H  45.07200 20.42000 29.66700
H  45.68800 18.87900 27.48000
H  45.08000 18.94000 25.86200
H  44.17200 19.91500 26.97800
H  47.30700 25.23700 23.24200
H  50.13400 26.35300 23.31700
H  48.68400 22.98500 23.04600
H  50.03100 24.19300 22.68700
H  48.76400 23.99400 21.62900
H  47.98200 28.04700 23.68200
H  47.53700 27.10100 22.31200
H  48.59000 28.30200 20.95900
H  50.15700 27.76500 21.61600
H  49.47500 29.32600 22.10200
H  50.35700 30.70900 25.91100
H  52.00400 30.29000 26.71800
H  50.95800 31.49500 27.37100
H  48.54200 29.64700 31.58200
H  50.36100 28.99900 35.32200
H  50.40000 30.73500 35.12700
H  51.78800 29.74200 34.71500
Mg -1.80900 33.17700 27.45600
C  -3.45300 31.49900 29.92900
C  -0.38600 35.07100 29.87700
C  -0.30700 34.78900 25.08900
C  -3.77500 31.60200 25.03300
N  -1.84500 33.11600 29.70700
C  -2.64000 32.44900 30.51600
C  -2.46000 32.80000 32.00900
C  -1.58100 34.04100 31.89200
C  -1.29200 34.14700 30.38600
C  -2.13900 35.36600 32.48100
C  -1.81400 31.56400 32.68600
C  -1.14000 31.68600 34.05600
H  -1.55500 30.72600 35.14200
N  -0.46000 34.73500 27.52200
C  0.03700 35.33800 28.58400
C  1.08200 36.24700 28.13300
C  1.18000 36.19700 26.67600
C  0.13900 35.20900 26.39100
C  1.75000 37.16600 29.08000
C  2.02600 37.10000 25.73900
O  2.04000 36.97100 24.49600
C  2.93200 38.12400 26.34300
N  -2.01800 33.20800 25.34300
C  -1.25600 33.97000 24.53200
C  -1.53500 33.83600 23.03200
C  -2.68600 32.81200 23.03700
C  -2.82700 32.51800 24.53100
C  -1.65600 35.09500 22.11100
C  -2.53500 31.51600 22.09700
C  -1.79600 30.38900 22.62400
N  -3.26300 31.77100 27.45000
C  -4.01700 31.27900 26.39700
C  -4.89500 30.19900 26.93000
C  -4.70800 30.27500 28.31100
C  -3.71300 31.25100 28.53400
C  -5.81500 29.37100 26.16600
C  -5.14500 29.81900 29.54400
O  -5.93900 28.93300 29.79900
C  -4.43600 30.58000 30.63000
C  -5.45900 31.36200 31.41600
O  -6.15900 32.20500 30.95200
O  -5.48800 31.01400 32.73800
C  -6.39800 31.60000 33.69400
H  -0.09400 35.77300 30.66100
H  0.27300 35.24900 24.28500
H  -4.46700 31.09300 24.35900
H  -3.41400 33.01500 32.49100
H  -0.64100 33.75400 32.36300
H  -2.91300 35.08000 33.19300
H  -2.50300 36.03700 31.70300
H  -1.37400 35.84200 33.09500
H  -1.17100 30.88500 32.12600
H  -2.67200 30.95700 32.97400
H  -1.25600 32.69200 34.46000
H  -0.05200 31.66400 34.00300
H  2.81300 37.30600 28.88300
H  1.79100 36.81700 30.11200
H  1.29500 38.15400 29.01700
H  3.64200 37.61600 26.99500
H  2.35600 38.82700 26.94400
H  3.56700 38.63700 25.62000
H  -0.62800 33.31700 22.72300
H  -3.58800 33.34000 22.72700
H  -2.41700 35.04500 21.33300
H  -0.72600 34.99300 21.55100
H  -1.83300 36.07800 22.54800
H  -2.06300 31.87800 21.18400
H  -3.48300 31.14500 21.70600
H  -1.05400 30.14900 21.86300
H  -2.48400 29.54500 22.67300
H  -1.29300 30.60400 23.56600
H  -5.54800 28.35800 26.46600
H  -5.66300 29.51100 25.09600
H  -6.81200 29.70600 26.45300
H  -3.91400 29.93300 31.33600
H  -7.01800 32.41600 33.32200
H  -5.88500 31.87100 34.61600
H  -7.11200 30.84100 34.01600

