158

Mg 25.92800 0.64200 29.00900
C  27.87700 0.14400 31.96400
C  23.16200 0.87700 30.94200
C  24.17900 0.59400 26.11800
C  28.86300 0.04700 27.19300
N  25.64300 0.51400 31.27400
C  26.55300 0.40900 32.21900
C  25.75200 0.69300 33.52900
C  24.28200 0.89800 33.11500
C  24.35900 0.79000 31.66600
C  23.33800 -0.31600 33.60900
C  26.35800 1.95400 34.29300
C  26.96200 1.75400 35.63900
H  26.34400 2.54600 36.88200
N  23.93600 0.67400 28.58800
C  22.94200 0.87800 29.53900
C  21.62500 0.88800 28.86000
C  21.88400 0.68700 27.42400
C  23.37000 0.57300 27.34600
C  20.35000 1.18300 29.62700
C  20.90900 0.65700 26.27000
O  21.34800 0.66200 25.10500
C  19.43400 0.74700 26.52400
N  26.46900 0.39100 26.87200
C  25.55800 0.56600 25.84800
C  26.18100 0.35800 24.49000
C  27.77800 0.39700 24.86700
C  27.72400 0.21000 26.41800
C  25.76100 -0.91000 23.68500
C  28.47300 1.80000 24.65800
C  28.31400 2.32300 23.21700
N  27.96200 0.27900 29.40800
C  28.98100 0.05100 28.56100
C  30.15000 -0.20600 29.32500
C  29.78000 -0.12600 30.68900
C  28.41300 0.08900 30.64800
C  31.49500 -0.53300 28.77700
C  30.29400 -0.12400 32.06800
O  31.42300 -0.22300 32.45000
C  28.98100 0.02000 33.02800
C  28.80900 -1.16000 33.95300
O  28.25300 -2.20300 33.67900
O  29.33800 -0.92100 35.19600
C  29.38500 -2.06400 36.16600
H  22.20700 0.88000 31.47200
H  23.65000 0.72000 25.17100
H  29.81000 -0.17100 26.69400
H  25.80900 -0.26900 34.03800
H  23.81500 1.80000 33.51000
H  23.65500 -0.80500 34.53000
H  23.30000 -1.11800 32.87300
H  22.36500 0.12700 33.82200
H  25.59300 2.73100 34.31400
H  27.06800 2.46200 33.64100
H  27.91800 2.24900 35.47300
H  27.04800 0.69500 35.88200
H  20.67700 1.78000 30.47800
H  19.92500 0.22900 29.93900
H  19.58200 1.70500 29.05600
H  18.98900 0.63300 25.53500
H  19.25500 1.77100 26.85200
H  18.99000 0.04800 27.23200
H  25.99600 1.17700 23.79500
H  28.30500 -0.50300 24.54900
H  24.97100 -0.63200 22.98700
H  25.26300 -1.65800 24.30100
H  26.52300 -1.36700 23.05400
H  29.51900 1.87300 24.95700
H  28.01200 2.46500 25.38700
H  29.34700 2.40500 22.87700
H  27.87200 3.31800 23.27200
H  27.75900 1.58800 22.63400
H  31.27200 -0.98900 27.81300
H  32.09100 -1.13400 29.46400
H  32.07000 0.37300 28.58300
H  28.95500 0.86000 33.72200
H  30.39100 -2.01500 36.58300
H  29.32000 -3.07000 35.75100
H  28.59700 -1.98600 36.91500
Mg 47.46600 34.63000 27.61800
C  45.72500 32.89700 30.14900
C  47.62300 37.29300 29.61800
C  48.45700 36.51300 24.97900
C  46.62600 32.01200 25.46400
N  46.81400 34.93600 29.57900
C  46.28700 34.10300 30.51500
C  46.36400 34.61300 31.92500
C  46.75500 36.12800 31.68400
C  47.04700 36.20200 30.18900
C  45.81100 37.23900 32.16300
C  47.54400 33.89000 32.76400
C  47.81000 34.33900 34.22400
H  46.80300 35.30300 34.91600
N  48.18000 36.60900 27.35300
C  48.20900 37.56900 28.33200
C  48.69900 38.84100 27.72500
C  48.88900 38.55200 26.33500
C  48.48500 37.16700 26.18300
C  48.81900 40.07300 28.48700
C  49.36600 39.49400 25.18800
O  49.36500 39.26500 23.97500
C  49.93800 40.78600 25.62900
N  47.50100 34.30400 25.52300
C  48.14400 35.14000 24.68400
C  48.31700 34.53500 23.25000
C  47.61800 33.19000 23.42100
C  47.27400 33.12900 24.88600
C  47.79900 35.37100 22.06500
C  48.54500 32.01900 22.93900
C  49.63500 31.39400 23.88400
N  46.44500 32.77000 27.74800
C  46.19200 31.82800 26.77700
C  45.47000 30.69100 27.37600
C  45.22800 31.09800 28.70900
C  45.85100 32.38400 28.86400
C  44.99400 29.41100 26.59900
C  44.56800 30.71600 29.91400
O  43.80100 29.79800 30.18700
C  44.75200 31.99600 30.87400
C  45.11700 31.56800 32.24300
O  45.94600 30.72000 32.53600
O  44.20700 32.02900 33.09900
C  44.24000 31.54400 34.46000
H  47.64500 38.18800 30.24300
H  48.70300 37.09300 24.08700
H  46.40900 31.19300 24.77500
H  45.39300 34.52700 32.41200
H  47.67400 36.36500 32.22000
H  46.40800 37.90000 32.79100
H  44.98700 36.84700 32.75900
H  45.41900 37.83300 31.33700
H  48.48300 33.96500 32.21600
H  47.27600 32.83300 32.75200
H  48.85300 34.60900 34.38800
H  47.61200 33.37400 34.69000
H  48.43600 40.01100 29.50600
H  48.38400 40.89800 27.92300
H  49.87100 40.29400 28.66800
H  49.16100 41.43000 26.04100
H  50.43400 41.33200 24.82700
H  50.60800 40.60400 26.46900
H  49.37700 34.36500 23.06400
H  46.66500 33.19800 22.89200
H  47.43500 36.38900 22.20300
H  46.99800 34.87400 21.51800
H  48.55700 35.63900 21.32900
H  49.01200 32.26200 21.98500
H  47.76800 31.27800 22.75000
H  50.60900 31.17700 23.44400
H  49.28800 30.44600 24.29500
H  49.71700 32.10200 24.70800
H  43.96700 29.53500 26.25700
H  44.95200 28.47100 27.14800
H  45.54500 29.32500 25.66200
H  43.76900 32.46800 30.84500
H  44.87200 30.67500 34.64400
H  43.24600 31.20200 34.75000
H  44.48600 32.36300 35.13500

