158

Mg 25.80700 0.01300 29.15500
C  27.87400 -0.05300 32.09000
C  23.09200 0.92500 31.08400
C  23.94000 0.01600 26.48100
C  28.59300 -1.01900 27.35300
N  25.51800 0.33100 31.35200
C  26.53900 0.34400 32.35900
C  25.91600 0.79100 33.69400
C  24.31600 0.92600 33.31100
C  24.30200 0.83100 31.80800
C  23.42600 -0.22500 33.95600
C  26.53800 2.01800 34.39900
C  27.31600 1.83900 35.69700
H  27.10800 2.92300 36.80700
N  23.86100 0.36700 28.77000
C  22.87600 0.74100 29.67500
C  21.56900 0.80700 29.02500
C  21.79900 0.60200 27.65200
C  23.21700 0.30100 27.58100
C  20.18500 1.16000 29.69000
C  20.79900 0.69000 26.41600
O  21.20600 0.60800 25.27100
C  19.30700 0.85000 26.58200
N  26.19400 -0.58800 27.19600
C  25.27600 -0.36800 26.26700
C  25.84200 -0.69600 24.84600
C  27.38900 -0.87600 25.14200
C  27.37900 -0.80400 26.69500
C  25.19700 -1.77300 23.90800
C  28.39500 0.18900 24.53100
C  29.73700 -0.31600 24.02600
N  27.80400 -0.66100 29.57700
C  28.80800 -0.95100 28.79700
C  30.02500 -1.10600 29.54400
C  29.68500 -0.75000 30.83700
C  28.29300 -0.46100 30.83200
C  31.34600 -1.51700 28.83300
C  30.20500 -0.57600 32.13700
O  31.29300 -0.79000 32.59300
C  29.00700 -0.17600 33.02400
C  28.75700 -1.23300 34.02900
O  28.30200 -2.35100 33.83300
O  29.10700 -0.73300 35.29800
C  28.82200 -1.58600 36.45500
H  22.23100 1.29700 31.64400
H  23.35800 0.12600 25.56300
H  29.47400 -1.32600 26.78500
H  26.08800 -0.05300 34.36200
H  24.07900 1.94000 33.63100
H  23.99300 -1.09200 34.29600
H  22.65100 -0.54500 33.26000
H  22.98800 0.31300 34.79600
H  25.93300 2.92000 34.49800
H  27.18500 2.30800 33.57200
H  28.29600 1.97900 35.24100
H  27.31900 0.86500 36.18600
H  19.55100 0.27700 29.60300
H  19.65800 2.02200 29.28000
H  20.22300 1.44600 30.74200
H  18.91600 1.19000 25.62300
H  19.21000 1.74700 27.19500
H  19.10400 -0.14600 26.97600
H  25.65900 0.18900 24.23600
H  27.74900 -1.84700 24.80100
H  24.26400 -2.27000 24.17400
H  25.91300 -2.55500 23.66100
H  24.76700 -1.22400 23.07000
H  28.47100 0.98700 25.27000
H  27.88700 0.62400 23.67100
H  30.33800 -0.53400 24.90900
H  30.17300 0.52500 23.48500
H  29.68300 -1.15300 23.33000
H  32.11500 -1.21200 29.54300
H  31.55400 -0.80900 28.03000
H  31.40300 -2.59300 28.66700
H  29.31100 0.73700 33.53500
H  29.09800 -1.10700 37.39500
H  29.44800 -2.47700 36.40000
H  27.77000 -1.86800 36.50700
Mg 47.38000 44.79900 43.67100
C  43.84700 45.13500 43.17700
C  47.30700 41.69300 42.28700
C  50.82500 44.62300 43.83100
C  47.53800 48.22700 44.54300
N  45.76200 43.59700 42.71200
C  44.36900 43.89500 42.72900
C  43.60800 42.84600 41.93200
C  44.74200 41.70500 41.80400
C  46.03700 42.36000 42.31900
C  44.32300 40.41300 42.59000
C  43.21200 43.54800 40.58600
C  42.04500 43.04900 39.70100
H  42.33600 41.99100 38.62400
N  48.86500 43.30500 43.28500
C  48.60000 42.13200 42.71800
C  49.79400 41.34400 42.60500
C  50.84900 42.13600 43.20600
C  50.18700 43.44600 43.48200
C  49.81100 39.88000 42.03800
C  52.25700 41.66600 43.48700
O  52.56400 40.51700 43.18400
C  53.20500 42.50000 44.23600
N  48.98500 46.20900 44.06900
C  50.30100 45.91600 44.09700
C  51.17100 47.14400 44.42100
C  50.11700 48.25200 44.76100
C  48.76200 47.54400 44.44500
C  52.20700 46.92400 45.50800
C  50.27900 49.53000 43.96700
C  50.47700 50.87400 44.70400
N  45.99800 46.43300 43.91200
C  46.19700 47.74300 44.22300
C  44.89100 48.40100 44.32000
C  43.98500 47.45000 43.92100
C  44.66200 46.24000 43.65100
C  44.63300 49.90000 44.49100
C  42.55100 47.16300 43.68900
O  41.62900 47.98400 43.83100
C  42.43000 45.69600 43.18900
C  41.44500 44.94400 44.09200
O  40.31200 44.62200 43.75500
O  42.05700 44.68400 45.27800
C  41.20100 44.01500 46.25300
H  47.19700 40.77800 41.70100
H  51.91100 44.50400 43.82400
H  47.50100 49.20600 45.02500
H  42.72000 42.49500 42.45700
H  44.85000 41.31300 40.79200
H  43.80000 39.79500 41.85900
H  43.58300 40.66400 43.35000
H  45.18700 39.87100 42.97300
H  44.02900 43.40000 39.88000
H  43.19700 44.62800 40.73100
H  41.69800 43.99300 39.28100
H  41.30100 42.65600 40.39400
H  50.72900 39.48400 41.60300
H  48.99000 39.64100 41.36200
H  49.69100 39.20700 42.88700
H  53.67800 43.30500 43.67500
H  53.99500 41.80200 44.51200
H  52.77700 42.82000 45.18600
H  51.66100 47.47600 43.50500
H  50.01500 48.42800 45.83200
H  51.80400 46.16400 46.17700
H  52.32700 47.85300 46.06600
H  53.20400 46.66300 45.15400
H  49.30900 49.66500 43.49000
H  50.98700 49.46100 43.14100
H  49.72400 51.58200 44.35800
H  51.47800 51.27100 44.53400
H  50.40400 50.68100 45.77400
H  44.15300 50.27800 43.58800
H  45.56600 50.45800 44.57500
H  44.10300 50.11900 45.41700
H  41.87200 45.71300 42.25300
H  41.40600 44.48800 47.21400
H  41.54700 42.99500 46.42100
H  40.12600 43.97700 46.07500

