158

Mg 16.53600 -2.69000 28.20200
C  15.47300 -0.45500 30.77700
C  18.18000 -4.56900 30.46200
C  18.21300 -4.25400 25.62200
C  15.02700 -0.50500 25.87300
N  16.79100 -2.41400 30.34400
C  16.17600 -1.56800 31.24400
C  16.41000 -1.99900 32.68700
C  17.39100 -3.19200 32.52500
C  17.45700 -3.47300 30.98700
C  18.80000 -3.07100 33.09700
C  15.12900 -2.26900 33.51000
C  14.97800 -1.89300 34.98600
H  16.19600 -1.30700 35.63300
N  17.97700 -4.24400 28.06100
C  18.47900 -4.92800 29.11300
C  19.25300 -6.08000 28.60700
C  19.42300 -5.91100 27.17400
C  18.54000 -4.75500 26.91400
C  19.83400 -7.09900 29.50500
C  20.06500 -6.83800 26.14500
O  19.88900 -6.81100 24.91700
C  21.05500 -7.83100 26.60200
N  16.70400 -2.35000 26.07800
C  17.34300 -3.24100 25.23900
C  17.14500 -2.83100 23.77200
C  16.11400 -1.65900 23.88300
C  15.86500 -1.56400 25.39300
C  18.51000 -2.60500 23.06200
C  14.80000 -1.88200 23.11400
C  14.62200 -1.08400 21.86900
N  15.50400 -0.90600 28.26500
C  14.91200 -0.19100 27.20500
C  14.40400 1.06800 27.73500
C  14.51800 0.99500 29.14300
C  15.20700 -0.25800 29.40900
C  13.75100 2.12700 26.91200
C  14.23100 1.62200 30.37400
O  13.48700 2.59700 30.63100
C  14.91500 0.75200 31.47600
C  15.95800 1.57700 32.16000
O  16.98400 1.93300 31.58700
O  15.59500 1.94500 33.40300
C  16.53300 2.91600 34.07100
H  18.68000 -5.14900 31.24100
H  18.75400 -4.70300 24.78700
H  14.43000 0.14900 25.23400
H  16.92500 -1.15800 33.15200
H  16.99100 -4.10400 32.96800
H  18.77300 -2.31100 33.87700
H  19.59100 -2.94800 32.35600
H  19.06400 -3.99500 33.61300
H  14.93200 -3.32900 33.35200
H  14.38400 -1.67800 32.97800
H  14.72800 -2.84000 35.46500
H  14.09800 -1.26300 35.11900
H  19.52200 -8.03800 29.04900
H  19.58400 -6.93400 30.55300
H  20.92200 -7.02500 29.50700
H  21.45800 -7.47700 27.55100
H  21.79300 -8.09000 25.84300
H  20.45500 -8.70200 26.86900
H  16.65100 -3.67100 23.28400
H  16.58900 -0.75100 23.51200
H  19.21100 -2.60800 23.89700
H  18.46800 -1.66300 22.51500
H  18.66600 -3.46200 22.40700
H  13.94900 -1.59500 23.73200
H  14.62700 -2.91400 22.80600
H  13.92400 -0.24700 21.85000
H  14.35600 -1.79100 21.08300
H  15.52400 -0.51800 21.63600
H  12.78400 1.81600 26.51600
H  14.27900 2.30600 25.97500
H  13.68700 3.02900 27.52100
H  14.03400 0.50600 32.06900
H  16.08600 3.41500 34.93100
H  16.77100 3.73200 33.38900
H  17.42200 2.41000 34.44900
Mg 35.64900 1.26400 29.36300
C  33.47300 2.44800 31.80400
C  38.26300 1.43700 31.50700
C  37.58500 0.44900 26.77000
C  32.97300 1.85400 26.99900
N  35.82800 1.95300 31.44700
C  34.76300 2.11800 32.27300
C  35.27600 2.19200 33.78100
C  36.86100 2.14000 33.61800
C  37.03200 1.86200 32.08100
C  37.64400 3.42800 34.08500
C  34.66300 1.09100 34.67700
C  34.45500 1.58000 36.14200
H  35.30700 2.67000 36.78500
N  37.64200 0.87200 29.21300
C  38.57200 0.89100 30.25000
C  39.92100 0.46100 29.73100
C  39.74200 0.19200 28.29400
C  38.26300 0.50700 28.04800
C  41.14900 0.59000 30.54300
C  40.87700 -0.12200 27.20100
O  40.74700 0.08400 25.97000
C  42.16900 -0.63000 27.77000
N  35.31000 1.11600 27.18300
C  36.31300 0.68600 26.37900
C  35.85600 0.67100 24.89900
C  34.29100 0.93300 25.06100
C  34.13700 1.38800 26.48000
C  36.64000 1.58700 23.91900
C  33.40000 -0.20800 24.50900
C  32.30900 0.24300 23.53200
N  33.66200 1.97300 29.32900
C  32.71600 2.10800 28.35100
C  31.42800 2.51600 28.85800
C  31.64100 2.68400 30.22900
C  33.02700 2.36000 30.48300
C  30.19100 2.70800 27.98900
C  31.07800 3.05500 31.48800
O  29.97900 3.41500 31.84200
C  32.26500 2.97300 32.53200
C  32.46000 4.32100 33.02400
O  33.51000 5.01400 32.71600
O  31.46900 4.67400 33.91300
C  31.74300 5.89600 34.64600
H  39.08700 1.48900 32.22300
H  38.25400 0.16200 25.95600
H  32.29600 2.20300 26.21600
H  34.99400 3.17900 34.14800
H  37.39900 1.39000 34.19700
H  37.83500 3.96000 33.15300
H  38.62200 3.25200 34.53400
H  37.02400 3.91600 34.83600
H  35.32100 0.22700 34.76800
H  33.72200 0.79900 34.21100
H  34.63200 0.72000 36.78800
H  33.41200 1.87200 36.26300
H  41.37800 -0.45600 30.74600
H  41.03700 1.17600 31.45500
H  41.88800 1.01200 29.86200
H  42.75300 0.20300 28.16200
H  42.75000 -1.03400 26.94100
H  41.96900 -1.51700 28.37000
H  36.00300 -0.34700 24.53800
H  33.99700 1.86300 24.57500
H  37.45300 2.16400 24.36100
H  36.05800 2.25700 23.28700
H  37.19500 0.96800 23.21500
H  33.03300 -0.75500 25.37800
H  34.01200 -0.88600 23.91400
H  31.38500 -0.27200 23.79700
H  32.49800 0.01000 22.48400
H  32.18100 1.31400 23.68500
H  29.90000 3.74000 27.79300
H  29.37000 2.20400 28.49900
H  30.30100 2.12100 27.07800
H  32.00800 2.40000 33.42300
H  31.38500 6.74200 34.06100
H  32.78700 5.94000 34.95800
H  31.10800 5.88200 35.53100

