158

Mg 7.77100 3.34900 27.54400
C  9.28400 2.09600 30.44300
C  5.82800 5.46600 29.47700
C  6.54800 4.57600 24.70200
C  9.20500 0.65500 25.72900
N  7.69400 3.79700 29.70200
C  8.36300 3.14200 30.70000
C  7.91700 3.67000 32.06100
C  6.69600 4.61200 31.76900
C  6.71400 4.68300 30.21500
C  5.35400 4.07500 32.31400
C  9.11100 4.39800 32.78500
C  9.70600 3.72100 33.97700
H  10.07900 4.54600 35.16600
N  6.31700 4.68200 27.13900
C  5.65300 5.57600 28.08100
C  4.78900 6.48900 27.37700
C  4.89300 6.18000 25.95400
C  6.00300 5.12900 25.89000
C  3.98200 7.60600 28.08500
C  4.24100 6.86500 24.74400
O  4.55000 6.67700 23.57400
C  3.14200 7.90200 24.93500
N  7.75300 2.60300 25.54400
C  7.31600 3.43600 24.50800
C  7.62200 2.88000 23.15500
C  8.42400 1.64100 23.55700
C  8.52800 1.63800 25.05900
C  6.41600 2.68100 22.18200
C  9.83900 1.47200 22.79400
C  9.87800 0.27500 21.70600
N  9.02100 1.80200 27.93800
C  9.46000 0.73900 27.13200
C  10.17600 -0.24800 27.89500
C  10.20900 0.34600 29.22000
C  9.43300 1.53900 29.18100
C  10.75600 -1.50300 27.35900
C  10.68800 0.15100 30.53300
O  11.45900 -0.70200 30.83000
C  10.20200 1.28100 31.39100
C  9.47900 0.58400 32.52400
O  8.28500 0.37700 32.67900
O  10.45800 0.32600 33.44800
C  9.99500 0.15300 34.84700
H  5.30800 6.20900 30.08500
H  6.01300 4.86000 23.79300
H  9.68800 -0.09800 25.10300
H  7.52400 2.86600 32.68400
H  6.82400 5.59800 32.21500
H  4.93900 3.21100 31.79500
H  4.56100 4.82200 32.32900
H  5.50600 3.68200 33.31900
H  8.74500 5.40300 32.99500
H  9.92600 4.56500 32.08100
H  10.69900 3.39100 33.67300
H  9.00800 2.93700 34.26900
H  3.00300 7.12900 28.12200
H  3.96400 8.50100 27.46300
H  4.34700 7.84700 29.08300
H  2.28700 7.69400 25.57800
H  2.74300 8.20600 23.96800
H  3.60900 8.80800 25.32300
H  8.38600 3.56700 22.79200
H  7.79200 0.77500 23.36600
H  5.53700 3.12900 22.64500
H  6.27100 1.60900 22.04300
H  6.55000 3.12900 21.19800
H  10.77000 1.36000 23.34800
H  10.16000 2.29000 22.14900
H  8.89800 -0.18500 21.58200
H  10.58500 -0.44400 22.12100
H  10.27200 0.74900 20.80700
H  10.13500 -1.95600 26.58600
H  10.70000 -2.23200 28.16700
H  11.79200 -1.30400 27.08300
H  11.03600 1.88400 31.74900
H  10.02300 1.10000 35.38600
H  10.56500 -0.58400 35.41300
H  8.96500 -0.19900 34.92100
Mg 16.75100 51.54200 26.40400
C  18.67500 49.99900 29.02000
C  14.36000 52.30400 28.60100
C  15.03000 52.45100 23.72700
C  19.38500 50.30900 24.13600
N  16.59600 51.16600 28.52600
C  17.48800 50.63300 29.41500
C  17.02500 50.84000 30.89600
C  15.51100 51.32300 30.68700
C  15.47200 51.64100 29.16000
C  14.41500 50.34800 31.17400
C  17.99500 51.88500 31.61600
C  18.45700 51.52700 32.97300
H  17.36000 50.76900 33.89800
N  14.98700 52.31600 26.17300
C  14.12600 52.64200 27.24000
C  12.99000 53.33000 26.69800
C  13.20000 53.43700 25.28700
C  14.49900 52.79100 24.98100
C  11.88500 53.78900 27.58300
C  12.45500 54.21400 24.26300
O  12.82800 54.39400 23.10000
C  11.10400 54.87800 24.67000
N  17.21900 51.32800 24.25300
C  16.25300 51.81200 23.39000
C  16.57200 51.26100 21.97600
C  18.10200 50.99600 22.04500
C  18.33300 50.93400 23.58200
C  15.62800 50.11300 21.58400
C  19.09900 51.99500 21.35500
C  18.76200 53.50100 21.54000
N  18.64700 50.48900 26.53100
C  19.60600 50.07900 25.57000
C  20.69200 49.34500 26.15800
C  20.35400 49.31900 27.51900
C  19.10600 49.94100 27.68200
C  22.01600 48.77100 25.46200
C  20.83200 48.83500 28.74300
O  21.86300 48.21800 28.90400
C  19.86700 49.36000 29.82400
C  19.38300 48.27100 30.51800
O  18.99100 47.27300 29.98900
O  19.45600 48.45500 31.88200
C  18.93400 47.31600 32.62000
H  13.61700 52.58500 29.35100
H  14.35100 52.69600 22.90700
H  20.11400 49.95400 23.40500
H  17.06400 49.92000 31.47800
H  15.28400 52.18000 31.32000
H  13.90900 50.59400 32.10800
H  14.86100 49.36500 31.32400
H  13.76000 50.28200 30.30500
H  17.48300 52.84200 31.71200
H  18.91900 52.06400 31.06600
H  18.78100 52.38800 33.55800
H  19.24200 50.79500 32.78400
H  11.18000 52.98900 27.81000
H  11.38500 54.69200 27.23200
H  12.28600 54.03500 28.56600
H  10.37200 54.17800 25.07300
H  10.77700 55.34100 23.73900
H  11.34200 55.66400 25.38800
H  16.50600 52.12700 21.31700
H  18.32600 50.08900 21.48300
H  15.17200 50.46100 20.65700
H  14.85000 49.92200 22.32300
H  16.23900 49.34800 21.10400
H  18.93900 51.76400 20.30200
H  20.10000 51.66100 21.62700
H  19.64400 54.14000 21.51300
H  18.50600 53.60600 22.59400
H  18.02400 53.90600 20.84700
H  22.21500 49.06200 24.43000
H  21.86000 47.70300 25.31200
H  22.91500 48.90900 26.06200
H  20.34000 50.01200 30.55800
H  17.94300 46.96600 32.33100
H  18.83100 47.64700 33.65400
H  19.70400 46.54500 32.58100

