158

Mg 47.13900 43.97000 43.33600
C  43.74400 43.27400 43.61100
C  47.79100 40.52000 43.04600
C  50.34000 44.69300 42.51300
C  46.37100 47.44700 43.31800
N  45.89300 42.03100 43.30800
C  44.55900 42.02800 43.48300
C  43.94500 40.64100 43.45000
C  45.28000 39.80200 43.58000
C  46.39800 40.81600 43.24100
C  45.55100 39.03800 44.90400
C  43.08100 40.27100 42.21000
C  43.30100 41.03800 40.87400
H  44.28700 40.49800 39.84800
N  48.88600 42.73600 42.94300
C  48.93600 41.36400 42.94200
C  50.31400 40.99400 42.83100
C  51.04900 42.15100 42.62400
C  50.08900 43.28100 42.69700
C  50.82900 39.60400 42.88100
C  52.49400 42.14600 42.29700
O  53.14800 41.13100 42.29800
C  53.20500 43.38800 42.09800
N  48.17700 45.73300 43.10300
C  49.47500 45.76400 42.69200
C  49.96300 47.23500 42.32000
C  48.75000 48.17900 42.69000
C  47.70100 47.02200 42.98000
C  51.27300 47.65100 43.05800
C  48.18100 49.19700 41.67400
C  48.44600 50.63500 42.18600
N  45.46300 45.14800 43.34000
C  45.24800 46.53600 43.44800
C  43.80800 46.88500 43.55700
C  43.21300 45.61700 43.49900
C  44.23100 44.65100 43.52400
C  43.16500 48.22600 43.43700
C  41.88900 45.03800 43.56900
O  40.74900 45.48300 43.73000
C  42.17600 43.41400 43.71100
C  41.58600 42.92900 45.00100
O  40.43200 42.65900 45.27700
O  42.57100 42.91100 45.97900
C  42.13500 42.63400 47.34100
H  47.94100 39.44500 42.93200
H  51.31800 44.99800 42.13400
H  46.05800 48.48500 43.45000
H  43.29700 40.57700 44.32400
H  45.29200 38.93300 42.92200
H  46.38400 39.58400 45.34800
H  45.89100 38.01900 44.71700
H  44.63900 38.92700 45.48900
H  42.04600 40.41600 42.52100
H  43.13200 39.20200 42.00400
H  43.74300 42.02200 41.02800
H  42.37400 41.26600 40.34800
H  51.79900 39.64900 43.37800
H  50.98100 39.08300 41.93500
H  50.23300 38.92400 43.48900
H  52.99400 43.97600 41.20400
H  54.24500 43.20400 42.36700
H  52.88100 43.95800 42.96900
H  50.11700 47.31700 41.24400
H  48.98000 48.55400 43.68700
H  52.13400 47.63900 42.38900
H  51.65100 46.82700 43.66300
H  51.31600 48.60700 43.57900
H  47.11500 49.24600 41.45100
H  48.60900 48.94400 40.70400
H  48.99000 51.29600 41.51100
H  48.93500 50.76600 43.15200
H  47.51300 51.14900 42.42000
H  42.09400 48.20200 43.63800
H  43.31700 48.54600 42.40600
H  43.62900 49.00700 44.04000
H  41.57100 42.88300 42.97700
H  41.89400 41.57600 47.44000
H  41.36900 43.32400 47.69400
H  43.00000 42.71100 47.99900
Mg 0.42000 43.29600 25.08700
C  2.85900 42.74200 27.69500
C  -1.92300 42.35000 27.32600
C  -1.53700 42.97700 22.43200
C  3.19500 43.85800 22.85800
N  0.45600 42.70300 27.29200
C  1.53800 42.47100 28.08000
C  1.00800 42.15600 29.46600
C  -0.49000 41.90800 29.33700
C  -0.66600 42.37300 27.87700
C  -0.95400 40.38300 29.62100
C  1.24900 43.38400 30.34200
C  0.92800 43.30200 31.82900
H  0.32000 41.92900 32.39600
N  -1.52500 42.75900 24.93000
C  -2.38700 42.43400 25.96300
C  -3.67800 42.03800 25.42900
C  -3.58800 42.23900 24.00500
C  -2.15500 42.66300 23.70100
C  -4.84400 41.58900 26.18000
C  -4.63700 42.02900 22.95100
O  -4.35700 42.16900 21.76800
C  -5.99900 41.55800 23.31900
N  0.76900 43.30100 23.01600
C  -0.24900 43.41300 22.12200
C  0.17700 43.82800 20.73200
C  1.64800 44.14000 20.91900
C  1.91000 43.68300 22.34300
C  -0.22700 42.87400 19.61500
C  2.10000 45.54800 20.54800
C  2.19300 46.65000 21.62100
N  2.57900 43.39600 25.20300
C  3.52000 43.66300 24.21300
C  4.83300 43.66000 24.81900
C  4.65900 43.31300 26.17000
C  3.24700 43.11400 26.36400
C  6.12300 43.84000 24.06100
C  5.36100 43.06400 27.43100
O  6.58000 43.07700 27.72100
C  4.15600 42.78200 28.47500
C  4.44800 41.63400 29.41100
O  4.53200 40.44900 29.12000
O  4.48600 42.16100 30.67700
C  4.64400 41.23900 31.72000
H  -2.70600 42.16600 28.06500
H  -2.20100 42.89500 21.56900
H  4.06200 44.25800 22.32800
H  1.46700 41.25300 29.86700
H  -1.03000 42.68500 29.87700
H  -0.22600 39.87700 30.25400
H  -1.08300 39.89200 28.65600
H  -1.80400 40.37300 30.30400
H  0.82100 44.33000 30.00900
H  2.31000 43.63500 30.35300
H  0.21400 44.07000 32.12800
H  1.83500 43.59300 32.36100
H  -5.25900 40.68600 25.73200
H  -5.55700 42.40400 26.30300
H  -4.52700 41.34200 27.19300
H  -6.48400 42.23100 24.02600
H  -5.90000 40.52100 23.63900
H  -6.61600 41.53000 22.42100
H  -0.38700 44.74700 20.57200
H  2.19800 43.36900 20.38100
H  -0.31100 41.84900 19.97500
H  0.57900 42.92800 18.88200
H  -1.15100 43.17700 19.12200
H  1.42100 45.95100 19.79600
H  3.08100 45.32900 20.12700
H  1.37200 46.42000 22.30000
H  2.22300 47.70100 21.33300
H  3.09300 46.56800 22.23000
H  6.92900 43.27300 24.52500
H  6.36000 44.89300 24.21700
H  5.96600 43.57600 23.01500
H  4.17800 43.64100 29.14600
H  4.04600 41.60700 32.55400
H  5.69100 41.19500 32.02000
H  4.28700 40.23300 31.49600

