158

Mg -2.73800 17.68800 26.99700
C  -3.23200 15.50700 29.58700
C  -3.35500 20.25200 29.20700
C  -2.25700 19.85100 24.51700
C  -2.39700 15.00600 24.78800
N  -3.08400 17.86800 29.15900
C  -3.25700 16.78600 30.01000
C  -3.63900 17.30300 31.44500
C  -4.05100 18.77000 31.23800
C  -3.48700 18.98800 29.79000
C  -5.57600 19.06800 31.39600
C  -2.67300 16.92700 32.52800
C  -2.35700 17.79000 33.69500
H  -1.89600 17.19700 34.94000
N  -2.69300 19.77600 26.94500
C  -2.97600 20.70000 27.91700
C  -2.57600 22.05000 27.43000
C  -2.19200 21.91000 26.07400
C  -2.37600 20.46100 25.76900
C  -2.58100 23.26700 28.36000
C  -1.64300 22.95000 25.15300
O  -1.39600 22.77000 23.96000
C  -1.48200 24.29200 25.65100
N  -2.61200 17.46700 24.86800
C  -2.23900 18.53000 24.13400
C  -1.97300 18.17000 22.66400
C  -1.89000 16.62100 22.83600
C  -2.37800 16.32800 24.22600
C  -3.11900 18.64100 21.66000
C  -0.44800 16.06800 22.64000
C  0.54200 16.27400 23.80000
N  -2.98700 15.68700 27.03100
C  -2.79400 14.70900 26.09500
C  -3.01600 13.42800 26.69300
C  -3.18700 13.70600 28.00500
C  -3.11200 15.06700 28.19800
C  -3.11100 12.08700 26.03100
C  -3.46100 13.03400 29.25500
O  -3.66500 11.87600 29.50900
C  -3.46800 14.18000 30.35900
C  -2.35300 13.85800 31.31500
O  -1.23900 14.30200 31.15300
O  -2.88400 13.16100 32.39200
C  -2.00900 13.09700 33.55100
H  -3.51000 21.09000 29.89000
H  -2.02900 20.55200 23.71100
H  -2.35700 14.11400 24.16000
H  -4.45100 16.63200 31.72400
H  -3.45700 19.41900 31.88100
H  -5.79000 19.39400 32.41400
H  -6.03500 18.09100 31.24700
H  -5.96600 19.70600 30.60400
H  -1.66500 16.80900 32.12900
H  -3.10800 16.07200 33.04400
H  -3.25800 18.38800 33.83300
H  -1.59200 18.53100 33.46700
H  -3.21300 24.09800 28.04600
H  -1.57900 23.68700 28.26400
H  -2.91900 23.00100 29.36100
H  -0.68800 24.18400 26.39000
H  -2.42900 24.64400 26.06000
H  -1.03000 24.92800 24.89000
H  -0.99100 18.62200 22.52100
H  -2.45700 16.16000 22.02800
H  -2.80900 19.49200 21.05400
H  -3.97100 19.05500 22.20000
H  -3.54000 17.83000 21.06600
H  0.01300 16.72100 21.89900
H  -0.44400 15.05500 22.23800
H  0.07800 16.29200 24.78600
H  0.87100 17.29200 23.59300
H  1.30300 15.51100 23.63400
H  -2.40700 12.04400 25.19900
H  -4.06800 11.91700 25.53900
H  -3.06300 11.24500 26.72100
H  -4.35000 14.16200 30.99900
H  -1.03200 12.68500 33.29700
H  -2.49000 12.38500 34.22200
H  -1.73100 14.08500 33.91800
Mg 35.57200 48.59500 25.36800
C  35.99900 46.69700 28.29600
C  34.37400 51.13700 27.32700
C  34.61100 50.14400 22.53300
C  36.30400 45.69300 23.52700
N  35.06100 48.80500 27.58400
C  35.33000 47.88100 28.62500
C  35.01900 48.49700 29.93500
C  34.30000 49.86900 29.59000
C  34.64200 49.98200 28.08200
C  32.74300 49.93500 29.81900
C  36.26700 48.74600 30.94300
C  36.09200 48.73900 32.43000
H  34.67000 48.58500 32.99900
N  34.63600 50.41300 25.03200
C  34.29100 51.34400 25.91300
C  33.93300 52.58200 25.26100
C  33.87500 52.26200 23.91600
C  34.39700 50.88700 23.75000
C  33.77200 53.91200 25.92500
C  33.41800 53.19400 22.74600
O  33.28600 52.80300 21.57200
C  33.10100 54.64400 22.96000
N  35.29100 47.93400 23.37500
C  35.00000 48.83000 22.39300
C  35.13400 48.17700 21.03900
C  35.72500 46.77200 21.33300
C  35.75800 46.77300 22.85300
C  33.80900 48.09700 20.24100
C  37.19000 46.51500 20.68300
C  38.36300 47.09300 21.48300
N  36.08900 46.63600 25.76200
C  36.55100 45.70500 24.91500
C  37.07800 44.58400 25.71800
C  36.81400 44.91800 27.04900
C  36.22100 46.21000 26.96800
C  37.77800 43.35700 25.21800
C  36.91600 44.46600 28.36400
O  37.33800 43.38500 28.78200
C  36.45400 45.64700 29.25600
C  35.38100 45.13900 30.13500
O  34.20000 44.96500 29.76800
O  35.96100 44.86200 31.32200
C  34.93900 44.63100 32.30400
H  34.02000 51.90800 28.01400
H  34.51500 50.71300 21.60600
H  36.54600 44.77900 22.98000
H  34.24000 47.91000 30.42100
H  34.72800 50.71800 30.12400
H  32.31800 50.03400 28.82000
H  32.37500 50.83600 30.31000
H  32.27200 49.07300 30.29100
H  36.73900 49.71000 30.75500
H  36.99500 47.95000 30.79000
H  36.40800 49.73300 32.74600
H  36.66200 48.00300 32.99700
H  32.92400 54.52100 25.61200
H  34.60200 54.56600 25.66000
H  33.65000 53.78100 27.00000
H  33.88600 55.13300 23.53700
H  32.11600 54.62200 23.42700
H  33.08400 55.00000 21.93000
H  35.81900 48.70300 20.37400
H  34.96500 46.05300 21.02700
H  33.00700 48.61600 20.76600
H  33.59900 47.06400 19.96500
H  34.02600 48.68500 19.34900
H  37.31000 47.02500 19.72700
H  37.51900 45.48700 20.53000
H  37.99500 47.44400 22.44700
H  38.74300 48.02100 21.05500
H  39.07900 46.28200 21.61700
H  38.40100 43.12100 26.08000
H  38.29500 43.51700 24.27100
H  36.96900 42.63000 25.14700
H  37.29200 45.95100 29.88300
H  34.60100 43.61400 32.10300
H  34.05600 45.27000 32.26800
H  35.49800 44.67000 33.23900

