158

Mg 46.58100 45.10000 44.43600
C  43.17800 44.68300 43.28100
C  47.22600 41.91500 43.09000
C  49.84100 45.81000 44.40200
C  45.75500 48.35900 44.98300
N  45.30000 43.54900 43.36400
C  43.97100 43.56500 43.05800
C  43.59600 42.36500 42.18800
C  44.75700 41.33900 42.49400
C  45.89600 42.33500 43.00500
C  44.44600 40.22700 43.62200
C  43.47100 42.87700 40.73700
C  42.25800 42.27500 39.90000
H  42.56200 41.56900 38.63900
N  48.32100 43.90200 44.11600
C  48.39500 42.60700 43.54200
C  49.75000 42.11800 43.69400
C  50.55900 43.28000 44.05500
C  49.61800 44.39800 44.18300
C  50.16300 40.63400 43.35100
C  52.07800 43.31900 44.22700
O  52.65800 42.27700 43.99000
C  52.82300 44.52100 44.66000
N  47.60200 46.79100 44.64800
C  48.96500 46.89200 44.67300
C  49.51300 48.31200 45.03200
C  48.18200 49.06600 45.25200
C  47.07400 48.02900 44.92700
C  50.50000 48.44700 46.26000
C  47.98300 50.36200 44.38600
C  47.81700 51.68800 45.13300
N  44.79900 46.31600 44.27300
C  44.56900 47.61500 44.67200
C  43.20500 48.00100 44.49100
C  42.60900 46.90800 43.89900
C  43.58700 45.92100 43.83000
C  42.70300 49.45200 44.63300
C  41.37200 46.32600 43.36300
O  40.28600 46.86000 43.20000
C  41.67200 44.82800 43.14500
C  40.99200 43.99800 44.15300
O  40.50500 42.93500 43.93500
O  41.27600 44.52100 45.36000
C  40.94700 43.64500 46.47900
H  47.27500 40.89800 42.69600
H  50.92000 45.96900 44.34200
H  45.39300 49.32700 45.33400
H  42.64500 41.91400 42.47400
H  45.05600 40.91000 41.53700
H  44.22500 39.37200 42.98300
H  43.55800 40.42300 44.22200
H  45.29000 40.09900 44.29900
H  44.35500 42.67100 40.13500
H  43.28400 43.94200 40.59700
H  41.72100 43.18000 39.61400
H  41.65600 41.54500 40.44100
H  50.86900 40.16700 44.03900
H  50.54000 40.59000 42.32900
H  49.34400 39.92500 43.46800
H  52.95600 45.16800 43.79300
H  53.75400 44.09500 45.03500
H  52.31400 44.98300 45.50500
H  50.02000 48.58600 44.10600
H  48.06400 49.37800 46.29000
H  51.02400 47.49300 46.31200
H  49.96700 48.50400 47.20900
H  51.25800 49.22200 46.14200
H  47.13400 50.24700 43.71300
H  48.78400 50.37800 43.64700
H  48.62200 52.37100 44.86500
H  47.86000 51.51200 46.20800
H  46.87100 52.17900 44.90400
H  43.07000 50.06500 45.45600
H  41.61600 49.41200 44.70900
H  42.99900 49.84000 43.65900
H  41.25200 44.57700 42.17100
H  41.48500 43.99200 47.36100
H  41.36600 42.63900 46.44200
H  39.87800 43.55400 46.67400
Mg 25.86600 50.93200 26.85300
C  23.43800 51.72100 29.36900
C  28.09900 50.12300 29.33800
C  27.97900 50.49100 24.47100
C  23.58800 52.16300 24.46500
N  25.76700 51.07000 29.13200
C  24.63700 51.24800 29.89600
C  24.95000 51.02900 31.33900
C  26.52500 50.69100 31.35400
C  26.83100 50.51000 29.83000
C  27.39400 51.80400 31.96400
C  24.00900 49.97800 31.94400
C  23.65800 49.95100 33.46700
H  24.16300 51.02900 34.41900
N  27.80400 50.35500 26.89700
C  28.58200 50.08500 28.01100
C  29.88700 49.70400 27.51300
C  29.83900 49.78700 26.12200
C  28.52000 50.29000 25.78500
C  31.05500 49.37400 28.35600
C  31.03600 49.59600 25.05800
O  30.91000 49.70700 23.84300
C  32.36200 49.19000 25.50600
N  25.82600 51.40100 24.75900
C  26.83000 51.01800 23.99100
C  26.62000 51.24900 22.44900
C  25.16800 51.77900 22.44200
C  24.84500 51.86700 23.97100
C  27.71000 52.14600 21.78900
C  24.17800 50.86200 21.62400
C  23.91700 49.43100 22.18700
N  23.93400 51.73900 26.88300
C  23.15100 52.17000 25.81300
C  21.82600 52.45300 26.26300
C  21.93200 52.46200 27.66600
C  23.20200 51.87200 27.99100
C  20.56900 52.96000 25.46400
C  21.17500 52.74700 28.91800
O  20.06900 53.26700 29.13700
C  22.20400 52.31500 30.04000
C  22.56000 53.52700 30.79500
O  22.92500 54.59600 30.36300
O  22.56800 53.19200 32.10700
C  23.15700 54.21300 33.03200
H  28.70200 49.82400 30.19700
H  28.63400 50.09100 23.69400
H  22.83400 52.50100 23.75200
H  24.71900 52.00100 31.77500
H  26.73900 49.72100 31.80200
H  26.71700 52.65100 32.07400
H  28.14500 52.20100 31.28100
H  27.87800 51.51300 32.89700
H  24.54100 49.02800 31.88200
H  23.17900 49.85300 31.24900
H  23.90400 48.96000 33.84800
H  22.57400 50.06400 33.47500
H  31.70500 50.24700 28.42600
H  31.58100 48.54500 27.88200
H  30.66500 49.07300 29.32800
H  32.44500 48.26000 26.06900
H  32.64800 49.99400 26.18400
H  33.01600 49.02500 24.65000
H  26.75300 50.31700 21.90000
H  25.15900 52.78300 22.01800
H  27.27600 53.14400 21.73000
H  27.91200 51.80800 20.77300
H  28.57600 52.40400 22.40000
H  24.51000 50.90600 20.58700
H  23.23300 51.39400 21.73600
H  24.05500 48.64600 21.44300
H  22.91200 49.28200 22.58200
H  24.68600 49.09000 22.88100
H  19.70900 52.82600 26.12000
H  20.34300 52.43300 24.53700
H  20.81400 53.98700 25.19300
H  21.75800 51.54700 30.67200
H  22.60300 55.12600 32.81100
H  24.22100 54.28500 32.80600
H  22.97000 53.98800 34.08200

