158

Mg 48.60700 16.19300 29.22800
C  46.37700 15.63400 31.94800
C  50.58100 17.93500 31.22800
C  50.35900 16.83800 26.50000
C  46.09900 14.57000 27.17300
N  48.44500 16.70900 31.37400
C  47.55300 16.32900 32.32400
C  47.95200 16.76900 33.73100
C  49.04900 17.77200 33.31500
C  49.39100 17.49400 31.89800
C  48.54100 19.25800 33.48800
C  48.50300 15.52600 34.58900
C  48.23700 15.72700 36.10200
H  48.28100 17.12800 36.72700
N  50.28700 17.10400 28.94500
C  50.98100 17.77100 29.88000
C  52.26500 18.19600 29.28600
C  52.27800 17.80700 27.91000
C  50.90400 17.26600 27.74000
C  53.44100 18.75900 30.05500
C  53.30600 17.93500 26.87800
O  53.18900 17.65400 25.68900
C  54.66000 18.47800 27.21400
N  48.38100 15.61500 27.12000
C  49.16200 16.16300 26.21600
C  48.72300 15.81400 24.75300
C  47.38600 14.98700 25.02600
C  47.23500 15.07000 26.54200
C  48.64700 17.03200 23.76700
C  47.29000 13.66200 24.31000
C  47.69900 12.39200 25.12300
N  46.58500 15.41100 29.40400
C  45.77200 14.76700 28.53300
C  44.55700 14.39800 29.20900
C  44.71200 14.72600 30.58500
C  46.04200 15.28400 30.67700
C  43.47000 13.53700 28.54100
C  44.16100 14.59300 31.91700
O  43.04500 14.22300 32.28100
C  45.23100 15.22100 32.87200
C  44.57900 16.50500 33.46200
O  44.04100 17.36300 32.82500
O  44.54500 16.42100 34.81600
C  43.68200 17.39200 35.40200
H  51.25200 18.37900 31.96600
H  50.85000 17.10000 25.56000
H  45.40500 14.01500 26.53800
H  47.03800 17.15500 34.18200
H  50.01500 17.67800 33.81300
H  47.54500 19.31500 33.92600
H  48.48000 19.79300 32.54000
H  49.17500 19.76200 34.21700
H  49.55400 15.28300 34.43600
H  47.85500 14.68000 34.36000
H  48.95100 15.17200 36.71000
H  47.29600 15.20400 36.27200
H  53.95200 19.59600 29.57900
H  54.02000 17.83700 30.09400
H  53.21300 19.22900 31.01200
H  54.48300 19.53000 27.44000
H  55.22200 18.50800 26.28100
H  55.15400 17.86400 27.96800
H  49.33500 15.03300 24.30300
H  46.53600 15.47100 24.54600
H  48.00500 16.96300 22.88900
H  49.65800 17.20800 23.40000
H  48.52400 17.95100 24.33900
H  47.93600 13.66200 23.43200
H  46.27200 13.60400 23.92600
H  48.17500 11.58800 24.56200
H  46.89000 11.90100 25.66400
H  48.42100 12.69600 25.88000
H  42.72700 14.20000 28.09700
H  42.85000 12.96000 29.22800
H  43.88500 12.90800 27.75400
H  45.46900 14.53600 33.68700
H  44.13700 18.37200 35.26200
H  43.50600 17.15700 36.45200
H  42.72400 17.40200 34.88300
Mg 35.89700 48.36300 26.21900
C  36.08500 46.51300 29.21700
C  34.33600 50.89500 28.03100
C  35.12300 49.80600 23.30300
C  36.69300 45.50300 24.50700
N  35.30500 48.66100 28.37300
C  35.52400 47.81900 29.40200
C  35.28900 48.45200 30.78500
C  34.49200 49.78200 30.35000
C  34.77500 49.86500 28.83500
C  32.92800 49.88500 30.76400
C  36.62700 48.84600 31.56700
C  36.91500 48.21300 32.90800
H  36.86300 49.23900 34.13800
N  34.91300 50.09500 25.75300
C  34.43500 51.04700 26.63800
C  33.98500 52.16700 25.92200
C  34.09900 51.90500 24.53900
C  34.76000 50.51900 24.45800
C  33.35700 53.40900 26.68500
C  33.67700 52.72500 23.31700
O  33.91100 52.44100 22.17200
C  32.91600 53.99100 23.57900
N  36.01800 47.79500 24.19900
C  35.70900 48.56000 23.13900
C  35.98900 47.93800 21.77400
C  36.56800 46.55600 22.22100
C  36.42400 46.65100 23.72300
C  34.74200 47.85600 20.96900
C  38.11800 46.37100 21.90600
C  38.47000 45.55300 20.71800
N  36.55000 46.41300 26.67000
C  36.79400 45.34300 25.86200
C  37.14200 44.19900 26.72200
C  36.91900 44.70000 28.04200
C  36.46600 45.98300 27.95900
C  37.36100 42.80900 26.20800
C  36.88700 44.23600 29.43200
O  37.16100 43.18300 29.90800
C  36.46500 45.48200 30.25900
C  35.42500 45.16300 31.21600
O  34.21300 45.16400 30.97600
O  35.99800 44.99800 32.49700
C  35.11900 44.95600 33.65300
H  33.90100 51.66600 28.67000
H  34.97100 50.35600 22.37200
H  36.92000 44.68800 23.81700
H  34.63400 47.81400 31.37900
H  34.97500 50.69800 30.69100
H  32.92200 50.57900 31.60500
H  32.62600 48.89200 31.09700
H  32.28100 50.19800 29.94500
H  36.66300 49.92600 31.70900
H  37.43600 48.66200 30.86000
H  37.94400 47.85500 32.86500
H  36.26000 47.35600 33.06700
H  33.47200 54.30700 26.07800
H  33.91800 53.52300 27.61200
H  32.28400 53.34000 26.87000
H  32.03800 53.89500 24.21800
H  32.56200 54.31800 22.60200
H  33.49700 54.77400 24.06700
H  36.72200 48.57600 21.28000
H  35.94900 45.74300 21.84100
H  34.40100 46.83800 20.77900
H  35.08500 48.30700 20.03800
H  33.92800 48.38100 21.46800
H  38.64500 46.00600 22.78800
H  38.55700 47.36000 21.77500
H  38.15200 44.51700 20.83200
H  39.54800 45.44000 20.60300
H  37.91000 45.82200 19.82200
H  36.84400 42.14600 26.90200
H  38.43000 42.59600 26.17700
H  37.01900 42.55700 25.20500
H  37.40100 45.70500 30.77100
H  34.10100 45.15600 33.32000
H  35.40000 45.75800 34.33500
H  35.24500 43.95200 34.05800

