158

Mg 5.18400 57.09700 41.92600
C  5.24900 53.61200 41.46900
C  8.13200 57.33600 40.27000
C  4.65200 60.50000 41.75200
C  1.90200 56.67000 43.24100
N  6.38400 55.64600 40.89200
C  6.21500 54.27600 40.77600
C  7.36500 53.70500 39.90900
C  8.44500 54.75600 40.06600
C  7.63100 56.01100 40.42700
C  9.52200 54.42900 41.10600
C  6.84200 53.41700 38.46000
C  7.35800 52.08500 37.82600
H  6.50100 51.57200 36.68800
N  6.27300 58.76400 41.08700
C  7.50500 58.59200 40.52500
C  7.91200 59.89000 40.09000
C  6.87700 60.83600 40.41900
C  5.90400 60.06200 41.16200
C  9.30300 60.13500 39.49900
C  6.90200 62.34600 40.10600
O  7.96500 62.88100 39.72700
C  5.76600 63.27000 40.37500
N  3.49700 58.34500 42.39200
C  3.69600 59.72900 42.43900
C  2.42400 60.44900 42.98500
C  1.63500 59.23400 43.49900
C  2.40300 57.95700 43.04300
C  2.75700 61.52000 44.01300
C  0.08600 59.14600 43.16100
C  -1.03200 58.62300 44.10900
N  3.88500 55.52500 42.43000
C  2.57600 55.46800 42.94500
C  2.15300 54.09600 43.08300
C  3.21600 53.40000 42.56400
C  4.21900 54.26800 42.08600
C  1.00900 53.62600 43.82200
C  3.69600 52.06700 42.41500
O  3.30900 51.00700 42.72400
C  5.03300 52.16100 41.71300
C  5.01100 51.33300 40.47600
O  4.15400 51.34500 39.55800
O  5.97000 50.30400 40.58500
C  5.91400 49.25700 39.57800
H  9.09400 57.36100 39.75300
H  4.45900 61.57400 41.71300
H  1.03100 56.50800 43.88000
H  7.68400 52.73500 40.29000
H  9.01300 55.16600 39.23100
H  10.49200 54.54600 40.62300
H  9.42300 53.36700 41.33300
H  9.28000 55.06400 41.95800
H  7.39500 54.19200 37.93100
H  5.76500 53.57600 38.40100
H  7.37100 51.33000 38.61100
H  8.37700 52.16400 37.44600
H  9.06500 60.79800 38.66700
H  9.82100 59.24200 39.15100
H  9.93500 60.67500 40.20400
H  4.87700 62.80300 39.95100
H  6.04600 64.18200 39.84600
H  5.61000 63.42000 41.44300
H  1.78500 60.88600 42.21800
H  1.65700 59.09300 44.58000
H  3.84000 61.62500 43.95200
H  2.47000 61.22200 45.02200
H  2.16100 62.40500 43.78800
H  -0.05900 58.88000 42.11400
H  -0.19100 60.18200 42.97000
H  -1.66400 59.40800 44.52600
H  -0.45200 58.00200 44.79100
H  -1.69900 57.91200 43.62200
H  1.21200 53.58200 44.89200
H  0.53200 52.71400 43.46100
H  0.17800 54.32300 43.71800
H  5.84600 51.81100 42.34900
H  6.96000 48.98400 39.43300
H  5.40600 49.49500 38.64400
H  5.45400 48.39200 40.05600
Mg -5.50400 25.41800 27.36400
C  -3.50900 27.23500 29.62900
C  -6.12300 23.14000 30.00100
C  -6.73500 23.17300 25.16800
C  -4.32500 27.50700 24.89700
N  -4.77100 25.18200 29.53700
C  -4.11300 26.15800 30.22400
C  -4.24000 26.03400 31.74700
C  -4.96700 24.60500 31.91800
C  -5.33200 24.24800 30.41500
C  -3.91600 23.50200 32.48500
C  -5.16800 27.19500 32.35600
C  -4.69800 27.95800 33.61300
H  -5.67200 28.09400 34.83500
N  -6.35900 23.45300 27.56000
C  -6.44300 22.65800 28.72600
C  -7.04800 21.38400 28.28500
C  -7.24100 21.37800 26.93600
C  -6.77700 22.67300 26.47000
C  -7.30800 20.29200 29.31000
C  -7.75300 20.24600 25.95400
O  -7.94500 20.50800 24.77100
C  -8.17800 18.89500 26.49300
N  -5.63800 25.40200 25.37600
C  -6.19900 24.42100 24.68700
C  -6.08200 24.62200 23.17500
C  -5.68000 26.16000 23.13100
C  -5.23500 26.44900 24.58500
C  -5.06400 23.78600 22.41100
C  -6.88000 27.06100 22.77500
C  -6.83400 27.60100 21.35200
N  -4.10700 27.00900 27.14200
C  -3.81000 27.72000 26.11200
C  -2.84200 28.72600 26.50700
C  -2.74300 28.65300 27.89600
C  -3.57000 27.55500 28.24700
C  -2.09200 29.73300 25.65600
C  -2.07100 29.15600 29.06900
O  -1.26800 30.09100 29.22000
C  -2.58200 28.28400 30.28200
C  -1.41700 27.61200 30.98800
O  -0.59800 26.87000 30.40200
O  -1.43400 27.97200 32.34000
C  -0.23600 27.70800 33.10500
H  -6.46400 22.48200 30.80300
H  -7.07200 22.54200 24.34300
H  -4.11300 28.09700 24.00300
H  -3.26300 26.11800 32.22300
H  -5.75900 24.53800 32.66300
H  -3.73300 22.74700 31.72100
H  -4.24200 22.98500 33.38700
H  -2.98800 24.05900 32.61500
H  -6.22900 26.98500 32.49100
H  -5.15000 28.01800 31.64100
H  -4.40900 29.00200 33.49100
H  -3.76500 27.52700 33.97700
H  -8.27900 19.79600 29.29500
H  -7.04100 20.63200 30.31000
H  -6.54900 19.51300 29.24300
H  -7.60500 18.42700 27.29300
H  -8.18400 18.03000 25.82900
H  -9.24000 19.08500 26.65300
H  -6.98800 24.47800 22.58700
H  -4.84600 26.35400 22.45500
H  -4.26100 24.41400 22.02400
H  -5.56300 23.36400 21.53900
H  -4.64200 23.03900 23.08300
H  -6.82900 27.93000 23.43100
H  -7.89600 26.67500 22.86100
H  -5.87600 27.22500 20.99400
H  -6.87000 28.66800 21.12900
H  -7.54200 27.13800 20.66500
H  -1.88800 30.60900 26.27100
H  -2.65600 30.02200 24.77000
H  -1.14700 29.29600 25.33200
H  -3.19100 28.78400 31.03600
H  0.66600 28.20300 32.74400
H  0.04100 26.67100 33.29700
H  -0.52300 28.16100 34.05400

