158

Mg 35.24400 1.90300 29.27800
C  33.04800 2.98500 31.88900
C  37.78000 1.85300 31.72700
C  37.40500 0.96800 26.89400
C  32.68500 2.31100 27.07200
N  35.39600 2.27400 31.49100
C  34.31100 2.68800 32.33800
C  34.80200 2.70600 33.80800
C  36.35200 2.69700 33.69500
C  36.55600 2.22200 32.25200
C  37.00600 4.17000 33.85700
C  34.20600 1.66000 34.81200
C  33.81800 2.15300 36.24600
H  34.60800 3.29400 36.83400
N  37.32200 1.45000 29.38200
C  38.17200 1.55400 30.41300
C  39.47900 1.06900 29.98900
C  39.36900 0.70400 28.59900
C  38.00800 1.08800 28.20700
C  40.67900 1.15100 30.83600
C  40.44800 0.26000 27.66800
O  40.18400 -0.03500 26.50000
C  41.88300 0.00600 28.11900
N  35.16400 1.80700 27.20700
C  36.18100 1.34700 26.44700
C  35.72200 1.24000 24.97700
C  34.14200 1.36800 25.08500
C  33.97800 1.90600 26.54300
C  36.41600 2.27700 24.01500
C  33.34900 0.10100 24.91100
C  32.02000 0.23400 24.26700
N  33.31400 2.57000 29.41600
C  32.40800 2.67600 28.41500
C  31.17400 3.12100 28.93000
C  31.31100 3.21500 30.30300
C  32.62100 2.84600 30.54300
C  29.84300 3.20800 28.18000
C  30.62900 3.55300 31.60000
O  29.48800 3.78700 31.93900
C  31.80800 3.41400 32.68000
C  31.92200 4.68200 33.39000
O  32.68600 5.65200 33.17300
O  31.05000 4.63000 34.48300
C  31.33400 5.55100 35.59300
H  38.55400 1.94800 32.49000
H  38.03400 0.58800 26.08600
H  31.90100 2.33600 26.31300
H  34.56300 3.72000 34.13000
H  36.77700 2.08200 34.48800
H  36.29100 4.77900 34.41100
H  37.21900 4.71300 32.93600
H  37.89800 4.09500 34.47900
H  34.96000 0.88200 34.92800
H  33.30100 1.12100 34.53100
H  34.12200 1.32300 36.88300
H  32.77300 2.33300 36.50000
H  41.21800 0.20800 30.74500
H  40.45100 1.48900 31.84700
H  41.36200 1.92400 30.48300
H  42.21000 0.81000 28.77900
H  42.52700 -0.06900 27.24200
H  41.84600 -0.88400 28.74700
H  36.02900 0.22300 24.73300
H  33.90700 2.11400 24.32600
H  36.88500 1.89400 23.10900
H  37.27700 2.60100 24.59900
H  35.75200 3.11800 23.81700
H  33.25500 -0.34000 25.90400
H  33.88900 -0.55400 24.22800
H  31.95100 -0.34700 23.34700
H  31.80900 1.29600 24.14200
H  31.18500 -0.18300 24.83000
H  29.40400 2.21400 28.09000
H  30.01600 3.52000 27.15000
H  29.14400 3.88300 28.67300
H  31.56900 2.51700 33.25100
H  30.92700 5.16300 36.52700
H  30.67400 6.41600 35.52500
H  32.28900 6.06400 35.70500
Mg 47.36000 25.36200 28.54800
C  47.80700 27.41400 31.31500
C  46.07200 22.90500 30.52900
C  47.27300 23.28100 25.87900
C  48.37100 27.93800 26.42600
N  46.73700 25.29100 30.72400
C  47.20600 26.19300 31.66900
C  46.83400 25.69800 33.00900
C  46.34700 24.20400 32.82900
C  46.49200 24.06000 31.29300
C  47.09000 23.10900 33.60200
C  45.75400 26.56800 33.68500
C  46.18500 27.20700 34.98500
H  45.17300 27.39300 36.11200
N  46.69800 23.39900 28.25400
C  46.15500 22.56700 29.21700
C  45.78100 21.28400 28.60300
C  46.16800 21.35600 27.20900
C  46.69700 22.72300 27.06900
C  45.19600 20.22400 29.39400
C  46.07900 20.25900 26.22700
O  46.53700 20.34500 25.07100
C  45.55500 18.89900 26.69900
N  47.68400 25.61100 26.40200
C  47.59900 24.66700 25.50400
C  48.22400 25.01400 24.10900
C  48.30600 26.56100 24.26200
C  48.11200 26.76600 25.80200
C  49.58500 24.33400 23.64900
C  47.34500 27.42600 23.49300
C  47.87200 28.01900 22.18100
N  47.97200 27.30400 28.79200
C  48.34200 28.20100 27.84100
C  48.77100 29.44400 28.47600
C  48.65200 29.20400 29.83400
C  48.09700 27.87100 30.00100
C  49.31600 30.70000 27.84000
C  48.86500 29.65200 31.16300
O  49.34500 30.76500 31.54100
C  48.42600 28.49000 32.13100
C  49.64100 28.00000 32.78600
O  50.75600 27.94300 32.34100
O  49.38800 27.72000 34.06500
C  50.51900 27.23800 34.88600
H  45.67800 22.16000 31.22300
H  47.20000 22.69000 24.96400
H  48.72500 28.68000 25.70800
H  47.83100 25.69600 33.45000
H  45.28600 24.08000 33.04900
H  47.71500 23.69700 34.27300
H  47.73700 22.59100 32.89400
H  46.52300 22.31800 34.09400
H  44.74600 26.17700 33.82800
H  45.53200 27.36700 32.97800
H  46.38500 28.24800 34.73300
H  47.09900 26.78200 35.39900
H  44.27700 19.91500 28.89400
H  44.82000 20.46000 30.38900
H  45.93900 19.43300 29.49600
H  46.11400 18.65300 27.60200
H  45.56300 18.17600 25.88300
H  44.49900 18.95900 26.95900
H  47.42100 24.70100 23.44100
H  49.32700 26.89200 24.07100
H  49.87200 23.60700 24.40900
H  50.30600 25.11900 23.42400
H  49.43400 23.60100 22.85600
H  46.98100 28.27900 24.06600
H  46.50000 26.76900 23.28400
H  48.88500 27.71200 21.91900
H  47.89300 29.08300 22.41600
H  47.19500 27.78700 21.35900
H  50.40200 30.60500 27.79900
H  49.07300 31.55700 28.46800
H  49.06900 30.83800 26.78800
H  47.66900 28.89500 32.80200
H  50.17900 27.27600 35.92100
H  51.34400 27.92400 34.69400
H  50.75800 26.23300 34.53700

