158

Mg 16.55900 -3.15100 27.65000
C  16.01500 -0.84300 30.31200
C  18.34800 -5.08400 29.79800
C  17.79700 -4.97000 24.93400
C  15.05900 -0.87900 25.47500
N  17.27900 -2.85700 29.79100
C  16.77100 -1.95200 30.71300
C  17.40700 -2.20100 32.09800
C  18.25600 -3.51900 31.88700
C  17.88100 -3.89000 30.40400
C  19.80200 -3.38800 32.12600
C  16.34900 -2.39000 33.16600
C  16.79100 -2.16200 34.55700
H  18.12500 -1.49800 34.96100
N  17.71000 -4.96800 27.43600
C  18.36300 -5.57100 28.44900
C  19.00400 -6.78800 27.90500
C  18.93300 -6.73800 26.48700
C  18.09100 -5.55200 26.24900
C  19.70200 -7.84800 28.74000
C  19.43100 -7.71900 25.36500
O  19.18300 -7.52600 24.21700
C  20.29600 -8.99300 25.65500
N  16.60300 -2.84000 25.52500
C  17.18400 -3.74000 24.64900
C  16.86300 -3.35300 23.17400
C  15.88700 -2.03200 23.39200
C  15.80800 -1.90300 24.92900
C  18.16000 -3.06500 22.36100
C  14.49900 -2.11700 22.64100
C  14.08000 -0.94200 21.72500
N  15.61700 -1.28500 27.81200
C  15.01900 -0.50600 26.84300
C  14.52800 0.65400 27.47700
C  14.88600 0.58800 28.82900
C  15.54800 -0.65200 28.99200
C  13.77400 1.64900 26.85300
C  14.74800 1.30700 30.10400
O  14.36000 2.40600 30.44300
C  15.47200 0.35400 31.14300
C  16.52300 1.08200 31.92900
O  17.68300 1.26300 31.58200
O  15.92100 1.44600 33.09900
C  16.78300 2.29400 33.99200
H  18.90600 -5.62500 30.56400
H  18.16500 -5.41700 24.00800
H  14.58900 -0.12400 24.84100
H  18.10500 -1.41900 32.39800
H  17.80700 -4.27400 32.53200
H  20.42100 -3.21900 31.24500
H  20.19200 -4.33900 32.48800
H  20.00700 -2.67600 32.92600
H  15.92200 -3.38900 33.08800
H  15.55800 -1.65900 33.00000
H  16.62800 -3.06300 35.14900
H  16.06700 -1.44200 34.93900
H  19.67500 -7.44500 29.75300
H  20.72000 -8.02100 28.39200
H  19.24000 -8.83300 28.67600
H  19.93200 -9.60600 26.48000
H  21.29800 -8.60000 25.82600
H  20.51500 -9.54900 24.74300
H  16.13200 -4.00300 22.69300
H  16.52000 -1.19300 23.10200
H  19.02200 -3.52900 22.84100
H  18.36500 -2.03300 22.07500
H  18.08500 -3.56000 21.39300
H  13.69900 -2.30100 23.35800
H  14.54800 -2.96300 21.95500
H  13.82700 -1.38700 20.76300
H  14.83800 -0.17500 21.56600
H  13.12900 -0.54600 22.08100
H  12.83400 1.17500 26.57000
H  14.31000 2.15200 26.04800
H  13.52100 2.41000 27.59200
H  14.79400 -0.00600 31.91700
H  16.19500 3.09100 34.44700
H  17.59100 2.80800 33.47100
H  17.20300 1.70000 34.80400
Mg 0.27400 42.95500 26.36700
C  2.50600 42.60200 28.97600
C  -2.24600 41.73900 28.56800
C  -1.76100 42.34800 23.73700
C  2.98900 43.30100 24.16400
N  0.10300 42.29600 28.61900
C  1.17500 42.33800 29.48900
C  0.63800 42.27900 30.92400
C  -0.80200 41.75200 30.77100
C  -0.98700 41.83700 29.22500
C  -1.17800 40.34400 31.27500
C  0.68800 43.59900 31.66600
C  1.23700 43.57600 33.15100
H  0.91500 42.32300 34.08800
N  -1.68600 42.22900 26.14100
C  -2.58100 41.84000 27.13600
C  -3.89400 41.53300 26.56700
C  -3.71800 41.68400 25.17500
C  -2.39300 42.09000 24.93400
C  -5.16400 41.18200 27.43000
C  -4.80700 41.45200 24.13100
O  -4.65800 41.63000 22.92800
C  -6.17100 40.94900 24.51200
N  0.58800 42.63000 24.29200
C  -0.41900 42.54800 23.42900
C  0.09200 42.74500 21.97900
C  1.52200 43.25600 22.14500
C  1.73900 43.03000 23.63600
C  -0.07600 41.42300 21.13800
C  1.79700 44.79800 21.83200
C  1.38000 45.88300 22.78000
N  2.38200 43.03000 26.46500
C  3.34300 43.20800 25.50500
C  4.63300 43.36400 26.15800
C  4.32700 43.10000 27.48800
C  2.99000 42.87200 27.58000
C  5.97700 43.61300 25.58500
C  4.97100 42.92800 28.77800
O  6.18900 43.08100 29.04500
C  3.78400 42.72000 29.83600
C  4.07400 41.48900 30.54100
O  4.39000 40.38900 30.06600
O  3.98900 41.73900 31.94500
C  4.07700 40.50300 32.79200
H  -3.06000 41.44200 29.23300
H  -2.33800 42.28400 22.81200
H  3.74000 43.71300 23.48600
H  1.28100 41.51000 31.35200
H  -1.58300 42.43500 31.10400
H  -1.92700 39.94800 30.58900
H  -1.69600 40.50700 32.22000
H  -0.42600 39.56100 31.37300
H  -0.27700 44.10600 31.65100
H  1.41000 44.20000 31.11400
H  0.76200 44.44600 33.60400
H  2.32700 43.59500 33.15600
H  -5.44800 40.13600 27.31300
H  -5.97300 41.79900 27.03800
H  -5.10300 41.45200 28.48400
H  -6.66600 41.73200 25.08600
H  -6.03600 40.09900 25.18100
H  -6.71500 40.66800 23.61100
H  -0.53300 43.51800 21.53200
H  2.27900 42.59700 21.72000
H  -0.83400 40.81000 21.62600
H  0.88600 40.91200 21.12000
H  -0.39700 41.67400 20.12700
H  1.09400 45.06300 21.04300
H  2.84800 45.01000 21.63500
H  2.31200 46.09100 23.30500
H  0.62100 45.52800 23.47700
H  1.01200 46.77400 22.27000
H  6.01600 43.91400 24.53800
H  6.61900 42.73900 25.69300
H  6.48600 44.39000 26.15400
H  3.78300 43.51500 30.58200
H  3.44300 39.63300 32.62100
H  3.94600 40.91200 33.79400
H  5.07300 40.06600 32.71400

