158

Mg 41.70400 41.64800 26.98300
C  41.21700 43.96200 29.42900
C  43.17200 39.44500 29.45400
C  42.24900 39.31100 24.64100
C  41.03600 44.01900 24.51000
N  42.07100 41.67600 29.13400
C  41.69800 42.74200 29.94600
C  41.88500 42.39600 31.42700
C  42.78100 41.10800 31.39300
C  42.60500 40.66800 29.94200
C  44.32800 41.24100 31.78300
C  40.49900 42.30300 32.18000
C  40.32100 43.12800 33.45500
H  39.76800 42.36600 34.64900
N  42.59300 39.68400 26.98900
C  43.10900 38.95600 28.09400
C  43.57500 37.60600 27.62800
C  43.16900 37.49700 26.21200
C  42.61100 38.90100 25.89200
C  44.10000 36.47500 28.51800
C  43.28700 36.31900 25.26700
O  43.03000 36.44400 24.10600
C  43.89400 35.05000 25.66000
N  42.05100 41.79800 24.83500
C  42.07700 40.65200 24.09600
C  41.66500 40.93700 22.58700
C  41.42100 42.43900 22.54500
C  41.51400 42.81700 24.03600
C  42.82300 40.43900 21.61300
C  40.18700 42.87200 21.77200
C  40.21600 44.08400 20.88700
N  41.20700 43.67200 26.86900
C  40.77600 44.43900 25.86600
C  40.35200 45.70000 26.43100
C  40.45000 45.51900 27.81400
C  41.05700 44.30300 28.03800
C  39.87500 46.83100 25.59500
C  40.22900 46.16500 29.08800
O  39.64000 47.22900 29.36400
C  40.69100 45.16800 30.18200
C  41.72400 45.80000 31.01300
O  42.74400 46.23000 30.52600
O  41.37000 45.86200 32.33900
C  42.21800 46.70500 33.23500
H  43.61200 38.79300 30.21100
H  42.21100 38.51600 23.89400
H  40.82800 44.76600 23.74200
H  42.42800 43.17000 31.96900
H  42.26100 40.38500 32.02300
H  44.50800 42.24300 32.17100
H  44.93600 41.10100 30.88900
H  44.62400 40.62400 32.63200
H  40.27900 41.27300 32.46200
H  39.74500 42.62900 31.46300
H  39.65300 43.97100 33.27800
H  41.26100 43.59600 33.74700
H  45.11400 36.22000 28.20900
H  43.44400 35.61100 28.41300
H  44.16700 36.78500 29.56100
H  43.19900 34.54400 26.33000
H  44.79200 35.27700 26.23500
H  44.22400 34.37600 24.86900
H  40.72200 40.45500 22.33200
H  42.35500 42.89700 22.22100
H  43.61100 41.14500 21.35200
H  42.35000 40.22300 20.65500
H  43.18000 39.48100 21.99300
H  39.41800 42.96900 22.53800
H  39.73800 42.13000 21.11100
H  39.97200 43.85500 19.84900
H  41.24700 44.43400 20.84800
H  39.38500 44.72000 21.19200
H  40.27300 46.83000 24.58000
H  40.06600 47.76100 26.13000
H  38.79300 46.71200 25.53700
H  39.84600 44.97600 30.84300
H  43.20500 46.93400 32.83400
H  42.23500 46.16400 34.18100
H  41.70000 47.65800 33.35200
Mg 26.72700 50.31600 26.42400
C  24.85200 51.69100 29.06800
C  29.19800 49.41500 28.79000
C  28.53300 49.01800 23.96700
C  24.43000 51.69300 24.29500
N  26.99400 50.57000 28.64600
C  26.04700 51.04500 29.51400
C  26.54700 50.90300 31.02500
C  27.97600 50.29500 30.86400
C  28.07700 50.07900 29.33100
C  29.14600 50.97900 31.54100
C  25.51900 50.19100 31.78800
C  25.62100 50.09700 33.28600
H  26.47100 51.06700 34.12600
N  28.63100 49.42700 26.37400
C  29.39700 49.13100 27.41000
C  30.57500 48.34600 26.99600
C  30.44400 48.16900 25.56300
C  29.15900 48.81400 25.25400
C  31.83900 48.01600 27.87000
C  31.31900 47.54300 24.53100
O  31.10700 47.57800 23.35900
C  32.53600 46.85900 24.92700
N  26.55200 50.39200 24.44200
C  27.36000 49.68100 23.59100
C  26.77700 49.76200 22.13700
C  25.32100 50.32100 22.28600
C  25.42700 50.86500 23.74600
C  27.73400 50.61000 21.24100
C  24.22300 49.31200 22.21200
C  22.90200 49.75200 21.78900
N  24.92100 51.46700 26.56500
C  24.15200 52.01400 25.62200
C  23.10600 52.82200 26.15800
C  23.35000 52.77300 27.56300
C  24.46400 51.88300 27.73100
C  22.21500 53.68600 25.37000
C  22.83200 53.18500 28.83700
O  21.87800 53.93100 29.04500
C  23.80100 52.48900 29.90000
C  24.42600 53.55600 30.72500
O  25.51900 54.05100 30.49700
O  23.63400 53.78600 31.82800
C  24.30100 54.52100 32.92000
H  29.88800 49.10000 29.57600
H  29.03700 48.47900 23.16300
H  23.64700 51.98300 23.59000
H  26.59200 51.92500 31.40200
H  27.90400 49.28900 31.27700
H  28.76400 51.84500 32.08300
H  29.79500 51.26200 30.71200
H  29.55700 50.16700 32.14100
H  25.45400 49.22600 31.28600
H  24.66500 50.85300 31.64500
H  26.08200 49.18400 33.66400
H  24.61200 50.15900 33.69500
H  31.92200 46.97500 28.18100
H  31.91400 48.65900 28.74700
H  32.66700 48.33800 27.23900
H  32.48700 46.30300 25.86400
H  33.27800 47.64700 24.80800
H  32.60200 46.15600 24.09700
H  26.72900 48.73800 21.76800
H  25.22200 51.17100 21.61100
H  28.07300 50.09900 20.34000
H  28.70000 50.80800 21.70500
H  27.22400 51.53000 20.95600
H  24.00300 48.85200 23.17500
H  24.55300 48.46500 21.61200
H  22.69900 50.81500 21.66000
H  22.25800 49.43800 22.61000
H  22.54300 49.42200 20.81400
H  22.65400 54.09100 24.45900
H  21.88900 54.43200 26.09500
H  21.35000 53.06600 25.13600
H  23.18100 51.96200 30.62600
H  23.56500 55.05900 33.51700
H  25.11600 55.20300 32.68000
H  24.64200 53.68400 33.52900

