158

Mg 9.28400 48.34700 26.11900
C  7.18200 48.82600 28.86500
C  11.99500 49.18600 28.26400
C  11.50000 48.11300 23.55800
C  6.57300 48.07400 24.02200
N  9.58100 48.90200 28.26400
C  8.55000 48.84500 29.16800
C  9.14100 48.88000 30.63800
C  10.58000 49.37500 30.37800
C  10.73900 49.19400 28.85100
C  10.86500 50.81700 30.85400
C  9.12600 47.50100 31.38200
C  9.70200 47.52200 32.79700
H  8.80500 46.98800 33.99100
N  11.45500 48.76600 25.86800
C  12.34200 48.99800 26.89900
C  13.71300 48.75000 26.33200
C  13.56500 48.42800 24.97700
C  12.12800 48.51700 24.69700
C  14.93500 48.82300 27.21200
C  14.61900 48.00000 24.01300
O  14.46600 47.90400 22.76600
C  16.04100 47.66600 24.49900
N  9.02200 48.18300 24.10400
C  10.09900 47.84000 23.28600
C  9.63000 47.44500 21.81300
C  8.05000 47.61300 21.94700
C  7.85600 47.88900 23.48100
C  10.31200 48.06700 20.56100
C  7.24400 46.39700 21.43700
C  5.91900 46.46800 20.65500
N  7.28100 48.49000 26.36300
C  6.30300 48.28600 25.38600
C  4.95000 48.48300 26.04400
C  5.29400 48.65500 27.36700
C  6.66700 48.67000 27.51900
C  3.55300 48.35900 25.43000
C  4.72600 48.80900 28.70200
O  3.51900 48.84900 28.98500
C  5.88900 49.04200 29.67800
C  5.77600 48.05300 30.79300
O  5.74200 46.89300 30.69500
O  5.59300 48.75600 31.97700
C  5.40900 48.04100 33.24200
H  12.79200 49.25100 29.00900
H  12.13000 47.61100 22.82100
H  5.81600 48.02800 23.23600
H  8.50400 49.55400 31.21000
H  11.37800 48.79500 30.84100
H  11.51000 50.79100 31.73200
H  9.94500 51.31600 31.16000
H  11.35200 51.40400 30.07500
H  9.56400 46.70000 30.78500
H  8.13500 47.04700 31.38500
H  10.10400 48.52500 32.94300
H  10.50600 46.78700 32.76600
H  15.58000 47.95500 27.07700
H  14.78900 48.98100 28.28100
H  15.59100 49.63900 26.90800
H  16.42000 48.59900 24.91600
H  16.66200 47.42200 23.63700
H  15.99600 46.79900 25.15700
H  9.81100 46.37100 21.77100
H  7.71500 48.40900 21.28200
H  9.66700 48.88400 20.23700
H  10.48100 47.34100 19.76600
H  11.31100 48.47600 20.70900
H  6.89500 45.77500 22.26100
H  7.90900 45.79600 20.81600
H  5.14300 45.96900 21.23500
H  6.10100 46.20200 19.61300
H  5.67100 47.52900 20.67700
H  3.30800 47.31300 25.24700
H  3.37300 48.97400 24.54800
H  2.72700 48.53600 26.11900
H  6.07000 50.06500 30.00800
H  4.34900 48.05200 33.49700
H  5.95900 48.49600 34.06600
H  5.66900 46.98500 33.17400
Mg -1.98400 35.82800 27.09600
C  -4.05000 34.03300 29.29600
C  -1.38700 38.09000 29.68200
C  0.05800 37.60300 25.18100
C  -3.33600 34.13100 24.39300
N  -2.63200 36.01900 29.24700
C  -3.36800 35.11100 29.91700
C  -3.37700 35.40000 31.43300
C  -2.70100 36.83000 31.45800
C  -2.20300 37.01600 30.05100
C  -3.63200 37.96800 32.01200
C  -2.81100 34.27400 32.32700
C  -2.10700 34.69400 33.69300
H  -2.43900 33.77800 34.94200
N  -0.82200 37.62000 27.43200
C  -0.63500 38.31400 28.56500
C  0.33500 39.39400 28.37300
C  0.75700 39.25200 27.01500
C  -0.01600 38.14400 26.45300
C  0.80100 40.37600 29.43700
C  1.72000 40.12100 26.20000
O  1.93800 39.91000 25.04900
C  2.68800 41.14000 26.86500
N  -1.80800 35.93800 24.97500
C  -0.76800 36.65300 24.45100
C  -0.63200 36.34600 22.97600
C  -1.49200 35.03600 22.78300
C  -2.30200 35.01800 24.10200
C  -1.03800 37.67600 22.11000
C  -0.70500 33.75200 22.71100
C  -1.39700 32.69300 21.73200
N  -3.45700 34.40300 26.86200
C  -3.91500 33.83700 25.70500
C  -4.91400 32.85400 26.04600
C  -4.98300 32.93700 27.41300
C  -4.07500 33.83200 27.84500
C  -5.53700 31.74800 25.24400
C  -5.58400 32.25900 28.66100
O  -6.27700 31.23200 28.82300
C  -5.05800 33.08800 29.89000
C  -6.22700 33.77200 30.43400
O  -7.03700 34.52500 29.84000
O  -6.40800 33.52600 31.77400
C  -7.51300 34.09300 32.62300
H  -1.29500 38.80600 30.50100
H  0.94100 37.90800 24.61600
H  -3.84000 33.66600 23.54200
H  -4.39700 35.57000 31.77700
H  -1.81200 36.80100 32.08800
H  -3.00100 38.85700 32.02200
H  -3.98500 37.79300 33.02800
H  -4.53000 38.02800 31.39700
H  -2.17500 33.63800 31.71200
H  -3.68300 33.65800 32.54500
H  -2.44800 35.71400 33.87100
H  -1.04400 34.62400 33.46400
H  1.69600 39.98000 29.91800
H  -0.04300 40.60200 30.08900
H  0.93600 41.32600 28.92000
H  3.50200 41.48900 26.22800
H  3.18000 40.78600 27.77100
H  2.18600 42.07400 27.11500
H  0.40600 36.11400 22.73700
H  -2.10900 35.20400 21.90000
H  -1.77000 37.52500 21.31600
H  -0.06700 38.02900 21.76300
H  -1.46600 38.45600 22.73900
H  -0.45700 33.35100 23.69400
H  0.29500 33.97000 22.33600
H  -0.80400 32.46000 20.84800
H  -2.25300 33.15600 21.24000
H  -1.59200 31.72500 22.19400
H  -4.75200 31.41500 24.56500
H  -6.35600 32.17600 24.66600
H  -5.82200 30.96100 25.94200
H  -4.57800 32.44800 30.63100
H  -8.47000 33.67900 32.30700
H  -7.55700 35.18200 32.63800
H  -7.34200 33.90400 33.68200

