158

Mg 48.03600 14.98000 28.58100
C  45.60500 14.83300 31.03400
C  50.03900 16.97600 30.42600
C  50.18300 15.30800 25.85700
C  45.92100 12.89500 26.57800
N  47.87200 15.86300 30.44300
C  46.79800 15.61900 31.39400
C  47.17100 16.20600 32.78800
C  48.51300 17.01900 32.49200
C  48.83400 16.67600 31.01900
C  48.27900 18.56100 32.56800
C  47.41000 15.13000 33.89400
C  46.73600 15.37100 35.25200
H  47.56000 15.67700 36.52000
N  49.91200 15.91600 28.14300
C  50.58500 16.66300 29.11400
C  51.84900 17.06000 28.55000
C  51.84500 16.70400 27.18000
C  50.60100 15.93900 27.05500
C  52.87500 17.78700 29.36200
C  52.95400 16.81500 26.15000
O  52.94500 16.33600 25.04300
C  54.22500 17.65900 26.43500
N  47.91100 14.36800 26.43700
C  48.99400 14.50600 25.59600
C  48.70500 13.78300 24.23800
C  47.30900 13.15400 24.48600
C  47.03000 13.43300 25.98100
C  48.61100 14.74100 23.00600
C  47.21100 11.64200 24.09600
C  48.05200 10.64800 24.97400
N  46.22400 13.97800 28.71500
C  45.40500 13.28100 27.79000
C  44.12000 13.00000 28.44300
C  44.21100 13.59200 29.69800
C  45.44300 14.22100 29.79000
C  42.99200 12.12300 27.93000
C  43.48400 13.80800 30.92700
O  42.36100 13.46000 31.18800
C  44.38700 14.66900 31.80400
C  43.75500 15.94900 32.08700
O  43.36900 16.76000 31.32300
O  43.87400 16.21700 33.40400
C  43.40300 17.53000 33.91200
H  50.62900 17.68700 31.00800
H  50.92900 15.46800 25.07600
H  45.27500 12.20700 26.02900
H  46.35400 16.87700 33.05400
H  49.34800 16.69400 33.11300
H  47.23500 18.87400 32.56000
H  48.82000 19.14300 31.82200
H  48.69200 18.76400 33.55600
H  48.48800 14.99800 33.98000
H  47.12300 14.13600 33.55100
H  46.14800 14.49300 35.52000
H  45.98300 16.15800 35.20300
H  52.46700 18.22900 30.27100
H  53.24900 18.65900 28.82600
H  53.73100 17.19300 29.68400
H  54.84800 17.29200 27.25100
H  53.92000 18.69100 26.60900
H  54.80400 17.67900 25.51200
H  49.45400 13.08700 23.85800
H  46.49300 13.63900 23.95000
H  49.42500 14.55300 22.30600
H  48.71100 15.81100 23.18800
H  47.68300 14.59500 22.45200
H  47.48600 11.61900 23.04200
H  46.15800 11.36400 24.08700
H  48.48100 11.16800 25.83100
H  48.81200 10.23700 24.31000
H  47.45100 9.86500 25.43800
H  43.36900 11.47300 27.14000
H  42.18100 12.71700 27.50800
H  42.73200 11.43900 28.73800
H  44.63300 14.05500 32.67000
H  43.15000 17.25000 34.93500
H  42.52400 17.86600 33.36200
H  44.19300 18.27700 33.99500
Mg 6.93000 53.52900 41.52600
C  6.33900 50.17000 41.00000
C  9.94800 53.20600 40.07900
C  7.04300 56.84600 41.20600
C  3.74900 53.82300 42.91900
N  7.90100 51.88000 40.54100
C  7.58900 50.61500 40.52900
C  8.71600 49.70600 40.12300
C  9.95300 50.67700 40.33500
C  9.28200 51.98900 40.29400
C  10.83300 50.20000 41.57800
C  8.60700 49.10500 38.63800
C  8.39400 50.16400 37.56700
H  6.97200 50.43600 37.06000
N  8.36200 54.93900 40.84600
C  9.53500 54.57100 40.19900
C  10.23500 55.77600 39.80400
C  9.33700 56.97200 40.01100
C  8.16600 56.27100 40.66400
C  11.62900 55.78700 39.11200
C  9.56300 58.39700 39.53600
O  10.44700 58.69100 38.72100
C  8.62800 59.41500 40.00200
N  5.49000 55.14900 41.80700
C  5.87600 56.41300 41.71200
C  4.78900 57.36300 42.03700
C  3.74800 56.44900 42.67400
C  4.27100 55.03600 42.39500
C  5.17100 58.65500 42.85400
C  2.29200 56.50200 42.02900
C  1.13600 56.32100 43.01400
N  5.31900 52.22200 41.97500
C  4.08500 52.46300 42.52000
C  3.40000 51.21500 42.71500
C  4.16500 50.30800 41.97300
C  5.33100 50.95000 41.63400
C  1.98700 50.98100 43.34800
C  4.25200 48.91300 41.57600
O  3.51000 47.94100 41.66800
C  5.71800 48.77600 40.90600
C  5.45200 48.26400 39.51600
O  4.93100 48.94100 38.60700
O  5.78900 46.89200 39.47200
C  5.78400 46.26200 38.12900
H  10.91300 53.19200 39.57000
H  6.96000 57.91700 41.00900
H  2.81700 53.88700 43.48300
H  8.70900 48.84200 40.78800
H  10.62100 50.56500 39.48000
H  10.52600 49.29400 42.10000
H  10.68200 50.91400 42.38700
H  11.88700 50.25500 41.30700
H  7.82000 48.35800 38.73600
H  9.48300 48.52100 38.35400
H  9.00300 49.95200 36.68800
H  8.86900 51.09400 37.87900
H  12.20200 54.99200 39.58900
H  12.16000 56.70700 39.35800
H  11.45800 55.61500 38.05000
H  7.61600 59.39400 39.59800
H  9.16000 60.35700 39.87000
H  8.64800 59.44300 41.09100
H  4.42900 57.70500 41.06700
H  3.82600 56.47400 43.76100
H  4.60800 58.74500 43.78400
H  4.84300 59.50400 42.25300
H  6.24300 58.71100 43.04400
H  2.30200 55.73700 41.25300
H  2.18900 57.40800 41.43300
H  0.29600 55.69600 42.71000
H  0.72100 57.31500 43.18100
H  1.49900 55.95600 43.97500
H  1.25200 51.78500 43.37900
H  2.22000 50.87800 44.40800
H  1.59400 50.04900 42.94300
H  6.29900 48.06800 41.49600
H  6.71000 45.82700 37.75300
H  5.34300 46.87600 37.34400
H  5.05300 45.45600 38.20200

