158

Mg 16.78700 -1.48800 27.83800
C  15.79700 0.65600 30.55700
C  18.47600 -3.44200 30.34800
C  18.06800 -3.26000 25.44100
C  14.99800 0.51800 25.77300
N  17.28100 -1.24800 30.13500
C  16.68900 -0.34600 30.98200
C  17.16300 -0.66000 32.46200
C  18.04600 -1.95400 32.34300
C  17.96200 -2.22300 30.78600
C  19.52200 -1.76700 32.89100
C  15.95300 -0.87900 33.47300
C  16.04500 -0.05600 34.78400
H  17.34100 0.44100 35.38700
N  18.06900 -3.10000 27.86400
C  18.58700 -3.83000 28.97500
C  19.15400 -5.09100 28.45700
C  19.05300 -5.03700 27.01500
C  18.43200 -3.73100 26.72300
C  19.81100 -6.14800 29.29200
C  19.72500 -6.00700 25.92600
O  19.48700 -5.83900 24.74700
C  20.53700 -7.20200 26.45700
N  16.78200 -1.19900 25.88300
C  17.40700 -2.11300 25.03400
C  17.11300 -1.69500 23.49800
C  16.03500 -0.56000 23.63700
C  15.90700 -0.41000 25.17100
C  18.39800 -1.38100 22.68300
C  14.69600 -0.84000 22.80100
C  14.42800 0.16400 21.66900
N  15.45700 0.16600 28.10700
C  14.66300 0.78500 27.14400
C  13.95700 1.94800 27.77100
C  14.33800 1.86800 29.12800
C  15.26500 0.82700 29.26000
C  13.00700 2.87000 27.07500
C  14.17900 2.48600 30.34300
O  13.48900 3.47500 30.55500
C  15.03100 1.66800 31.38000
C  15.80600 2.62300 32.25500
O  16.93900 3.00900 32.09800
O  14.90400 3.03500 33.25300
C  15.47200 4.00200 34.26700
H  19.04500 -4.11100 30.99600
H  18.36900 -3.79700 24.53900
H  14.40000 1.13600 25.10100
H  17.71400 0.20300 32.83600
H  17.81900 -2.89600 32.84200
H  20.17300 -1.58400 32.03600
H  19.84600 -2.69200 33.36700
H  19.64700 -0.94200 33.59200
H  15.95100 -1.94100 33.72000
H  15.04400 -0.60300 32.93800
H  15.53800 -0.81700 35.37700
H  15.35200 0.77200 34.63500
H  20.88100 -6.19200 29.08800
H  19.34900 -7.06200 28.91800
H  19.60800 -6.03100 30.35600
H  21.30800 -6.85300 27.14400
H  20.87700 -7.84300 25.64300
H  19.82000 -7.81000 27.00900
H  16.64200 -2.59700 23.10500
H  16.49200 0.33800 23.22100
H  18.33300 -0.31200 22.47900
H  18.29000 -1.91600 21.74000
H  19.31100 -1.64800 23.21500
H  13.85900 -0.52800 23.42500
H  14.64800 -1.90200 22.56200
H  14.46200 -0.43700 20.76000
H  15.19300 0.94000 21.64600
H  13.36800 0.40900 21.73500
H  12.92900 2.74800 25.99400
H  13.34900 3.87100 27.33500
H  11.98300 2.65000 27.37700
H  14.37900 1.20400 32.12000
H  16.54300 3.88000 34.42600
H  14.91400 3.95000 35.20200
H  15.39000 4.96400 33.76100
Mg -12.75600 16.97500 41.58100
C  -9.92100 15.08900 40.86500
C  -11.44600 19.63600 39.71600
C  -15.86700 18.35200 41.47600
C  -14.34800 13.92500 42.77000
N  -10.88200 17.32800 40.39100
C  -9.90400 16.36400 40.24800
C  -8.68800 17.02000 39.54200
C  -9.05400 18.48200 39.41300
C  -10.52300 18.52800 39.89100
C  -8.12300 19.43600 40.13700
C  -8.38800 16.29000 38.25000
C  -6.90100 15.83600 38.16600
H  -6.18300 16.52600 37.07900
N  -13.45900 18.69200 40.84800
C  -12.72500 19.72400 40.16700
C  -13.70100 20.79600 39.85700
C  -14.90400 20.52400 40.50000
C  -14.76800 19.11800 40.93300
C  -13.30500 22.02100 39.11700
C  -16.06700 21.51000 40.66700
O  -16.12600 22.56300 40.01600
C  -17.14300 21.30900 41.66000
N  -14.84100 16.17900 41.93300
C  -15.90600 17.02600 41.98100
C  -17.20600 16.36900 42.45300
C  -16.67300 14.94200 42.95100
C  -15.22400 14.97600 42.55100
C  -18.04000 17.10300 43.53800
C  -17.36900 13.69200 42.43700
C  -18.23400 12.83400 43.38600
N  -12.25300 15.00400 41.98300
C  -12.98000 13.92700 42.42800
C  -12.04900 12.79400 42.47400
C  -10.84000 13.19500 41.81800
C  -11.03500 14.55200 41.51900
C  -12.35200 11.42900 43.13500
C  -9.54800 12.69000 41.47100
O  -8.95900 11.61600 41.57900
C  -8.92100 13.90600 40.80400
C  -7.65900 14.11500 41.57400
O  -7.52900 14.64100 42.65600
O  -6.65400 13.69000 40.81100
C  -5.34900 13.94700 41.50700
H  -10.96200 20.39600 39.09900
H  -16.86600 18.79000 41.52500
H  -14.82400 13.03200 43.18200
H  -7.96800 16.94700 40.35700
H  -9.11600 18.76900 38.36300
H  -7.07600 19.35600 39.84300
H  -8.30700 19.30100 41.20300
H  -8.41700 20.44200 39.83900
H  -8.56600 16.87800 37.35000
H  -9.09500 15.47100 38.12300
H  -6.93700 14.75900 38.00500
H  -6.37800 16.07900 39.09200
H  -14.10600 22.26000 38.41800
H  -12.50200 21.96500 38.38200
H  -13.10300 22.80200 39.85000
H  -17.62300 22.20100 42.06300
H  -16.81100 20.86200 42.59700
H  -17.87300 20.77200 41.05500
H  -17.82500 16.17200 41.57700
H  -16.75000 14.88800 44.03700
H  -17.96500 16.65700 44.53000
H  -19.12100 17.13000 43.40300
H  -17.56000 18.08100 43.58300
H  -16.68200 13.00500 41.94200
H  -18.01100 13.96300 41.59800
H  -19.27500 12.70200 43.09100
H  -18.29900 13.20800 44.40800
H  -17.71100 11.88400 43.48800
H  -11.37300 11.00200 43.35300
H  -12.96700 10.87200 42.42900
H  -12.90400 11.43600 44.07500
H  -8.61600 13.62200 39.79700
H  -5.12600 13.24000 42.30600
H  -5.36800 14.89400 42.04700
H  -4.55200 13.92300 40.76300

