158

Mg 29.79300 57.87800 40.99400
C  27.20200 56.03000 39.44600
C  32.04300 55.78900 39.78800
C  32.34900 60.23100 41.69500
C  27.52000 60.33000 41.63200
N  29.59700 56.09900 39.88000
C  28.52000 55.40700 39.42100
C  28.89900 54.18600 38.59800
C  30.41000 53.95400 38.98700
C  30.74100 55.39500 39.56800
C  30.70300 52.76100 39.91300
C  28.78800 54.43200 37.08100
C  27.84700 53.55900 36.27300
H  26.78200 54.25600 35.33400
N  31.82700 57.99300 40.87900
C  32.58500 56.93300 40.38600
C  34.03200 57.19500 40.45100
C  34.17000 58.47900 41.13300
C  32.76200 58.95200 41.31900
C  35.14400 56.21400 39.97200
C  35.47700 59.11000 41.56600
O  36.53700 58.66100 41.12100
C  35.48700 60.37100 42.38800
N  29.95700 60.08900 41.61500
C  31.07100 60.81000 41.79300
C  30.78100 62.25900 42.02000
C  29.22500 62.18100 42.33400
C  28.87600 60.77400 41.81000
C  31.62500 62.99400 43.09700
C  28.48600 63.34300 41.75900
C  27.57000 64.12800 42.70200
N  27.72700 58.10100 40.78100
C  26.92700 59.17300 41.05700
C  25.55600 58.94900 40.70100
C  25.62200 57.69100 40.07500
C  26.95600 57.27000 40.04600
C  24.46800 59.85500 40.89100
C  24.79300 56.69800 39.46300
O  23.62300 56.70900 39.25900
C  25.75200 55.53200 39.12300
C  25.29800 54.37300 39.92300
O  25.60600 54.08300 41.03900
O  24.41500 53.66000 39.12000
C  23.94500 52.44100 39.70200
H  32.71000 54.98100 39.48200
H  33.16900 60.87600 42.01900
H  26.71300 61.05700 41.74300
H  28.38600 53.24400 38.79100
H  31.09600 53.71500 38.17400
H  31.08100 53.20800 40.83200
H  31.44500 52.11500 39.44200
H  29.81200 52.15100 40.06500
H  29.71400 54.55800 36.52000
H  28.45400 55.46400 36.97200
H  27.38100 52.80900 36.91200
H  28.54000 53.06900 35.58900
H  35.03000 56.16500 38.88900
H  34.87000 55.24000 40.37700
H  36.16700 56.34700 40.32300
H  35.10500 61.29400 41.95300
H  36.53600 60.42300 42.68200
H  34.94900 60.38700 43.33600
H  31.02000 62.56800 41.00200
H  29.22200 62.11700 43.42200
H  31.96600 63.98400 42.79500
H  32.48600 62.38100 43.36200
H  31.06400 63.06500 44.02900
H  27.87300 62.98300 40.93300
H  29.21300 64.06500 41.38800
H  26.59000 63.85500 42.30900
H  27.88000 65.16700 42.59900
H  27.60400 63.93300 43.77400
H  24.84300 60.86100 40.70500
H  24.19700 59.62100 41.92000
H  23.67000 59.73400 40.15900
H  25.64300 55.33900 38.05600
H  23.44500 52.65200 40.64800
H  24.72900 51.71300 39.91400
H  23.25300 51.99400 38.98900
Mg -1.91200 35.38900 26.33600
C  -3.85600 33.99700 28.94300
C  -0.97900 37.88200 28.56200
C  0.10100 36.63800 23.95600
C  -3.25300 33.12700 24.10200
N  -2.30300 35.72100 28.62700
C  -3.19600 35.08500 29.48200
C  -3.24200 35.76600 30.90700
C  -2.49500 37.06300 30.55900
C  -1.86700 36.90900 29.15900
C  -3.59600 38.20300 30.62400
C  -2.55600 34.83000 31.98000
C  -3.34600 34.60100 33.32200
H  -2.53500 34.25300 34.52300
N  -0.58500 36.99900 26.28300
C  -0.39200 37.95900 27.29200
C  0.59200 38.85200 26.90000
C  0.92100 38.53400 25.54200
C  0.17500 37.31600 25.16400
C  0.97100 40.05100 27.82200
C  1.83300 39.19000 24.53100
O  1.95100 39.02200 23.35200
C  2.60000 40.28700 25.03300
N  -1.80700 35.12500 24.26600
C  -0.80700 35.65900 23.50700
C  -0.87400 35.21600 22.09100
C  -1.66000 33.86600 22.28800
C  -2.35300 34.01800 23.63600
C  -1.62100 36.19200 21.12700
C  -0.70300 32.62900 22.30800
C  -1.33700 31.43900 21.57800
N  -3.22400 33.78200 26.45200
C  -3.76900 33.00400 25.44800
C  -4.54200 31.98400 26.08100
C  -4.72000 32.36000 27.46000
C  -3.83700 33.47900 27.63700
C  -5.35900 30.92900 25.31500
C  -5.29900 31.91300 28.70400
O  -6.06900 30.98600 29.04300
C  -4.78500 33.05000 29.71100
C  -5.86100 33.80100 30.48900
O  -6.40100 34.87200 30.18600
O  -5.93500 33.21900 31.77600
C  -6.99800 33.65700 32.71100
H  -0.56000 38.58900 29.28200
H  0.65000 36.95200 23.06600
H  -3.58600 32.28600 23.49100
H  -4.26100 35.96000 31.24400
H  -1.77700 37.22800 31.36200
H  -4.63600 37.92300 30.79400
H  -3.51400 38.83800 29.74200
H  -3.20400 38.89700 31.36800
H  -1.54900 35.17000 32.21900
H  -2.44100 33.81900 31.58900
H  -4.02300 33.76000 33.17000
H  -3.73400 35.60700 33.48200
H  0.92100 40.99000 27.27100
H  2.02100 39.93100 28.08800
H  0.30900 40.27000 28.66100
H  2.82300 40.09000 26.08100
H  1.92000 41.13200 24.91800
H  3.53600 40.39500 24.48500
H  0.16100 35.07000 21.78200
H  -2.42100 33.74500 21.51800
H  -1.43300 35.78500 20.13400
H  -1.16200 37.17100 21.26600
H  -2.68600 36.17100 21.35800
H  -0.72700 32.34900 23.36100
H  0.32000 32.74200 21.94600
H  -0.63200 30.89100 20.95300
H  -2.23000 31.63000 20.98400
H  -1.63000 30.69900 22.32200
H  -4.76000 30.30900 24.64700
H  -6.10100 31.41400 24.68100
H  -5.84500 30.25400 26.01900
H  -4.21800 32.61500 30.53400
H  -7.32200 32.78800 33.28300
H  -7.91400 34.04100 32.26300
H  -6.57300 34.47100 33.29800

