158

Mg 2.40000 -1.76600 45.61300
C  5.71400 -0.86800 44.93700
C  1.37400 0.84900 43.70300
C  -0.70400 -2.91500 45.98700
C  3.72200 -4.56700 47.20500
N  3.42000 -0.33700 44.13800
C  4.75300 -0.05900 44.22500
C  5.05500 1.24000 43.40800
C  3.65000 1.86100 43.33900
C  2.75500 0.71300 43.69600
C  3.47300 3.10600 44.17600
C  5.67400 0.82100 42.08100
C  6.58100 1.88000 41.50400
H  6.00800 2.60800 40.15200
N  0.59200 -1.10000 44.95700
C  0.41400 0.02900 44.27000
C  -1.01200 0.26900 44.12400
C  -1.71600 -0.90000 44.66600
C  -0.60200 -1.68700 45.28600
C  -1.65000 1.37900 43.41500
C  -3.18200 -1.26100 44.63800
O  -3.91900 -0.39300 44.20200
C  -3.83200 -2.41700 45.25900
N  1.67000 -3.61100 46.27700
C  0.34400 -3.80400 46.37300
C  0.11400 -5.14400 47.09400
C  1.43700 -5.41100 47.84000
C  2.36400 -4.50800 47.04300
C  -1.21000 -5.38200 47.98200
C  1.81300 -6.90900 47.83400
C  2.35600 -7.52900 49.07800
N  4.36300 -2.58800 45.96200
C  4.66900 -3.74200 46.64600
C  6.10300 -3.91300 46.62900
C  6.58500 -2.67800 46.08100
C  5.44800 -1.99600 45.62700
C  6.86500 -5.05300 47.28800
C  7.78400 -1.89000 45.83900
O  8.97600 -2.08700 46.05400
C  7.22100 -0.66400 45.01300
C  7.60800 0.63000 45.65100
O  7.38100 0.92300 46.78600
O  8.32700 1.38500 44.78800
C  8.90500 2.64700 45.19700
H  1.10900 1.86000 43.38600
H  -1.71900 -3.22200 46.24600
H  4.14400 -5.42700 47.73000
H  5.72500 1.92300 43.93000
H  3.46400 2.15100 42.30500
H  3.29200 4.00600 43.58700
H  4.26000 3.30400 44.90400
H  2.56600 3.04900 44.77700
H  4.85900 0.58100 41.39800
H  6.12800 -0.13800 42.33100
H  7.51200 1.37600 41.24600
H  6.85300 2.63600 42.24000
H  -2.68600 1.55400 43.70600
H  -1.57200 1.26400 42.33400
H  -1.07900 2.27500 43.66000
H  -3.35300 -3.24400 44.73500
H  -4.89400 -2.31000 45.03700
H  -3.75200 -2.55200 46.33800
H  -0.08400 -5.76500 46.22000
H  1.34400 -5.01500 48.85200
H  -0.89600 -5.59700 49.00400
H  -1.72400 -6.22700 47.52500
H  -1.87100 -4.51800 48.05200
H  2.56300 -6.89500 47.04300
H  0.90900 -7.40600 47.48300
H  3.43600 -7.53900 48.93100
H  2.10200 -8.58000 49.21500
H  2.09600 -6.96300 49.97200
H  7.07500 -5.84900 46.57300
H  6.35500 -5.60200 48.08000
H  7.74900 -4.60200 47.73800
H  7.65600 -0.73000 44.01600
H  9.84900 2.76300 44.66500
H  9.15100 2.72300 46.25700
H  8.14600 3.39100 44.95800
Mg 9.89500 47.44700 25.61400
C  7.59800 47.46800 28.33000
C  12.41000 48.49100 27.81500
C  12.05000 47.34600 23.05400
C  7.24100 46.75300 23.43100
N  9.95800 48.00600 27.85800
C  8.91200 47.81600 28.75100
C  9.38500 48.34100 30.13100
C  10.88300 48.76900 29.86900
C  11.16600 48.41500 28.42400
C  11.36000 50.20700 30.11400
C  9.13900 47.37100 31.37800
C  10.09700 47.56800 32.53200
H  9.48900 47.10700 33.88700
N  11.93500 47.89200 25.46000
C  12.78900 48.27300 26.44700
C  14.12800 48.41600 25.90400
C  14.02500 48.06500 24.56500
C  12.64600 47.74600 24.26500
C  15.31300 48.84400 26.75000
C  15.16100 48.03900 23.50000
O  15.00000 47.79900 22.33300
C  16.63400 48.10000 23.91600
N  9.61400 47.40800 23.42800
C  10.71200 47.12000 22.69200
C  10.33600 46.39000 21.36300
C  8.76900 46.31900 21.51400
C  8.49400 46.86100 22.85800
C  10.94800 47.04400 20.03600
C  8.21200 44.88300 21.42400
C  8.46500 43.91600 22.60200
N  7.90200 47.07500 25.78700
C  6.90600 46.97400 24.79000
C  5.63800 46.85700 25.46400
C  5.82700 47.05400 26.81200
C  7.22300 47.18900 26.98600
C  4.38000 46.60900 24.72700
C  5.24800 47.06600 28.21400
O  4.07000 46.89200 28.59100
C  6.42000 47.29700 29.23000
C  6.63500 46.11500 30.05100
O  7.17000 45.15600 29.63300
O  6.08600 46.35500 31.27700
C  6.20600 45.29600 32.23900
H  13.27200 48.52800 28.48400
H  12.76100 46.92300 22.34200
H  6.51200 46.37700 22.70900
H  8.73200 49.20800 30.23000
H  11.60900 48.21900 30.46900
H  10.50800 50.84500 30.34800
H  12.03900 50.59500 29.35600
H  11.89700 50.25100 31.06200
H  9.09800 46.35900 30.97600
H  8.13600 47.66200 31.68800
H  10.36300 48.61900 32.64300
H  11.00900 46.98600 32.39400
H  16.24100 48.27300 26.78500
H  15.02800 49.14100 27.75900
H  15.65300 49.78100 26.31100
H  17.26900 47.98200 23.03800
H  16.72600 47.23200 24.56900
H  16.85200 49.08800 24.32200
H  10.82900 45.42700 21.49900
H  8.28200 46.96700 20.78700
H  11.44300 46.26900 19.45000
H  11.79800 47.67800 20.28900
H  10.10500 47.56700 19.58600
H  8.87600 44.40000 20.70800
H  7.16900 44.96100 21.11600
H  8.95000 44.48400 23.39600
H  9.08400 43.04500 22.38700
H  7.50200 43.53900 22.94900
H  4.35100 47.24500 23.84300
H  3.54200 46.75000 25.41000
H  4.33500 45.56500 24.41900
H  6.04700 48.09200 29.87600
H  7.09700 44.68600 32.09200
H  5.36500 44.62800 32.05700
H  6.15700 45.79100 33.20900

