158

Mg 42.03100 40.91300 26.96300
C  41.28900 43.10700 29.52200
C  43.26800 38.70600 29.33000
C  42.53000 38.55900 24.50000
C  41.10600 43.20400 24.61400
N  42.30100 40.99000 29.23700
C  41.82500 41.96200 30.07700
C  41.90000 41.57000 31.51800
C  42.74300 40.23600 31.51000
C  42.71200 39.91600 29.95400
C  44.15500 40.20900 32.10300
C  40.42500 41.46200 32.16800
C  40.29800 42.31300 33.43500
H  39.71100 41.57800 34.66300
N  42.81900 38.89400 26.87100
C  43.27200 38.17400 27.95000
C  43.51700 36.80800 27.53200
C  43.19000 36.71200 26.14600
C  42.78000 38.08600 25.78600
C  43.95500 35.74600 28.44600
C  43.16100 35.47800 25.07500
O  42.85600 35.60100 23.86100
C  43.68300 34.15900 25.55700
N  41.98900 40.92800 24.83900
C  42.10800 39.90000 23.98700
C  41.73400 40.17100 22.56000
C  41.39600 41.66600 22.63900
C  41.46800 41.98600 24.14700
C  42.73500 39.81100 21.48600
C  39.98700 42.00300 22.16500
C  39.92200 43.30000 21.42000
N  41.40500 42.85400 27.04100
C  41.01300 43.63400 26.00000
C  40.45900 44.88700 26.51500
C  40.51300 44.70500 27.91300
C  41.13900 43.45900 28.17900
C  39.99200 46.06500 25.77700
C  40.15000 45.29500 29.22000
O  39.56000 46.35700 29.47300
C  40.75300 44.31300 30.27400
C  41.75300 45.05000 31.13200
O  42.98600 45.14000 31.00100
O  41.15100 45.51600 32.27500
C  41.96400 46.06500 33.34300
H  43.54800 38.02200 30.13400
H  42.58900 37.94200 23.60100
H  40.63900 43.85100 23.86900
H  42.44600 42.34100 32.06100
H  42.18400 39.49500 32.08000
H  44.40400 41.06700 32.72800
H  44.77600 40.12900 31.21000
H  44.14700 39.23800 32.59700
H  40.26700 40.41100 32.40700
H  39.71000 41.75700 31.39900
H  39.64200 43.18300 33.39500
H  41.24700 42.78300 33.69700
H  44.92300 35.38400 28.10000
H  43.28100 34.89400 28.36500
H  44.02000 35.98800 29.50700
H  44.74100 34.11700 25.81400
H  43.57800 33.39800 24.78400
H  43.06600 33.77400 26.36900
H  40.84600 39.57000 22.36400
H  42.18400 42.16100 22.07200
H  42.94800 40.68700 20.87300
H  42.27600 38.99900 20.92200
H  43.64400 39.37900 21.90400
H  39.32800 41.98700 23.03200
H  39.58100 41.19200 21.56000
H  39.50100 43.03400 20.45100
H  40.93800 43.68700 21.33700
H  39.36800 44.11400 21.88900
H  40.74800 46.83900 25.64200
H  39.20700 46.56500 26.34300
H  39.60700 45.84900 24.78000
H  40.05400 43.76100 30.90300
H  42.56500 45.24300 33.73200
H  41.38000 46.57600 34.10800
H  42.59700 46.87000 32.96800
Mg 35.46100 48.21100 26.39300
C  36.07500 46.19600 29.08600
C  34.35000 50.75000 28.44500
C  34.99200 50.16500 23.75300
C  36.51200 45.70600 24.19900
N  35.18200 48.41600 28.50600
C  35.53900 47.43100 29.44700
C  35.29400 47.99900 30.89900
C  34.45700 49.37300 30.57000
C  34.70800 49.54300 29.04700
C  32.93800 49.34000 30.84900
C  36.66300 48.29100 31.61100
C  36.78600 48.02000 33.10800
H  36.22800 49.20700 33.88900
N  34.82400 50.24200 26.14300
C  34.37700 51.11200 27.08000
C  34.02700 52.33700 26.50800
C  34.33100 52.25100 25.14300
C  34.81100 50.86200 24.94900
C  33.53700 53.55400 27.20200
C  34.30000 53.34600 24.08600
O  34.71100 53.05900 22.94400
C  33.80200 54.72300 24.36500
N  35.62100 47.93000 24.24900
C  35.31400 48.89100 23.39100
C  35.32100 48.45800 21.94000
C  35.96700 47.02300 22.07600
C  36.06500 46.82200 23.57100
C  33.81500 48.35000 21.39200
C  37.40200 46.86400 21.41600
C  38.53900 47.52000 22.16800
N  36.00100 46.28400 26.55900
C  36.54400 45.44700 25.60700
C  36.97600 44.16600 26.30000
C  36.78200 44.44000 27.67400
C  36.26600 45.72400 27.77900
C  37.59200 43.02300 25.56500
C  36.92700 43.91900 28.96500
O  37.24300 42.78300 29.29400
C  36.55100 45.10500 29.98100
C  35.60400 44.64500 31.00200
O  34.43600 44.29300 30.77100
O  36.19100 44.64600 32.27600
C  35.42900 43.99100 33.28200
H  33.91600 51.50200 29.10700
H  34.70500 50.82800 22.93400
H  36.80000 44.90400 23.51600
H  34.64000 47.31100 31.43500
H  34.84700 50.24700 31.09100
H  32.65800 50.10600 31.57100
H  32.68400 48.36500 31.26700
H  32.32200 49.49500 29.96300
H  36.99700 49.28600 31.31700
H  37.44000 47.68000 31.15200
H  37.81500 47.76700 33.36100
H  36.19000 47.13300 33.32700
H  32.80700 54.16500 26.67100
H  34.34300 54.20900 27.53200
H  32.97300 53.27100 28.09000
H  34.15600 55.38800 23.57800
H  34.36400 55.11100 25.21500
H  32.73500 54.88900 24.51800
H  35.90500 49.14900 21.33200
H  35.33200 46.29700 21.56800
H  33.03100 48.52400 22.12900
H  33.60800 47.34100 21.03500
H  33.66000 49.10900 20.62500
H  37.27900 47.43400 20.49500
H  37.45600 45.83000 21.07500
H  38.17100 48.18700 22.94800
H  39.11100 48.11100 21.45300
H  39.14700 46.70900 22.57100
H  37.70200 43.31800 24.52100
H  37.03500 42.08600 25.56200
H  38.52700 42.75900 26.05900
H  37.47500 45.25900 30.53800
H  34.95900 43.05800 32.97200
H  34.57100 44.62700 33.49800
H  36.02000 43.68900 34.14800

