158

Mg 1.19800 -1.73500 43.67900
C  4.35400 -0.09900 43.12800
C  -0.31100 0.95400 42.27800
C  -1.65200 -3.42100 43.65600
C  3.04500 -4.54100 44.83000
N  1.99800 0.16100 42.83800
C  3.29800 0.59400 42.64000
C  3.33700 1.95000 41.93300
C  1.80400 2.37400 41.99000
C  1.09900 1.10200 42.46200
C  1.45400 3.61100 42.91800
C  3.82800 1.77100 40.46000
C  5.15500 2.62900 40.08300
H  6.15200 1.93200 39.03600
N  -0.81100 -1.30700 42.99600
C  -1.21400 -0.10300 42.44500
C  -2.60900 -0.17500 42.16400
C  -3.05300 -1.48300 42.50500
C  -1.83700 -2.16200 43.12500
C  -3.40000 1.00400 41.60200
C  -4.44900 -2.05400 42.18000
O  -5.28700 -1.24400 41.76900
C  -4.64800 -3.58900 42.35300
N  0.80100 -3.83500 43.97600
C  -0.52500 -4.21000 44.03400
C  -0.57300 -5.71800 44.61900
C  0.96200 -6.06300 44.81400
C  1.66700 -4.72100 44.51800
C  -1.28900 -5.74100 46.02200
C  1.54900 -7.15000 43.92000
C  1.91500 -8.51900 44.62400
N  3.27000 -2.27100 44.04500
C  3.85700 -3.43000 44.51700
C  5.23200 -3.24600 44.60600
C  5.54000 -1.91900 44.12600
C  4.28100 -1.37600 43.79700
C  6.22400 -4.30100 45.16000
C  6.57300 -0.90200 43.82500
O  7.77000 -1.00900 43.99200
C  5.85800 0.35200 43.12100
C  6.01700 1.54200 44.00600
O  5.20000 1.94000 44.85100
O  7.16200 2.19000 43.65300
C  7.51500 3.49400 44.33200
H  -0.69800 1.94700 42.04200
H  -2.64100 -3.81700 43.89600
H  3.50500 -5.44500 45.23600
H  4.04400 2.54500 42.51100
H  1.44900 2.77600 41.04100
H  2.39500 3.87200 43.40100
H  0.70000 3.21900 43.60100
H  1.03700 4.48000 42.40900
H  3.17000 2.15300 39.67900
H  4.06300 0.72400 40.26900
H  5.71400 2.97700 40.95200
H  4.75100 3.50600 39.57800
H  -3.54300 0.93000 40.52400
H  -2.84000 1.93100 41.73400
H  -4.38700 1.19900 42.02000
H  -3.76800 -3.96100 41.82900
H  -5.59600 -3.83100 41.87200
H  -4.69100 -3.92300 43.39000
H  -1.06800 -6.45500 43.98700
H  1.12900 -6.29300 45.86700
H  -0.65000 -6.14100 46.81000
H  -2.24100 -6.27100 45.98600
H  -1.49900 -4.69200 46.22900
H  2.42900 -6.81900 43.36800
H  0.83500 -7.42600 43.14300
H  1.42800 -9.33200 44.08500
H  1.56100 -8.46100 45.65300
H  2.99400 -8.56000 44.47800
H  7.12100 -4.42100 44.55300
H  5.80800 -5.30100 45.28400
H  6.52300 -3.96200 46.15200
H  6.20800 0.43100 42.09100
H  6.57300 3.99600 44.55400
H  7.95200 4.21100 43.63700
H  8.12000 3.35400 45.22800
Mg 1.16800 42.72600 25.68900
C  2.35700 42.75700 28.97500
C  -1.82400 41.43000 26.90300
C  0.10100 42.65200 22.49900
C  4.38900 43.42200 24.54700
N  0.36800 42.14400 27.70700
C  1.04800 42.33500 28.90300
C  0.17000 42.07200 30.14200
C  -1.15300 41.55700 29.43500
C  -0.89400 41.72100 27.95100
C  -1.55400 40.12900 29.80000
C  -0.03300 43.38900 31.03400
C  0.58000 43.45800 32.44600
H  -0.36200 43.06600 33.60800
N  -0.53500 42.06000 24.85600
C  -1.68400 41.59500 25.47500
C  -2.72600 41.32400 24.53200
C  -2.17000 41.66800 23.22000
C  -0.78000 42.13600 23.48200
C  -4.08400 40.83700 25.02600
C  -3.00400 41.63900 21.89500
O  -2.52100 42.24600 20.89600
C  -4.28400 40.95600 21.71700
N  2.09900 43.08100 23.84500
C  1.36200 43.09100 22.65600
C  2.26900 43.40000 21.50600
C  3.60600 43.92500 22.13700
C  3.36200 43.47700 23.56500
C  2.40100 42.20100 20.53200
C  4.05400 45.35200 21.99700
C  3.96400 45.88300 20.52800
N  2.89400 43.10500 26.50100
C  4.18200 43.25100 25.89600
C  5.19100 43.39400 26.85700
C  4.52500 43.12800 28.03400
C  3.13700 43.08900 27.82300
C  6.61800 43.79500 26.57200
C  4.79000 43.00100 29.39300
O  5.82700 42.88200 29.96300
C  3.37900 42.90200 30.11100
C  3.43000 41.75700 31.05400
O  2.86900 40.65500 30.93800
O  4.18200 42.10000 32.16300
C  4.26800 41.09500 33.26000
H  -2.72800 40.93900 27.26800
H  -0.39400 42.55700 21.53000
H  5.37300 43.68200 24.15300
H  0.59600 41.34600 30.83400
H  -2.00100 42.20000 29.67400
H  -1.70800 39.47700 28.94000
H  -2.56800 40.21800 30.18800
H  -0.92900 39.63600 30.54500
H  -1.10300 43.57000 31.13400
H  0.24700 44.27300 30.46200
H  0.95900 44.46500 32.62500
H  1.43300 42.78700 32.34200
H  -4.25300 41.18100 26.04600
H  -4.20800 39.75600 25.09300
H  -4.89600 41.16100 24.37500
H  -4.17100 40.31800 20.84100
H  -5.09800 41.65800 21.53500
H  -4.47200 40.24500 22.52200
H  1.72900 44.22300 21.03700
H  4.42400 43.28100 21.81300
H  1.41900 41.82000 20.25200
H  2.91300 41.37700 21.02900
H  2.83600 42.51500 19.58300
H  5.12800 45.37900 22.18300
H  3.32500 45.98400 22.50400
H  3.27400 46.69800 20.30900
H  3.74600 45.08400 19.81900
H  4.97400 46.10800 20.18400
H  6.98300 43.27200 25.68800
H  7.31600 43.59200 27.38500
H  6.62500 44.87500 26.42700
H  3.28800 43.80100 30.72000
H  5.33500 41.06100 33.47700
H  3.85700 40.11500 33.01600
H  3.82500 41.44800 34.19200

