158

Mg 44.61000 2.69700 47.22800
C  42.29500 5.25500 46.82300
C  41.93800 0.51300 47.00800
C  46.81100 0.07900 47.23900
C  47.10300 4.96000 46.34400
N  42.34100 2.86000 46.85800
C  41.66800 4.02400 46.76500
C  40.25500 3.89400 46.51900
C  40.05400 2.36900 46.85700
C  41.51000 1.83700 46.93100
C  39.15500 2.05900 48.13300
C  39.85800 4.31200 45.06500
C  38.56700 5.20600 44.88000
H  37.96900 5.22200 43.49000
N  44.42600 0.58700 47.20200
C  43.22300 -0.07100 47.09300
C  43.50800 -1.52600 47.24300
C  44.90500 -1.73400 47.23100
C  45.47000 -0.37300 47.31900
C  42.42500 -2.48800 47.11100
C  45.63600 -3.02300 47.22000
O  45.06600 -4.13100 47.22800
C  47.03000 -2.97100 47.52300
N  46.55300 2.50900 46.83800
C  47.27300 1.34000 46.94500
C  48.84700 1.63200 46.88900
C  48.84200 3.10400 46.28900
C  47.39200 3.57400 46.44200
C  49.50000 1.37300 48.27000
C  49.47700 3.32200 44.93000
C  50.84300 3.97300 44.86300
N  44.79400 4.71900 46.90600
C  45.86100 5.45900 46.53800
C  45.43600 6.77000 46.40400
C  44.02500 6.82400 46.55400
C  43.71900 5.49400 46.87000
C  46.25300 7.96500 45.93900
C  42.80200 7.63300 46.52900
O  42.59500 8.81100 46.22300
C  41.64900 6.65000 46.87300
C  41.06400 6.86300 48.15100
O  41.51200 6.50100 49.20500
O  39.77600 7.25800 48.00300
C  38.99700 7.55700 49.22200
H  41.05500 -0.12800 46.99500
H  47.66800 -0.59100 47.33700
H  47.85400 5.69900 46.05700
H  39.76800 4.53100 47.25600
H  39.52000 1.90400 46.02800
H  38.57400 2.89400 48.52500
H  39.82400 1.79200 48.95100
H  38.60700 1.15000 47.88700
H  39.79200 3.39500 44.47900
H  40.66300 4.91800 44.65000
H  38.74700 6.20800 45.27100
H  37.83700 4.87500 45.61900
H  41.86000 -2.41700 46.18100
H  41.71000 -2.20800 47.88500
H  42.80200 -3.50700 47.19200
H  47.27400 -2.34900 48.38400
H  47.46300 -2.56200 46.61000
H  47.32400 -3.99800 47.73600
H  49.27000 0.79800 46.33000
H  49.28700 3.81200 46.98800
H  50.14900 0.50100 48.35000
H  48.69100 1.20900 48.98200
H  50.07800 2.24700 48.56900
H  48.79100 3.83900 44.26000
H  49.52200 2.32100 44.49900
H  51.68500 3.44600 44.41300
H  51.11700 4.18300 45.89700
H  50.92300 4.94400 44.37500
H  45.70400 8.89300 46.09900
H  46.50600 7.81800 44.88800
H  47.19400 7.98800 46.48900
H  40.94100 6.74100 46.04900
H  39.21100 8.59600 49.47300
H  39.28200 6.88300 50.03000
H  37.92900 7.48000 49.02200
Mg 8.76100 47.91800 25.17900
C  6.82500 48.08800 28.12300
C  11.38300 49.37900 26.99100
C  10.53100 48.08300 22.35400
C  5.95600 47.18600 23.34600
N  9.10600 48.47500 27.35600
C  8.17400 48.40000 28.38900
C  8.73600 48.92000 29.68500
C  9.85700 49.78100 29.18500
C  10.16400 49.16400 27.77200
C  9.41200 51.29600 29.05300
C  9.07100 47.79500 30.68400
C  8.61400 48.04200 32.14200
H  8.44900 46.86400 33.22600
N  10.68500 48.50100 24.79600
C  11.66400 48.96200 25.66800
C  12.98600 49.06000 24.98200
C  12.80400 48.65500 23.61700
C  11.29900 48.37100 23.57500
C  14.27500 49.53000 25.62800
C  13.64100 48.42200 22.45800
O  13.27400 47.88800 21.43400
C  15.10000 48.74900 22.64800
N  8.38500 47.53800 23.16400
C  9.22700 47.78100 22.14700
C  8.67100 47.42600 20.74900
C  7.23600 46.92500 21.17800
C  7.19300 47.26500 22.65200
C  8.86800 48.48900 19.66200
C  7.10100 45.40200 20.93500
C  5.75100 45.01500 20.16600
N  6.78200 47.59900 25.58600
C  5.75600 47.43200 24.74700
C  4.54100 47.39300 25.50800
C  4.89500 47.54400 26.85500
C  6.30300 47.70800 26.84000
C  3.14100 47.16100 24.99400
C  4.42700 47.61500 28.18200
O  3.27700 47.47900 28.66400
C  5.68000 47.90300 29.09000
C  5.78200 46.63900 29.92800
O  6.26000 45.58200 29.45400
O  5.57700 46.86400 31.25500
C  5.50200 45.62400 32.03000
H  12.12900 49.96400 27.53200
H  11.03900 47.97500 21.39400
H  5.02300 46.98400 22.81600
H  7.91300 49.50300 30.09700
H  10.82400 49.63400 29.66600
H  10.04300 51.89300 29.71000
H  8.35500 51.54500 29.15400
H  9.58100 51.57300 28.01200
H  10.15700 47.71000 30.70200
H  8.67800 46.83100 30.36100
H  7.66100 48.57000 32.15000
H  9.36900 48.72000 32.54000
H  14.09900 49.80300 26.66900
H  14.69900 50.43300 25.18900
H  14.92400 48.65500 25.60700
H  15.46400 48.12400 23.46300
H  15.24200 49.81500 22.82800
H  15.61200 48.55800 21.70500
H  9.26300 46.54000 20.52100
H  6.52800 47.56900 20.65600
H  8.02500 48.78300 19.03600
H  9.78900 48.28600 19.11600
H  9.10000 49.48400 20.03900
H  7.06500 44.82800 21.86100
H  7.88600 45.06000 20.26000
H  5.17500 45.85500 19.77800
H  5.11600 44.46800 20.86200
H  5.93200 44.33800 19.33100
H  3.26100 47.52100 23.97200
H  2.51500 47.96300 25.38800
H  2.72000 46.15600 25.02600
H  5.54600 48.69400 29.82800
H  6.50000 45.33500 32.36000
H  5.07400 44.78300 31.48400
H  4.86700 45.99400 32.83500

