158

Mg 45.04000 5.38600 47.58300
C  43.00400 8.01100 47.33900
C  42.22200 3.27000 47.46300
C  47.08700 2.64200 47.47500
C  47.86800 7.45500 47.55800
N  42.82500 5.59400 47.45500
C  42.25700 6.83400 47.38100
C  40.72800 6.62700 47.02300
C  40.44900 5.17600 47.30100
C  41.94300 4.64000 47.47700
C  39.49400 4.96200 48.47500
C  40.47600 7.00600 45.51200
C  39.30900 8.05500 45.52900
H  38.45400 8.06600 44.21300
N  44.67400 3.23800 47.53700
C  43.45700 2.62100 47.54600
C  43.72500 1.19300 47.42300
C  45.10500 0.97800 47.30900
C  45.66000 2.31500 47.44700
C  42.67200 0.12200 47.40300
C  45.75500 -0.34900 47.06500
O  45.11100 -1.39100 46.97600
C  47.30200 -0.50700 46.84100
N  47.21000 5.09700 47.42900
C  47.82400 3.85500 47.47800
C  49.26300 3.94800 47.39700
C  49.51800 5.51600 47.54800
C  48.11500 6.09300 47.54700
C  50.13300 2.96600 48.33000
C  50.45000 6.02900 46.35200
C  51.88600 6.56200 46.71200
N  45.41800 7.33300 47.38200
C  46.57600 8.09100 47.48900
C  46.28100 9.50400 47.32300
C  44.89400 9.49200 47.38400
C  44.41000 8.14800 47.42000
C  47.16500 10.74200 47.04800
C  43.64700 10.39200 47.24100
O  43.63100 11.61400 47.13600
C  42.37700 9.41600 47.33100
C  41.47300 9.73700 48.50400
O  41.53900 9.11100 49.56300
O  40.48800 10.46900 48.05500
C  39.28700 10.55800 48.87800
H  41.35800 2.61200 47.34700
H  47.79300 1.81000 47.52800
H  48.71900 8.13400 47.47400
H  40.14500 7.28000 47.67300
H  40.20700 4.55500 46.43800
H  39.21700 5.92700 48.89900
H  40.02000 4.42400 49.26300
H  38.63200 4.40100 48.11500
H  40.26000 6.27700 44.73100
H  41.40200 7.50800 45.23100
H  39.81600 9.00400 45.70100
H  38.59600 7.88400 46.33600
H  42.81300 -0.54800 46.55500
H  41.69100 0.54700 47.19000
H  42.77100 -0.34600 48.38200
H  47.60300 0.06400 45.96200
H  47.48400 -1.57300 46.70500
H  47.89800 -0.20100 47.70100
H  49.44100 3.64300 46.36600
H  49.83900 5.77500 48.55700
H  49.46700 2.34400 48.92900
H  50.70900 3.58800 49.01500
H  50.90100 2.38600 47.81900
H  49.88700 6.82500 45.86500
H  50.70300 5.15200 45.75600
H  51.88800 7.56300 47.14400
H  52.53400 6.58200 45.83600
H  52.32200 5.88600 47.44700
H  48.09700 10.69600 47.61100
H  46.58100 11.63300 47.27800
H  47.33000 10.92600 45.98700
H  41.85200 9.67800 46.41200
H  39.05300 11.62200 48.83900
H  39.32600 10.14100 49.88400
H  38.56600 10.15800 48.16500
Mg -1.46200 35.21300 26.80500
C  -3.24500 33.41200 29.25500
C  -0.33300 37.26000 29.46900
C  0.07600 37.11700 24.65600
C  -2.76000 33.19000 24.44900
N  -1.89100 35.43900 29.14600
C  -2.45600 34.45200 29.89200
C  -2.25600 34.71800 31.43200
C  -1.42600 35.98600 31.39000
C  -1.19000 36.28500 29.91800
C  -2.10300 37.08800 32.27300
C  -1.67200 33.59300 32.26600
C  -2.52700 33.03000 33.45900
H  -1.80700 33.01900 34.83600
N  -0.27300 36.94500 27.00200
C  0.11700 37.55900 28.14800
C  0.98600 38.60700 27.84700
C  1.20500 38.53400 26.44100
C  0.32700 37.48100 25.94000
C  1.59000 39.61300 28.84800
C  2.16000 39.33700 25.56900
O  2.23900 39.09000 24.37900
C  3.07700 40.34600 26.18800
N  -1.53400 35.20200 24.75900
C  -0.71800 36.18700 24.10900
C  -0.83200 35.91300 22.62800
C  -1.66200 34.52200 22.51400
C  -2.00300 34.24500 23.96200
C  -1.56800 37.03300 21.86800
C  -0.86500 33.44100 21.76300
C  0.35900 32.83400 22.53800
N  -2.87200 33.72200 26.79300
C  -3.25800 32.99500 25.72100
C  -3.92400 31.83400 26.16100
C  -4.04700 31.95600 27.58400
C  -3.35000 33.14600 27.89500
C  -4.28000 30.69200 25.23400
C  -4.46900 31.31800 28.84200
O  -5.09400 30.28500 29.06800
C  -3.94000 32.26100 29.94500
C  -5.04000 32.81300 30.70500
O  -5.85500 33.66900 30.32000
O  -5.16500 32.24900 31.90600
C  -6.25700 32.58400 32.78300
H  0.11100 37.79800 30.30900
H  0.32000 37.87000 23.90400
H  -2.91100 32.40100 23.70900
H  -3.28700 34.82100 31.77000
H  -0.41100 35.81100 31.74800
H  -1.34900 37.42200 32.98700
H  -2.99900 36.76900 32.80500
H  -2.35400 37.84100 31.52600
H  -0.67900 33.84800 32.63800
H  -1.39200 32.81400 31.55800
H  -2.79700 32.01300 33.17400
H  -3.40000 33.66100 33.62900
H  1.19900 39.42300 29.84800
H  1.44900 40.66900 28.61600
H  2.66400 39.45700 28.94600
H  3.67200 39.85300 26.95600
H  2.45600 41.13300 26.61500
H  3.75100 40.78500 25.45200
H  0.19200 35.78300 22.27900
H  -2.57700 34.61700 21.93000
H  -1.81100 37.93500 22.43000
H  -2.47100 36.67600 21.37200
H  -0.95800 37.34600 21.02000
H  -0.56200 33.77200 20.77000
H  -1.55900 32.60000 21.78900
H  -0.06100 31.83700 22.67000
H  0.41500 33.39800 23.46900
H  1.33800 32.75300 22.06500
H  -4.33300 29.82100 25.88700
H  -3.49400 30.50400 24.50300
H  -5.17500 30.78800 24.61800
H  -3.22900 31.69400 30.54500
H  -6.11400 32.20900 33.79700
H  -7.20900 32.15700 32.46700
H  -6.24800 33.66300 32.93900

