158

Mg 41.70400 41.64800 26.98300
C  41.21700 43.96200 29.42900
C  43.17200 39.44500 29.45400
C  42.24900 39.31100 24.64100
C  41.03600 44.01900 24.51000
N  42.07100 41.67600 29.13400
C  41.69800 42.74200 29.94600
C  41.88500 42.39600 31.42700
C  42.78100 41.10800 31.39300
C  42.60500 40.66800 29.94200
C  44.32800 41.24100 31.78300
C  40.49900 42.30300 32.18000
C  40.32100 43.12800 33.45500
H  39.76800 42.36600 34.64900
N  42.59300 39.68400 26.98900
C  43.10900 38.95600 28.09400
C  43.57500 37.60600 27.62800
C  43.16900 37.49700 26.21200
C  42.61100 38.90100 25.89200
C  44.10000 36.47500 28.51800
C  43.28700 36.31900 25.26700
O  43.03000 36.44400 24.10600
C  43.89400 35.05000 25.66000
N  42.05100 41.79800 24.83500
C  42.07700 40.65200 24.09600
C  41.66500 40.93700 22.58700
C  41.42100 42.43900 22.54500
C  41.51400 42.81700 24.03600
C  42.82300 40.43900 21.61300
C  40.18700 42.87200 21.77200
C  40.21600 44.08400 20.88700
N  41.20700 43.67200 26.86900
C  40.77600 44.43900 25.86600
C  40.35200 45.70000 26.43100
C  40.45000 45.51900 27.81400
C  41.05700 44.30300 28.03800
C  39.87500 46.83100 25.59500
C  40.22900 46.16500 29.08800
O  39.64000 47.22900 29.36400
C  40.69100 45.16800 30.18200
C  41.72400 45.80000 31.01300
O  42.74400 46.23000 30.52600
O  41.37000 45.86200 32.33900
C  42.21800 46.70500 33.23500
H  43.61200 38.79300 30.21100
H  42.21100 38.51600 23.89400
H  40.82800 44.76600 23.74200
H  42.42800 43.17000 31.96900
H  42.26100 40.38500 32.02300
H  44.50800 42.24300 32.17100
H  44.93600 41.10100 30.88900
H  44.62400 40.62400 32.63200
H  40.27900 41.27300 32.46200
H  39.74500 42.62900 31.46300
H  39.65300 43.97100 33.27800
H  41.26100 43.59600 33.74700
H  45.11400 36.22000 28.20900
H  43.44400 35.61100 28.41300
H  44.16700 36.78500 29.56100
H  43.19900 34.54400 26.33000
H  44.79200 35.27700 26.23500
H  44.22400 34.37600 24.86900
H  40.72200 40.45500 22.33200
H  42.35500 42.89700 22.22100
H  43.61100 41.14500 21.35200
H  42.35000 40.22300 20.65500
H  43.18000 39.48100 21.99300
H  39.41800 42.96900 22.53800
H  39.73800 42.13000 21.11100
H  39.97200 43.85500 19.84900
H  41.24700 44.43400 20.84800
H  39.38500 44.72000 21.19200
H  40.27300 46.83000 24.58000
H  40.06600 47.76100 26.13000
H  38.79300 46.71200 25.53700
H  39.84600 44.97600 30.84300
H  43.20500 46.93400 32.83400
H  42.23500 46.16400 34.18100
H  41.70000 47.65800 33.35200
Mg 29.25100 58.46000 40.94700
C  26.16000 56.97000 40.00200
C  30.78700 55.79900 39.70900
C  32.03300 60.32800 41.07600
C  27.28700 61.38200 41.75800
N  28.48200 56.65600 39.82200
C  27.23800 56.15300 39.68800
C  27.29000 54.75300 39.15700
C  28.76800 54.34700 39.32000
C  29.40400 55.71200 39.64100
C  29.03400 53.28400 40.40800
C  26.86900 54.63300 37.70800
C  27.77900 55.27200 36.62400
H  27.06200 56.07800 35.58800
N  31.14400 58.08800 40.58800
C  31.60700 56.89800 40.10500
C  33.08300 56.93200 40.12400
C  33.38700 58.32500 40.24800
C  32.14000 59.02400 40.59800
C  34.02500 55.77000 39.83400
C  34.79200 58.90500 40.00100
O  35.72500 58.17600 39.70800
C  35.01900 60.38300 40.00400
N  29.57500 60.53000 41.32900
C  30.86300 61.03500 41.32900
C  30.80000 62.53000 41.72200
C  29.29500 62.84000 42.08200
C  28.66500 61.51100 41.67400
C  31.75700 62.88000 42.89800
C  28.75600 64.09200 41.31100
C  27.92300 65.02700 42.12000
N  27.13100 59.01600 40.99000
C  26.56700 60.22900 41.35300
C  25.13500 60.09100 41.33000
C  24.90500 58.79900 40.84100
C  26.19000 58.25100 40.53900
C  24.12500 61.03300 41.81500
C  23.92500 57.82600 40.59800
O  22.70700 57.85700 40.77100
C  24.68800 56.61500 40.00500
C  24.37800 55.34100 40.84400
O  24.72600 55.15900 42.00700
O  23.76300 54.37900 40.13200
C  23.36600 53.16800 40.76800
H  31.30300 54.87000 39.45500
H  32.92500 60.93200 41.25500
H  26.64900 62.22400 42.03500
H  26.55100 54.20000 39.73600
H  29.24300 53.95600 38.42100
H  28.05800 52.95200 40.76200
H  29.66900 53.70900 41.18500
H  29.50800 52.35200 40.09900
H  25.88600 55.10100 37.66900
H  26.81400 53.56300 37.51000
H  28.42600 54.52400 36.16700
H  28.46800 56.03000 36.99700
H  34.98000 55.88000 40.34700
H  34.19700 55.36500 38.83600
H  33.51700 55.07600 40.50400
H  34.99000 60.79500 41.01300
H  34.28300 60.87000 39.36400
H  36.01700 60.56500 39.60500
H  31.08200 63.11500 40.84600
H  29.09800 62.81600 43.15400
H  31.27900 63.43300 43.70800
H  32.62500 63.45200 42.57100
H  32.18900 61.95900 43.28800
H  28.13400 63.82800 40.45500
H  29.53700 64.72900 40.89700
H  28.52900 65.68200 42.74600
H  27.30900 64.40600 42.77200
H  27.19700 65.60800 41.55300
H  24.52400 61.95100 42.24500
H  23.52700 60.43100 42.49800
H  23.62900 61.36400 40.90200
H  24.49400 56.51200 38.93700
H  22.96200 52.54800 39.96800
H  22.63800 53.43200 41.53400
H  24.23200 52.58000 41.07600

