158

Mg -0.75900 17.34800 26.58000
C  -1.23200 14.96100 29.28700
C  -1.31500 19.87900 28.94000
C  -0.71200 19.55300 24.14400
C  -0.47600 14.73800 24.52500
N  -1.37900 17.36200 28.93600
C  -1.47200 16.29300 29.80400
C  -1.67100 16.85400 31.22700
C  -1.64400 18.37400 31.02200
C  -1.38900 18.56900 29.54200
C  -2.93800 19.19600 31.44400
C  -0.78400 16.20200 32.41800
C  -0.45100 17.17200 33.58200
H  -0.48400 16.62900 34.97600
N  -0.98200 19.43500 26.53100
C  -1.04600 20.32600 27.63100
C  -1.04100 21.65600 27.07000
C  -0.80000 21.60300 25.67400
C  -0.75300 20.18400 25.40100
C  -1.32800 22.90500 27.90900
C  -0.62500 22.62000 24.67800
O  -0.54700 22.46300 23.46200
C  -0.50100 24.12800 25.10600
N  -0.67200 17.16900 24.60200
C  -0.62800 18.19900 23.74100
C  -0.76400 17.73500 22.35000
C  -0.20900 16.28600 22.50800
C  -0.43000 16.04500 23.98800
C  -2.24700 17.76800 21.80100
C  1.35100 16.07200 22.13100
C  2.51000 16.49600 23.10000
N  -0.91800 15.26200 26.76600
C  -0.78400 14.31000 25.87600
C  -0.95500 13.03500 26.42900
C  -1.04600 13.26100 27.73700
C  -1.05200 14.59200 27.96800
C  -1.06800 11.82200 25.58000
C  -1.18100 12.50000 29.01000
O  -1.32600 11.29100 29.17500
C  -1.28400 13.62800 30.09600
C  -0.14700 13.32000 30.97800
O  0.97100 13.76000 30.89600
O  -0.57300 12.36100 31.84200
C  0.29400 12.07200 32.97900
H  -1.27400 20.64000 29.72300
H  -0.62500 20.19400 23.26400
H  -0.43200 13.97600 23.74400
H  -2.66100 16.49100 31.50600
H  -0.82400 18.81800 31.58700
H  -3.45200 19.63900 30.59100
H  -2.68900 19.78600 32.32600
H  -3.70500 18.46100 31.68800
H  0.17000 16.02600 31.92000
H  -1.14200 15.25300 32.81700
H  -1.17400 17.98700 33.56300
H  0.55100 17.56700 33.41500
H  -1.86800 23.63500 27.30600
H  -0.49600 23.44000 28.36600
H  -1.94500 22.59900 28.75400
H  0.42200 24.15800 25.68500
H  -1.39300 24.53700 25.58100
H  -0.29300 24.84700 24.31400
H  -0.18300 18.39800 21.70900
H  -0.84300 15.53900 22.03100
H  -2.61900 18.68900 22.25200
H  -2.80200 16.93800 22.23900
H  -2.12400 17.74700 20.71800
H  1.48400 16.62400 21.20100
H  1.34500 15.07000 21.70300
H  2.09700 16.59500 24.10300
H  3.05700 17.41900 22.90500
H  3.21600 15.66500 23.09100
H  -1.57400 12.18600 24.68500
H  -1.68000 11.08000 26.09300
H  -0.08700 11.45500 25.28000
H  -2.21600 13.54900 30.65700
H  0.90500 11.17400 32.89300
H  -0.32700 11.89400 33.85700
H  0.89300 12.97200 33.11900
Mg 25.63400 51.14500 26.52900
C  23.31100 52.16900 28.92000
C  27.79100 50.30000 29.16300
C  27.90400 50.28100 24.24300
C  23.69300 52.67700 24.05100
N  25.65100 51.35600 28.77100
C  24.50800 51.68100 29.53200
C  24.77400 51.51900 31.06000
C  26.33500 51.11100 31.11700
C  26.66300 50.88100 29.60700
C  27.18900 52.29300 31.84300
C  23.89700 50.29900 31.66300
C  23.33000 50.49000 32.99800
H  24.18200 51.44400 33.88100
N  27.45800 50.24700 26.64900
C  28.17300 49.92200 27.78000
C  29.30600 49.16500 27.38700
C  29.31100 49.13100 25.94900
C  28.21500 49.91400 25.55000
C  30.29900 48.54400 28.39800
C  30.39200 48.46700 25.07800
O  30.36100 48.59600 23.83600
C  31.44400 47.65100 25.73700
N  25.81800 51.55400 24.50500
C  26.81300 51.02800 23.74900
C  26.67400 51.26900 22.23400
C  25.26700 52.00400 22.20800
C  24.90600 52.14200 23.70100
C  27.72200 52.16400 21.52900
C  24.20600 51.08900 21.49500
C  23.90500 49.67100 22.12300
N  23.79400 52.23000 26.42300
C  23.11700 52.78900 25.35800
C  21.91800 53.36200 25.79900
C  21.94000 53.13200 27.18300
C  23.10100 52.47700 27.55300
C  20.88300 54.12600 24.96600
C  21.24600 53.43400 28.35800
O  20.17700 53.99200 28.50600
C  22.05300 52.79100 29.58800
C  22.40100 53.85400 30.61100
O  23.39700 54.63400 30.47100
O  21.55900 53.72700 31.67900
C  21.71600 54.68400 32.75000
H  28.38100 49.83800 29.95700
H  28.56200 50.17000 23.37900
H  22.89900 53.07800 23.41700
H  24.61000 52.49100 31.52600
H  26.45800 50.20400 31.70900
H  26.66700 52.67900 32.71900
H  27.47100 52.98800 31.05200
H  28.10300 51.78400 32.14800
H  24.41100 49.34400 31.55700
H  23.05700 50.22200 30.97300
H  23.40200 49.59500 33.61600
H  22.35500 50.97800 32.99000
H  30.57200 47.49500 28.27800
H  29.87500 48.65600 29.39600
H  31.24500 49.08400 28.44400
H  32.19700 48.15800 26.34100
H  31.90400 47.00200 24.99200
H  30.92600 46.82400 26.22100
H  26.55500 50.25800 21.84300
H  25.36200 53.00000 21.77500
H  27.35300 52.70500 20.65800
H  28.27900 51.31700 21.12700
H  28.37200 52.79700 22.13200
H  24.63300 50.77400 20.54300
H  23.19900 51.47300 21.33200
H  24.43200 49.53300 23.06700
H  24.29500 48.79100 21.61100
H  22.84500 49.60300 22.36800
H  19.87200 53.97000 25.34300
H  20.90500 53.78100 23.93300
H  21.28300 55.14000 24.99000
H  21.41600 52.07300 30.10500
H  22.12800 54.30800 33.68700
H  20.72400 55.03100 33.03800
H  22.31300 55.57100 32.53900

