158

Mg 45.53800 5.13300 46.58000
C  43.81000 8.14200 46.14000
C  42.71800 3.51300 45.50900
C  47.37600 2.37000 46.35100
C  48.51200 7.01700 46.77500
N  43.46900 5.81900 45.97600
C  42.97000 7.03000 45.90500
C  41.47900 7.06400 45.52400
C  41.15600 5.56700 45.38200
C  42.54800 4.88800 45.66400
C  40.12700 5.03400 46.47300
C  41.17400 7.99700 44.28000
C  42.22600 7.84300 43.17700
H  41.62500 7.49700 41.82400
N  45.06000 3.17400 46.17500
C  43.88700 2.72300 45.67000
C  44.01700 1.29400 45.44500
C  45.32600 0.92000 45.67100
C  45.99600 2.16500 46.09200
C  42.75800 0.50200 44.96700
C  45.88900 -0.53600 45.59400
O  45.10000 -1.41900 45.22200
C  47.29200 -0.92400 46.06500
N  47.71000 4.75400 46.67100
C  48.21200 3.53700 46.61100
C  49.69200 3.47600 46.62200
C  50.03900 5.02900 46.78600
C  48.69500 5.66800 46.68100
C  50.21600 2.66400 47.79000
C  51.14000 5.55700 45.78400
C  52.58100 5.48000 46.42100
N  46.10600 7.09900 46.50100
C  47.34900 7.70800 46.61200
C  47.16100 9.15000 46.56900
C  45.75700 9.31100 46.55400
C  45.18700 8.07300 46.32900
C  48.24700 10.11600 46.67800
C  44.69100 10.36000 46.57000
O  44.82000 11.59200 46.52200
C  43.36500 9.56200 46.41200
C  42.53100 9.61900 47.77900
O  42.48200 8.76800 48.59900
O  41.91500 10.82300 47.94400
C  41.20800 11.08300 49.20500
H  41.78000 3.02800 45.23300
H  48.03000 1.53600 46.08900
H  49.46400 7.50900 46.98500
H  40.90800 7.70600 46.19400
H  40.84200 5.19700 44.40600
H  40.62100 4.63600 47.36000
H  39.55200 4.29800 45.91100
H  39.51200 5.90300 46.70600
H  41.21100 9.05300 44.54700
H  40.11300 7.90300 44.04500
H  42.82400 6.96400 43.41300
H  42.89600 8.70100 43.24000
H  43.04200 -0.25900 44.24100
H  42.07000 1.15800 44.43400
H  42.18500 0.09800 45.80200
H  47.41400 -1.99800 46.21200
H  47.47400 -0.44500 47.02700
H  48.05300 -0.70500 45.31600
H  50.11100 3.18600 45.65800
H  50.39700 5.19000 47.80300
H  50.76200 1.75200 47.55300
H  49.42000 2.26900 48.42100
H  50.83500 3.28300 48.44100
H  50.95600 6.58200 45.46300
H  51.15700 5.04400 44.82200
H  53.04100 4.60800 45.95600
H  52.60200 5.40000 47.50700
H  53.11800 6.37300 46.10300
H  48.74800 9.95100 47.63200
H  47.92500 11.15200 46.57300
H  48.91300 10.00900 45.82200
H  42.74600 10.02600 45.64400
H  40.69700 12.04500 49.17400
H  41.93400 11.10900 50.01800
H  40.56700 10.23700 49.45300
Mg -12.80700 17.22100 40.46900
C  -9.85400 15.38200 39.96700
C  -11.01500 20.06800 39.40600
C  -15.77300 18.89200 39.99900
C  -14.54900 14.18100 40.70800
N  -10.68000 17.66200 39.66500
C  -9.65900 16.72900 39.61500
C  -8.26700 17.33500 39.14200
C  -8.59600 18.83300 39.22000
C  -10.14400 18.89100 39.45100
C  -7.79900 19.45100 40.39400
C  -7.80600 16.82000 37.75400
C  -6.35000 16.44900 37.70800
H  -5.67500 16.56300 36.37200
N  -13.28300 19.24400 39.77900
C  -12.43700 20.24200 39.44900
C  -13.21200 21.46700 39.14900
C  -14.58400 21.16500 39.19500
C  -14.59900 19.70000 39.72200
C  -12.56800 22.73400 38.75000
C  -15.81100 22.02200 38.80400
O  -15.58700 23.16900 38.36000
C  -17.17800 21.55500 38.86600
N  -14.87700 16.65400 40.53400
C  -15.90100 17.51000 40.31500
C  -17.18800 16.86100 40.56200
C  -16.78600 15.32400 40.70200
C  -15.31300 15.35200 40.57300
C  -17.91400 17.43200 41.79400
C  -17.47300 14.36500 39.74600
C  -18.04500 13.07400 40.43400
N  -12.34300 15.20500 40.43900
C  -13.16100 14.07500 40.63700
C  -12.27200 12.90300 40.73300
C  -11.02400 13.37800 40.42700
C  -11.06000 14.82000 40.31600
C  -12.72500 11.49500 41.14400
C  -9.64700 12.95100 40.33000
O  -9.10200 11.87900 40.53800
C  -8.85100 14.27400 40.01700
C  -7.90000 14.43600 41.18500
O  -8.01100 14.37600 42.42000
O  -6.68600 14.38200 40.56500
C  -5.51500 14.20800 41.43900
H  -10.46200 21.00200 39.28400
H  -16.77700 19.27200 39.79600
H  -15.08000 13.28800 41.04500
H  -7.53700 16.98000 39.86900
H  -8.26700 19.25500 38.27000
H  -8.47100 19.68300 41.22000
H  -7.30300 20.30900 39.94100
H  -6.93100 18.86100 40.68900
H  -8.13600 17.50600 36.97400
H  -8.33700 15.90600 37.48900
H  -6.29900 15.41100 38.03800
H  -5.78000 17.09800 38.37200
H  -11.59100 22.82900 39.22300
H  -13.13100 23.64300 38.95900
H  -12.52300 22.75600 37.66100
H  -17.39300 21.17600 39.86600
H  -17.17300 20.73900 38.14400
H  -17.88100 22.31100 38.51600
H  -17.80200 16.97200 39.66800
H  -16.87700 14.88400 41.69500
H  -17.51200 18.33200 42.26000
H  -18.01300 16.66400 42.56100
H  -18.88900 17.75500 41.43000
H  -16.73500 13.87800 39.10900
H  -18.29000 14.78900 39.16200
H  -19.11400 13.22100 40.59000
H  -17.57900 12.87700 41.40000
H  -17.90800 12.21900 39.77100
H  -13.75000 11.22800 40.88600
H  -12.77500 11.52100 42.23200
H  -12.04700 10.71700 40.79300
H  -8.29500 14.19000 39.08300
H  -5.67200 13.44700 42.20300
H  -5.20500 15.18800 41.80300
H  -4.69800 13.74900 40.88200

