158

Mg 25.81200 0.83100 29.29900
C  27.84800 0.31500 32.18400
C  23.10800 0.91800 31.38600
C  23.98400 1.28000 26.61400
C  28.71100 0.19100 27.22200
N  25.56000 0.61600 31.48300
C  26.50700 0.57000 32.46100
C  25.83600 0.74100 33.89200
C  24.25300 0.58900 33.55100
C  24.34200 0.73200 32.03200
C  23.57100 -0.71800 34.10300
C  26.34600 2.03500 34.67000
C  26.50900 1.80100 36.21800
H  25.78200 2.82400 37.16300
N  23.78400 1.18300 29.11200
C  22.80900 1.21700 30.02000
C  21.54500 1.48700 29.42700
C  21.76800 1.46800 28.02200
C  23.24600 1.23000 27.83400
C  20.20600 1.47600 30.14800
C  20.71300 1.58900 26.91800
O  20.99000 1.47900 25.70400
C  19.22500 1.81600 27.19200
N  26.31400 0.70200 27.20000
C  25.30700 1.07300 26.31000
C  25.82300 1.29900 24.87500
C  27.25800 0.73900 25.05400
C  27.48000 0.48000 26.56300
C  24.99000 0.73500 23.69200
C  28.36700 1.61100 24.43800
C  28.42400 3.04900 24.96700
N  27.84000 0.20500 29.59000
C  28.86900 0.06200 28.66900
C  30.12600 -0.22800 29.42100
C  29.75900 0.01600 30.82200
C  28.42100 0.24400 30.84300
C  31.38000 -0.54800 28.79800
C  30.31500 0.04900 32.20500
O  31.44600 -0.08000 32.61700
C  29.04800 0.38400 33.07800
C  29.07000 -0.49700 34.27100
O  28.58000 -1.61400 34.28900
O  29.77700 0.03200 35.27300
C  29.87600 -0.83300 36.46300
H  22.20100 0.96400 31.99200
H  23.31600 1.61200 25.81600
H  29.67300 0.15100 26.70800
H  26.09700 -0.15300 34.45800
H  23.66000 1.45200 33.85300
H  24.33600 -1.39100 34.49200
H  22.80800 -1.22600 33.51400
H  22.98900 -0.45500 34.98600
H  25.61800 2.84600 34.70700
H  27.27400 2.38800 34.22000
H  27.59600 1.85100 36.28100
H  26.17200 0.80200 36.49500
H  19.55400 2.33800 30.01200
H  20.30200 1.42300 31.23300
H  19.65300 0.65300 29.69500
H  18.76000 1.04800 27.81000
H  18.53000 1.96600 26.36600
H  19.03400 2.75100 27.71900
H  25.84600 2.38700 24.81700
H  27.28300 -0.17200 24.45700
H  24.36900 -0.08500 24.05200
H  25.62700 0.32500 22.90800
H  24.36100 1.49900 23.23600
H  28.00400 1.64100 23.41000
H  29.31900 1.08300 24.37400
H  29.49700 3.24200 24.98000
H  27.96600 3.07000 25.95600
H  27.79700 3.67800 24.33600
H  31.56400 -0.19400 27.78400
H  31.46700 -1.63300 28.74600
H  32.15200 -0.06400 29.39700
H  29.09100 1.38700 33.50200
H  30.63000 -0.36200 37.09400
H  30.12400 -1.87700 36.27400
H  28.97600 -0.94500 37.06800
Mg 43.87000 3.87200 46.83300
C  41.45000 6.51600 46.66000
C  41.22400 1.71900 46.42600
C  46.15500 1.56200 46.17900
C  46.39700 6.44200 46.84000
N  41.52000 4.09800 46.61500
C  40.84700 5.29600 46.56500
C  39.30200 5.03200 46.44700
C  39.22200 3.41900 46.66300
C  40.70800 3.00300 46.44700
C  38.66200 2.94100 47.99300
C  38.65200 5.57800 45.15400
C  39.36800 5.33300 43.83100
H  39.52600 6.51500 42.96000
N  43.70300 1.84100 46.46100
C  42.52200 1.18200 46.33000
C  42.84200 -0.16700 45.94600
C  44.21000 -0.23400 45.67400
C  44.75900 1.07900 46.11600
C  41.80200 -1.25100 45.69600
C  45.05300 -1.41000 44.98300
O  44.47500 -2.44100 44.61300
C  46.49000 -1.32600 44.75300
N  45.98000 4.00300 46.58600
C  46.69000 2.90000 46.41700
C  48.24200 3.16000 46.49100
C  48.26400 4.66200 46.90100
C  46.79800 5.06000 46.76300
C  49.00000 2.27100 47.43300
C  49.25700 5.43700 46.02300
C  50.16700 6.36100 46.86500
N  44.00200 6.05600 46.72300
C  45.06300 6.91800 46.76700
C  44.59100 8.27600 46.81200
C  43.15500 8.19100 46.78400
C  42.87300 6.76200 46.72300
C  45.54400 9.49800 46.89000
C  41.90300 8.92500 46.73800
O  41.63800 10.11900 46.60900
C  40.79500 7.84000 46.79000
C  39.99800 7.91000 48.04000
O  40.36100 7.73800 49.17100
O  38.79700 8.35600 47.74400
C  37.67700 8.12500 48.71400
H  40.35100 1.06900 46.34400
H  46.86900 0.75400 46.01100
H  47.25000 7.09700 47.03200
H  38.83900 5.59000 47.26100
H  38.63500 3.09300 45.80500
H  37.82900 3.62300 48.16700
H  39.42500 3.03400 48.76600
H  38.35100 1.89700 47.94700
H  38.43800 6.64300 45.23800
H  37.64600 5.17000 45.06500
H  38.76800 4.59000 43.30600
H  40.32000 4.86500 44.08100
H  41.85900 -1.69800 44.70400
H  40.75700 -0.95700 45.79300
H  42.01000 -2.11400 46.32900
H  46.99700 -1.26600 45.71600
H  46.72600 -0.45800 44.13700
H  46.76700 -2.29400 44.33500
H  48.67900 2.95600 45.51400
H  48.47100 4.69000 47.97100
H  49.96100 2.69300 47.72900
H  49.24500 1.33700 46.92700
H  48.42400 2.01500 48.32100
H  48.63600 6.07000 45.39000
H  49.83000 4.77000 45.37700
H  51.17300 5.98900 46.67300
H  50.04900 6.48300 47.94200
H  50.03600 7.29800 46.32400
H  46.05300 9.38000 47.84600
H  45.02300 10.45300 46.81700
H  46.25600 9.42300 46.06800
H  40.07900 7.93500 45.97300
H  37.75500 8.69300 49.64100
H  37.58100 7.07400 48.98300
H  36.73700 8.36000 48.21400

