158

Mg 49.39700 46.26100 43.00200
C  46.37700 46.94900 41.43900
C  49.61400 43.26400 41.09700
C  52.67700 45.95300 43.76100
C  49.59400 49.76300 43.67900
N  48.11700 45.22400 41.41200
C  46.87300 45.69100 41.01800
C  46.19700 44.53500 40.18000
C  47.16500 43.34300 40.43800
C  48.41500 43.96800 40.95900
C  46.63400 42.23900 41.31600
C  45.88000 45.02300 38.74900
C  44.46800 44.67400 38.26700
H  44.37700 44.18400 36.78200
N  50.86600 44.73300 42.62000
C  50.78300 43.60200 41.80400
C  51.95200 42.78800 42.05700
C  52.79600 43.42500 42.93500
C  52.10800 44.75700 43.18900
C  52.14600 41.46600 41.47900
C  54.15200 42.91100 43.44800
O  54.51500 41.78000 43.19500
C  54.97500 43.62000 44.37400
N  50.88500 47.71900 43.56900
C  52.14200 47.24900 43.89700
C  53.00300 48.35400 44.65000
C  52.07900 49.62500 44.50300
C  50.75700 49.06600 43.90600
C  53.34400 48.11700 46.17900
C  52.61400 50.75200 43.66800
C  52.22600 52.15300 44.14000
N  48.12500 47.88900 42.91300
C  48.32100 49.28200 43.20500
C  47.09900 49.95900 43.07400
C  46.28800 49.08000 42.38700
C  47.02300 47.85600 42.24700
C  46.80000 51.31000 43.42700
C  45.00200 48.97900 41.81000
O  44.07000 49.74600 41.90400
C  45.01500 47.58700 41.04100
C  43.89200 46.71200 41.44900
O  43.83300 45.97000 42.44300
O  42.89300 46.93400 40.57200
C  41.59900 46.29900 40.89800
H  49.57000 42.20000 40.85400
H  53.62900 45.85300 44.28700
H  49.65600 50.81700 43.95700
H  45.24300 44.32500 40.66400
H  47.49600 42.90400 39.49700
H  47.40000 41.46400 41.30400
H  45.68000 41.85400 40.95600
H  46.63100 42.53100 42.36600
H  46.62200 44.69100 38.02200
H  46.00900 46.10400 38.78500
H  43.87900 45.58900 38.20000
H  43.92700 43.94600 38.87200
H  52.66000 41.65000 40.53600
H  51.18900 40.98700 41.27000
H  52.63700 40.79200 42.18100
H  55.41700 44.51100 43.92700
H  55.71800 42.95900 44.82200
H  54.25600 43.90400 45.14300
H  53.91800 48.44700 44.06400
H  51.87900 50.11100 45.45800
H  52.74900 48.65700 46.91600
H  54.36200 48.47900 46.32600
H  53.44300 47.04300 46.33100
H  52.07400 50.65500 42.72600
H  53.66400 50.58200 43.43000
H  52.93400 52.96500 43.97400
H  52.00300 52.18900 45.20600
H  51.31800 52.41400 43.59700
H  47.18000 51.95200 42.63300
H  47.38700 51.57100 44.30700
H  45.76700 51.63200 43.56000
H  44.96500 47.77200 39.96800
H  41.12500 46.62300 41.82500
H  41.66300 45.21300 40.84400
H  40.92300 46.53000 40.07500
Mg 9.91900 48.10300 25.64500
C  7.92400 48.21800 28.56200
C  12.49300 49.47500 27.32100
C  11.73400 47.86100 22.85200
C  7.02700 47.35200 23.82800
N  10.15500 48.68000 27.70700
C  9.23800 48.65100 28.75300
C  9.92400 49.09000 29.99200
C  11.09700 49.93700 29.56400
C  11.24700 49.37300 28.04600
C  10.89500 51.47000 29.53000
C  10.31400 47.83000 30.82900
C  10.31000 47.99500 32.43700
H  10.14900 46.72100 33.25100
N  11.91600 48.51800 25.18700
C  12.84600 49.08900 26.03700
C  14.16400 49.00200 25.39700
C  13.91000 48.56600 24.01500
C  12.47600 48.27300 23.97200
C  15.41300 49.29300 26.11700
C  14.80400 48.32400 22.79900
O  14.40500 47.84300 21.77000
C  16.21400 48.65900 22.95900
N  9.42300 47.72600 23.62500
C  10.36000 47.67100 22.68200
C  9.74000 47.33600 21.31300
C  8.25400 46.90800 21.70600
C  8.24200 47.34700 23.09600
C  9.75400 48.61600 20.38700
C  7.84400 45.38000 21.56400
C  8.70600 44.37000 22.30900
N  7.86300 47.88300 26.02800
C  6.78600 47.64800 25.19000
C  5.58500 47.61800 25.96800
C  6.01600 47.73200 27.31900
C  7.37500 47.98500 27.30100
C  4.24600 47.29400 25.42600
C  5.53600 47.75200 28.65000
O  4.43000 47.54500 29.10000
C  6.79200 48.05700 29.55800
C  7.02700 46.90600 30.55400
O  7.52800 45.82200 30.31500
O  6.41600 47.25200 31.77900
C  6.39400 46.08700 32.67400
H  13.30600 50.00900 27.81600
H  12.15900 47.74800 21.85300
H  6.18700 47.11700 23.17200
H  9.22600 49.70000 30.56600
H  11.92200 49.68300 30.23100
H  9.94700 51.70700 30.01400
H  10.75400 51.83600 28.51300
H  11.72100 51.93900 30.06500
H  11.35000 47.64600 30.54600
H  9.74900 46.98200 30.44200
H  9.54900 48.67800 32.81400
H  11.29000 48.46100 32.53900
H  15.36500 48.99200 27.16300
H  15.64700 50.35600 26.05200
H  16.21000 48.69900 25.66900
H  16.73600 48.54900 22.00800
H  16.58000 47.98000 23.72900
H  16.21200 49.70300 23.27100
H  10.11600 46.47400 20.76000
H  7.53600 47.53300 21.17500
H  10.56400 48.64200 19.65800
H  9.69400 49.52700 20.98300
H  8.80500 48.52200 19.85900
H  7.79500 45.02900 20.53300
H  6.83300 45.33200 21.96700
H  9.42500 44.89000 22.94200
H  9.38800 43.80700 21.67200
H  8.17000 43.63100 22.90600
H  3.82500 46.47500 26.00800
H  4.27200 46.99200 24.37900
H  3.53200 48.08900 25.64200
H  6.64400 48.97600 30.12500
H  5.51600 45.48900 32.43200
H  6.17300 46.33900 33.71100
H  7.25900 45.42600 32.60600

