158

Mg 0.24700 8.38600 27.71900
C  0.88400 10.45800 30.52800
C  -0.15700 5.75300 29.73000
C  -0.08000 6.58000 24.88600
C  1.04100 11.23000 25.64200
N  0.57200 8.11300 29.88600
C  0.67800 9.05200 30.82900
C  0.28500 8.53700 32.23900
C  0.32500 6.96100 31.96000
C  0.26500 6.90700 30.48300
C  1.49100 6.16500 32.56400
C  -0.99300 9.04400 32.80500
C  -1.00300 9.32200 34.29600
H  -0.02000 8.49800 35.17300
N  -0.12900 6.46700 27.38500
C  -0.34400 5.54200 28.31700
C  -0.87800 4.34000 27.78300
C  -0.83600 4.54900 26.37400
C  -0.29200 5.91700 26.11200
C  -1.29200 3.12400 28.62000
C  -1.34900 3.60500 25.23500
O  -1.20900 3.82900 23.99200
C  -2.08600 2.41600 25.68000
N  0.38400 8.76800 25.66200
C  0.29900 7.86300 24.68100
C  0.75700 8.38500 23.34700
C  0.76300 9.94100 23.55800
C  0.74700 9.99100 25.06000
C  2.06300 7.75700 22.71300
C  -0.42200 10.66200 22.98700
C  -1.84100 10.27000 23.50800
N  0.90700 10.46300 27.97900
C  1.10300 11.43800 27.06000
C  1.31800 12.72900 27.77000
C  1.14900 12.39500 29.13400
C  1.00400 11.01900 29.16300
C  1.58500 14.10000 27.21700
C  1.14100 12.89100 30.43800
O  1.23300 14.00000 30.90500
C  0.85000 11.66900 31.33700
C  1.82000 11.64800 32.46700
O  3.04500 11.41500 32.29900
O  1.25400 12.14800 33.68400
C  2.07100 12.06000 34.88800
H  -0.47600 4.96900 30.42100
H  -0.05300 6.01700 23.95100
H  1.23100 12.12200 25.04100
H  1.12100 8.61800 32.93300
H  -0.59200 6.56000 32.39200
H  2.10400 5.74900 31.76500
H  1.08200 5.28000 33.05200
H  2.14800 6.76600 33.19400
H  -1.81500 8.33900 32.67700
H  -1.16300 9.97600 32.26600
H  -2.02700 9.20000 34.64900
H  -0.67500 10.31100 34.61500
H  -0.71200 2.32500 28.15900
H  -2.36900 2.98500 28.52400
H  -1.00300 3.14900 29.67100
H  -1.54000 1.60400 26.16000
H  -2.67300 2.06400 24.83200
H  -2.85800 2.67100 26.40600
H  -0.09300 8.28800 22.67200
H  1.68100 10.40600 23.19800
H  3.01400 8.28700 22.76300
H  1.74300 7.41300 21.72900
H  2.28600 6.88500 23.32800
H  -0.38400 10.64000 21.89800
H  -0.24900 11.71100 23.23000
H  -2.36300 11.15300 23.87600
H  -1.93400 9.59200 24.35600
H  -2.45800 9.86700 22.70500
H  2.51000 14.15800 26.64300
H  1.57500 14.78000 28.06900
H  0.81700 14.38700 26.49900
H  -0.09700 11.65000 31.87800
H  2.33400 12.98200 35.40700
H  3.06800 11.65300 34.71800
H  1.48400 11.56400 35.66100
Mg 26.69500 50.86400 25.92200
C  24.65000 51.94200 28.66200
C  28.92100 49.60200 28.19600
C  28.74700 50.14300 23.43300
C  24.65100 52.67200 23.77600
N  26.67800 50.75200 28.20300
C  25.80500 51.24600 29.11500
C  26.22700 50.91500 30.51300
C  27.66100 50.27800 30.28300
C  27.83200 50.27800 28.78400
C  28.76600 51.10400 31.03100
C  25.23100 50.05300 31.25100
C  24.53900 50.83700 32.48400
H  24.55100 50.12200 33.85200
N  28.54800 49.93700 25.82200
C  29.22300 49.40300 26.85500
C  30.36100 48.64000 26.37200
C  30.39700 48.89300 24.99800
C  29.21900 49.69000 24.65400
C  31.22900 47.77700 27.24700
C  31.32500 48.31200 24.01300
O  31.21100 48.56400 22.85900
C  32.41400 47.35100 24.42400
N  26.70800 51.33400 23.88800
C  27.63200 50.91000 23.05200
C  27.25000 51.20400 21.62100
C  25.78500 51.84700 21.74500
C  25.71500 51.94300 23.20600
C  28.24600 52.14200 20.81400
C  24.58800 51.07800 21.12600
C  23.99300 51.60600 19.84500
N  24.88900 51.95000 26.08400
C  24.25400 52.69900 25.16300
C  23.14100 53.46100 25.79000
C  23.23500 53.13200 27.19200
C  24.24600 52.10500 27.25600
C  22.16700 54.41200 25.05300
C  22.65500 53.43900 28.48800
O  21.70900 54.10800 28.79600
C  23.56900 52.65600 29.48900
C  24.06600 53.70800 30.47300
O  25.07800 54.29800 30.29800
O  23.30300 53.79300 31.60400
C  23.85400 54.62900 32.75000
H  29.54700 49.09600 28.93300
H  29.44500 49.95700 22.61500
H  24.00400 53.23300 23.09900
H  26.32700 51.84700 31.07000
H  27.72200 49.31300 30.78500
H  28.36600 52.07400 31.32600
H  29.61300 51.34500 30.38900
H  29.18300 50.53000 31.85900
H  25.59000 49.05700 31.51000
H  24.42400 49.87500 30.54100
H  23.50000 50.98400 32.19000
H  24.97600 51.81800 32.66900
H  31.32800 46.76500 26.85500
H  30.92000 47.57400 28.27300
H  32.24000 48.18600 27.23400
H  32.92000 47.76900 25.29500
H  33.11300 47.06700 23.63800
H  32.07800 46.36800 24.75200
H  27.13300 50.26200 21.08500
H  25.87300 52.84400 21.31300
H  29.17200 52.16200 21.38800
H  27.89100 53.17100 20.76900
H  28.40300 51.67400 19.84200
H  23.78700 51.03000 21.86400
H  24.77700 50.01500 20.98300
H  22.96700 51.90100 20.06300
H  24.08500 50.94500 18.98300
H  24.46600 52.47900 19.39500
H  22.67500 54.76900 24.15700
H  21.82600 55.14000 25.78900
H  21.31300 53.86800 24.65000
H  23.01000 52.00100 30.15800
H  22.97100 54.68300 33.38700
H  24.07600 55.64500 32.42500
H  24.62500 54.06500 33.27600

