158

Mg 25.24100 1.23700 30.01400
C  27.26600 1.17400 32.76400
C  22.54800 1.53800 31.99400
C  23.44700 1.19400 27.16700
C  28.11100 0.51900 28.09300
N  24.96500 1.32800 32.18200
C  25.90400 1.45000 33.12400
C  25.33500 1.60900 34.54700
C  23.74500 1.64600 34.29600
C  23.72100 1.39700 32.76900
C  22.86900 0.60700 35.13300
C  25.91200 2.79600 35.39000
C  26.42400 2.53200 36.83000
H  26.10600 3.46400 37.98500
N  23.21600 1.18200 29.59300
C  22.27300 1.38900 30.56900
C  20.97800 1.49900 29.87300
C  21.22400 1.46100 28.50000
C  22.67100 1.21500 28.34900
C  19.67300 1.66800 30.65000
C  20.17300 1.51500 27.32200
O  20.46200 1.44100 26.10000
C  18.63200 1.55100 27.67500
N  25.71000 0.79400 27.87700
C  24.76200 0.97500 26.92400
C  25.37000 1.06100 25.52200
C  26.93100 0.79200 25.82400
C  26.91100 0.63800 27.34000
C  24.74000 0.11100 24.45200
C  27.95300 1.84400 25.20300
C  27.86500 3.22400 25.88800
N  27.22100 0.82100 30.34000
C  28.25300 0.56500 29.47900
C  29.49800 0.30400 30.22000
C  29.14400 0.54800 31.49500
C  27.76400 0.90400 31.52300
C  30.89100 -0.07400 29.63000
C  29.69200 0.63700 32.85600
O  30.77100 0.53800 33.33000
C  28.39600 0.99000 33.76900
C  28.18000 -0.10600 34.76200
O  27.58000 -1.14100 34.52100
O  28.61700 0.31300 36.00700
C  28.50200 -0.66800 37.09700
H  21.66300 1.58000 32.63200
H  22.80500 1.28900 26.28900
H  29.02200 0.31500 27.52600
H  25.61300 0.73500 35.13600
H  23.27900 2.62600 34.40400
H  22.38200 1.18500 35.91900
H  23.58300 -0.13500 35.49100
H  22.24900 0.06200 34.42200
H  25.15600 3.57900 35.44200
H  26.76200 3.17800 34.82400
H  27.50600 2.44000 36.93000
H  26.14100 1.50400 37.05400
H  19.76600 1.79800 31.72800
H  19.11600 0.73000 30.64600
H  19.09000 2.55200 30.39200
H  18.33000 0.63500 28.18400
H  18.14700 1.59500 26.70000
H  18.36000 2.47400 28.18600
H  25.26700 2.11000 25.24700
H  27.21900 -0.21100 25.50900
H  24.13700 0.65400 23.72400
H  24.05400 -0.59900 24.91300
H  25.53900 -0.31100 23.84300
H  27.74200 1.99600 24.14500
H  28.92100 1.38700 25.41300
H  27.73400 3.05300 26.95700
H  27.07900 3.84000 25.45100
H  28.87700 3.60100 25.74600
H  30.76600 -0.47900 28.62600
H  31.30400 -0.83000 30.29700
H  31.49100 0.83700 29.63900
H  28.59400 1.88400 34.36100
H  28.98100 -1.59500 36.78100
H  27.46700 -0.82200 37.40300
H  29.01700 -0.34000 38.00000
Mg 54.36600 24.14200 44.76300
C  52.12400 26.60200 43.97600
C  52.24800 21.77800 43.82400
C  56.96100 21.96800 44.98000
C  56.84600 26.77100 45.31000
N  52.46300 24.22300 43.83100
C  51.64200 25.33800 43.70300
C  50.22800 24.92700 43.35800
C  50.19000 23.37600 43.48400
C  51.73600 23.05200 43.74400
C  49.22200 22.73000 44.55800
C  49.74400 25.37700 41.89500
C  48.23900 24.96500 41.54200
H  47.98900 24.26700 40.21400
N  54.63200 22.06000 44.38700
C  53.56000 21.32400 43.99000
C  54.05000 19.96900 44.04600
C  55.40900 19.90500 44.39000
C  55.78000 21.33600 44.54200
C  53.09100 18.74800 43.81700
C  56.26600 18.65500 44.63200
O  55.63500 17.64600 44.64000
C  57.70500 18.71100 44.87700
N  56.65400 24.37100 44.80900
C  57.38800 23.27000 45.14400
C  58.78400 23.60400 45.73100
C  58.87200 25.14300 45.51600
C  57.40000 25.51600 45.11600
C  58.99600 23.30800 47.28100
C  59.86600 25.71700 44.46000
C  59.42200 25.56000 42.95000
N  54.47700 26.27700 44.84300
C  55.45600 27.20100 45.13700
C  54.85600 28.46700 45.25400
C  53.55600 28.28700 44.89000
C  53.38600 26.97400 44.54900
C  55.55500 29.76300 45.62800
C  52.21500 28.94000 44.70700
O  51.87400 30.09600 44.98800
C  51.33700 27.93100 43.91200
C  51.17400 28.45500 42.54500
O  52.08400 28.42100 41.70700
O  49.89500 28.89700 42.39400
C  49.56100 29.29300 41.02500
H  51.46400 21.05100 43.60000
H  57.80000 21.31400 45.22800
H  57.56900 27.58400 45.40600
H  49.55200 25.30500 44.12400
H  49.94900 22.95800 42.50700
H  48.92300 23.48100 45.28900
H  49.85100 22.03600 45.11500
H  48.30600 22.32200 44.13000
H  50.43300 25.04700 41.11800
H  49.72000 26.46600 41.86300
H  47.62800 25.86700 41.58800
H  47.94000 24.27300 42.32900
H  52.99400 18.59800 42.74200
H  52.15000 19.02600 44.29200
H  53.30000 17.77700 44.26700
H  58.11300 17.70500 44.97100
H  58.17100 19.26800 45.69000
H  58.10400 19.11200 43.94500
H  59.58400 23.10600 45.18300
H  59.12000 25.60100 46.47400
H  58.30100 22.54500 47.63100
H  58.75200 24.17100 47.90100
H  60.04000 23.17400 47.56600
H  60.85000 25.27800 44.62300
H  60.03900 26.76300 44.71400
H  58.86300 26.42800 42.59900
H  58.75600 24.71600 42.77300
H  60.25400 25.36300 42.27400
H  54.97500 30.60100 46.01500
H  56.15900 30.10500 44.78700
H  56.17700 29.48400 46.47800
H  50.39200 27.83100 44.44500
H  49.13900 30.28600 41.17400
H  48.76100 28.67700 40.61500
H  50.42600 29.30000 40.36200

