158

Mg 35.86300 0.67800 30.42500
C  33.55900 1.24200 33.08300
C  38.34800 0.83900 32.73500
C  37.98800 0.36500 27.83900
C  33.21800 1.11200 28.12500
N  35.88000 1.09500 32.66600
C  34.84600 1.10600 33.59600
C  35.25200 1.27900 34.97500
C  36.73100 1.73500 34.75800
C  37.05400 1.09900 33.30300
C  36.99800 3.29000 34.89900
C  35.11500 0.03700 35.86100
C  34.67600 0.51900 37.30700
H  35.01200 1.93000 37.80400
N  37.85200 0.57000 30.32300
C  38.70300 0.57700 31.37800
C  40.04700 0.24800 30.94000
C  40.01300 0.13600 29.52400
C  38.56300 0.41200 29.17900
C  41.21400 0.17200 31.91000
C  41.10200 -0.09500 28.59800
O  40.89200 -0.17700 27.41900
C  42.53900 -0.42300 29.02700
N  35.65800 0.74200 28.30700
C  36.65800 0.51100 27.43000
C  36.29800 0.61300 25.97400
C  34.76900 0.79800 26.06100
C  34.48500 0.87800 27.60000
C  36.99400 1.66500 25.03700
C  33.99500 -0.20600 25.14100
C  33.48900 -1.46400 25.87800
N  33.80000 0.96700 30.54400
C  32.91000 1.17600 29.50400
C  31.62200 1.52400 30.06600
C  31.77400 1.51800 31.48500
C  33.16100 1.19200 31.70200
C  30.31400 1.63400 29.27200
C  31.13700 1.75900 32.75900
O  29.93600 1.96700 32.95800
C  32.29600 1.63900 33.80900
C  32.35200 2.96400 34.44900
O  32.50300 4.05500 33.88800
O  32.04100 2.82900 35.83000
C  31.60700 4.13100 36.40700
H  39.20900 0.97400 33.39100
H  38.61800 0.14900 26.97400
H  32.49400 1.37100 27.35000
H  34.66600 2.08100 35.42200
H  37.44500 1.28700 35.44900
H  37.61400 3.61600 35.73700
H  36.08500 3.84200 35.12000
H  37.44500 3.73900 34.01200
H  35.93100 -0.66400 36.03400
H  34.33600 -0.55200 35.37500
H  35.04300 -0.22100 38.01900
H  33.58800 0.56100 37.27800
H  41.08500 0.73500 32.83400
H  42.14700 0.59300 31.53500
H  41.39500 -0.82100 32.32100
H  42.94700 0.39400 29.62300
H  43.06700 -0.51500 28.07700
H  42.73300 -1.37100 29.52700
H  36.35400 -0.37500 25.51700
H  34.48600 1.78400 25.69100
H  37.86500 2.14800 25.48000
H  36.31400 2.44300 24.69000
H  37.29700 1.17600 24.11200
H  34.56100 -0.51800 24.26300
H  33.10800 0.30400 24.76500
H  33.96000 -1.48000 26.86100
H  33.92200 -2.41400 25.56700
H  32.42400 -1.45700 26.11300
H  29.77200 0.79000 29.70000
H  30.57700 1.56900 28.21600
H  29.76900 2.56900 29.40500
H  32.00800 0.94200 34.59600
H  31.35500 4.89700 35.67400
H  32.39900 4.49500 37.06100
H  30.77900 3.90700 37.08000
Mg 9.50200 47.31900 25.85600
C  7.38700 47.02400 28.48900
C  12.05100 48.12300 27.95600
C  11.48500 47.71600 23.14900
C  6.76700 46.99400 23.54300
N  9.75700 47.56900 27.94600
C  8.72900 47.28400 28.88700
C  9.23100 47.57700 30.35100
C  10.75000 47.83400 30.15800
C  10.87900 47.82300 28.58000
C  11.21700 49.20700 30.81600
C  8.80900 46.46200 31.29300
C  9.80300 46.06500 32.38200
H  9.23600 45.43900 33.68500
N  11.50800 47.89500 25.55300
C  12.41100 48.18300 26.56700
C  13.71100 48.42500 25.99800
C  13.57700 48.21200 24.52300
C  12.14500 47.91900 24.34500
C  14.97700 48.62700 26.84000
C  14.68600 48.23400 23.31800
O  14.40100 48.09000 22.10000
C  16.15700 48.46600 23.72000
N  9.15600 47.48700 23.58800
C  10.17100 47.61300 22.74200
C  9.77700 47.47600 21.27900
C  8.15000 47.37800 21.41100
C  8.03400 47.25400 22.94000
C  10.19100 48.72500 20.33300
C  7.49900 46.18300 20.65700
C  6.84500 46.65100 19.37200
N  7.48200 47.05700 25.91000
C  6.47000 46.94000 24.96900
C  5.20100 46.84400 25.58500
C  5.51200 46.83300 26.96600
C  6.91000 46.93000 27.13800
C  3.83400 46.77300 24.87100
C  4.91600 46.71700 28.30000
O  3.75800 46.47200 28.54700
C  6.12400 46.96400 29.31600
C  6.01900 45.82500 30.32800
O  6.22600 44.68500 30.08500
O  5.54100 46.36400 31.48300
C  5.18400 45.35700 32.51000
H  12.89200 48.19700 28.64800
H  12.11400 47.66600 22.25900
H  5.85800 47.03500 22.93800
H  8.77000 48.52100 30.64200
H  11.36200 47.06500 30.62900
H  10.49400 49.69800 31.46700
H  11.49600 49.83000 29.96600
H  11.98500 49.17000 31.58800
H  8.66300 45.60000 30.64200
H  7.91000 46.73300 31.84600
H  10.42000 46.92200 32.65100
H  10.47600 45.25300 32.10800
H  14.78800 48.47600 27.90300
H  15.31300 49.62200 26.54700
H  15.78400 47.97300 26.51100
H  16.24600 49.35600 24.34200
H  16.62000 48.59000 22.74100
H  16.59000 47.49500 23.96000
H  10.25900 46.54300 20.98500
H  7.69500 48.34400 21.19300
H  10.44600 49.55500 20.99300
H  9.39600 49.07200 19.67300
H  11.04500 48.56500 19.67500
H  6.77500 45.69700 21.31100
H  8.21800 45.44500 20.29900
H  7.22200 46.05300 18.54200
H  7.06300 47.70400 19.19300
H  5.75800 46.58100 19.34800
H  3.21000 46.16800 25.52900
H  4.02400 46.23200 23.94400
H  3.48000 47.78300 24.66900
H  5.90600 47.95300 29.71800
H  4.73900 44.42400 32.16700
H  4.53600 45.87800 33.21500
H  6.17400 45.18800 32.93400

