158

Mg 40.88400 9.13300 29.41800
C  42.49600 10.42700 32.17100
C  38.52200 7.80900 31.50800
C  39.30000 7.86700 26.63600
C  43.48000 10.24000 27.49900
N  40.60300 9.04200 31.56100
C  41.27600 9.80500 32.54500
C  40.50400 9.90700 33.92100
C  39.33300 8.87300 33.69200
C  39.43000 8.51500 32.23800
C  39.21200 7.50900 34.53800
C  40.13700 11.35100 34.30600
C  39.29800 11.39700 35.61700
H  39.82100 12.06500 36.80900
N  39.15700 7.92100 29.12900
C  38.34500 7.50000 30.11400
C  37.21500 6.85600 29.50000
C  37.23200 7.11300 28.10600
C  38.61200 7.66900 27.89900
C  36.12300 6.27300 30.30600
C  36.23800 7.01100 27.03700
O  36.44600 7.32000 25.89500
C  34.82500 6.44900 27.39600
N  41.28700 9.08400 27.48100
C  40.54400 8.48100 26.52600
C  41.10800 8.59400 25.08800
C  42.29100 9.59900 25.31700
C  42.37400 9.63400 26.84300
C  41.41900 7.33300 24.41300
C  42.25000 11.01700 24.77800
C  40.94900 11.85100 24.93700
N  42.68900 10.08700 29.66600
C  43.66100 10.49800 28.84300
C  44.67400 11.28600 29.49600
C  44.26100 11.26000 30.81000
C  43.08800 10.49900 30.88000
C  45.88900 11.80000 28.88000
C  44.62500 11.65000 32.14600
O  45.53000 12.37800 32.55800
C  43.52000 11.12300 33.10900
C  44.08900 10.25700 34.15000
O  44.87500 9.35900 33.92200
O  43.90700 10.86500 35.38400
C  44.30600 10.11700 36.55200
H  37.69400 7.48200 32.14000
H  38.87100 7.36300 25.76800
H  44.27300 10.62400 26.85400
H  41.11800 9.39800 34.66300
H  38.33600 9.28000 33.86000
H  39.31900 6.52000 34.09200
H  38.17900 7.50300 34.88800
H  39.90000 7.57500 35.38100
H  39.69200 11.91200 33.48400
H  41.08000 11.85400 34.52100
H  39.22300 10.36100 35.94600
H  38.25500 11.58500 35.36000
H  36.00600 5.21900 30.05600
H  35.14500 6.74200 30.20300
H  36.37900 6.22800 31.36500
H  34.78400 5.47600 27.88400
H  34.31300 6.32800 26.44100
H  34.39200 7.21700 28.03700
H  40.31800 9.02500 24.47300
H  43.17900 9.17400 24.85000
H  41.18400 6.48700 25.05900
H  42.44600 7.04200 24.19200
H  40.78300 7.14900 23.54700
H  42.43600 10.94600 23.70600
H  43.08500 11.59300 25.17800
H  40.27000 11.67600 24.10200
H  41.21800 12.90100 25.04900
H  40.40300 11.67700 25.86400
H  45.98000 11.70800 27.79800
H  46.71600 11.25200 29.33200
H  46.04700 12.86000 29.07900
H  43.09000 12.00200 33.59000
H  45.23100 10.43300 37.03500
H  44.27700 9.05800 36.29500
H  43.50000 10.43500 37.21400
Mg 42.80300 41.23900 25.99900
C  41.91700 43.62500 28.48600
C  44.04900 39.35700 28.61300
C  43.65500 39.09400 23.77600
C  41.86400 43.57500 23.64200
N  42.85500 41.43400 28.40400
C  42.46100 42.46000 29.11700
C  42.49300 42.00200 30.62200
C  43.69900 40.99600 30.57800
C  43.53800 40.52300 29.11100
C  45.08200 41.71100 30.75800
C  41.01700 41.65100 31.12000
C  40.70100 42.19500 32.53300
H  41.69300 41.91800 33.69200
N  43.61700 39.43300 26.16000
C  44.03600 38.81200 27.33500
C  44.53700 37.47100 26.94100
C  44.36400 37.34300 25.52700
C  43.87300 38.60000 25.04800
C  45.02200 36.55600 27.90400
C  44.65200 36.10100 24.67600
O  44.68500 36.10700 23.43800
C  44.80700 34.73300 25.42600
N  42.84200 41.25300 23.98100
C  43.22800 40.30800 23.20800
C  43.02100 40.56300 21.76500
C  42.36600 41.99800 21.76000
C  42.35100 42.32400 23.20700
C  44.32700 40.45100 20.87000
C  40.97500 42.11400 21.13900
C  39.84800 41.38800 21.86300
N  42.08600 43.24400 25.95500
C  41.80300 44.09900 24.89700
C  41.30900 45.37400 25.36000
C  41.33600 45.16700 26.76500
C  41.82400 43.86700 27.08900
C  41.10000 46.62900 24.59200
C  41.00100 45.84300 27.93100
O  40.62700 47.01900 28.15600
C  41.28500 44.85700 29.12700
C  42.15500 45.50700 30.13400
O  43.27500 45.88700 29.89400
O  41.54800 45.31600 31.31400
C  42.48700 45.45900 32.44600
H  44.50500 38.73100 29.38300
H  43.68500 38.33000 22.99700
H  41.40100 44.23000 22.90100
H  42.65700 42.94400 31.14600
H  43.55800 40.09000 31.16700
H  45.52200 41.41600 31.71100
H  44.95000 42.79200 30.75300
H  45.73900 41.53800 29.90600
H  41.03900 40.56500 31.20500
H  40.21800 41.85400 30.40800
H  39.73500 41.76300 32.79600
H  40.46400 43.25900 32.52300
H  44.97000 36.95600 28.91700
H  46.05400 36.42100 27.57800
H  44.45100 35.62900 27.94600
H  43.91700 34.46400 25.99400
H  45.64800 34.83100 26.11300
H  45.10500 33.93000 24.75200
H  42.19000 39.94500 21.42500
H  42.98000 42.71900 21.21900
H  44.14100 39.72200 20.08100
H  45.15100 40.23300 21.55000
H  44.52000 41.41900 20.40900
H  41.13900 41.72200 20.13500
H  40.75200 43.17600 21.03300
H  39.14500 42.15200 22.19500
H  40.12100 40.86700 22.78100
H  39.41500 40.70300 21.13400
H  41.35600 47.40900 25.30900
H  40.02200 46.74600 24.48700
H  41.75000 46.85500 23.74600
H  40.27500 44.74800 29.52000
H  41.98100 45.20700 33.37900
H  42.58900 46.54400 32.48400
H  43.40700 44.87600 32.41400

