158

Mg -1.66000 17.12400 26.15300
C  -1.95400 14.89600 28.72900
C  -2.10700 19.77200 28.37200
C  -1.50800 19.34800 23.49400
C  -1.63600 14.60100 23.85300
N  -2.01200 17.29700 28.35600
C  -2.07200 16.24500 29.23000
C  -2.50700 16.77800 30.68400
C  -2.16300 18.31300 30.52300
C  -2.09800 18.48500 28.98900
C  -3.21200 19.20900 31.32200
C  -1.64600 16.03600 31.74800
C  -1.26400 16.61400 33.15600
H  -1.22900 15.73600 34.40400
N  -1.84100 19.21000 26.01900
C  -1.96100 20.15500 27.01900
C  -1.96700 21.52500 26.51600
C  -1.96400 21.43800 25.15200
C  -1.82900 19.92800 24.81000
C  -2.19200 22.68900 27.40800
C  -2.01400 22.55300 24.09200
O  -2.09300 22.25300 22.90300
C  -1.91500 23.99000 24.53500
N  -1.67300 17.00500 23.97000
C  -1.53200 18.03000 23.09000
C  -1.10600 17.58400 21.70100
C  -0.93100 15.97600 21.89600
C  -1.46400 15.87000 23.32300
C  -2.02200 18.11200 20.57900
C  0.50200 15.39500 21.68200
C  0.57000 14.28300 20.66500
N  -1.90200 15.15300 26.19400
C  -1.91900 14.24400 25.17900
C  -2.04300 12.93400 25.70700
C  -1.98000 13.12800 27.14700
C  -1.97500 14.52900 27.34200
C  -2.15600 11.68200 24.91700
C  -1.94600 12.43700 28.38800
O  -1.93800 11.26500 28.60800
C  -2.06900 13.51600 29.44300
C  -0.96800 13.33700 30.40600
O  0.17500 13.70000 30.23200
O  -1.46400 12.63500 31.54000
C  -0.55500 12.37300 32.61000
H  -2.18600 20.57200 29.11100
H  -1.46300 20.05600 22.66400
H  -1.33100 13.83400 23.13700
H  -3.54800 16.46200 30.73500
H  -1.19500 18.63000 30.91100
H  -3.81500 19.84600 30.67600
H  -2.67100 19.79600 32.06400
H  -3.90700 18.62300 31.92200
H  -0.66700 15.89100 31.29000
H  -2.19400 15.10900 31.91800
H  -1.90500 17.44300 33.45700
H  -0.25500 17.01300 33.05300
H  -3.01800 23.33600 27.11100
H  -1.25400 23.24100 27.44800
H  -2.54800 22.47500 28.41600
H  -1.02400 24.05900 25.15800
H  -2.86000 24.26800 25.00300
H  -1.78700 24.38200 23.52600
H  -0.17900 18.13500 21.54200
H  -1.64000 15.52700 21.20100
H  -2.80700 18.71500 21.03500
H  -2.32200 17.15000 20.16300
H  -1.57200 18.63000 19.73200
H  0.78100 14.92000 22.62200
H  1.17900 16.19000 21.37100
H  -0.38700 13.91800 20.29200
H  1.05600 13.42000 21.12000
H  1.26200 14.47800 19.84600
H  -1.28600 11.06500 25.14100
H  -2.33600 11.84400 23.85400
H  -3.06100 11.28100 25.37400
H  -3.02700 13.41600 29.95400
H  -1.21200 12.27300 33.47300
H  0.29500 13.05400 32.66600
H  -0.16700 11.37200 32.42300
Mg 7.20100 54.06800 41.47300
C  6.76900 50.53200 41.54300
C  10.52600 53.23100 40.44600
C  7.71100 57.37100 40.91900
C  3.82100 54.45000 41.53600
N  8.45900 52.10900 40.99200
C  8.06800 50.81900 41.08300
C  9.23600 49.81600 40.96700
C  10.45500 50.73900 41.03900
C  9.75700 52.12000 40.80300
C  11.39100 50.71500 42.29400
C  9.29800 48.83200 39.79800
C  9.07800 49.48000 38.42900
H  7.72600 49.17100 37.74800
N  8.96200 55.16300 40.91000
C  10.18900 54.68000 40.46300
C  11.08900 55.82000 40.35500
C  10.27500 56.99400 40.45600
C  8.88100 56.56300 40.75600
C  12.55500 55.61600 40.07600
C  10.81300 58.41500 40.40100
O  11.97000 58.56600 40.04300
C  10.01100 59.58100 40.79700
N  5.93800 55.62600 41.32200
C  6.39600 56.94800 41.17600
C  5.15200 57.83800 41.14800
C  3.93100 56.96600 41.39200
C  4.56600 55.59600 41.39500
C  5.17600 59.14100 42.06500
C  2.89200 57.14400 40.23000
C  1.41800 56.74300 40.53200
N  5.60600 52.87100 41.64000
C  4.24000 53.07400 41.68600
C  3.49000 51.92200 41.93200
C  4.45600 50.95700 42.03400
C  5.70000 51.51500 41.73800
C  2.05300 51.80600 42.20400
C  4.73000 49.52500 42.28000
O  3.98100 48.66200 42.63500
C  6.19300 49.13000 41.78600
C  5.79700 48.35700 40.62800
O  5.24900 48.79700 39.61300
O  6.12400 46.98700 40.89200
C  5.89500 45.89500 39.86700
H  11.59800 53.05600 40.32900
H  7.79200 58.46000 40.88200
H  2.76700 54.59200 41.78700
H  9.28000 49.17200 41.84500
H  11.14000 50.54800 40.21300
H  11.23200 49.84300 42.93000
H  11.25500 51.61300 42.89600
H  12.44900 50.78200 42.04300
H  8.58500 48.02200 39.95000
H  10.22600 48.26100 39.83800
H  9.82700 49.17800 37.69700
H  9.26700 50.54900 38.52700
H  12.67200 55.10400 39.12100
H  12.88600 54.97200 40.89100
H  13.09700 56.56100 40.05600
H  10.70600 60.34300 41.15100
H  9.33000 59.34000 41.61300
H  9.47800 60.08300 39.99000
H  5.05200 58.23400 40.13700
H  3.59400 57.15700 42.41100
H  5.74000 59.88700 41.50600
H  5.80500 58.87600 42.91500
H  4.21300 59.33600 42.53700
H  3.26400 56.57200 39.38000
H  2.82700 58.21900 40.06100
H  1.31100 56.56200 41.60200
H  1.13500 55.82200 40.02200
H  0.80900 57.61300 40.28900
H  1.54600 51.26000 41.40800
H  1.63300 52.81200 42.17400
H  1.85400 51.36700 43.18100
H  6.71100 48.63100 42.60500
H  4.86100 45.55200 39.83600
H  6.64000 45.10700 39.97500
H  6.06300 46.32500 38.87900

