158

Mg 10.17000 48.90600 25.97100
C  7.54000 49.33000 28.44900
C  12.28100 50.42200 28.09700
C  12.25500 49.05000 23.46100
C  7.63000 47.82600 23.84500
N  9.90300 49.79100 28.03000
C  8.83000 49.72500 28.94000
C  9.26900 50.19800 30.33400
C  10.66500 50.93200 29.96900
C  10.93400 50.38500 28.59500
C  10.70800 52.48600 30.08100
C  9.60500 48.99100 31.30300
C  9.80100 49.29200 32.80300
H  9.08100 48.49100 33.88900
N  12.00000 49.50200 25.83900
C  12.79200 50.00800 26.84300
C  14.16900 50.08700 26.35100
C  14.15900 49.68300 25.03400
C  12.75500 49.34800 24.69800
C  15.32900 50.54300 27.23400
C  15.31200 49.46900 24.09700
O  15.18200 49.00800 22.91100
C  16.60600 49.88300 24.54700
N  9.97500 48.41300 23.88200
C  10.96200 48.65500 23.02700
C  10.51600 48.34400 21.50700
C  9.10400 47.72600 21.77400
C  8.86000 47.98500 23.27000
C  10.60100 49.62200 20.54100
C  9.01200 46.25400 21.31800
C  9.53100 45.19500 22.30700
N  8.13600 48.52600 26.09500
C  7.24200 48.00500 25.19500
C  5.92000 47.79200 25.70400
C  5.99900 48.31300 26.97400
C  7.35000 48.75400 27.18700
C  4.58700 47.49300 24.92900
C  5.28200 48.53700 28.18400
O  4.12300 48.23900 28.55000
C  6.29300 49.24100 29.19800
C  6.36900 48.22000 30.27000
O  7.04300 47.20100 30.21300
O  5.33700 48.40000 31.18200
C  5.22500 47.55500 32.30400
H  13.01800 50.70900 28.85000
H  12.88100 49.34700 22.61700
H  6.87000 47.38200 23.19900
H  8.56300 50.82600 30.87700
H  11.55600 50.65000 30.52900
H  11.57200 52.78700 30.67400
H  9.76400 52.69600 30.58400
H  10.76100 52.91800 29.08200
H  10.51800 48.54400 30.91100
H  8.84300 48.21300 31.26200
H  9.69300 50.37500 32.86200
H  10.87200 49.11200 32.89500
H  15.88700 51.41000 26.88200
H  16.05600 49.80400 27.57000
H  14.86400 50.98000 28.11800
H  16.71700 50.89200 24.94400
H  17.32000 49.81400 23.72700
H  17.02400 49.17700 25.26400
H  11.20100 47.57100 21.16000
H  8.48700 48.38800 21.16600
H  9.64100 49.63000 20.02600
H  11.53200 49.59600 19.97500
H  10.62900 50.53900 21.13100
H  9.67200 46.01900 20.48300
H  7.98500 46.05300 21.01400
H  10.35600 45.59800 22.89200
H  9.94700 44.34900 21.76000
H  8.75700 44.73900 22.92500
H  3.71600 47.46200 25.58500
H  4.66200 46.54600 24.39600
H  4.44500 48.38300 24.31700
H  5.95500 50.13100 29.72800
H  4.49500 46.79000 32.03900
H  4.87200 48.14600 33.14900
H  6.13300 47.03600 32.60800
Mg -10.03100 40.24200 39.30700
C  -8.79300 37.04000 38.34300
C  -6.93800 41.60100 38.34700
C  -11.52400 43.25500 38.87500
C  -13.31000 38.73300 39.49800
N  -8.19500 39.44200 38.47400
C  -7.92400 38.09800 38.14900
C  -6.53900 37.95000 37.36100
C  -5.83900 39.20100 38.05100
C  -7.07300 40.18300 38.31400
C  -4.92400 38.88600 39.25000
C  -6.75400 37.98000 35.83900
C  -6.15500 36.89800 34.90400
H  -7.15300 36.17000 33.91500
N  -9.34500 42.21300 38.84500
C  -8.02500 42.49800 38.53700
C  -7.96900 43.96200 38.40300
C  -9.25500 44.48100 38.54900
C  -10.11100 43.32100 38.72500
C  -6.64500 44.77500 38.05300
C  -9.57400 45.92400 38.44900
O  -8.71700 46.81000 38.27600
C  -10.97500 46.37400 38.89500
N  -12.21100 40.88700 39.46300
C  -12.44300 42.19500 39.13900
C  -13.95700 42.45000 39.10400
C  -14.49000 40.98800 39.22100
C  -13.33700 40.06900 39.53900
C  -14.56900 43.51300 40.07000
C  -15.31100 40.41000 38.01000
C  -16.78900 39.97800 38.40200
N  -10.93300 38.27000 39.23500
C  -12.20200 37.83300 39.40300
C  -12.18500 36.39700 39.36900
C  -10.91100 36.00300 38.93800
C  -10.19300 37.22500 38.78400
C  -13.34900 35.56400 39.71600
C  -10.01000 34.89900 38.56400
O  -10.23100 33.70100 38.64200
C  -8.69900 35.59400 38.11200
C  -7.55700 34.97300 38.84300
O  -7.01000 35.41100 39.82700
O  -7.16800 33.78300 38.28400
C  -6.01700 33.03200 38.87200
H  -5.93500 42.00400 38.18800
H  -12.09400 44.12700 38.54800
H  -14.23900 38.17300 39.36800
H  -6.06700 37.00600 37.63200
H  -5.17500 39.55100 37.26100
H  -5.17000 37.98000 39.80300
H  -4.97000 39.83400 39.78500
H  -3.92200 38.70800 38.85900
H  -6.21300 38.89300 35.59000
H  -7.79500 38.03600 35.52300
H  -5.79500 36.12400 35.58200
H  -5.38000 37.44500 34.36800
H  -6.49900 45.45700 38.89000
H  -6.86500 45.27200 37.10800
H  -5.75100 44.15200 38.06600
H  -10.94400 47.43300 39.15400
H  -11.16400 45.80100 39.80200
H  -11.65600 45.97000 38.14500
H  -14.25900 42.83200 38.12900
H  -15.14800 40.93200 40.08800
H  -14.93100 42.95400 40.93300
H  -15.34300 44.14200 39.63000
H  -13.79300 44.17200 40.46000
H  -14.73100 39.66800 37.46000
H  -15.34200 41.25500 37.32300
H  -16.81700 40.00400 39.49100
H  -16.88100 38.96800 38.00200
H  -17.49700 40.72900 38.05200
H  -13.95500 36.26100 40.29500
H  -13.12000 34.72000 40.36700
H  -13.72600 35.16600 38.77500
H  -8.54100 35.46300 37.04100
H  -5.10900 33.56100 38.58500
H  -6.09800 32.04400 38.41900
H  -6.08600 32.87600 39.94900

