158

Mg 50.18700 46.70700 42.86500
C  46.94500 47.26300 41.53900
C  50.25200 43.78200 41.21000
C  53.23500 46.45900 43.83700
C  50.18200 50.18300 43.75800
N  48.81800 45.69600 41.43100
C  47.50600 45.98800 41.20600
C  46.75500 44.98700 40.40200
C  47.67500 43.77500 40.60800
C  48.99700 44.41500 41.11000
C  47.16600 42.63100 41.55200
C  46.61800 45.45100 38.89000
C  45.27100 45.74400 38.34100
H  44.70500 44.63300 37.39200
N  51.58700 45.30200 42.51100
C  51.46000 44.12200 41.81800
C  52.64700 43.27700 42.07400
C  53.53400 44.04300 42.87200
C  52.83400 45.32200 43.08800
C  52.88900 41.89400 41.51900
C  54.92800 43.59700 43.41200
O  55.32900 42.46700 43.21100
C  55.73000 44.48200 44.36400
N  51.54800 48.21400 43.48300
C  52.76300 47.75700 43.90100
C  53.72700 48.84500 44.42300
C  52.64900 50.05600 44.47200
C  51.35800 49.47100 43.88800
C  54.52400 48.43200 45.71200
C  53.15900 51.30400 43.60500
C  53.43100 52.59100 44.33500
N  48.84900 48.42200 42.67500
C  49.00400 49.76200 43.06300
C  47.83200 50.52200 42.76300
C  46.92600 49.59400 42.22500
C  47.64800 48.33600 42.11700
C  47.63900 51.92800 43.03800
C  45.65300 49.42100 41.57900
O  44.66200 50.11800 41.36800
C  45.58200 47.85600 41.20600
C  44.42500 47.23200 41.80500
O  44.25400 46.93300 42.99500
O  43.39600 47.15600 40.86100
C  42.10100 46.77400 41.32500
H  50.30800 42.77400 40.79400
H  54.30300 46.44600 44.06300
H  50.19000 51.20800 44.13400
H  45.81800 44.70200 40.88100
H  47.91500 43.35200 39.63300
H  46.17800 42.85400 41.95300
H  47.87100 42.52100 42.37700
H  46.96200 41.80100 40.87600
H  47.22900 44.70100 38.38700
H  47.18600 46.37500 38.77900
H  45.35700 46.71900 37.86100
H  44.44800 45.84600 39.04800
H  53.95100 41.78200 41.29700
H  52.36800 41.61300 40.60400
H  52.64200 41.16000 42.28600
H  55.20800 44.79300 45.26900
H  55.89500 45.37800 43.76600
H  56.69900 44.08200 44.66300
H  54.49200 48.97500 43.65800
H  52.51200 50.34600 45.51400
H  54.39600 49.25500 46.41500
H  55.58900 48.37900 45.48500
H  54.19800 47.51800 46.20800
H  52.44900 51.58100 42.82500
H  54.14500 51.11300 43.18100
H  54.48600 52.85500 44.26400
H  53.13200 52.44400 45.37300
H  52.80300 53.40700 43.97800
H  48.46400 52.30600 43.64000
H  46.78800 52.04900 43.70800
H  47.52400 52.44300 42.08400
H  45.51300 47.86200 40.11800
H  42.24400 45.87100 41.91800
H  41.50500 46.62700 40.42400
H  41.48600 47.44700 41.92300
Mg 4.20000 55.03800 41.10000
C  4.45600 51.64900 40.25500
C  7.19700 55.49400 39.25800
C  3.74000 58.43800 41.23700
C  1.02600 54.49500 42.33700
N  5.46700 53.70500 39.65900
C  5.43000 52.37600 39.61700
C  6.56100 51.79900 38.78600
C  7.61500 52.89300 38.98700
C  6.72500 54.12500 39.28900
C  8.72200 52.83900 40.02400
C  6.03000 51.42800 37.29500
C  6.14900 52.54700 36.23800
H  5.45200 52.28800 34.84100
N  5.27900 56.71200 40.33000
C  6.46900 56.68300 39.64000
C  6.95100 58.01000 39.39400
C  5.95500 58.89100 39.96000
C  4.94000 58.02300 40.59600
C  8.35800 58.36200 38.95900
C  6.00300 60.38600 39.85500
O  6.95600 60.94500 39.37500
C  4.99000 61.30600 40.38600
N  2.53400 56.25800 41.48500
C  2.60500 57.61100 41.55200
C  1.39000 58.22800 42.13300
C  0.56300 57.04300 42.51000
C  1.37600 55.87300 42.04100
C  1.66000 59.15400 43.41300
C  -0.92300 57.12500 42.07400
C  -1.90400 56.96200 43.26200
N  2.99300 53.43700 41.42900
C  1.77600 53.33300 42.05800
C  1.50900 51.91800 42.24300
C  2.52500 51.25000 41.52100
C  3.32600 52.19600 40.96700
C  0.36900 51.29600 42.99700
C  2.97900 49.93200 41.13600
O  2.55200 48.85000 41.44500
C  4.36800 50.10000 40.38200
C  4.25600 49.19400 39.24300
O  3.35200 49.27400 38.42200
O  5.33700 48.36200 39.23500
C  5.18900 47.34200 38.23600
H  8.21800 55.72000 38.94300
H  3.52900 59.50600 41.32300
H  0.08600 54.34800 42.87300
H  6.90200 50.89400 39.28900
H  8.15300 53.00800 38.04600
H  9.67500 52.93500 39.50400
H  8.63600 51.92400 40.61000
H  8.54900 53.56800 40.81500
H  4.99100 51.11400 37.19300
H  6.60400 50.58000 36.92000
H  7.19900 52.76500 36.04500
H  5.81700 53.51600 36.61200
H  8.83800 58.78000 39.84400
H  8.21500 59.02000 38.10200
H  8.97900 57.52000 38.65300
H  5.27400 62.33800 40.17900
H  4.91300 61.14500 41.46100
H  4.12100 61.03000 39.78900
H  0.85700 58.78900 41.36500
H  0.54500 56.90500 43.59100
H  2.66300 58.97600 43.80100
H  0.84400 59.02500 44.12400
H  1.58900 60.16200 43.00500
H  -1.04000 56.41800 41.25200
H  -1.20200 58.08100 41.63100
H  -2.64000 57.76300 43.19200
H  -1.42200 57.03000 44.23700
H  -2.40700 55.99900 43.35200
H  0.58900 50.34000 43.47200
H  -0.38100 50.98300 42.27200
H  -0.08300 51.94300 43.74900
H  5.12400 49.69900 41.05800
H  4.16800 47.09800 37.94100
H  5.57100 46.37600 38.56600
H  5.73200 47.50500 37.30600

