158

Mg 40.48300 8.35400 29.65300
C  42.33400 9.62300 32.55000
C  38.22200 7.08900 31.83300
C  39.30700 6.45500 27.15000
C  43.28900 9.02800 27.67800
N  40.26900 8.46900 31.98300
C  41.07600 9.13300 32.96400
C  40.48200 9.10200 34.32500
C  39.19300 8.15300 34.06100
C  39.23900 7.75400 32.60800
C  39.02800 7.02300 35.08100
C  40.09900 10.44300 34.97800
C  39.22400 10.40600 36.22800
H  39.59600 11.32900 37.32600
N  38.90900 7.14500 29.52000
C  38.10300 6.77000 30.46700
C  36.99600 6.02500 29.90700
C  37.20400 5.97200 28.56200
C  38.51400 6.55500 28.31100
C  35.80900 5.48400 30.78900
C  36.30900 5.37200 27.49000
O  36.54500 5.40200 26.32300
C  35.02800 4.81300 27.78100
N  41.24100 7.64400 27.77300
C  40.56200 6.88600 26.86900
C  41.20400 6.89300 25.46100
C  42.23800 8.06200 25.52300
C  42.26800 8.26200 27.11500
C  41.93600 5.54200 25.03700
C  41.93200 9.31100 24.67600
C  40.71200 10.07900 25.12100
N  42.41500 9.16900 29.94400
C  43.41700 9.36900 29.05200
C  44.50500 10.10700 29.74600
C  44.09000 10.21400 31.06800
C  42.82600 9.57900 31.19800
C  45.85300 10.51000 29.12700
C  44.48900 10.73300 32.37100
O  45.52800 11.35200 32.62000
C  43.37700 10.38100 33.40000
C  43.96700 9.63300 34.51300
O  44.35700 8.47400 34.44800
O  43.99300 10.37300 35.62000
C  44.54600 9.81600 36.90300
H  37.43900 6.62900 32.44100
H  38.77500 5.83100 26.42800
H  44.11000 9.42200 27.07600
H  41.12800 8.50500 34.96800
H  38.24400 8.67500 34.18600
H  39.14400 6.00200 34.71700
H  38.07400 7.04500 35.60800
H  39.77300 7.15800 35.86500
H  39.53900 10.94400 34.18800
H  40.94600 11.06600 35.26600
H  39.28900 9.44000 36.72800
H  38.20500 10.56300 35.87600
H  34.88400 5.71400 30.26100
H  35.71100 5.96000 31.76500
H  36.00000 4.41800 30.90900
H  35.03900 4.13100 28.63100
H  34.74500 4.21500 26.91500
H  34.21100 5.53100 27.86100
H  40.40400 7.09600 24.74900
H  43.28200 7.86700 25.27900
H  41.56000 4.82900 25.77100
H  43.02000 5.62500 25.10300
H  41.78000 5.19100 24.01700
H  41.69000 9.01000 23.65700
H  42.85700 9.88800 24.65300
H  40.40300 9.79300 26.12600
H  39.89200 9.97300 24.41100
H  40.83400 11.15900 25.20000
H  46.39300 10.72700 30.04900
H  45.60000 11.35700 28.48900
H  46.27400 9.67600 28.56600
H  43.03200 11.34900 33.76300
H  45.41200 10.37700 37.25600
H  44.93600 8.82900 36.65000
H  43.88200 9.83400 37.76800
Mg -12.07700 16.03700 42.31000
C  -8.71400 16.53700 42.50600
C  -12.60600 19.26000 41.79600
C  -15.29900 15.18700 41.16400
C  -11.43900 12.44800 42.33600
N  -10.70500 17.66800 41.71900
C  -9.41100 17.70700 42.15300
C  -8.89200 19.12500 42.21500
C  -10.23800 19.95100 42.38400
C  -11.23100 18.90400 41.88500
C  -10.56400 20.28400 43.84800
C  -8.12600 19.61100 40.93200
C  -6.66900 19.93700 41.16000
H  -5.68600 19.14400 40.20600
N  -13.70100 17.10900 41.54100
C  -13.71700 18.40400 41.52200
C  -15.03100 18.94400 41.19100
C  -15.83100 17.81000 40.87500
C  -14.96000 16.59000 41.21300
C  -15.43300 20.43600 41.10300
C  -17.26500 17.88200 40.44700
O  -17.83400 18.99900 40.29500
C  -18.02100 16.63300 40.25700
N  -13.20000 14.14100 41.66000
C  -14.47700 14.10200 41.25400
C  -15.00100 12.65300 41.08000
C  -13.73100 11.82400 41.31700
C  -12.73500 12.82100 41.91700
C  -16.27800 12.36500 41.89500
C  -13.24100 11.23000 39.93200
C  -13.38700 9.69300 39.80900
N  -10.42200 14.68400 42.34900
C  -10.33500 13.28600 42.50300
C  -8.96000 12.92900 42.65200
C  -8.29600 14.16500 42.76700
C  -9.22100 15.22400 42.49900
C  -8.31300 11.66400 42.99300
C  -6.98200 14.72300 43.04000
O  -5.98300 14.17200 43.37000
C  -7.20500 16.32000 42.88100
C  -6.89100 17.01400 44.22600
O  -7.39800 16.78300 45.31800
O  -5.89800 17.96200 44.02400
C  -5.20200 18.47500 45.21000
H  -12.69300 20.34300 41.91100
H  -16.29600 14.91800 40.80600
H  -11.35800 11.37800 42.53800
H  -8.35000 19.26200 43.15100
H  -10.15900 20.90100 41.85600
H  -9.61000 20.38400 44.36600
H  -11.21200 19.55000 44.32600
H  -10.95000 21.30200 43.79800
H  -8.65800 20.47000 40.52200
H  -8.35300 18.89900 40.13800
H  -6.43400 19.55400 42.15300
H  -6.53400 21.01800 41.12400
H  -16.35400 20.64300 41.64700
H  -15.60900 20.71200 40.06300
H  -14.62600 21.10700 41.39700
H  -19.01500 16.94500 39.93700
H  -18.00900 16.12300 41.22000
H  -17.50200 16.05900 39.48900
H  -15.45300 12.70800 40.09000
H  -13.91400 11.00300 42.01000
H  -17.07800 11.98800 41.25700
H  -16.60400 13.15000 42.57700
H  -16.06300 11.50300 42.52600
H  -12.18600 11.50200 39.90600
H  -13.84900 11.59600 39.10400
H  -12.41300 9.20600 39.84500
H  -13.82400 9.50300 38.82800
H  -14.03500 9.15800 40.50400
H  -8.38000 11.42900 44.05500
H  -7.23300 11.64900 42.85000
H  -8.86600 10.91600 42.42500
H  -6.55800 16.76500 42.12400
H  -5.51500 19.51000 45.34800
H  -4.14300 18.39200 44.96300
H  -5.34800 17.85300 46.09200

