158

Mg 47.52500 16.15700 28.90600
C  45.67100 15.59400 31.82400
C  49.60100 18.25200 30.74700
C  49.35000 16.80100 26.12300
C  45.13800 14.60300 27.07200
N  47.50700 16.88300 31.05200
C  46.75300 16.46000 32.05700
C  47.33600 16.82000 33.45400
C  48.37100 17.89500 32.99100
C  48.54300 17.60800 31.49400
C  48.15400 19.41100 33.18500
C  47.86900 15.51000 34.18800
C  47.78500 15.53700 35.71400
H  47.39700 16.91100 36.40400
N  49.32200 17.30800 28.50100
C  50.00600 18.05300 29.40500
C  51.19800 18.47800 28.72900
C  51.09800 18.23000 27.35600
C  49.90700 17.45100 27.24800
C  52.28400 19.20300 29.54200
C  52.13100 18.55400 26.14400
O  51.98700 18.22100 24.99500
C  53.44500 19.22600 26.54500
N  47.30400 15.75900 26.93100
C  48.19600 16.08500 26.00100
C  47.65000 15.74400 24.57500
C  46.43400 14.87000 24.94300
C  46.22300 15.17200 26.38200
C  47.27000 16.98000 23.67200
C  46.51800 13.37400 24.48100
C  45.73900 13.09600 23.11600
N  45.79700 15.19000 29.29900
C  44.89000 14.62100 28.47300
C  43.88800 13.97600 29.22500
C  44.18200 14.27300 30.57600
C  45.33300 15.06300 30.59300
C  42.65000 13.13300 28.74700
C  43.68000 14.08600 31.93000
O  42.66500 13.56000 32.37400
C  44.66400 15.02500 32.80500
C  43.96800 16.15800 33.49100
O  43.75200 17.30800 33.13900
O  43.67000 15.70300 34.76300
C  43.23800 16.73000 35.77200
H  50.29200 18.86000 31.33400
H  49.81700 16.80000 25.13600
H  44.48100 13.95600 26.48700
H  46.41900 17.20500 33.89800
H  49.31400 17.69700 33.50100
H  49.00300 19.92200 33.63900
H  47.28400 19.60300 33.81300
H  47.96400 19.84000 32.20100
H  48.86600 15.30200 33.80000
H  47.19000 14.70400 33.91200
H  48.75600 15.19300 36.06800
H  47.01200 14.85500 36.07000
H  52.99600 19.72200 28.90000
H  52.93100 18.47800 30.03700
H  51.89900 19.96200 30.22300
H  53.94700 18.70500 27.36100
H  53.25500 20.25900 26.83700
H  54.05400 19.35100 25.65000
H  48.41700 15.11700 24.12100
H  45.52900 15.28400 24.49800
H  47.55600 17.85200 24.26100
H  46.22100 16.99400 23.37500
H  47.84900 16.87500 22.75500
H  46.25500 12.72800 25.31900
H  47.54700 13.14300 24.20800
H  45.26100 12.14300 23.34200
H  46.39000 12.90800 22.26200
H  44.88600 13.71100 22.82900
H  42.83800 12.72700 27.75300
H  41.69300 13.65400 28.77200
H  42.57700 12.34900 29.50100
H  45.10500 14.49100 33.64600
H  43.54600 16.41200 36.76800
H  42.15300 16.80900 35.83800
H  43.72100 17.69900 35.64500
Mg -0.10200 42.75500 26.68700
C  1.63900 42.90100 29.98200
C  -2.76600 41.80900 28.32000
C  -1.16100 42.17400 23.79200
C  3.23600 43.56900 25.29800
N  -0.48100 42.50900 28.91700
C  0.28200 42.73400 30.04100
C  -0.58300 42.66500 31.31900
C  -1.92900 42.00400 30.79400
C  -1.73700 42.09900 29.27100
C  -2.27000 40.60100 31.27400
C  -0.65000 44.09300 31.98300
C  -0.18500 44.05600 33.41400
H  -1.33300 43.82900 34.52300
N  -1.83400 42.20500 26.09900
C  -2.91600 41.86300 26.94800
C  -4.00700 41.45000 26.11100
C  -3.49800 41.45200 24.78800
C  -2.15200 41.99100 24.80700
C  -5.42900 41.16400 26.70600
C  -4.16600 40.83200 23.50300
O  -3.62100 40.95200 22.40000
C  -5.37600 39.94800 23.58400
N  0.92300 42.88300 24.87700
C  0.15500 42.65200 23.77300
C  0.97800 42.72600 22.46600
C  2.28700 43.34500 22.99700
C  2.11700 43.32500 24.52500
C  1.02800 41.34700 21.77700
C  2.62900 44.80500 22.47900
C  2.48300 45.10800 20.95200
N  2.05300 43.17800 27.45100
C  3.20700 43.29400 26.68900
C  4.32300 43.24100 27.62200
C  3.74100 43.03500 28.88900
C  2.37500 43.01300 28.74500
C  5.70800 43.38000 27.19300
C  4.14200 42.76700 30.25700
O  5.26300 42.66600 30.75300
C  2.70800 42.81700 31.07100
C  2.59500 41.63300 31.93200
O  2.71300 40.47800 31.53800
O  2.54100 41.90900 33.24500
C  2.49700 40.76900 34.17500
H  -3.65900 41.43600 28.82600
H  -1.37800 41.96900 22.74200
H  4.19800 43.69100 24.79600
H  -0.09300 42.01600 32.04500
H  -2.83400 42.58600 30.96700
H  -1.67600 40.37300 32.15900
H  -1.99600 39.94700 30.44600
H  -3.33600 40.63800 31.49900
H  -1.69300 44.38300 32.11000
H  -0.13000 44.76600 31.30100
H  0.10000 45.08200 33.64600
H  0.65900 43.38900 33.59100
H  -5.64900 41.84700 27.52600
H  -5.26900 40.19500 27.17900
H  -6.27500 41.15600 26.01900
H  -5.44400 39.23900 22.75900
H  -6.27200 40.56800 23.60300
H  -5.40300 39.27300 24.43900
H  0.44400 43.45600 21.85700
H  3.13200 42.84900 22.51800
H  0.58500 41.42600 20.78400
H  0.45300 40.58500 22.30300
H  2.05600 40.99500 21.69100
H  3.63300 45.10000 22.78400
H  1.90900 45.43700 22.99900
H  3.48700 45.20100 20.53800
H  1.84100 45.97800 20.81300
H  2.15800 44.29300 20.30600
H  6.30200 42.86700 27.94900
H  5.86500 44.45800 27.18900
H  5.80300 42.93000 26.20400
H  2.67800 43.74100 31.64700
H  3.19800 40.03700 33.77200
H  1.52700 40.27900 34.24900
H  2.75100 41.01200 35.20600

