158

Mg 39.94600 8.84600 30.04800
C  41.32300 9.68000 33.05500
C  37.29000 7.18500 31.95100
C  38.41000 8.12200 27.17700
C  42.54800 10.13600 28.37300
N  39.41600 8.38100 32.29300
C  40.14300 8.92300 33.29600
C  39.36100 8.74500 34.61700
C  38.00200 8.08100 34.24100
C  38.26800 7.79900 32.76300
C  37.72100 6.72700 35.01800
C  39.05500 10.11500 35.34100
C  39.01700 10.04100 36.90000
H  39.59700 11.20300 37.76300
N  38.18700 7.69100 29.57400
C  37.25800 7.15100 30.50600
C  36.19700 6.61000 29.64300
C  36.50000 6.81600 28.31900
C  37.66200 7.66200 28.34300
C  35.04500 5.84800 30.15500
C  35.84000 6.30200 27.02000
O  36.18200 6.51200 25.81900
C  34.60400 5.38900 27.16800
N  40.43400 9.04100 28.08600
C  39.57600 8.82000 27.00700
C  40.23800 9.21900 25.64900
C  41.51900 9.90900 26.14100
C  41.56000 9.58700 27.56900
C  40.39000 8.01000 24.73500
C  41.61900 11.42500 25.83700
C  40.32200 12.26400 25.83000
N  41.63500 9.62700 30.50900
C  42.65900 10.14200 29.75400
C  43.72900 10.66800 30.58600
C  43.21800 10.58200 31.86300
C  41.93500 9.98600 31.78000
C  45.08100 11.12100 30.18300
C  43.47500 10.85800 33.31400
O  44.43400 11.41500 33.85800
C  42.27900 10.31800 34.08100
C  42.85800 9.39500 35.03000
O  43.74600 8.58800 34.79300
O  42.15700 9.40600 36.14200
C  42.58400 8.56100 37.23400
H  36.54100 6.59600 32.48500
H  37.90400 8.00000 26.21700
H  43.42500 10.46000 27.80900
H  39.90700 8.03100 35.23400
H  37.17300 8.77800 34.11500
H  37.95500 5.82800 34.44700
H  36.71200 6.81000 35.42100
H  38.43700 6.58600 35.82800
H  38.09500 10.60600 35.18000
H  39.82200 10.84100 35.06900
H  39.47100 9.13200 37.29800
H  37.94500 10.04400 37.09600
H  34.88700 6.14400 31.19200
H  35.33000 4.79800 30.20900
H  34.07200 6.11000 29.74000
H  34.63100 4.64800 27.96800
H  34.50000 4.86500 26.21800
H  33.69400 5.98200 27.25300
H  39.51200 9.93500 25.26400
H  42.39100 9.39400 25.73900
H  40.21300 7.10800 25.32100
H  41.42400 8.04200 24.39200
H  39.76100 8.04500 23.84500
H  42.08200 11.48100 24.85200
H  42.24400 12.02300 26.50000
H  40.58900 13.25700 26.19200
H  39.56400 11.93000 26.53800
H  39.98400 12.48100 24.81700
H  45.62800 10.42000 29.55100
H  45.58000 11.38300 31.11600
H  44.94200 12.13800 29.81900
H  41.81500 11.11500 34.66300
H  42.12100 7.61700 36.94800
H  42.11400 8.89800 38.15900
H  43.65500 8.65500 37.41500
Mg 9.33100 47.88400 26.87200
C  7.32600 47.72400 29.65000
C  12.01100 48.78800 28.72800
C  11.14600 48.54500 24.00800
C  6.41300 47.70800 24.75000
N  9.50000 48.48000 28.89100
C  8.63900 48.16200 29.89600
C  9.33400 48.43400 31.25200
C  10.75000 48.76500 30.88800
C  10.75100 48.76000 29.34000
C  11.19500 50.16400 31.42200
C  9.03300 47.31100 32.28700
C  9.94100 47.07600 33.49900
H  9.26900 46.56900 34.82900
N  11.36100 48.37300 26.39100
C  12.28600 48.59000 27.33600
C  13.58400 48.68000 26.64800
C  13.36400 48.48400 25.22000
C  11.85600 48.45900 25.17600
C  14.83500 49.12700 27.37000
C  14.37300 48.47100 24.09300
O  13.94700 48.47400 22.92900
C  15.86500 48.33000 24.45200
N  8.86700 48.28200 24.65400
C  9.81200 48.36200 23.75100
C  9.22000 48.11400 22.33300
C  7.79300 47.75800 22.62700
C  7.67100 47.86800 24.11100
C  9.40400 49.25700 21.35100
C  7.32100 46.37800 22.09700
C  5.93900 46.29700 21.34900
N  7.28400 47.70400 27.13400
C  6.24900 47.62300 26.20300
C  5.00000 47.38300 26.98000
C  5.36900 47.27800 28.34600
C  6.79900 47.56500 28.36700
C  3.68700 47.05700 26.26400
C  4.94500 46.98900 29.70500
O  3.91500 46.55900 30.17400
C  6.17700 47.29200 30.62100
C  6.31800 45.94300 31.30000
O  7.14200 45.04800 31.09400
O  5.48400 45.92300 32.38700
C  5.72500 44.77900 33.35800
H  12.90200 48.95300 29.33600
H  11.69600 48.59200 23.06600
H  5.62200 47.51200 24.02300
H  8.82300 49.31900 31.63100
H  11.39600 48.03100 31.36900
H  12.17600 50.02500 31.87600
H  10.47800 50.50700 32.16800
H  11.26800 50.89100 30.61200
H  9.00500 46.38600 31.71100
H  8.05900 47.70300 32.58100
H  10.51400 47.98000 33.70700
H  10.63300 46.29000 33.19700
H  14.65700 49.54900 28.35900
H  15.28800 49.90500 26.75600
H  15.64300 48.39600 27.41700
H  16.02200 47.61500 25.26000
H  16.32300 49.31100 24.57600
H  16.26700 47.91800 23.52600
H  9.78400 47.30300 21.87200
H  7.18200 48.55700 22.20700
H  8.41900 49.30000 20.88500
H  10.34100 49.28500 20.79600
H  9.35200 50.12300 22.01200
H  7.07000 45.75200 22.95300
H  8.06600 45.90600 21.45600
H  5.40600 47.24200 21.45400
H  5.47100 45.45300 21.85600
H  5.96500 46.00900 20.29800
H  3.35100 48.02100 25.88300
H  2.98400 46.74300 27.03500
H  3.88200 46.30300 25.50200
H  6.00300 47.98500 31.44400
H  6.33600 45.01200 34.23000
H  6.02600 43.82900 32.91700
H  4.74000 44.44900 33.68700

