158

Mg -2.12200 17.30700 25.83800
C  -1.92500 15.12100 28.67500
C  -2.61500 19.90800 27.94300
C  -2.18800 19.17200 23.21500
C  -1.85000 14.41900 23.85600
N  -2.25300 17.44300 28.04900
C  -2.19100 16.47500 29.03800
C  -2.53100 17.08500 30.45500
C  -2.95300 18.56500 30.07200
C  -2.55300 18.65200 28.59200
C  -4.49800 18.80200 30.26400
C  -1.29300 17.04000 31.40100
C  -1.73900 16.46700 32.80000
H  -0.61100 16.68000 33.85100
N  -2.40200 19.25100 25.62900
C  -2.55400 20.18500 26.56400
C  -2.48800 21.54500 25.94400
C  -2.30200 21.36600 24.50600
C  -2.31700 19.87300 24.38200
C  -2.84900 22.82100 26.60900
C  -2.05900 22.43200 23.42400
O  -2.02700 22.16400 22.25000
C  -1.69600 23.89400 23.68800
N  -2.14700 16.82300 23.84700
C  -2.22400 17.84300 22.94900
C  -2.27000 17.21100 21.52200
C  -1.99400 15.73000 21.74700
C  -2.04300 15.66400 23.24300
C  -3.63000 17.57300 20.87300
C  -0.56100 15.37200 21.08700
C  0.81100 15.62200 21.74900
N  -1.92800 15.22900 26.11000
C  -1.83300 14.10200 25.22400
C  -1.75400 12.87300 25.92400
C  -1.75400 13.29400 27.23700
C  -1.84900 14.68100 27.34400
C  -1.98800 11.42500 25.38000
C  -1.80600 12.63200 28.59000
O  -1.67700 11.47300 28.89100
C  -1.99900 13.86000 29.59600
C  -0.88000 13.65700 30.59500
O  0.26700 14.13700 30.53200
O  -1.36100 12.85700 31.56700
C  -0.45400 12.73200 32.68500
H  -2.73500 20.79500 28.56900
H  -2.33800 19.81200 22.34300
H  -1.85200 13.51900 23.23800
H  -3.26700 16.47100 30.97400
H  -2.55700 19.34200 30.72600
H  -4.76300 19.50100 29.47000
H  -4.59500 19.20200 31.27300
H  -5.10600 17.91600 30.07900
H  -0.79500 18.00500 31.49200
H  -0.43900 16.43400 31.10100
H  -1.98100 15.40400 32.80400
H  -2.57400 17.07400 33.14900
H  -2.92700 22.69100 27.68800
H  -3.79700 23.18200 26.21000
H  -2.03500 23.52600 26.44200
H  -1.04000 23.66400 24.52700
H  -2.54700 24.51500 23.96600
H  -1.11100 24.36500 22.89800
H  -1.49500 17.70900 20.94000
H  -2.66400 14.94200 21.40400
H  -3.42400 17.99700 19.89000
H  -4.24700 18.28600 21.41900
H  -4.21700 16.69800 20.59200
H  -0.45600 15.97000 20.18200
H  -0.64500 14.30600 20.88000
H  1.12700 14.93500 22.53300
H  0.83500 16.60100 22.22800
H  1.51300 15.61300 20.91400
H  -1.94500 11.50000 24.29300
H  -3.00100 11.14400 25.66800
H  -1.18100 10.81100 25.77900
H  -2.93800 13.83300 30.15000
H  -0.41900 13.63900 33.28800
H  0.54400 12.49800 32.31400
H  -0.80700 11.92300 33.32500
Mg 7.14700 56.78900 42.44300
C  6.00200 53.38600 41.94900
C  10.00300 55.89000 40.96300
C  7.69900 60.00200 42.16200
C  3.83900 57.43400 43.68600
N  7.82200 54.87100 41.37100
C  7.27500 53.63400 41.30000
C  8.21500 52.70900 40.50400
C  9.55200 53.37700 40.79500
C  9.13300 54.82800 40.98100
C  10.45800 52.75900 41.94200
C  7.79400 52.61500 38.98300
C  7.54300 51.24100 38.44000
H  6.69500 51.16400 37.13200
N  8.57800 57.80600 41.48000
C  9.78600 57.28000 41.06700
C  10.68600 58.41400 40.67100
C  9.91100 59.64400 40.90500
C  8.71100 59.19500 41.59900
C  12.10100 58.07900 40.23100
C  10.35600 61.08200 40.54000
O  11.51500 61.20700 40.16800
C  9.35400 62.29100 40.46200
N  5.90900 58.45800 42.94100
C  6.41200 59.66800 42.74000
C  5.35400 60.79100 43.10400
C  4.09300 59.91500 43.50800
C  4.68600 58.46600 43.56600
C  5.71300 61.84200 44.15800
C  2.82100 60.02000 42.63700
C  1.51600 60.72800 43.16000
N  5.36600 55.70100 42.83600
C  4.14700 56.12900 43.43500
C  3.35200 54.96400 43.67900
C  4.04300 53.84700 43.11300
C  5.28500 54.37100 42.62500
C  1.93300 54.99500 44.31600
C  3.99700 52.39600 42.77500
O  3.10100 51.59900 43.00700
C  5.27600 52.07600 42.05600
C  4.94500 51.48800 40.67400
O  4.67500 52.09200 39.65900
O  4.98100 50.12400 40.76100
C  4.53400 49.46100 39.54400
H  11.01800 55.57400 40.71400
H  7.87600 61.07900 42.12200
H  2.94100 57.59700 44.28400
H  8.16500 51.70400 40.92200
H  10.23700 53.36400 39.94800
H  9.88600 52.07800 42.57100
H  10.92900 53.52400 42.55900
H  11.30200 52.17500 41.57500
H  8.58400 53.13800 38.44200
H  6.93200 53.24900 38.77700
H  6.89100 50.72000 39.14100
H  8.45600 50.66300 38.29500
H  12.24100 58.10100 39.15000
H  12.35600 57.04200 40.45100
H  12.77600 58.74300 40.76900
H  8.40000 61.91200 40.09600
H  9.66300 62.90400 39.61500
H  9.37700 62.85400 41.39500
H  5.15900 61.40000 42.22100
H  3.76700 60.30500 44.47200
H  6.54100 61.33600 44.65600
H  4.91400 62.04500 44.87100
H  5.98400 62.80300 43.72100
H  2.62800 59.06700 42.14400
H  3.00100 60.62800 41.75000
H  1.31900 61.68200 42.67300
H  1.60400 60.96600 44.22000
H  0.60000 60.15600 43.01400
H  1.91200 55.39000 45.33200
H  1.50900 53.99300 44.24200
H  1.29200 55.64200 43.71800
H  5.83800 51.31400 42.59700
H  3.44800 49.50300 39.46300
H  4.89400 48.43700 39.63700
H  5.02500 49.87600 38.66400

