158

Mg 36.07000 2.52400 30.72800
C  33.43400 3.95300 32.60600
C  38.08500 2.86200 33.50000
C  38.69900 1.81700 28.85900
C  34.06600 2.81600 27.85300
N  35.79200 3.37500 32.83200
C  34.59900 3.73700 33.38400
C  34.74200 3.80300 34.92300
C  36.32900 3.94200 35.09400
C  36.79700 3.31100 33.76500
C  36.79900 5.45600 35.20200
C  34.25800 2.49600 35.46300
C  33.55400 2.74100 36.87000
H  33.96600 3.81800 37.84200
N  38.09800 2.43300 31.07500
C  38.66700 2.52700 32.29500
C  40.07900 2.28600 32.13400
C  40.35800 1.90400 30.77200
C  39.04000 2.01800 30.18400
C  40.97400 2.45100 33.34200
C  41.53600 1.42100 30.07600
O  41.63400 1.21900 28.89000
C  42.82700 1.14300 30.83700
N  36.33600 2.48200 28.66200
C  37.54500 1.96300 28.20900
C  37.50700 1.64700 26.70500
C  35.90900 1.70200 26.37500
C  35.37500 2.33700 27.68900
C  38.31600 2.64000 25.88400
C  35.18600 0.43600 25.85700
C  34.59000 0.54000 24.54500
N  34.08500 3.19200 30.24800
C  33.44300 3.26300 29.01000
C  31.97200 3.65300 29.28900
C  31.97700 3.95200 30.66100
C  33.21000 3.61100 31.21800
C  30.81000 3.83900 28.30500
C  31.23300 4.41600 31.77000
O  30.05000 4.79100 31.87100
C  32.14100 4.35600 33.07200
C  32.14500 5.63100 33.72900
O  32.80100 6.65700 33.43400
O  31.36100 5.48800 34.89200
C  31.31600 6.69400 35.70700
H  38.72700 2.96600 34.37700
H  39.47900 1.35700 28.25000
H  33.43000 2.65700 26.98000
H  34.27200 4.70000 35.32700
H  36.74500 3.37200 35.92400
H  37.24600 5.50800 36.19500
H  36.01000 6.20600 35.24500
H  37.63500 5.68400 34.54100
H  35.05000 1.74900 35.52400
H  33.51900 2.14900 34.74100
H  33.83400 1.85800 37.44400
H  32.47300 2.66700 36.75000
H  41.94800 2.33900 32.86600
H  40.76700 1.70400 34.10900
H  40.74200 3.39300 33.83800
H  42.78500 0.46200 31.68700
H  43.35900 2.03400 31.16800
H  43.49300 0.54000 30.22000
H  38.01600 0.69500 26.55300
H  35.67000 2.51000 25.68300
H  37.65900 3.47500 25.64000
H  38.79500 2.18800 25.01500
H  39.08000 3.12400 26.49200
H  34.35900 0.20700 26.52900
H  35.92000 -0.36500 25.94200
H  35.16600 -0.20400 23.99500
H  34.74200 1.54900 24.16100
H  33.53400 0.27400 24.51500
H  30.82400 3.10900 27.49600
H  30.74700 4.80200 27.79800
H  29.85100 3.72400 28.80900
H  31.77600 3.61600 33.78500
H  32.30800 7.03200 36.00700
H  30.65600 6.54500 36.56200
H  30.85100 7.50300 35.14400
Mg 47.67400 24.97600 28.66900
C  48.35900 27.47100 31.04100
C  47.16900 22.79500 31.25800
C  46.79500 22.72000 26.39900
C  48.53800 27.21000 26.08800
N  47.90500 25.13700 30.85000
C  48.03800 26.29000 31.65000
C  47.82900 26.02700 33.20700
C  47.63800 24.46300 33.23500
C  47.61100 24.08000 31.70000
C  48.63300 23.79400 34.18100
C  46.70600 26.92900 33.84500
C  45.84800 26.42100 35.11700
H  45.85500 27.24900 36.44800
N  47.05600 23.02500 28.77700
C  46.92400 22.32100 29.97300
C  46.46900 20.94400 29.59500
C  46.26900 20.89400 28.16800
C  46.73800 22.23700 27.72200
C  46.27000 19.97100 30.65400
C  45.90900 19.76500 27.23800
O  45.89900 19.80500 25.99700
C  45.62500 18.51900 27.92500
N  47.95200 24.84900 26.42500
C  47.24500 23.95100 25.76700
C  47.08500 24.22800 24.30600
C  47.54800 25.68000 24.26900
C  48.10300 25.92000 25.71300
C  47.93000 23.30100 23.39100
C  46.58900 26.74800 23.78700
C  47.15200 27.99800 23.26000
N  48.23000 26.91300 28.53900
C  48.54600 27.70500 27.42400
C  49.00800 28.97300 27.83500
C  48.83900 29.01600 29.24400
C  48.40400 27.67200 29.64200
C  49.52300 29.92500 26.82200
C  48.94800 29.82800 30.41800
O  49.38600 30.97300 30.54900
C  48.65200 28.89500 31.60700
C  49.67700 28.89600 32.64300
O  50.81500 28.49100 32.42000
O  49.21900 29.32000 33.87300
C  50.32600 29.44700 34.92700
H  46.89300 22.09000 32.04400
H  46.35300 22.03200 25.67500
H  48.82800 27.98100 25.37100
H  48.78100 26.28900 33.66800
H  46.66600 24.17100 33.63300
H  48.13100 23.70500 35.14400
H  49.60100 24.27700 34.31000
H  48.95500 22.84200 33.75800
H  46.04800 27.35100 33.08600
H  47.19400 27.82400 34.23200
H  46.10400 25.38100 35.31900
H  44.78400 26.43300 34.88000
H  45.33500 19.47000 30.40400
H  46.20700 20.27800 31.69800
H  47.04900 19.21000 30.62900
H  44.56400 18.62300 28.15500
H  46.24600 18.38600 28.81100
H  45.82600 17.70100 27.23400
H  46.00700 24.21200 24.14400
H  48.43300 25.64100 23.63400
H  47.69600 23.50900 22.34700
H  47.70200 22.30400 23.76800
H  48.95500 23.58500 23.63000
H  45.93000 27.04800 24.60200
H  45.93300 26.27800 23.05400
H  48.23600 27.97800 23.15100
H  46.79600 28.82500 23.87500
H  46.70700 28.31900 22.31800
H  48.63800 30.38300 26.38100
H  50.20800 29.38900 26.16600
H  50.02900 30.72200 27.36600
H  47.85800 29.26700 32.25400
H  51.35100 29.32900 34.57700
H  50.06700 28.76700 35.74000
H  50.08800 30.39600 35.40700

