158

Mg -0.40800 7.56900 26.58700
C  0.39700 9.52500 29.36100
C  -0.48900 4.70600 28.56600
C  -0.80400 5.80300 23.75100
C  0.26000 10.45500 24.54900
N  0.02000 7.21300 28.78300
C  0.13800 8.18500 29.75200
C  0.20600 7.49800 31.17100
C  0.04100 5.93600 30.84200
C  -0.30200 5.93500 29.31600
C  1.23100 5.00400 31.33200
C  -0.75500 8.13400 32.17700
C  -0.15300 8.59100 33.59400
H  -0.98000 8.11800 34.81800
N  -0.73900 5.60000 26.27700
C  -0.73400 4.54900 27.21300
C  -0.95200 3.32200 26.53300
C  -1.25200 3.59000 25.15500
C  -0.97800 5.06700 24.98700
C  -1.03100 1.95900 27.26800
C  -1.56800 2.67600 23.94800
O  -1.72200 3.04800 22.76800
C  -1.72800 1.23800 24.27700
N  -0.09800 7.98000 24.46600
C  -0.55000 7.10300 23.52500
C  -0.47900 7.72100 22.11100
C  -0.33300 9.22500 22.40500
C  0.02300 9.22500 23.90900
C  0.59700 7.06300 21.15800
C  -1.53800 10.02900 22.04200
C  -1.41000 11.47300 21.51700
N  0.33900 9.67500 26.81400
C  0.53100 10.62700 25.89100
C  0.81800 11.84600 26.62900
C  0.95100 11.39700 27.99400
C  0.51800 10.09500 28.03800
C  0.99300 13.21000 26.16300
C  1.23600 11.86600 29.33400
O  1.67600 12.91000 29.84600
C  0.78900 10.67400 30.25100
C  1.98500 10.36200 31.10300
O  3.00400 9.81500 30.71200
O  1.80400 10.83000 32.36500
C  2.96000 10.56800 33.26500
H  -0.68300 3.78600 29.12100
H  -1.04300 5.11900 22.93500
H  0.17700 11.34800 23.92600
H  1.21600 7.58600 31.57400
H  -0.86100 5.57400 31.33500
H  0.93300 4.31200 32.12000
H  2.04900 5.60000 31.73700
H  1.79700 4.43800 30.59300
H  -1.52200 7.39700 32.41600
H  -1.41200 8.92500 31.81400
H  -0.17800 9.68000 33.61900
H  0.86500 8.22200 33.71600
H  -0.72300 1.08800 26.69000
H  -1.86500 1.72000 27.92800
H  -0.19600 1.93000 27.96800
H  -2.51800 1.15800 25.02300
H  -0.79500 0.79800 24.62900
H  -2.01100 0.68900 23.37900
H  -1.43700 7.64200 21.59700
H  0.50500 9.64900 21.85200
H  0.88300 6.05700 21.46400
H  1.50100 7.67400 21.14600
H  0.23400 7.01600 20.13100
H  -2.15500 10.04100 22.94100
H  -2.06700 9.49900 21.25000
H  -1.93700 11.66700 20.58300
H  -0.34200 11.68500 21.48300
H  -1.84200 12.08300 22.31100
H  1.23600 13.94500 26.93000
H  0.12200 13.64000 25.66800
H  1.76300 13.23700 25.39300
H  -0.02600 11.00100 30.89700
H  3.94000 10.73200 32.81600
H  2.78100 9.55500 33.62700
H  2.98900 11.14300 34.19100
Mg 34.59700 3.23500 29.85200
C  32.29200 3.68400 32.35900
C  37.15800 3.35500 32.06700
C  36.70100 2.49300 27.25200
C  31.90000 3.38300 27.52700
N  34.65500 3.44600 31.96900
C  33.61000 3.58200 32.83300
C  34.15200 3.43900 34.23200
C  35.68900 3.52000 34.10300
C  35.86400 3.50700 32.60400
C  36.39900 4.60500 35.04600
C  33.52400 2.27300 35.09400
C  33.19100 2.43200 36.63400
H  33.95800 3.53400 37.35900
N  36.63500 3.01100 29.69200
C  37.55700 3.08000 30.73100
C  38.96300 2.83200 30.21700
C  38.78300 2.52200 28.84600
C  37.31400 2.60600 28.52000
C  40.21400 3.05600 31.17500
C  39.85600 2.16700 27.90300
O  39.65100 1.96800 26.66400
C  41.23100 2.15900 28.34600
N  34.37700 2.80500 27.69100
C  35.35200 2.60300 26.83200
C  34.82400 2.87700 25.38800
C  33.31900 2.87800 25.53100
C  33.13600 3.06700 27.05300
C  35.38100 4.13900 24.75600
C  32.40900 1.84900 24.75700
C  32.43100 0.43300 25.28000
N  32.56100 3.49200 29.79800
C  31.59100 3.59100 28.80700
C  30.26700 3.87700 29.48000
C  30.57100 3.88500 30.80500
C  31.89900 3.61700 30.98700
C  28.93600 4.00800 28.69100
C  29.90600 4.09100 32.16200
O  28.70600 4.29200 32.43000
C  31.01000 3.87600 33.15700
C  30.96000 5.10800 34.07400
O  31.59400 6.13900 33.93800
O  30.25700 4.79800 35.19500
C  30.39300 5.79200 36.27000
H  37.91700 3.18800 32.83400
H  37.32000 2.45300 26.35400
H  31.02400 3.50800 26.88700
H  33.88500 4.34500 34.77600
H  36.01300 2.49300 34.26900
H  36.72400 5.41700 34.39600
H  37.21100 4.07200 35.54200
H  35.67100 5.00500 35.75100
H  34.17600 1.40000 35.08700
H  32.52500 2.00900 34.74700
H  33.35800 1.47800 37.13500
H  32.11500 2.61100 36.64400
H  40.57300 4.06600 30.97800
H  41.12200 2.50800 30.92200
H  40.01200 3.07800 32.24600
H  41.92000 1.98700 27.51900
H  41.25600 1.22100 28.90100
H  41.67700 2.93800 28.96300
H  35.16100 2.03700 24.78000
H  32.92800 3.82300 25.15500
H  36.01900 4.58800 25.51700
H  34.65400 4.86100 24.38300
H  35.91200 3.85300 23.84700
H  32.71000 1.92000 23.71200
H  31.39100 2.23500 24.80400
H  31.43900 -0.01100 25.19900
H  32.77600 0.37300 26.31200
H  33.15800 -0.09500 24.66300
H  28.21300 3.27800 29.05200
H  29.14600 3.73900 27.65500
H  28.68000 5.06800 28.68900
H  30.68600 2.99600 33.71200
H  29.73600 6.63800 36.06700
H  31.33800 6.23600 36.58200
H  29.88300 5.31300 37.10600

