158

Mg 17.21500 -1.81800 28.11800
C  16.25300 0.02000 30.96500
C  19.37500 -3.62900 30.26400
C  18.86800 -3.08800 25.47100
C  15.59000 0.44800 26.02800
N  17.88600 -1.68900 30.35200
C  17.25200 -0.94000 31.31500
C  17.69400 -1.31800 32.73800
C  18.83400 -2.37500 32.51600
C  18.71600 -2.62400 30.96300
C  20.27500 -1.95800 32.93500
C  16.59900 -1.89900 33.68600
C  16.36600 -1.07400 34.96100
H  17.57400 -0.64500 35.82400
N  18.77100 -3.28600 27.83300
C  19.48000 -3.95500 28.82600
C  20.35300 -4.93900 28.27700
C  20.25600 -4.74800 26.85400
C  19.25500 -3.71300 26.68900
C  21.19400 -5.91800 29.01000
C  20.86100 -5.49400 25.70700
O  20.50800 -5.34600 24.52800
C  21.88800 -6.51400 25.95900
N  17.23500 -1.37500 26.08500
C  17.92500 -2.06200 25.17700
C  17.60600 -1.65100 23.72500
C  16.32300 -0.82000 23.91900
C  16.41400 -0.53000 25.40000
C  18.83400 -0.85200 23.13000
C  15.00200 -1.61400 23.47300
C  14.36200 -1.36800 22.08100
N  16.12300 -0.05100 28.40900
C  15.49500 0.72800 27.43500
C  14.76200 1.73000 28.20200
C  14.90700 1.43000 29.52100
C  15.83800 0.43100 29.61900
C  13.89900 2.77300 27.63700
C  14.45000 1.75800 30.82800
O  13.59400 2.53800 31.19400
C  15.33500 0.92700 31.79800
C  16.17100 1.93000 32.45800
O  17.23700 2.37000 32.03900
O  15.49200 2.37600 33.57200
C  16.08600 3.35500 34.48100
H  19.97500 -4.21900 30.96000
H  19.42800 -3.39100 24.58400
H  14.93600 0.96800 25.32500
H  18.02400 -0.37200 33.16700
H  18.42500 -3.31000 32.90100
H  21.05300 -2.06600 32.17900
H  20.56900 -2.50100 33.83300
H  20.35800 -0.95500 33.35400
H  16.77700 -2.91900 34.02700
H  15.66400 -1.92300 33.12500
H  15.80500 -1.68900 35.66500
H  15.74400 -0.19700 34.78000
H  20.93000 -6.94900 28.77600
H  20.98900 -5.90800 30.08100
H  22.21000 -5.54100 28.89400
H  22.30700 -6.81100 24.99800
H  21.25800 -7.25400 26.45300
H  22.64100 -6.04400 26.59200
H  17.38400 -2.54900 23.14900
H  16.45300 0.10600 23.35900
H  19.77900 -0.83800 23.67400
H  18.50100 0.17300 22.96600
H  19.00700 -1.34300 22.17200
H  14.21800 -1.27600 24.15100
H  15.17400 -2.67900 23.62600
H  13.57900 -2.10900 21.91900
H  15.17700 -1.43100 21.36000
H  13.99000 -0.34400 22.10600
H  14.40200 3.74000 27.62300
H  13.10300 2.82500 28.37900
H  13.37000 2.48500 26.72900
H  14.70800 0.43700 32.54300
H  15.33400 3.68900 35.19600
H  16.51600 4.23300 33.99900
H  16.92500 2.88000 34.98900
Mg 6.07500 55.70900 40.11200
C  5.57100 52.22900 39.89000
C  9.37700 55.10000 39.18200
C  6.59600 58.84200 40.03300
C  2.58200 56.14500 40.50100
N  7.30000 53.82800 39.31600
C  6.91700 52.55300 39.55300
C  7.97100 51.62000 39.26100
C  9.29000 52.45200 39.53500
C  8.66200 53.92500 39.35700
C  9.85500 52.34200 40.97100
C  7.94300 50.85400 37.80800
C  7.52400 51.65800 36.61200
H  6.94600 50.95400 35.41400
N  7.69800 56.81600 39.59700
C  8.92900 56.43300 39.24800
C  9.82200 57.54700 38.94600
C  9.07900 58.67300 39.22300
C  7.69500 58.14400 39.59800
C  11.26700 57.53500 38.46400
C  9.46700 60.17400 39.00700
O  10.62200 60.44800 38.90000
C  8.49100 61.43800 38.99400
N  4.65900 57.30500 39.77400
C  5.24300 58.48800 40.08500
C  4.07100 59.54700 40.26300
C  2.86400 58.55400 40.62100
C  3.36800 57.23000 40.18700
C  4.31800 60.57100 41.38200
C  1.52200 59.01000 40.02000
C  0.25600 59.06500 40.91800
N  4.35600 54.50800 40.15300
C  3.04400 54.83600 40.39500
C  2.31100 53.62700 40.51300
C  3.23700 52.57400 40.41900
C  4.51300 53.14700 40.19400
C  0.76600 53.49700 40.79600
C  3.33200 51.07900 40.38600
O  2.49100 50.23100 40.43300
C  4.91500 50.84100 40.15000
C  5.00000 49.95800 39.00900
O  4.73400 50.18200 37.80300
O  5.30000 48.63600 39.52000
C  5.47200 47.57300 38.50300
H  10.46100 54.98700 39.10200
H  6.78800 59.87400 40.33400
H  1.51000 56.20500 40.70300
H  7.89500 50.71300 39.86000
H  10.06100 52.18700 38.81100
H  10.93900 52.23600 40.94100
H  9.28900 51.51700 41.40500
H  9.62600 53.27600 41.48400
H  7.28000 49.99000 37.82700
H  8.97200 50.53900 37.63500
H  8.49200 52.02700 36.27200
H  6.88700 52.48700 36.92100
H  11.76700 57.89700 39.36200
H  11.53500 58.24700 37.68400
H  11.58100 56.49300 38.42000
H  8.93800 62.35000 38.59900
H  8.10300 61.60900 39.99800
H  7.67100 61.19200 38.31900
H  3.93600 60.00900 39.28500
H  2.75900 58.49600 41.70400
H  5.31700 60.47500 41.80600
H  3.65500 60.51600 42.24600
H  4.17700 61.57900 40.99200
H  1.39400 58.41300 39.11700
H  1.63000 60.02900 39.64600
H  -0.39500 58.32300 40.45700
H  -0.19600 60.04700 41.05400
H  0.52200 58.77100 41.93400
H  0.34000 52.78900 40.08500
H  0.29800 54.43500 40.49900
H  0.48200 53.06800 41.75700
H  5.40400 50.35600 40.99400
H  4.44200 47.21700 38.49400
H  6.08000 46.73800 38.84900
H  5.87300 47.86400 37.53200

