158

Mg 48.29000 16.32100 28.19900
C  46.09700 16.04000 30.94500
C  50.42900 18.18600 30.20900
C  50.23000 16.53100 25.68900
C  45.57800 15.24600 26.12100
N  48.21000 17.03400 30.29900
C  47.29400 16.75300 31.24500
C  47.67300 17.35200 32.63500
C  48.89600 18.23100 32.30100
C  49.21500 17.81200 30.85000
C  48.76000 19.73800 32.47900
C  48.03100 16.17400 33.63100
C  47.58900 16.35500 35.01900
H  47.67300 17.81600 35.61100
N  50.13700 17.10100 28.01400
C  50.94200 17.73700 28.93700
C  52.22500 18.01500 28.34500
C  52.15400 17.52000 27.03800
C  50.80600 17.05700 26.81300
C  53.36800 18.48200 29.23400
C  53.28900 17.49700 25.95800
O  53.10900 16.94000 24.91600
C  54.64700 18.23700 26.05500
N  47.89500 16.11600 26.15800
C  48.97400 16.06400 25.34400
C  48.69100 15.33100 23.96400
C  47.10200 15.10200 24.08100
C  46.81600 15.53000 25.52900
C  49.10100 15.95200 22.55800
C  46.53300 13.67100 23.73300
C  46.79100 12.60500 24.73200
N  46.21800 15.76800 28.42700
C  45.28100 15.28500 27.49500
C  44.09700 14.82700 28.19000
C  44.37600 15.13700 29.52900
C  45.66300 15.73600 29.62600
C  42.80300 14.23800 27.69700
C  43.78200 15.15400 30.85200
O  42.63400 14.86600 31.22100
C  44.85500 15.78700 31.86400
C  44.28700 17.08300 32.32900
O  44.20800 18.10500 31.68700
O  43.94500 16.87900 33.67900
C  43.12700 18.02700 34.18500
H  51.05300 18.90100 30.74900
H  50.77400 16.45300 24.74600
H  44.85900 14.88900 25.38200
H  46.79100 17.86200 33.02200
H  49.77300 17.99600 32.90400
H  48.97500 20.29500 31.56800
H  49.41900 20.07300 33.28000
H  47.72100 19.95600 32.72900
H  49.06800 15.83900 33.60500
H  47.42200 15.33400 33.29700
H  48.20900 15.65000 35.57300
H  46.54600 16.04100 35.02100
H  53.79600 19.41800 28.87500
H  54.26400 17.87400 29.10700
H  53.08200 18.61900 30.27700
H  55.40300 17.75600 25.43400
H  55.15500 18.15600 27.01500
H  54.45900 19.28200 25.80700
H  49.08600 14.31500 23.98600
H  46.57400 15.80700 23.43900
H  48.23700 16.06800 21.90400
H  49.85500 15.32600 22.08100
H  49.55400 16.93300 22.69900
H  46.90000 13.32000 22.76900
H  45.47000 13.79900 23.52900
H  47.37200 11.76200 24.35700
H  45.90700 12.17300 25.20100
H  47.40000 12.95700 25.56500
H  42.27400 13.71000 28.49100
H  43.05400 13.49600 26.93900
H  42.01700 14.85100 27.25600
H  44.98800 15.04900 32.65600
H  42.76700 18.68600 33.39500
H  43.72800 18.57800 34.90900
H  42.21300 17.83000 34.74600
Mg 26.53200 50.07100 26.37300
C  24.41700 51.47200 28.72500
C  28.71600 49.13400 28.73300
C  28.58300 48.78200 23.87200
C  24.35900 51.33000 23.88600
N  26.58600 50.28200 28.46800
C  25.54800 50.75400 29.22800
C  25.82300 50.45600 30.81100
C  27.26800 49.86600 30.74300
C  27.52200 49.68800 29.21700
C  28.34500 50.85300 31.31600
C  24.72200 49.69500 31.49200
C  24.22400 50.13400 32.89700
H  25.12800 50.79200 33.98300
N  28.29000 49.06000 26.33400
C  29.11600 48.82300 27.40400
C  30.24800 48.10100 27.03600
C  30.15800 47.87900 25.62100
C  28.89300 48.53700 25.20000
C  31.31800 47.59100 28.01500
C  31.09300 47.01600 24.75900
O  30.82700 46.63500 23.66100
C  32.46800 46.77600 25.28500
N  26.59300 50.22700 24.13500
C  27.43900 49.49600 23.38900
C  27.16200 49.61900 21.89600
C  25.70300 50.29300 21.86500
C  25.51100 50.67000 23.35000
C  28.29700 50.34000 21.13400
C  24.62700 49.37100 21.22000
C  24.12500 48.15300 21.96500
N  24.69700 51.15000 26.26900
C  23.96000 51.57600 25.22900
C  22.80800 52.29900 25.71700
C  22.97400 52.32700 27.07000
C  24.14500 51.61100 27.38200
C  21.80900 53.03300 24.90500
C  22.36800 52.79800 28.29800
O  21.43300 53.54000 28.55400
C  23.29000 52.23900 29.42300
C  23.68600 53.42000 30.24600
O  24.21200 54.46600 29.87500
O  23.06600 53.36600 31.45400
C  23.19600 54.45200 32.46600
H  29.23500 48.80200 29.63500
H  29.31300 48.35500 23.18100
H  23.55700 51.50500 23.16600
H  25.77100 51.40300 31.34800
H  27.32700 48.88400 31.21200
H  29.15300 50.92700 30.58900
H  28.65400 50.28700 32.19500
H  28.00300 51.85100 31.59000
H  25.03500 48.65600 31.60000
H  23.91100 49.61800 30.76800
H  24.09100 49.16500 33.37800
H  23.31400 50.70500 32.71400
H  31.49400 46.53000 27.84000
H  30.84200 47.75500 28.98200
H  32.23100 48.18000 27.92500
H  32.84300 47.65900 25.80200
H  33.22900 46.57200 24.53100
H  32.54300 45.92800 25.96700
H  27.17600 48.62000 21.46000
H  25.64200 51.25000 21.34800
H  28.17500 51.40800 20.95300
H  28.57700 49.81400 20.22200
H  29.25800 50.33800 21.64900
H  25.07800 49.17800 20.24600
H  23.69400 49.84500 20.91500
H  23.08500 48.39400 22.18600
H  24.77500 48.19900 22.83900
H  24.27400 47.25400 21.36700
H  21.85600 54.07700 25.21600
H  20.80600 52.62000 25.01300
H  22.16700 52.98900 23.87700
H  22.75100 51.50000 30.01800
H  23.70000 55.31500 32.02900
H  23.78100 54.11800 33.32200
H  22.19900 54.75900 32.78200

