158

Mg 30.22400 59.10400 40.40600
C  27.48000 56.73800 39.58300
C  32.34800 56.67700 39.41200
C  32.44900 61.54500 40.23800
C  27.69600 61.35300 41.09200
N  29.90100 56.96000 39.53500
C  28.78300 56.20200 39.36800
C  29.15500 54.81300 38.73700
C  30.66500 54.71100 39.17700
C  31.03800 56.21500 39.39700
C  31.10900 53.69300 40.27700
C  29.01800 54.71800 37.23800
C  28.18000 53.49800 36.77100
H  27.54400 53.61600 35.36500
N  32.26000 59.12500 39.89900
C  32.96700 57.99100 39.51500
C  34.38500 58.35300 39.45200
C  34.49300 59.78100 39.67600
C  33.10200 60.24600 39.98000
C  35.39900 57.38400 39.12700
C  35.73500 60.68200 39.50700
O  36.86800 60.20000 39.31100
C  35.65300 62.19300 39.60800
N  30.10000 61.15400 40.50700
C  31.17900 61.99300 40.50800
C  30.81600 63.43600 40.73100
C  29.29400 63.40400 40.96800
C  28.94400 61.90500 40.85300
C  31.57100 63.95000 42.02700
C  28.45700 64.24900 39.98000
C  27.56100 65.29200 40.63100
N  28.00300 59.10900 40.45200
C  27.19300 60.07300 40.80700
C  25.77600 59.62300 40.77400
C  25.87000 58.40300 40.16800
C  27.25800 58.08300 40.07400
C  24.45800 60.35400 41.04400
C  25.12700 57.32000 39.60100
O  23.94000 57.23100 39.37100
C  26.11400 56.14300 39.30300
C  25.77500 55.07300 40.18400
O  25.70600 55.21000 41.40100
O  25.62500 53.97200 39.53100
C  25.46500 52.71300 40.30000
H  33.07700 55.89200 39.19900
H  33.12600 62.39900 40.30600
H  26.93700 62.06500 41.42300
H  28.58400 54.06000 39.28100
H  31.28700 54.35600 38.35500
H  31.83600 52.96600 39.91400
H  30.29400 53.17000 40.77800
H  31.75800 54.31900 40.89100
H  29.96600 54.78800 36.70500
H  28.54600 55.65100 36.93100
H  27.32600 53.38600 37.43900
H  28.75900 52.59200 36.94900
H  36.31600 57.49500 39.70500
H  35.55200 57.47500 38.05100
H  35.11100 56.35400 39.33600
H  34.80700 62.56800 39.03200
H  36.57300 62.70400 39.32300
H  35.42300 62.29500 40.66900
H  31.02300 63.97300 39.80600
H  29.02800 63.62900 42.00100
H  30.91900 64.39500 42.77800
H  32.27600 64.70400 41.67800
H  32.21600 63.14400 42.37700
H  27.78200 63.67900 39.34100
H  29.20300 64.79000 39.39800
H  28.02700 66.26400 40.46700
H  27.44100 65.13500 41.70300
H  26.56000 65.37100 40.20800
H  23.85400 60.54000 40.15600
H  24.51600 61.24900 41.66300
H  23.87900 59.69800 41.69500
H  26.00100 55.64500 38.34000
H  26.38500 52.37700 40.77800
H  25.17900 51.95800 39.56800
H  24.66300 52.86200 41.02300
Mg 6.07600 54.17000 41.46700
C  5.28900 50.63600 41.09500
C  9.21100 53.32900 40.44200
C  6.61600 57.51500 41.12600
C  2.72300 54.72700 42.23300
N  7.05300 52.16700 40.71000
C  6.57000 50.89600 40.61000
C  7.64500 49.90100 40.22800
C  8.89200 50.75300 40.46700
C  8.33100 52.20600 40.54400
C  9.71400 50.48300 41.76500
C  7.66000 49.29100 38.75800
C  7.24800 50.24200 37.63100
H  5.76400 50.29500 37.18500
N  7.62900 55.30500 40.73500
C  8.88400 54.76500 40.47900
C  9.80300 55.80500 40.14900
C  9.10600 57.07400 40.43600
C  7.71000 56.71600 40.80600
C  11.23700 55.49000 39.83800
C  9.68700 58.50100 40.39000
O  10.90900 58.61800 40.24900
C  8.80600 59.73300 40.65200
N  4.82300 55.81400 41.66100
C  5.32100 57.08000 41.54000
C  4.23000 58.14000 41.86900
C  3.00700 57.25500 42.20000
C  3.51900 55.82000 42.03600
C  4.73300 59.11800 42.94900
C  1.71300 57.65400 41.38100
C  0.43900 57.89500 42.22200
N  4.32900 53.00800 41.87500
C  3.05800 53.36100 42.10100
C  2.17500 52.21600 42.19900
C  3.04700 51.13200 41.97400
C  4.33600 51.62900 41.64600
C  0.66900 52.16800 42.47400
C  3.11500 49.62700 41.85300
O  2.30600 48.75900 42.14200
C  4.53600 49.32900 41.34100
C  4.28000 48.68500 40.04600
O  3.74500 49.02200 39.03300
O  4.69800 47.34100 40.17400
C  4.85000 46.53400 38.94800
H  10.28300 53.15900 40.31700
H  6.59500 58.60100 41.01000
H  1.67100 54.96900 42.40100
H  7.62000 49.12800 40.99600
H  9.58200 50.66300 39.62800
H  9.68800 51.26800 42.52100
H  10.75300 50.35100 41.46500
H  9.46000 49.51500 42.19600
H  6.92500 48.48600 38.73600
H  8.64200 48.92900 38.45600
H  7.81800 49.92400 36.75800
H  7.56600 51.27900 37.73500
H  11.36000 54.46700 39.48100
H  11.91700 55.45700 40.69000
H  11.66400 56.14700 39.08100
H  8.05800 59.70200 39.85900
H  9.38200 60.65300 40.55500
H  8.28900 59.68100 41.61000
H  4.12500 58.71900 40.95100
H  2.74600 57.41700 43.24600
H  3.99700 59.30100 43.73300
H  4.83100 60.13500 42.56900
H  5.65100 58.70800 43.37000
H  1.48800 56.98500 40.55100
H  1.87000 58.62400 40.91000
H  0.39800 57.34000 43.15900
H  -0.40700 57.71400 41.55900
H  0.48800 58.93700 42.53700
H  0.07400 51.99300 41.57700
H  0.42500 53.12500 42.93500
H  0.35700 51.39900 43.18100
H  5.14000 48.70700 42.00100
H  5.77600 45.96100 38.97700
H  4.78000 47.20900 38.09500
H  4.05800 45.78800 39.01200

