158

Mg 40.73600 9.31300 29.98100
C  42.60100 10.79600 32.48700
C  38.27600 8.49900 32.28400
C  38.98000 7.76900 27.51700
C  43.37400 9.72300 27.78400
N  40.52000 9.60600 32.18300
C  41.38900 10.26000 32.99000
C  40.75400 10.31500 34.44400
C  39.57100 9.34400 34.38500
C  39.42700 9.15300 32.85800
C  39.72100 8.06700 35.26500
C  40.40600 11.76700 34.95100
C  41.24600 12.30300 36.07900
H  40.61600 13.12500 37.26600
N  38.81000 8.43300 29.94000
C  38.00500 8.12800 30.94800
C  36.82700 7.51400 30.49100
C  36.88800 7.45600 29.06100
C  38.24900 7.92700 28.73500
C  35.69900 6.97600 31.42600
C  35.93300 6.94600 28.08100
O  36.02000 6.97400 26.83900
C  34.63800 6.40800 28.51900
N  41.05500 8.89800 27.85100
C  40.25900 8.10600 27.08700
C  40.77400 7.85000 25.64700
C  42.27500 8.40100 25.77800
C  42.22400 9.08800 27.22400
C  40.67400 6.41100 24.96800
C  42.70700 9.40800 24.66200
C  42.14800 10.84300 24.59300
N  42.71200 9.94500 30.10300
C  43.65000 10.15400 29.09500
C  44.81900 10.86600 29.62000
C  44.37800 11.14400 30.93900
C  43.16500 10.54500 31.18300
C  46.05900 11.24600 28.94200
C  44.74400 11.84400 32.14500
O  45.86000 12.30600 32.38100
C  43.65200 11.58300 33.28600
C  44.24800 10.70800 34.31600
O  44.44300 9.48500 34.22600
O  44.42700 11.42500 35.50900
C  44.46800 10.58500 36.72900
H  37.65600 8.08800 33.08400
H  38.30900 7.35900 26.75900
H  44.25800 9.82200 27.15100
H  41.65200 9.94100 34.93500
H  38.75900 9.95500 34.77800
H  40.64700 8.06500 35.84000
H  39.73800 7.11200 34.73900
H  38.85300 8.09200 35.92300
H  39.37100 11.90500 35.26400
H  40.55700 12.42500 34.09500
H  42.13000 12.88600 35.82100
H  41.54700 11.35300 36.51900
H  34.82000 7.61300 31.33300
H  35.90800 7.00100 32.49500
H  35.50900 5.92000 31.23700
H  34.09200 6.07600 27.63500
H  34.22000 7.28200 29.01900
H  34.69900 5.57300 29.21600
H  40.19300 8.35800 24.87800
H  43.02000 7.61000 25.86500
H  41.63000 6.02800 24.61100
H  40.13300 6.53200 24.02900
H  39.97900 5.73900 25.47100
H  42.49000 8.92700 23.70900
H  43.77900 9.49900 24.83400
H  42.81900 11.54800 25.08300
H  41.30100 10.90400 25.27700
H  41.77600 11.11600 23.60600
H  45.85400 11.84300 28.05300
H  46.46800 10.32100 28.53800
H  46.69700 11.65600 29.72500
H  43.29500 12.51500 33.72500
H  44.21000 11.21700 37.57900
H  45.54500 10.43300 36.79800
H  43.89200 9.66800 36.60500
Mg 0.28200 44.03200 26.85100
C  2.46700 43.64100 29.45300
C  -2.31600 43.23300 29.11000
C  -1.83800 43.67400 24.24800
C  2.96900 44.35900 24.64000
N  0.10900 43.42200 29.00500
C  1.15900 43.48400 29.88600
C  0.62700 43.48800 31.34100
C  -0.78900 43.04200 31.10900
C  -1.04800 43.29700 29.63800
C  -1.17500 41.60700 31.56200
C  0.74700 44.90300 31.90300
C  1.07100 45.03100 33.40500
H  0.89300 43.76600 34.26300
N  -1.82300 43.67900 26.71000
C  -2.69600 43.50400 27.78500
C  -4.04900 43.52800 27.26300
C  -3.94700 43.49800 25.83300
C  -2.49600 43.60000 25.53700
C  -5.35600 43.49500 28.15300
C  -5.08800 43.38400 24.88400
O  -4.94400 43.41800 23.62400
C  -6.48100 43.26900 25.38400
N  0.53500 43.70600 24.72800
C  -0.49000 43.80400 23.83300
C  -0.13400 44.07700 22.40100
C  1.32700 44.55100 22.61400
C  1.62200 44.22200 24.09100
C  -0.25600 42.88200 21.35100
C  1.50500 46.04400 22.43400
C  1.45100 46.56800 20.95100
N  2.33700 43.96100 26.99300
C  3.30100 44.19500 25.99900
C  4.57600 44.33400 26.64700
C  4.32000 44.03200 28.04500
C  2.96300 43.85200 28.12900
C  5.87000 44.83900 26.03500
C  4.88300 43.83400 29.36400
O  6.02700 43.95800 29.77800
C  3.70900 43.57300 30.31300
C  3.95300 42.29400 30.94100
O  4.00900 41.18300 30.44200
O  4.26500 42.68900 32.19600
C  4.81600 41.59000 33.05900
H  -3.08200 42.99400 29.85000
H  -2.40700 43.65600 23.31600
H  3.71400 44.63700 23.89200
H  1.17300 42.72000 31.88800
H  -1.46400 43.73200 31.61600
H  -1.72100 41.09300 30.77100
H  -1.80200 41.78700 32.43500
H  -0.25600 41.06100 31.77400
H  -0.11600 45.51600 31.64200
H  1.65500 45.29000 31.44000
H  0.48400 45.82700 33.86300
H  2.10800 45.35700 33.48200
H  -5.89800 42.58400 27.89900
H  -6.11500 44.27300 28.07000
H  -5.16700 43.51700 29.22700
H  -6.50700 42.22500 25.69900
H  -7.12700 43.20900 24.50800
H  -6.85000 44.01300 26.09000
H  -0.74100 44.88300 21.98800
H  1.98300 43.95800 21.97700
H  -1.13100 42.96400 20.70700
H  -0.36200 41.99400 21.97500
H  0.59700 42.75100 20.68500
H  2.43900 46.26400 22.95100
H  0.73700 46.61500 22.95700
H  0.64100 47.29000 20.84100
H  1.21300 45.73800 20.28600
H  2.41900 47.05300 20.82700
H  6.47500 45.35700 26.77900
H  5.79600 45.44200 25.13000
H  6.41400 43.95800 25.69400
H  3.69500 44.39800 31.02500
H  4.06600 40.80400 32.98300
H  4.78300 41.89300 34.10500
H  5.77600 41.21400 32.70400

