158

Mg 9.41200 3.35200 27.83500
C  10.42200 1.57500 30.68600
C  7.45200 5.35600 29.89400
C  8.77100 5.26300 25.18200
C  11.23400 1.08100 25.82400
N  8.92800 3.39600 30.06000
C  9.58100 2.69100 31.05900
C  9.36800 3.21000 32.40800
C  8.28300 4.35100 32.13000
C  8.25300 4.43900 30.59500
C  6.80800 4.26800 32.75200
C  10.66300 3.75100 33.13900
C  10.35100 4.38700 34.49900
H  11.24300 4.10400 35.74700
N  8.26400 5.07400 27.56200
C  7.43400 5.68500 28.53600
C  6.75400 6.79700 27.90100
C  7.16500 6.81000 26.55400
C  7.99100 5.59000 26.33900
C  5.66000 7.60100 28.69300
C  6.83200 7.81500 25.42800
O  7.07700 7.62700 24.24200
C  6.18100 9.11100 25.82300
N  10.00400 3.22900 25.83600
C  9.59200 4.15300 24.86800
C  10.31100 3.88700 23.50500
C  10.85300 2.38400 23.73400
C  10.67100 2.20700 25.22100
C  9.42800 3.99100 22.22300
C  12.34600 2.15700 23.27600
C  12.50000 0.84300 22.50100
N  10.52800 1.68200 28.10000
C  11.19800 0.83700 27.25700
C  11.78000 -0.21700 27.95700
C  11.55900 0.07300 29.31600
C  10.68300 1.17600 29.36700
C  12.52900 -1.37300 27.38800
C  11.84400 -0.44800 30.61200
O  12.39200 -1.44700 30.99500
C  11.15300 0.65400 31.62500
C  10.26300 -0.02200 32.57100
O  9.27900 -0.71900 32.36800
O  10.66100 0.37500 33.82300
C  9.97300 -0.28200 34.95300
H  6.96100 6.16400 30.44200
H  8.66700 5.97200 24.35700
H  11.67900 0.28400 25.22500
H  8.87600 2.52800 33.10100
H  8.63500 5.27500 32.58800
H  6.45300 5.19200 33.20900
H  6.77100 3.43100 33.44900
H  6.09500 3.98100 31.97900
H  11.26400 4.40700 32.50900
H  11.25600 2.87300 33.39200
H  9.35700 4.21900 34.91500
H  10.43900 5.46400 34.35700
H  4.79000 7.66200 28.04000
H  6.00400 8.61000 28.92100
H  5.28000 7.18700 29.62700
H  6.11500 9.77700 24.96300
H  6.82100 9.68600 26.49200
H  5.18200 8.99100 26.24300
H  11.18300 4.53700 23.44000
H  10.17600 1.66500 23.27200
H  9.33800 4.97500 21.76400
H  8.44100 3.87600 22.67100
H  9.66900 3.13900 21.58700
H  13.03200 2.19000 24.12300
H  12.55300 2.96900 22.57800
H  13.26300 0.94600 21.73000
H  11.55400 0.52400 22.06200
H  12.81300 0.14400 23.27700
H  11.82600 -2.00100 26.84100
H  13.05000 -1.89500 28.19000
H  13.28000 -0.94000 26.72700
H  11.88300 1.24000 32.18400
H  9.49400 -1.17800 34.55800
H  9.36300 0.42400 35.51500
H  10.76500 -0.60900 35.62700
Mg 24.33000 -5.89600 46.14200
C  26.32200 -3.26500 44.61900
C  21.64300 -4.58200 44.30200
C  22.63800 -8.48900 47.02900
C  27.16800 -6.90300 47.76600
N  24.08200 -4.06400 44.62300
C  25.00400 -3.18800 44.19700
C  24.40300 -2.33300 43.06800
C  22.87000 -2.52400 43.23100
C  22.80400 -3.79800 44.13900
C  22.42800 -1.29900 44.09300
C  24.98700 -2.82200 41.70000
C  25.71400 -1.85000 40.78700
H  25.29700 -1.79600 39.37600
N  22.45400 -6.56500 45.61000
C  21.45900 -5.87900 44.93600
C  20.28500 -6.75700 44.89700
C  20.49800 -7.84600 45.80200
C  21.91900 -7.68800 46.13500
C  18.94900 -6.36000 44.19600
C  19.47900 -8.87400 46.12900
O  18.36900 -8.95100 45.58400
C  19.79300 -9.90600 47.26000
N  24.80100 -7.40800 47.31000
C  23.93300 -8.43200 47.53600
C  24.61600 -9.49600 48.41600
C  25.99100 -8.89600 48.78900
C  25.97600 -7.60100 47.99400
C  23.76700 -10.26700 49.60000
C  27.25400 -9.80700 48.48300
C  28.29600 -10.04000 49.64500
N  26.35800 -5.17100 46.31200
C  27.39000 -5.72100 47.04100
C  28.51800 -4.81500 46.92400
C  28.22700 -3.94700 45.91100
C  26.81500 -4.11700 45.57700
C  29.87300 -4.89100 47.62300
C  28.70000 -2.89300 45.03900
O  29.80900 -2.39700 44.91000
C  27.52700 -2.43800 44.09200
C  27.23600 -0.95600 44.23100
O  26.46800 -0.48600 45.03300
O  28.07400 -0.32300 43.29000
C  27.88000 1.14500 43.25100
H  20.72900 -4.19900 43.84400
H  22.08500 -9.36900 47.36600
H  28.04800 -7.17100 48.35500
H  24.73200 -1.29900 43.18100
H  22.23900 -2.60400 42.34600
H  21.81500 -1.72200 44.88900
H  21.75000 -0.63700 43.55400
H  23.14400 -0.56400 44.46200
H  24.17500 -3.26900 41.12600
H  25.68400 -3.62300 41.94500
H  26.79500 -1.98300 40.81300
H  25.52600 -0.84000 41.15300
H  18.46100 -7.19500 43.69300
H  19.10000 -5.56500 43.46600
H  18.24200 -6.00400 44.94600
H  20.06700 -9.34400 48.15300
H  20.53600 -10.58700 46.84500
H  18.86000 -10.45100 47.40300
H  24.89300 -10.16400 47.60000
H  26.06200 -8.54000 49.81700
H  22.88000 -9.67100 49.81800
H  24.39000 -10.28900 50.49500
H  23.49500 -11.27300 49.28100
H  28.02300 -9.38900 47.83300
H  26.83200 -10.76500 48.18200
H  29.31700 -9.71600 49.44500
H  28.38000 -11.11700 49.79500
H  27.89600 -9.53600 50.52500
H  29.87500 -4.87100 48.71300
H  30.56000 -4.20500 47.12700
H  30.36900 -5.85600 47.51600
H  27.76800 -2.69800 43.06200
H  26.82900 1.33200 43.02800
H  28.54800 1.63500 42.54200
H  28.18200 1.57300 44.20700

