158

Mg 24.08400 -5.47500 46.23400
C  26.37400 -3.15700 45.11500
C  21.69200 -4.29800 44.07300
C  22.08700 -8.22200 47.04400
C  26.64500 -6.86600 48.27800
N  24.06600 -3.99400 44.79000
C  25.07700 -3.08600 44.57100
C  24.68000 -2.02700 43.60700
C  23.07700 -2.26100 43.48500
C  22.90700 -3.63500 44.11100
C  22.04500 -1.14900 44.14900
C  25.44700 -2.16200 42.25800
C  25.81700 -0.88000 41.57200
H  25.24500 -0.79000 40.17400
N  22.12300 -6.10300 45.69400
C  21.32800 -5.45700 44.81500
C  20.02400 -6.07200 44.88400
C  20.08700 -7.27400 45.57500
C  21.47500 -7.24400 46.16700
C  18.80400 -5.61500 44.09700
C  19.00300 -8.34600 45.69400
O  17.92700 -8.11500 45.15700
C  19.22000 -9.68900 46.26500
N  24.23300 -7.22500 47.52500
C  23.30900 -8.20800 47.67200
C  23.89500 -9.43400 48.45600
C  25.19300 -8.81200 49.11600
C  25.41100 -7.54800 48.25300
C  22.98700 -10.18300 49.34600
C  26.41000 -9.69700 49.03900
C  27.02800 -9.98000 47.63200
N  26.17500 -5.17300 46.64700
C  27.04600 -5.67600 47.53000
C  28.31000 -4.90100 47.49900
C  28.07000 -3.95600 46.51900
C  26.79500 -4.11100 46.03000
C  29.51100 -5.13800 48.37400
C  28.70300 -2.90900 45.77100
O  29.86400 -2.47500 45.74300
C  27.58400 -2.27600 44.81600
C  27.53600 -0.83100 45.06100
O  26.84100 -0.27600 45.93800
O  28.27000 -0.08600 44.09200
C  28.11200 1.41100 44.09000
H  20.89700 -3.96100 43.40500
H  21.57600 -9.17500 47.20000
H  27.41800 -7.28300 48.92700
H  24.88200 -1.04600 44.03900
H  22.71200 -2.28700 42.45900
H  22.69200 -0.38100 44.57400
H  21.37100 -1.75500 44.75400
H  21.45200 -0.68100 43.36300
H  24.80100 -2.73300 41.59000
H  26.38600 -2.70200 42.38000
H  26.88100 -0.64500 41.61300
H  25.38900 -0.10000 42.20200
H  18.69800 -5.94000 43.06200
H  18.80600 -4.52500 44.10000
H  17.93500 -5.93300 44.67300
H  19.48200 -9.39800 47.28200
H  20.10500 -10.17900 45.86000
H  18.32300 -10.29600 46.14500
H  24.24800 -10.17500 47.73900
H  24.99300 -8.43700 50.12000
H  21.99700 -9.72900 49.37500
H  23.31600 -10.14600 50.38400
H  22.96700 -11.16600 48.87500
H  26.31200 -10.67000 49.52100
H  27.07700 -9.22400 49.76000
H  27.14200 -11.05100 47.46700
H  28.05700 -9.62900 47.71300
H  26.48000 -9.45500 46.84900
H  30.46700 -4.96400 47.87800
H  29.59800 -6.12900 48.81800
H  29.46200 -4.45200 49.21900
H  27.91300 -2.43600 43.78900
H  27.25000 1.73100 43.50500
H  28.97500 1.86300 43.60000
H  27.94800 1.79700 45.09600
Mg 49.28800 34.61900 26.10100
C  47.00000 33.87000 28.78400
C  49.72800 37.62400 27.67900
C  50.93200 35.46200 23.61000
C  47.99900 31.74500 24.46200
N  48.71500 35.49400 28.17900
C  47.72800 34.96700 29.08500
C  47.60000 35.98800 30.19400
C  48.29900 37.29900 29.69400
C  48.95900 36.75200 28.46200
C  47.33500 38.54600 29.42900
C  48.12100 35.33200 31.51000
C  47.19900 35.50600 32.74300
H  47.41500 36.66400 33.76200
N  50.37000 36.24700 25.66600
C  50.44400 37.46200 26.44100
C  51.30400 38.40500 25.82800
C  51.69200 37.76700 24.61200
C  51.03100 36.45700 24.56000
C  51.63000 39.81100 26.33700
C  52.60600 38.26500 23.50000
O  52.76700 37.65800 22.41700
C  53.40600 39.50200 23.59500
N  49.22200 33.75600 24.20700
C  50.19300 34.28200 23.35400
C  50.55400 33.30800 22.17000
C  49.70400 32.11000 22.56800
C  48.81200 32.57300 23.74100
C  50.40400 33.84900 20.68700
C  50.48500 30.73700 22.83000
C  50.28900 29.59700 21.81600
N  47.76000 33.05900 26.56600
C  47.33700 32.00100 25.76300
C  46.53600 31.18700 26.59900
C  46.21300 32.01500 27.68500
C  47.03200 33.12400 27.63000
C  46.00600 29.85800 26.22400
C  45.37900 32.10600 28.83800
O  44.53000 31.34500 29.31900
C  45.79900 33.41800 29.56800
C  45.92300 32.97700 30.93300
O  46.80600 32.27500 31.34700
O  44.78600 33.23700 31.61900
C  44.73000 32.59800 32.94200
H  49.94600 38.59300 28.13200
H  51.52500 35.68700 22.72100
H  47.91400 30.71000 24.12700
H  46.53000 36.09700 30.37400
H  49.02900 37.54500 30.46500
H  46.36000 38.41300 29.89900
H  47.11900 38.59800 28.36200
H  47.70200 39.43300 29.94500
H  49.00200 35.93800 31.72000
H  48.28000 34.26600 31.34400
H  47.30300 34.58000 33.30700
H  46.17100 35.56800 32.38400
H  51.68500 40.40200 25.42300
H  52.58500 39.72100 26.85500
H  50.86000 40.15900 27.02500
H  54.18000 39.54900 22.82800
H  53.84200 39.64900 24.58300
H  52.76800 40.36300 23.39800
H  51.60800 33.11300 22.36500
H  49.06300 31.88600 21.71500
H  51.31900 33.76100 20.10200
H  50.09100 34.89200 20.74100
H  49.59000 33.36200 20.15000
H  50.19000 30.48900 23.85000
H  51.55500 30.91200 22.72000
H  49.79400 29.83100 20.87400
H  49.63000 28.88000 22.30500
H  51.26900 29.17800 21.58800
H  45.31900 29.30500 26.86500
H  46.89600 29.22900 26.19500
H  45.69100 29.86500 25.18100
H  45.02800 34.18800 29.58800
H  45.39900 33.20100 33.55700
H  45.03600 31.55400 32.88900
H  43.70500 32.65000 33.30800

