158

Mg -2.12300 16.97400 26.25700
C  -2.32200 14.72600 28.95700
C  -2.14200 19.51500 28.47300
C  -2.65000 19.02300 23.59200
C  -2.56500 14.20000 24.01800
N  -2.61900 17.06300 28.52900
C  -2.55800 16.04200 29.41900
C  -2.83000 16.58100 30.83000
C  -2.73400 18.11600 30.50200
C  -2.41100 18.27400 29.05300
C  -4.02100 18.89100 30.93500
C  -2.00700 16.01300 32.02100
C  -1.80600 17.02400 33.19500
H  -1.45800 16.48800 34.59700
N  -2.32400 18.97800 26.07600
C  -2.22500 19.91900 27.11100
C  -2.15300 21.25100 26.47400
C  -2.25600 21.09100 25.07400
C  -2.45600 19.63000 24.85300
C  -1.93900 22.42100 27.26500
C  -2.07200 22.11500 24.01500
O  -2.26100 21.84100 22.80000
C  -1.44900 23.36600 24.33300
N  -2.71900 16.65400 24.11000
C  -2.82600 17.70200 23.24000
C  -3.34000 17.18300 21.85500
C  -2.88200 15.66700 21.91600
C  -2.69400 15.47200 23.42200
C  -4.82800 17.38500 21.79400
C  -1.67600 15.18400 20.99700
C  -0.35200 15.20500 21.77000
N  -2.28300 14.86300 26.40500
C  -2.52400 13.92200 25.40000
C  -2.49100 12.56600 26.03400
C  -2.36900 12.91200 27.46700
C  -2.34300 14.28500 27.64100
C  -2.54400 11.25500 25.33400
C  -2.31300 12.33800 28.79000
O  -2.37300 11.16300 29.16700
C  -2.26500 13.51000 29.80000
C  -1.00900 13.41300 30.58900
O  0.10400 13.80500 30.26900
O  -1.19300 12.66600 31.73000
C  -0.12000 12.62100 32.71200
H  -2.12000 20.34400 29.18500
H  -3.00500 19.69500 22.80800
H  -2.67100 13.36400 23.32400
H  -3.87100 16.37000 31.07200
H  -1.85600 18.48100 31.03500
H  -4.71300 18.21200 31.43300
H  -4.56500 19.42200 30.15400
H  -3.80600 19.70300 31.63000
H  -0.97200 15.82700 31.73300
H  -2.41200 15.07900 32.41000
H  -2.64600 17.69500 33.37300
H  -0.96300 17.66600 32.93900
H  -2.48300 23.28100 26.87500
H  -0.86100 22.53600 27.14900
H  -2.04000 22.33200 28.34700
H  -0.53100 23.19300 24.89500
H  -2.11900 24.05500 24.84800
H  -1.33400 23.78200 23.33200
H  -2.85800 17.74200 21.05200
H  -3.74200 15.07000 21.61500
H  -5.25800 17.34600 22.79500
H  -5.38300 16.66300 21.19500
H  -5.03100 18.34200 21.31400
H  -1.61300 15.86800 20.15100
H  -2.00700 14.16500 20.79700
H  0.44400 14.91600 21.08400
H  -0.37000 14.44600 22.55200
H  -0.15500 16.22300 22.10400
H  -3.57300 10.90200 25.40800
H  -1.94700 10.48700 25.82600
H  -2.23900 11.37900 24.29500
H  -3.08400 13.52600 30.51900
H  0.77700 13.21400 32.53800
H  0.26600 11.60200 32.72500
H  -0.44400 13.02800 33.67000
Mg 41.97700 41.07700 27.13600
C  41.19800 43.54200 29.51400
C  42.64500 38.88200 29.61200
C  42.93300 38.89600 24.74000
C  41.09300 43.37700 24.58200
N  42.15900 41.32500 29.30700
C  41.70300 42.36000 30.10700
C  41.50800 41.84700 31.56200
C  42.35800 40.51400 31.53700
C  42.35100 40.19300 30.03100
C  43.73000 40.79500 32.14700
C  40.03500 41.72600 32.00500
C  39.52500 42.80700 32.96200
H  39.38000 42.51300 34.44400
N  42.72400 39.11900 27.22800
C  42.88900 38.35500 28.32900
C  43.32100 37.08100 27.92300
C  43.47900 37.07800 26.51100
C  43.08000 38.36600 26.09000
C  43.78300 36.02300 28.87100
C  44.07900 36.04500 25.58800
O  44.50500 36.24500 24.44700
C  44.25100 34.68300 26.04800
N  41.97200 41.11600 24.96400
C  42.43600 40.08000 24.23400
C  42.29000 40.40100 22.72900
C  41.68500 41.79700 22.69900
C  41.58100 42.13700 24.17800
C  43.67600 40.17100 21.97800
C  40.36600 41.90900 21.89100
C  39.10700 41.34000 22.54900
N  41.33800 43.04200 27.02700
C  41.01600 43.81700 25.91500
C  40.70900 45.15500 26.35300
C  40.68700 45.06900 27.79200
C  41.18300 43.81600 28.17400
C  40.41800 46.47300 25.49100
C  40.55600 45.83300 29.05100
O  40.37400 46.99400 29.19900
C  40.71800 44.79600 30.19500
C  41.73600 45.37500 31.11200
O  42.96900 45.28900 30.90700
O  41.10900 46.03600 32.13300
C  42.02300 46.80500 32.96500
H  42.75600 38.21400 30.46900
H  43.17900 38.15700 23.97400
H  40.93800 44.08800 23.76800
H  41.94300 42.50800 32.31100
H  41.92300 39.64800 32.03600
H  44.54400 40.47700 31.49500
H  43.83000 40.12700 33.00200
H  43.90500 41.80800 32.50800
H  39.82600 40.74200 32.42400
H  39.45200 41.97700 31.11900
H  38.55800 43.11500 32.56300
H  40.09500 43.72800 32.84600
H  43.20200 35.12000 28.68600
H  43.65700 36.39900 29.88700
H  44.83000 35.72200 28.86000
H  44.43800 33.94900 25.26400
H  43.29600 34.37800 26.47600
H  45.00300 34.71000 26.83700
H  41.61200 39.64500 22.33400
H  42.34900 42.50100 22.19900
H  44.15700 39.25200 22.31400
H  44.35300 40.97700 22.25900
H  43.46300 39.89700 20.94400
H  40.48900 41.39900 20.93600
H  40.26200 42.98900 21.78600
H  39.33500 40.88300 23.51100
H  38.55700 40.68900 21.87000
H  38.43500 42.18000 22.72400
H  39.72700 47.07000 26.08600
H  39.88700 46.27200 24.56100
H  41.34600 46.96400 25.20000
H  39.75300 44.57100 30.65000
H  43.07300 46.51500 32.99900
H  41.60000 46.62500 33.95300
H  41.81400 47.85900 32.78200

