158

Mg 40.48200 9.11500 29.30200
C  42.15200 10.41800 32.07100
C  38.31500 7.53300 31.61200
C  38.92200 7.73600 26.69300
C  43.04800 10.14100 27.25900
N  40.28900 9.03500 31.55800
C  41.00100 9.79200 32.46300
C  40.34500 9.75400 33.88700
C  39.24800 8.71300 33.60900
C  39.33900 8.35100 32.21800
C  39.20400 7.46900 34.59900
C  39.99200 11.17200 34.43800
C  39.27000 11.17000 35.82300
H  39.97000 11.91600 36.96200
N  38.74200 7.89500 29.15200
C  38.00200 7.37100 30.21700
C  36.90100 6.77800 29.60000
C  36.99900 6.84300 28.19200
C  38.28200 7.49300 27.92300
C  35.82000 6.13000 30.46600
C  36.05500 6.40500 27.11700
O  36.29400 6.58800 25.93100
C  34.79200 5.72800 27.53000
N  40.93200 8.95700 27.35700
C  40.05000 8.49200 26.41400
C  40.55100 8.56700 24.97900
C  41.86100 9.43200 25.11400
C  41.98600 9.55900 26.66400
C  40.81200 7.13300 24.37100
C  41.89800 10.78400 24.38600
C  41.10600 12.01200 24.94900
N  42.23300 10.13200 29.58200
C  43.17300 10.52400 28.61700
C  44.26900 11.27900 29.26200
C  43.84900 11.33900 30.61100
C  42.67100 10.52800 30.76900
C  45.49400 11.83300 28.64600
C  44.21000 11.88000 31.89700
O  45.18600 12.52300 32.23200
C  43.09500 11.31200 32.90000
C  43.76900 10.53300 34.03400
O  44.72000 9.82500 33.82400
O  43.23400 10.93700 35.23800
C  43.68200 10.12400 36.36400
H  37.60000 7.15500 32.34500
H  38.40300 7.37700 25.80100
H  43.81300 10.46200 26.54800
H  41.15100 9.25700 34.42700
H  38.33300 9.28000 33.77800
H  38.17600 7.42300 34.95900
H  39.83300 7.63800 35.47300
H  39.63400 6.58700 34.12400
H  39.34600 11.64400 33.69900
H  40.91000 11.74000 34.58800
H  39.18800 10.12500 36.12100
H  38.31400 11.67200 35.67200
H  35.96500 6.36700 31.52000
H  35.90900 5.07000 30.22900
H  34.81200 6.48900 30.25700
H  34.06500 6.48200 27.82900
H  34.85700 4.94500 28.28600
H  34.36600 5.21700 26.66700
H  39.75900 9.06000 24.41800
H  42.74500 8.86600 24.81900
H  41.86300 6.85200 24.31700
H  40.36000 7.06900 23.38100
H  40.33200 6.36800 24.98300
H  41.30200 10.59100 23.49400
H  42.91300 11.11400 24.16300
H  40.76000 11.90400 25.97700
H  40.22700 12.33800 24.39300
H  41.79100 12.85600 25.03400
H  45.25600 12.86400 28.38200
H  45.81600 11.32400 27.73800
H  46.28700 11.89500 29.39000
H  42.59600 12.23200 33.20400
H  44.74400 9.88600 36.29700
H  42.87400 9.42400 36.57900
H  43.54600 10.84000 37.17500
Mg -10.18000 16.73900 40.89400
C  -6.74500 16.25400 41.24000
C  -9.67600 19.99300 40.01100
C  -13.41400 16.87900 40.11300
C  -10.61600 13.11300 41.25400
N  -8.34700 17.88000 40.49100
C  -7.05600 17.54600 40.81900
C  -6.14600 18.60100 40.37700
C  -7.08000 19.87900 40.38400
C  -8.46100 19.27000 40.30500
C  -6.83300 20.92000 41.52900
C  -5.58000 18.22000 39.00700
C  -4.13000 17.61000 38.99700
H  -3.92300 16.20600 38.40500
N  -11.37700 18.28000 40.10800
C  -10.98200 19.53900 39.87200
C  -12.21900 20.30200 39.55000
C  -13.31500 19.42100 39.38700
C  -12.73200 18.12000 39.83200
C  -12.06900 21.77900 39.15200
C  -14.69100 19.67200 38.90300
O  -14.87300 20.79400 38.40600
C  -15.94500 18.74000 38.86600
N  -11.79800 15.19300 40.86700
C  -13.01100 15.60500 40.58300
C  -14.00800 14.42400 40.46400
C  -13.20600 13.31400 41.04500
C  -11.76400 13.90800 40.97000
C  -15.27500 14.61400 41.38500
C  -13.35700 11.95000 40.26500
C  -13.87100 10.81200 41.12400
N  -9.01000 15.02100 41.30600
C  -9.32500 13.64800 41.36900
C  -8.09900 12.93800 41.69500
C  -7.09100 13.92000 41.73100
C  -7.68900 15.11300 41.32500
C  -8.01300 11.41600 41.94400
C  -5.73200 14.12900 42.01400
O  -4.91300 13.37700 42.47700
C  -5.39900 15.63200 41.71500
C  -5.10000 16.28400 42.99800
O  -5.74300 16.12400 44.02600
O  -4.01200 17.14300 42.86600
C  -3.40500 17.41600 44.17700
H  -9.64200 21.06700 39.81800
H  -14.47800 16.98800 39.89200
H  -10.72200 12.03000 41.34300
H  -5.39000 18.71900 41.15300
H  -7.01900 20.41300 39.43500
H  -7.68300 20.97200 42.21000
H  -6.63600 21.90600 41.10700
H  -5.95500 20.69000 42.13200
H  -5.50600 19.06200 38.31900
H  -6.29600 17.53700 38.55100
H  -3.68300 17.65200 39.99000
H  -3.58200 18.26300 38.31800
H  -11.33900 22.34800 39.72800
H  -12.92400 22.37700 39.46700
H  -11.88000 21.91600 38.08700
H  -16.83100 19.18600 38.41400
H  -16.25500 18.53700 39.89100
H  -15.58800 17.86300 38.32600
H  -14.19400 14.37300 39.39100
H  -13.37500 13.19300 42.11500
H  -15.41900 13.82500 42.12300
H  -16.15400 14.59300 40.74100
H  -15.14000 15.55800 41.91200
H  -12.40800 11.54900 39.91000
H  -14.01700 12.09900 39.41100
H  -14.85800 10.45700 40.82700
H  -13.91900 11.11800 42.16900
H  -13.15100 9.99600 41.17700
H  -8.92500 10.87000 42.18500
H  -7.24200 11.12000 42.65600
H  -7.67600 10.98000 41.00400
H  -4.62500 15.83200 40.97300
H  -3.97500 18.12900 44.77300
H  -2.58700 18.06000 43.85300
H  -3.11600 16.53400 44.74800

