158

Mg -1.37200 17.67400 27.23700
C  -2.00100 15.31100 29.79700
C  -1.31000 20.13800 29.57800
C  -1.16700 19.73300 24.72900
C  -2.35300 15.10100 25.06200
N  -1.61600 17.71600 29.43800
C  -1.86900 16.64700 30.27000
C  -1.89200 17.10500 31.75200
C  -1.95800 18.66200 31.58500
C  -1.55200 18.90000 30.10500
C  -3.32800 19.42100 31.79600
C  -0.69200 16.53600 32.53700
C  -0.20000 17.24400 33.81800
H  -0.09200 16.42700 35.12900
N  -1.18900 19.70700 27.11400
C  -1.14800 20.52400 28.18600
C  -0.94000 21.90800 27.68900
C  -0.86800 21.89600 26.28700
C  -1.16200 20.40600 25.94800
C  -0.85600 23.05900 28.71300
C  -0.85800 22.97200 25.31700
O  -0.87300 22.79200 24.10400
C  -0.81800 24.44100 25.77400
N  -1.64400 17.46600 25.22200
C  -1.47700 18.42800 24.34700
C  -1.68100 18.01600 22.87000
C  -1.84400 16.45500 22.97600
C  -1.97200 16.32200 24.49600
C  -2.81100 18.68400 22.10600
C  -0.63300 15.64400 22.45600
C  0.86000 15.91400 22.88200
N  -1.91600 15.62400 27.31400
C  -2.25000 14.72700 26.33200
C  -2.37600 13.39400 26.83100
C  -2.28400 13.59600 28.21100
C  -2.05000 14.94100 28.47600
C  -2.79300 12.25900 25.96100
C  -2.33500 12.90400 29.43700
O  -2.33200 11.69000 29.65300
C  -2.25300 13.98400 30.55600
C  -1.15400 13.51300 31.38100
O  0.04600 13.72300 31.22900
O  -1.68100 12.89200 32.44600
C  -0.67000 12.28300 33.38100
H  -1.21500 20.96400 30.28500
H  -1.03600 20.28400 23.79500
H  -2.48500 14.39300 24.24200
H  -2.87500 16.84800 32.14500
H  -1.14700 19.19600 32.08100
H  -3.99200 19.29700 30.94000
H  -3.08200 20.43700 32.10400
H  -3.86500 18.86700 32.56700
H  0.19000 16.28700 31.94500
H  -1.23500 15.65800 32.88600
H  -0.98000 17.97900 34.01400
H  0.64100 17.93000 33.72400
H  -1.33300 23.90500 28.21900
H  0.15300 23.33500 29.02000
H  -1.36100 22.85000 29.65600
H  -1.73500 24.78700 26.25000
H  -0.69200 25.25100 25.05500
H  0.07100 24.33700 26.39600
H  -0.78000 18.20900 22.28700
H  -2.77700 16.15100 22.50200
H  -2.37400 19.28700 21.31100
H  -3.40300 19.25500 22.82100
H  -3.50000 17.95600 21.67600
H  -0.69100 15.62800 21.36700
H  -0.74400 14.63900 22.86300
H  1.38500 15.00300 23.17000
H  0.96500 16.74000 23.58600
H  1.33000 16.18000 21.93500
H  -2.07500 12.27300 25.14100
H  -3.78600 12.27500 25.51100
H  -2.66500 11.30300 26.46900
H  -3.22600 13.83500 31.02300
H  0.28900 12.06200 32.91300
H  -1.00700 11.30900 33.73600
H  -0.60100 12.85700 34.30500
Mg 46.95600 16.83200 28.19700
C  45.11400 16.35700 31.28000
C  49.28700 18.49700 30.07500
C  48.28000 17.54700 25.38100
C  44.21700 15.27900 26.57800
N  47.15900 17.25000 30.47000
C  46.31400 17.03600 31.49900
C  46.82200 17.54400 32.84100
C  48.07300 18.34900 32.34200
C  48.17700 18.02500 30.86600
C  48.06800 19.92700 32.56600
C  47.05800 16.37300 33.89100
C  48.04000 16.56300 35.09100
H  48.00500 17.93000 35.88700
N  48.58100 17.84500 27.79200
C  49.41000 18.40600 28.68100
C  50.38500 19.02700 27.95000
C  50.20300 18.81300 26.58500
C  49.06800 18.00300 26.50800
C  51.40300 20.04600 28.56700
C  50.92600 19.36000 25.35500
O  50.62000 19.00500 24.21600
C  52.19400 20.22800 25.46900
N  46.30200 16.50500 26.27400
C  47.02600 16.98300 25.21400
C  46.41100 16.44000 23.86700
C  45.32400 15.41700 24.38200
C  45.27000 15.73800 25.85500
C  45.87200 17.55600 22.89000
C  45.70000 13.99100 24.08900
C  45.10000 13.43800 22.79200
N  45.01400 15.92300 28.79600
C  44.03500 15.42300 28.00100
C  42.91900 15.03400 28.78200
C  43.24800 15.35800 30.09400
C  44.54000 15.91800 30.02000
C  41.69800 14.36800 28.18500
C  42.87900 15.31600 31.44400
O  41.84700 14.95500 31.98600
C  44.04800 15.98800 32.28400
C  43.39400 17.07800 33.05000
O  43.39100 18.26400 32.74700
O  42.79900 16.58500 34.18500
C  42.18500 17.57000 35.09800
H  50.10900 18.96400 30.62100
H  48.67800 17.91700 24.43400
H  43.43500 14.74900 26.03100
H  46.06800 18.21600 33.25100
H  49.04000 18.02500 32.72700
H  48.97800 20.29900 33.03600
H  47.25600 20.17800 33.24800
H  48.05100 20.51200 31.64700
H  47.36700 15.46500 33.37300
H  46.11500 16.09300 34.36000
H  49.03700 16.47000 34.66200
H  47.88400 15.83600 35.88800
H  51.46000 20.92900 27.93100
H  52.39300 19.58800 28.56300
H  51.10400 20.27300 29.59000
H  52.91400 19.75400 26.13700
H  51.98100 21.23300 25.83500
H  52.61500 20.39800 24.47800
H  47.16700 15.89900 23.29800
H  44.31700 15.63800 24.02800
H  46.64800 17.65800 22.13100
H  45.73200 18.52900 23.36100
H  44.96200 17.26500 22.36600
H  45.43600 13.52100 25.03600
H  46.78600 13.90200 24.06700
H  45.78000 13.16500 21.98500
H  44.36200 14.16000 22.44500
H  44.44800 12.60600 23.06000
H  41.90900 13.31100 28.02600
H  41.36600 14.87700 27.28000
H  40.94900 14.41500 28.97500
H  44.43000 15.23400 32.97400
H  41.29500 17.99200 34.63200
H  42.95800 18.26600 35.42400
H  41.80100 17.05800 35.98000

