158

Mg -3.35600 16.77800 27.36000
C  -3.12400 14.72100 30.32300
C  -3.32100 19.63100 29.34100
C  -3.49600 18.53700 24.66100
C  -3.44800 13.84500 25.52400
N  -3.23700 17.09600 29.55900
C  -3.11000 16.12700 30.57600
C  -3.12000 16.76400 31.94900
C  -3.28600 18.24300 31.56600
C  -3.20800 18.39600 30.05000
C  -4.59500 18.83500 32.18200
C  -1.87400 16.41300 32.81100
C  -1.51900 17.31800 34.07300
H  -0.84000 16.72000 35.29300
N  -3.36500 18.77300 27.00700
C  -3.35200 19.77800 27.95900
C  -3.23400 21.01200 27.34600
C  -3.31200 20.78900 25.92700
C  -3.45300 19.30400 25.79700
C  -3.18500 22.31800 28.06500
C  -3.09500 21.78400 24.64600
O  -3.15300 21.43400 23.48000
C  -2.57500 23.20000 24.93200
N  -3.41800 16.23000 25.33500
C  -3.48700 17.16500 24.37400
C  -3.43800 16.51400 22.96300
C  -3.28700 15.02500 23.29000
C  -3.40400 15.03900 24.78500
C  -4.68800 16.79800 22.05000
C  -1.96500 14.36700 22.84300
C  -1.88700 13.94300 21.39500
N  -3.43200 14.74600 27.76100
C  -3.40500 13.68300 26.89700
C  -3.36200 12.39200 27.59200
C  -3.23700 12.79600 28.93200
C  -3.32500 14.22300 28.98800
C  -3.43900 11.02700 27.06400
C  -3.23500 12.28500 30.28500
O  -3.12700 11.13400 30.74800
C  -3.02900 13.56600 31.25600
C  -1.66200 13.36400 31.80000
O  -0.72100 13.94600 31.34200
O  -1.68700 12.69900 32.97600
C  -0.43200 12.63800 33.73000
H  -3.38400 20.41600 30.09800
H  -3.50000 19.12400 23.74000
H  -3.49700 12.97900 24.86000
H  -4.02200 16.43600 32.46500
H  -2.49700 18.82200 32.04500
H  -4.58400 19.92400 32.13200
H  -4.53500 18.69100 33.26100
H  -5.44900 18.35900 31.70100
H  -1.01800 16.35600 32.13800
H  -1.93300 15.39600 33.19800
H  -2.45000 17.79300 34.38400
H  -0.86200 18.11900 33.73400
H  -2.23300 22.82700 27.91000
H  -3.33500 22.22500 29.14100
H  -3.93900 23.01400 27.69700
H  -1.67600 23.06900 25.53400
H  -3.26400 23.82900 25.49500
H  -2.36700 23.74400 24.01000
H  -2.56400 16.95300 22.48100
H  -4.16500 14.51600 22.89100
H  -5.34300 17.54300 22.50100
H  -5.37700 16.02500 21.70900
H  -4.31600 17.30600 21.16000
H  -1.73300 13.46200 23.40400
H  -1.16500 15.09600 22.97800
H  -2.76700 14.35800 20.90100
H  -1.86800 12.85700 21.30300
H  -0.98300 14.33500 20.93000
H  -4.45400 10.66000 27.21900
H  -2.67900 10.49900 27.63900
H  -3.05900 10.90200 26.05000
H  -3.77100 13.42600 32.04300
H  -0.31400 13.46100 34.43400
H  0.47900 12.48900 33.14900
H  -0.57900 11.68600 34.23900
Mg 25.20400 1.69800 30.05200
C  27.05100 1.80300 33.03800
C  22.32100 1.96000 31.93800
C  23.40900 1.33500 27.21700
C  28.03100 0.66700 28.29700
N  24.75500 1.85200 32.23400
C  25.65400 2.05500 33.18500
C  25.03200 2.30700 34.51000
C  23.46900 2.27200 34.22100
C  23.48700 1.93900 32.71700
C  22.64900 1.43600 35.13900
C  25.51300 3.68200 35.10400
C  26.33700 3.65400 36.38500
H  25.87700 4.56100 37.62700
N  23.18600 1.62000 29.64100
C  22.14600 1.81600 30.53100
C  20.89500 1.83300 29.78700
C  21.23300 1.54900 28.36900
C  22.66700 1.49200 28.34400
C  19.50300 1.92700 30.47000
C  20.25700 1.25200 27.20600
O  20.57500 1.24600 26.03000
C  18.80000 1.06100 27.49800
N  25.64000 1.04600 28.04000
C  24.80700 1.23200 26.99100
C  25.48000 1.15400 25.64800
C  26.97900 0.86500 26.02100
C  26.89400 0.81200 27.50600
C  24.73100 0.28400 24.55900
C  28.01100 1.79800 25.33300
C  28.07300 1.77700 23.80400
N  27.18600 1.38800 30.49200
C  28.16700 0.91400 29.66200
C  29.28600 0.77600 30.50700
C  28.95400 1.11400 31.75700
C  27.61300 1.47100 31.78400
C  30.55900 0.32300 29.88600
C  29.43800 1.32500 33.12800
O  30.59300 1.09100 33.49400
C  28.27000 1.69600 34.10100
C  28.19700 0.51800 35.07800
O  27.68300 -0.57600 34.93100
O  28.94800 0.90500 36.19200
C  29.06800 -0.12400 37.25100
H  21.36200 1.98000 32.45900
H  22.92600 1.36900 26.23900
H  28.96800 0.42200 27.79100
H  25.42500 1.44000 35.04000
H  23.05800 3.28100 34.18500
H  22.50300 0.53600 34.54200
H  21.65300 1.80700 35.38100
H  23.24100 1.11900 35.99800
H  24.71000 4.41200 35.20100
H  26.19500 4.05400 34.34000
H  27.31500 4.06100 36.12600
H  26.35700 2.65600 36.82300
H  19.14400 0.99700 30.90800
H  18.86300 2.48300 29.78400
H  19.61900 2.56000 31.35000
H  18.30500 0.65100 26.61800
H  18.56400 2.11300 27.65800
H  18.46500 0.47900 28.35700
H  25.42300 2.15600 25.22300
H  27.22600 -0.09100 25.55800
H  23.71300 -0.03000 24.79000
H  25.28300 -0.61700 24.29400
H  24.51400 0.88400 23.67600
H  29.05400 1.60800 25.58900
H  27.79600 2.81600 25.65600
H  28.99000 1.28500 23.47900
H  28.07900 2.79700 23.42200
H  27.24200 1.15500 23.47000
H  30.96100 1.18000 29.34500
H  30.53600 -0.48900 29.15800
H  31.26000 0.08300 30.68600
H  28.39100 2.58200 34.72400
H  29.56100 -0.98200 36.79500
H  28.12700 -0.52500 37.63000
H  29.65200 0.27900 38.07900

