158

Mg 17.22800 -2.02800 27.23000
C  16.28000 0.01500 29.85900
C  19.22400 -3.77700 29.47200
C  18.69300 -3.48700 24.65200
C  15.26600 -0.13800 25.10400
N  17.82400 -1.74700 29.35500
C  17.21500 -0.92500 30.28600
C  17.66500 -1.19900 31.76500
C  18.76700 -2.24400 31.49700
C  18.65300 -2.62900 30.05000
C  20.29900 -1.80200 31.71800
C  16.49900 -1.75200 32.64600
C  16.50700 -1.34200 34.12100
H  17.74300 -0.85600 34.83800
N  18.57500 -3.55300 27.09000
C  19.24000 -4.17700 28.12100
C  19.96400 -5.27500 27.53800
C  19.96700 -5.08700 26.11300
C  19.05000 -3.98300 25.89400
C  20.69300 -6.37400 28.39700
C  20.67600 -5.93500 25.01200
O  20.70500 -5.70200 23.82400
C  21.32900 -7.19900 25.46000
N  17.21000 -1.63300 25.13100
C  17.79400 -2.51400 24.26900
C  17.46400 -2.17500 22.80200
C  16.03100 -1.51300 23.07700
C  16.18500 -0.97900 24.48800
C  18.48100 -1.27500 22.12400
C  14.82300 -2.51600 22.69200
C  14.24800 -3.29600 23.84200
N  16.01300 -0.31600 27.39800
C  15.24700 0.27200 26.42200
C  14.43500 1.27500 27.02800
C  14.76300 1.20900 28.39400
C  15.78100 0.27300 28.56600
C  13.34500 2.06900 26.34500
C  14.50900 1.71400 29.72800
O  13.67200 2.54100 30.11200
C  15.47100 0.97900 30.71300
C  16.35300 1.97500 31.39000
O  17.40400 2.45700 30.93900
O  15.72000 2.33800 32.53600
C  16.36700 3.44000 33.26700
H  19.78900 -4.46800 30.10000
H  19.12600 -3.83000 23.71000
H  14.57200 0.36100 24.42500
H  18.13700 -0.25000 32.02100
H  18.65100 -3.08000 32.18700
H  20.82600 -2.16500 30.83600
H  20.78800 -2.24000 32.58800
H  20.25600 -0.71600 31.79600
H  16.62900 -2.83400 32.63000
H  15.52500 -1.63800 32.17200
H  16.01500 -2.13600 34.68300
H  15.78900 -0.52200 34.14900
H  20.40000 -7.37700 28.08800
H  20.31600 -6.33900 29.42000
H  21.78200 -6.36400 28.35200
H  20.68800 -7.90200 25.99300
H  22.12400 -6.76400 26.06600
H  21.90000 -7.70400 24.68200
H  17.40600 -3.14900 22.31600
H  15.87800 -0.62700 22.46000
H  19.41000 -1.20800 22.69100
H  18.10200 -0.29800 21.82400
H  18.73100 -1.84100 21.22700
H  15.18600 -3.25900 21.98200
H  14.07300 -1.83200 22.29400
H  13.95900 -2.55900 24.59200
H  15.01000 -3.93400 24.28900
H  13.37400 -3.93700 23.72600
H  13.71100 2.66500 25.51000
H  12.74700 2.55500 27.11600
H  12.77000 1.27300 25.87200
H  14.77200 0.48200 31.38500
H  15.68900 3.88700 33.99300
H  16.63600 4.21000 32.54200
H  17.32800 3.19000 33.71500
Mg -11.62600 16.25400 42.39800
C  -8.61400 14.51900 41.76900
C  -10.28700 19.05600 41.15000
C  -14.73000 17.46900 42.26800
C  -13.01500 13.06500 43.01600
N  -9.77800 16.68600 41.34600
C  -8.67500 15.87100 41.32500
C  -7.47700 16.60100 40.68000
C  -7.95100 18.08600 40.64300
C  -9.40700 17.93800 41.01500
C  -7.03500 18.83600 41.69500
C  -7.11700 16.08700 39.26100
C  -5.57200 16.10700 38.90200
H  -4.95400 17.29800 38.20200
N  -12.42800 18.10800 41.78400
C  -11.65400 19.15700 41.31500
C  -12.52200 20.29000 41.17400
C  -13.85400 19.85100 41.51100
C  -13.73700 18.43300 41.93700
C  -11.97400 21.59300 40.85500
C  -15.19100 20.63900 41.30900
O  -15.14700 21.74600 40.76400
C  -16.45600 20.10500 41.71200
N  -13.61500 15.33400 42.31900
C  -14.65700 16.11000 42.40600
C  -15.95500 15.31400 42.71200
C  -15.43500 13.79800 42.69700
C  -13.90000 14.06000 42.68300
C  -16.75200 15.70300 44.04300
C  -15.97500 12.86500 41.48200
C  -16.51300 11.59000 42.06500
N  -10.94000 14.20400 42.59100
C  -11.61400 13.10300 42.88300
C  -10.61500 11.97300 42.95900
C  -9.41500 12.54100 42.57900
C  -9.69500 13.86300 42.28300
C  -10.92400 10.59500 43.50700
C  -8.07700 12.30700 42.31200
O  -7.41900 11.24500 42.43100
C  -7.45400 13.61700 41.81500
C  -6.39500 14.07500 42.76200
O  -6.35400 13.96700 43.98600
O  -5.28400 14.55700 42.12000
C  -4.20500 15.00100 43.06700
H  -9.79400 19.96100 40.78800
H  -15.72700 17.82500 42.53400
H  -13.48800 12.12400 43.30400
H  -6.53500 16.49400 41.21800
H  -7.84000 18.52600 39.65200
H  -7.67600 19.59700 42.14200
H  -6.16700 19.30600 41.23400
H  -6.70600 18.08400 42.41200
H  -7.59700 16.72000 38.51400
H  -7.36700 15.05000 39.04100
H  -5.42700 15.22300 38.28200
H  -4.97300 15.95800 39.80000
H  -12.69700 22.37400 41.08900
H  -11.75000 21.68700 39.79300
H  -11.09900 21.79200 41.47400
H  -17.23800 20.85600 41.59200
H  -16.35400 19.83000 42.76200
H  -16.63900 19.27300 41.03100
H  -16.64300 15.45500 41.87900
H  -15.67700 13.30900 43.64100
H  -17.78800 15.77200 43.71200
H  -16.51300 16.68200 44.45800
H  -16.64900 14.91700 44.79100
H  -15.07000 12.78800 40.87800
H  -16.71700 13.53700 41.05100
H  -15.78600 10.84100 41.75100
H  -17.53600 11.30500 41.82300
H  -16.36900 11.47000 43.13900
H  -11.83100 10.28300 42.99000
H  -11.20500 10.71000 44.55400
H  -10.23300 9.75300 43.46600
H  -7.08600 13.34900 40.82500
H  -4.56400 16.00500 43.29300
H  -3.34800 15.21400 42.42800
H  -3.97300 14.44200 43.97400

