158

Mg 47.84800 24.86700 28.14800
C  48.60200 27.02100 30.89800
C  47.62700 22.24200 30.49100
C  47.31700 22.82200 25.65200
C  49.03600 27.31400 25.87900
N  48.01100 24.62800 30.42600
C  48.30500 25.68400 31.30600
C  48.28500 25.17400 32.76400
C  48.26200 23.67700 32.56900
C  47.91200 23.50800 31.10500
C  49.62200 22.94600 33.00500
C  47.06100 25.71000 33.57400
C  47.42500 26.67100 34.74600
H  46.42500 26.62300 35.83400
N  47.41300 22.78700 28.12800
C  47.25100 21.92500 29.13900
C  46.68300 20.69700 28.62300
C  46.45900 20.96900 27.27200
C  47.10100 22.21400 26.96100
C  46.46500 19.46700 29.48400
C  45.65300 20.10100 26.27900
O  45.38600 20.41500 25.12200
C  44.88200 18.97500 26.87000
N  48.28700 25.00200 26.06600
C  47.78400 24.04900 25.28400
C  47.81300 24.47400 23.76200
C  48.19400 26.03500 23.93300
C  48.52300 26.10400 25.38600
C  48.61300 23.60000 22.79500
C  46.99000 26.91400 23.50600
C  47.18200 27.87000 22.31900
N  48.65500 26.80700 28.33600
C  49.16300 27.62900 27.27500
C  49.64200 28.84300 27.97200
C  49.37400 28.70500 29.38200
C  48.82800 27.38200 29.56000
C  50.23600 30.02400 27.28900
C  49.46600 29.35000 30.66100
O  49.91400 30.43900 30.96400
C  48.91100 28.24500 31.68800
C  50.05700 28.01000 32.54900
O  50.92100 27.17600 32.49300
O  49.97800 28.96600 33.61100
C  50.99500 28.87700 34.64500
H  47.54100 21.45800 31.24600
H  46.95100 22.19100 24.83900
H  49.36500 28.06300 25.15600
H  49.16700 25.50100 33.31400
H  47.43200 23.22900 33.11500
H  50.09300 22.31600 32.25100
H  49.39900 22.22900 33.79500
H  50.31000 23.69300 33.40200
H  46.64100 24.86500 34.11900
H  46.33200 26.01100 32.82200
H  47.53400 27.68100 34.34900
H  48.37600 26.30600 35.13200
H  45.42800 19.13400 29.52600
H  46.74900 19.62400 30.52400
H  47.07400 18.67700 29.04400
H  45.61500 18.26000 27.24200
H  44.33500 18.57800 26.01500
H  44.22400 19.35500 27.65100
H  46.76500 24.45100 23.46500
H  49.11900 26.24000 23.39400
H  48.92400 22.71300 23.34600
H  49.51900 24.15300 22.54500
H  48.06200 23.36300 21.88500
H  46.74900 27.59800 24.32000
H  46.17600 26.24600 23.22400
H  46.29400 27.81000 21.69000
H  48.06800 27.52600 21.78400
H  47.28800 28.92000 22.59300
H  50.88400 30.41500 28.07300
H  49.50100 30.78800 27.03800
H  50.78200 29.57000 26.46100
H  48.07500 28.68500 32.23000
H  50.83500 28.10000 35.39200
H  50.96300 29.85400 35.12900
H  51.96700 28.82300 34.15400
Mg -10.15300 16.93000 40.81600
C  -6.66500 16.65800 41.27900
C  -9.77700 20.32600 40.50000
C  -13.34800 17.04100 39.98700
C  -10.22000 13.48400 40.64200
N  -8.42100 18.26600 40.99300
C  -7.12500 17.98500 41.09800
C  -6.29300 19.24300 40.90200
C  -7.25000 20.44800 41.17300
C  -8.56400 19.66100 40.85800
C  -7.21200 21.11900 42.54000
C  -5.67200 19.32700 39.48400
C  -4.25400 18.94000 39.33600
H  -3.79600 18.16200 38.13000
N  -11.48300 18.51400 40.30100
C  -11.12200 19.82900 40.20800
C  -12.26900 20.56900 39.71200
C  -13.32600 19.60300 39.47400
C  -12.74500 18.34000 39.91700
C  -12.32300 22.09700 39.48300
C  -14.75800 19.87700 39.00200
O  -15.04100 21.06900 38.73200
C  -15.94900 18.86200 38.97100
N  -11.52800 15.41000 40.16100
C  -12.81600 15.75600 40.17100
C  -13.66100 14.47700 40.43400
C  -12.63100 13.34400 40.21600
C  -11.36800 14.12400 40.31900
C  -14.46500 14.52600 41.82500
C  -12.77500 12.63100 38.86900
C  -12.79400 11.10900 38.92200
N  -8.78000 15.33200 41.02200
C  -9.00900 13.98900 41.02100
C  -7.74500 13.32100 41.31800
C  -6.79000 14.34600 41.49800
C  -7.49500 15.53900 41.29900
C  -7.54000 11.86500 41.54800
C  -5.46500 14.66000 41.77500
O  -4.56500 13.90000 41.99000
C  -5.28000 16.12100 41.46800
C  -4.42000 16.73700 42.50500
O  -3.29000 17.13800 42.35300
O  -5.21200 16.99100 43.61800
C  -4.58200 17.60900 44.76300
H  -9.59900 21.39800 40.39500
H  -14.43200 16.98000 39.86900
H  -10.29800 12.40200 40.51500
H  -5.54900 19.37000 41.68800
H  -7.24000 21.13300 40.32400
H  -6.21100 21.15900 42.97000
H  -7.87400 20.63100 43.25400
H  -7.49500 22.14000 42.28300
H  -5.74600 20.38300 39.22300
H  -6.24400 18.68000 38.82000
H  -4.04800 18.28300 40.18200
H  -3.67700 19.84800 39.51100
H  -11.54800 22.40100 38.78000
H  -12.02800 22.71400 40.33100
H  -13.20500 22.45600 38.95300
H  -15.57600 18.17700 38.21000
H  -16.84600 19.33800 38.57300
H  -15.93600 18.47400 39.98900
H  -14.47800 14.47400 39.71200
H  -12.62000 12.63100 41.04000
H  -14.54400 13.48500 42.13700
H  -15.44300 15.00500 41.78800
H  -13.96400 15.07000 42.62600
H  -11.87200 12.88800 38.31500
H  -13.64200 12.92900 38.28000
H  -12.67500 10.74200 39.94100
H  -11.86600 10.81800 38.43000
H  -13.63700 10.73600 38.34100
H  -7.18700 11.24400 40.72500
H  -8.52200 11.56900 41.91700
H  -6.85100 11.78300 42.38900
H  -4.74100 16.23800 40.52800
H  -5.16600 17.25700 45.61400
H  -4.79900 18.67700 44.78600
H  -3.54700 17.33900 44.97400

