158

Mg 24.99800 1.13100 28.61000
C  27.14500 0.54000 31.39400
C  22.29800 0.88000 30.79300
C  22.85600 0.96800 25.93600
C  27.68900 0.45600 26.52500
N  24.79700 0.72000 30.77100
C  25.77700 0.64900 31.70700
C  25.26300 0.92900 33.12700
C  23.67700 0.90100 32.86900
C  23.55300 0.79700 31.36400
C  23.04900 -0.31400 33.55600
C  25.76500 2.31700 33.66500
C  25.26100 2.71600 35.06000
H  26.22200 2.72400 36.29700
N  22.83700 1.14600 28.41100
C  21.90100 1.02500 29.41300
C  20.61900 1.13200 28.82300
C  20.76100 1.19200 27.42500
C  22.22300 1.03700 27.18000
C  19.31000 1.19300 29.56800
C  19.63000 1.27500 26.32700
O  19.85800 1.76600 25.18700
C  18.25800 0.89500 26.67800
N  25.22000 0.82700 26.49400
C  24.19000 0.88900 25.61400
C  24.69000 0.99700 24.16500
C  26.30900 0.85100 24.33600
C  26.42500 0.72000 25.89400
C  23.95200 0.08200 23.19300
C  27.03100 2.09700 23.79500
C  26.74700 3.44900 24.50700
N  27.07700 0.68400 28.81600
C  28.02000 0.34900 27.88000
C  29.25600 0.04300 28.55200
C  29.01300 0.17200 29.96000
C  27.61800 0.50000 30.04900
C  30.51000 -0.30300 27.82400
C  29.55300 -0.01600 31.33000
O  30.68100 -0.36300 31.74200
C  28.34000 0.42900 32.22800
C  28.19400 -0.50400 33.33900
O  27.31000 -1.38300 33.43600
O  29.22000 -0.19500 34.29100
C  29.16700 -0.96200 35.50400
H  21.52800 0.97300 31.56200
H  22.23500 0.99000 25.03800
H  28.50200 0.27400 25.81900
H  25.55400 0.13500 33.81400
H  23.21500 1.80800 33.26000
H  22.47500 -0.92300 32.85700
H  22.34000 -0.00100 34.32200
H  23.73700 -1.06900 33.93500
H  25.63900 3.14700 32.97000
H  26.83500 2.52500 33.64700
H  24.57200 1.91700 35.33300
H  24.88000 3.72700 34.91100
H  18.59800 0.40100 29.33300
H  18.99000 2.20000 29.30000
H  19.28000 1.12000 30.65500
H  18.39000 -0.07400 27.15900
H  17.72100 0.68200 25.75400
H  17.92600 1.70100 27.33300
H  24.56100 2.00200 23.76400
H  26.67400 -0.05200 23.84800
H  23.62900 0.67600 22.33800
H  23.24600 -0.57300 23.70300
H  24.70900 -0.54300 22.71900
H  26.77300 2.21200 22.74200
H  28.11100 2.01700 23.92100
H  25.94500 3.37100 25.24000
H  26.29300 4.10300 23.76300
H  27.67000 3.80000 24.96900
H  30.46900 -0.07900 26.75800
H  30.62600 -1.38500 27.88500
H  31.40200 0.02200 28.35800
H  28.65200 1.37400 32.67200
H  28.54500 -0.41100 36.20900
H  30.19100 -1.10400 35.84800
H  28.83800 -1.99700 35.40300
Mg 40.58500 8.44700 28.92700
C  42.14900 9.42500 31.93200
C  38.21100 6.79300 30.80100
C  39.28800 7.41300 26.14000
C  43.39500 9.75100 27.19200
N  40.27100 8.12200 31.14000
C  40.90200 8.75300 32.17300
C  40.37300 8.34600 33.50700
C  39.29600 7.30800 33.17300
C  39.29000 7.28500 31.60100
C  39.47100 5.89600 33.87900
C  39.89300 9.41500 34.48000
C  40.32800 9.24100 35.98200
H  40.47600 10.58500 36.83000
N  38.90800 7.39900 28.54600
C  37.98800 6.82800 29.42900
C  36.88300 6.25200 28.63800
C  37.13500 6.55900 27.28100
C  38.46300 7.18400 27.25600
C  35.70200 5.55200 29.36600
C  36.31800 6.31800 26.00500
O  36.75100 6.74800 24.90600
C  34.96300 5.66800 25.99400
N  41.24800 8.53200 26.96900
C  40.47800 8.10300 25.97500
C  41.01700 8.34200 24.61800
C  42.39300 9.16500 24.83100
C  42.40300 9.10200 26.39100
C  41.26200 7.01400 23.85500
C  42.45400 10.53900 24.20500
C  41.24700 11.43100 24.36700
N  42.36300 9.43200 29.37800
C  43.39400 9.89100 28.59600
C  44.34800 10.59500 29.42700
C  43.90200 10.40300 30.71200
C  42.70400 9.65600 30.64700
C  45.49100 11.41400 28.92400
C  44.21100 10.76200 32.13800
O  45.11400 11.41700 32.68700
C  43.08700 10.15900 32.92800
C  43.74000 9.27200 33.97500
O  44.36400 8.28400 33.74700
O  43.62700 9.88300 35.19000
C  44.33600 9.25600 36.30100
H  37.54600 6.17100 31.40300
H  38.93400 7.08300 25.16100
H  44.23800 10.20100 26.66400
H  41.18700 7.87200 34.05600
H  38.32700 7.70100 33.47900
H  40.37200 5.87900 34.49200
H  39.48000 5.05600 33.18500
H  38.73300 5.86400 34.68100
H  38.80400 9.41200 34.52800
H  40.06900 10.43400 34.13600
H  41.24000 8.64500 35.98200
H  39.57300 8.69800 36.55100
H  34.76500 6.10400 29.44300
H  35.94200 5.48500 30.42700
H  35.67200 4.58300 28.86900
H  34.48500 5.74400 26.97100
H  35.12200 4.61200 25.77700
H  34.28800 6.15000 25.28700
H  40.40200 9.00700 24.01200
H  43.34000 8.63000 24.76300
H  40.71200 6.97400 22.91400
H  41.08100 6.14900 24.49300
H  42.32900 6.96600 23.63700
H  42.51800 10.19300 23.17300
H  43.39400 11.02800 24.45900
H  41.55700 12.43800 24.64400
H  40.57100 11.06000 25.13800
H  40.62800 11.42900 23.47000
H  45.08900 11.90400 28.03800
H  46.18900 10.69000 28.50400
H  46.03400 11.99400 29.67100
H  42.53500 10.96500 33.41000
H  45.42400 9.23800 36.24700
H  44.04600 8.20500 36.27200
H  44.04500 9.64200 37.27800

