158

Mg 29.81900 58.65000 39.04000
C  27.02900 56.70100 38.14800
C  31.85600 56.01500 38.50900
C  32.38300 60.81100 39.13500
C  27.61700 61.35000 39.30200
N  29.46200 56.66000 38.02300
C  28.18700 56.03800 37.92000
C  28.40800 54.57500 37.51500
C  29.83100 54.25500 38.20400
C  30.46300 55.72700 38.25000
C  29.77300 53.57800 39.59100
C  28.41700 54.44700 35.96000
C  27.23300 53.67100 35.30200
H  26.21700 54.48700 34.43700
N  31.97000 58.40600 39.01700
C  32.59600 57.25900 38.73100
C  34.01500 57.46200 38.75700
C  34.26200 58.82400 39.05700
C  32.86800 59.42000 39.01900
C  34.96500 56.34700 38.67700
C  35.51000 59.52600 39.17500
O  36.59500 59.01800 38.99900
C  35.56000 60.92000 39.51100
N  30.02300 60.76300 39.45200
C  31.18200 61.43700 39.29300
C  30.95700 62.96400 39.45200
C  29.48000 63.11600 39.61400
C  29.01400 61.64300 39.45600
C  31.83700 63.58900 40.61200
C  28.75100 64.08000 38.64600
C  28.15300 65.29000 39.18800
N  27.73900 59.05700 38.82400
C  26.98800 60.15100 38.98600
C  25.64700 59.86200 38.85200
C  25.55000 58.56700 38.51900
C  26.87900 58.07300 38.51800
C  24.50900 60.74700 39.22100
C  24.69300 57.47200 38.28000
O  23.47200 57.41900 38.19300
C  25.58300 56.21300 38.01500
C  25.17400 55.10900 38.94400
O  25.32000 55.10700 40.15400
O  24.57700 54.12200 38.19100
C  23.89100 52.95100 38.78400
H  32.44600 55.09700 38.46400
H  33.17100 61.55100 39.28900
H  26.93600 62.16000 39.57400
H  27.57500 53.93100 37.79900
H  30.45000 53.53600 37.66800
H  30.47200 52.74500 39.66800
H  28.78500 53.11900 39.57100
H  29.90000 54.23200 40.45400
H  29.28500 53.84300 35.69700
H  28.55300 55.45500 35.56800
H  26.66300 53.11200 36.04500
H  27.66700 52.88100 34.68800
H  35.92100 56.65500 39.10000
H  35.16300 56.16400 37.62100
H  34.53800 55.47800 39.17800
H  36.57500 61.22700 39.76500
H  34.85800 61.27200 40.26700
H  35.38700 61.48000 38.59200
H  31.26400 63.40200 38.50300
H  29.18900 63.32200 40.64400
H  31.94100 64.66900 40.50300
H  32.82100 63.14000 40.48200
H  31.27300 63.34100 41.51100
H  27.94800 63.61900 38.07100
H  29.51400 64.40800 37.94000
H  28.64200 66.09000 38.63300
H  28.51800 65.42500 40.20700
H  27.07200 65.31900 39.05300
H  24.88700 61.44300 39.97000
H  23.61300 60.17900 39.47200
H  24.24400 61.45900 38.43900
H  25.47900 55.90900 36.97400
H  23.15500 52.46500 38.14300
H  23.31900 53.12500 39.69500
H  24.66500 52.23400 39.06100
Mg 26.15100 51.44000 25.62700
C  23.79300 52.34400 28.18000
C  28.43300 50.83400 28.18400
C  28.25200 50.63400 23.29200
C  23.85500 52.72300 23.22800
N  26.06900 51.59900 27.99000
C  25.01700 51.94300 28.81400
C  25.41100 51.75400 30.26100
C  26.94300 51.45500 30.20000
C  27.20000 51.36400 28.68000
C  27.85200 52.48900 30.83900
C  24.57600 50.66700 30.94900
C  23.84100 50.98600 32.25200
H  24.06000 49.98500 33.52000
N  28.03400 50.71900 25.70200
C  28.77700 50.47900 26.86300
C  30.07600 49.91800 26.48800
C  30.09700 49.92600 25.02500
C  28.76000 50.39600 24.57100
C  31.15200 49.65400 27.55000
C  31.26600 49.54300 24.12000
O  31.25600 49.58000 22.93200
C  32.57700 49.16200 24.86600
N  26.16100 52.00400 23.59000
C  27.11700 51.33800 22.89000
C  26.79200 51.37200 21.40000
C  25.35200 51.99900 21.32400
C  25.12500 52.30100 22.80600
C  27.91800 51.99600 20.53800
C  24.37800 50.87700 20.73600
C  23.08900 51.29500 20.09700
N  24.26200 52.33100 25.61800
C  23.40200 52.73800 24.52500
C  22.10200 53.04900 25.07800
C  22.23100 52.89400 26.44900
C  23.52100 52.42900 26.73400
C  21.00500 53.66000 24.27700
C  21.58900 53.18600 27.79000
O  20.45100 53.61000 27.99800
C  22.61700 52.86400 28.91200
C  22.85600 54.08500 29.85200
O  23.25300 55.20600 29.49800
O  22.49400 53.83200 31.13500
C  22.69500 54.86300 32.09500
H  29.14300 50.67600 28.99900
H  28.89000 50.23900 22.49900
H  23.13600 52.95000 22.43700
H  25.17300 52.67100 30.79900
H  27.25000 50.50000 30.62900
H  27.37800 53.43700 31.09300
H  28.59000 52.75300 30.08100
H  28.41200 52.13200 31.70300
H  25.18300 49.77600 31.11000
H  23.83100 50.32300 30.23200
H  22.76600 51.13200 32.15000
H  24.25800 51.91400 32.64300
H  30.80700 49.67700 28.58300
H  31.94200 50.39300 27.68000
H  31.60100 48.68100 27.34900
H  32.47600 48.21900 25.40400
H  32.85000 49.96700 25.54800
H  33.40400 49.03900 24.16700
H  26.64900 50.32600 21.12900
H  25.26500 52.95500 20.80700
H  27.54700 52.77300 19.86800
H  28.34200 51.20800 19.91600
H  28.69700 52.33300 21.22100
H  24.22800 50.27600 21.63300
H  24.86200 50.21100 20.02200
H  23.18200 51.30500 19.01100
H  22.81700 52.31700 20.36000
H  22.37200 50.56400 20.47000
H  20.37100 52.78300 24.14200
H  21.45700 54.12400 23.40100
H  20.38200 54.38900 24.79600
H  22.25600 52.03800 29.52400
H  21.66200 55.04700 32.39100
H  23.14100 55.78600 31.72500
H  23.24700 54.49700 32.96100

