158

Mg -0.76200 7.39800 26.36100
C  0.11100 9.44100 29.10900
C  -0.73700 4.80800 28.61500
C  -1.19700 5.39000 23.76700
C  -0.35900 10.10100 24.32800
N  -0.46800 7.17300 28.66100
C  -0.18200 8.21000 29.58400
C  -0.34400 7.73200 31.05800
C  -0.40500 6.12700 30.85300
C  -0.58300 6.00000 29.28800
C  0.90000 5.41300 31.39900
C  -1.70300 8.35500 31.67200
C  -1.75100 8.44600 33.17300
H  -0.51600 7.97200 33.92800
N  -0.95700 5.39400 26.21300
C  -0.87500 4.50100 27.19700
C  -0.79400 3.16100 26.53900
C  -1.03000 3.27600 25.13500
C  -1.09900 4.70500 24.99300
C  -0.69600 2.00500 27.35900
C  -1.14300 2.19500 24.06900
O  -1.34200 2.45400 22.88200
C  -1.35700 0.72000 24.50800
N  -0.93600 7.70100 24.37500
C  -1.04600 6.73400 23.46200
C  -1.31100 7.25800 22.03300
C  -1.34900 8.76700 22.35400
C  -0.83300 8.93900 23.77000
C  -0.20700 6.73900 21.10400
C  -2.86100 9.41200 22.31700
C  -2.97100 10.99200 22.05400
N  -0.33200 9.38900 26.55900
C  -0.12800 10.36500 25.62500
C  0.21000 11.64400 26.24300
C  0.37100 11.32100 27.60200
C  0.04300 9.96000 27.78700
C  0.44000 12.94900 25.56800
C  0.80700 11.82200 28.84300
O  1.44300 12.81600 29.12600
C  0.52800 10.71300 29.93700
C  1.70700 10.57800 30.78200
O  2.52000 9.67000 30.84900
O  1.59300 11.54900 31.70000
C  2.44100 11.43700 32.85200
H  -0.74800 3.93500 29.27200
H  -1.42100 4.78300 22.88800
H  -0.39700 11.00200 23.71200
H  0.56300 8.06300 31.56400
H  -1.22500 5.67600 31.41100
H  0.53600 4.41400 31.64000
H  1.28600 5.89300 32.29800
H  1.68500 5.39700 30.64300
H  -2.50900 7.74200 31.26800
H  -1.84700 9.33400 31.21500
H  -2.61100 7.88500 33.54000
H  -1.98900 9.45600 33.50600
H  0.18200 1.40800 27.11700
H  -1.63200 1.44700 27.33000
H  -0.51500 2.19000 28.41800
H  -0.45400 0.30600 24.95900
H  -1.70100 0.09400 23.68500
H  -2.12000 0.78100 25.28400
H  -2.34300 7.08000 21.72900
H  -0.67500 9.36700 21.74200
H  0.40500 7.61000 20.87400
H  -0.68300 6.48300 20.15700
H  0.44200 5.95900 21.50300
H  -3.22300 9.36700 23.34400
H  -3.51900 8.84800 21.65600
H  -3.57300 11.38700 22.87300
H  -3.35300 11.19700 21.05400
H  -2.03100 11.53500 22.14700
H  1.17200 12.84700 24.76700
H  0.91400 13.70500 26.19400
H  -0.53100 13.31600 25.23600
H  -0.33200 10.95100 30.56300
H  2.62500 12.32700 33.45300
H  3.42100 11.04400 32.58200
H  2.00600 10.68000 33.50500
Mg 49.51800 35.56600 27.50300
C  47.58800 34.46200 30.17300
C  50.30300 38.35200 29.22900
C  51.21100 36.45000 24.86100
C  48.43600 32.77600 25.64800
N  48.78000 36.44700 29.38000
C  48.10600 35.73600 30.36500
C  48.29800 36.43100 31.74100
C  48.89000 37.85500 31.33500
C  49.35500 37.55700 29.87800
C  47.83100 39.01200 31.27300
C  49.15500 35.74500 32.78600
C  48.83700 35.81000 34.22900
H  48.47000 37.25300 34.56800
N  50.55300 37.17700 27.10100
C  50.84500 38.20800 27.95900
C  51.85800 39.08600 27.34100
C  52.14600 38.52700 26.03600
C  51.25100 37.37900 25.90100
C  52.42400 40.36000 27.99100
C  53.30600 38.96600 25.05400
O  53.46900 38.42800 23.94100
C  54.10700 40.19500 25.37300
N  49.82100 34.64200 25.51100
C  50.53000 35.29700 24.64500
C  50.56200 34.65200 23.30600
C  49.89400 33.28800 23.52700
C  49.33100 33.55300 24.95400
C  49.90800 35.46100 22.09100
C  50.73800 32.03700 23.46100
C  50.04200 30.88900 22.76000
N  48.32300 33.93500 27.78500
C  47.96100 32.86100 27.02200
C  47.05200 31.95700 27.68700
C  46.85000 32.60100 28.92300
C  47.65800 33.77700 28.97000
C  46.49600 30.73200 27.09300
C  46.04400 32.53000 30.12500
O  45.13900 31.81500 30.53100
C  46.47000 33.77800 30.99600
C  46.79200 33.35400 32.38000
O  47.77000 32.65400 32.68100
O  45.73300 33.62300 33.17200
C  45.49200 32.94100 34.50100
H  50.63800 39.20800 29.81900
H  51.73000 36.93500 24.03200
H  48.03900 31.91500 25.10700
H  47.29700 36.61100 32.13300
H  49.81200 38.18400 31.81500
H  48.07700 39.48100 30.32100
H  48.04100 39.70700 32.08600
H  46.87000 38.49700 31.25800
H  50.16600 36.12000 32.62300
H  49.30100 34.71600 32.45800
H  49.56800 35.33900 34.88600
H  47.89600 35.26100 34.27800
H  53.49800 40.22800 28.12500
H  51.95200 40.64800 28.93000
H  52.30000 41.26000 27.38900
H  54.99200 40.23600 24.73800
H  54.49000 39.97700 26.37000
H  53.56000 41.13100 25.26200
H  51.62000 34.44700 23.14600
H  49.10200 33.17600 22.78700
H  49.34900 34.81200 21.41800
H  50.64400 35.91200 21.42600
H  49.31800 36.31000 22.43700
H  51.01000 31.56000 24.40300
H  51.62300 32.26400 22.86600
H  50.07600 30.00300 23.39300
H  50.51200 30.67000 21.80100
H  48.98400 30.97800 22.51300
H  47.18600 30.19500 26.44300
H  45.68600 31.07200 26.44800
H  46.02800 30.04400 27.79800
H  45.68900 34.49100 31.25800
H  46.33700 32.30200 34.76000
H  44.72800 32.16300 34.53700
H  45.15400 33.57500 35.32100

