158

Mg 40.46400 8.76100 29.02400
C  42.39900 10.04300 31.71400
C  38.63000 6.97300 31.24700
C  38.84600 7.45800 26.42100
C  42.88600 10.07800 26.88000
N  40.48300 8.62000 31.17300
C  41.29400 9.25800 32.05400
C  40.84900 9.03200 33.52800
C  39.81200 7.87800 33.35900
C  39.57300 7.85000 31.80500
C  40.16900 6.48900 34.05800
C  40.33100 10.30700 34.25800
C  39.80600 10.07300 35.68000
H  40.67700 10.50200 36.88500
N  38.93600 7.41300 28.88500
C  38.22200 6.79000 29.89800
C  37.14500 6.05800 29.30700
C  37.19600 6.19400 27.85300
C  38.29200 7.07900 27.68800
C  36.17100 5.31300 30.16900
C  36.22300 5.63600 26.70400
O  36.34600 5.93400 25.52300
C  35.27200 4.68000 27.10400
N  40.83800 8.78600 26.98700
C  40.01800 8.18900 26.08500
C  40.49100 8.28500 24.60100
C  41.79600 9.11900 24.79800
C  41.85500 9.39200 26.29700
C  40.78700 6.90700 23.91000
C  41.95500 10.34600 23.93100
C  41.23200 11.63000 24.33800
N  42.24900 9.82800 29.21000
C  43.07800 10.37600 28.26600
C  44.23000 10.97300 28.83100
C  43.95400 10.95600 30.17400
C  42.75600 10.22400 30.34900
C  45.41900 11.42200 28.02600
C  44.44900 11.38000 31.46500
O  45.40800 12.10600 31.79200
C  43.40500 10.90600 32.52600
C  44.12100 10.12600 33.53900
O  44.47100 8.94000 33.47700
O  44.35200 10.89700 34.64300
C  44.94500 10.13300 35.76000
H  37.96900 6.46000 31.94900
H  38.31000 7.00500 25.58400
H  43.67100 10.35000 26.17200
H  41.75800 8.76800 34.06800
H  38.84600 8.15800 33.78000
H  39.52500 6.54700 34.93500
H  41.22200 6.52900 34.33700
H  40.00400 5.64700 33.38500
H  39.49800 10.77000 33.72900
H  41.17600 10.99100 34.34400
H  39.69500 8.99800 35.81800
H  38.82000 10.52200 35.80000
H  35.13800 5.49300 29.87200
H  36.22800 5.63700 31.20800
H  36.28300 4.24900 29.95600
H  34.43400 5.14500 27.62400
H  35.75100 3.83700 27.60100
H  34.88300 4.32200 26.15100
H  39.71600 8.86400 24.09800
H  42.65400 8.47900 24.59100
H  40.55000 6.71700 22.86300
H  40.12900 6.11800 24.27200
H  41.82700 6.60200 24.03100
H  41.37600 10.11600 23.03700
H  43.01400 10.54300 23.76000
H  40.50500 11.98100 23.60600
H  41.83700 12.48200 24.64700
H  40.65100 11.38300 25.22700
H  45.21600 12.31900 27.44200
H  45.76500 10.61400 27.38200
H  46.33300 11.61600 28.58900
H  43.05900 11.78800 33.06600
H  45.75700 9.43200 35.56500
H  44.13100 9.47600 36.06600
H  45.20100 10.71400 36.64600
Mg 54.00600 24.32500 44.82500
C  51.48600 26.39800 43.59400
C  52.70100 21.61400 42.92000
C  56.89100 22.49500 45.11200
C  55.46900 27.09800 46.27000
N  52.41200 24.03400 43.25400
C  51.53100 25.11900 42.91800
C  50.47100 24.52700 41.81600
C  50.65900 22.97000 41.98000
C  52.04000 22.81100 42.72300
C  49.52300 22.25800 42.74300
C  50.63000 25.23600 40.40700
C  50.67500 24.46400 39.08000
H  52.03700 24.44200 38.26700
N  54.62500 22.24900 44.38400
C  53.91900 21.31000 43.59800
C  54.66200 20.06300 43.62600
C  55.87900 20.26600 44.37500
C  55.84000 21.67700 44.66700
C  54.09400 18.76700 42.98400
C  56.88900 19.21000 44.81800
O  56.79300 18.02700 44.45000
C  57.95000 19.67600 45.74700
N  55.88100 24.67600 45.76300
C  56.96700 23.83600 45.57800
C  58.23400 24.45000 46.17100
C  57.75200 25.95500 46.41200
C  56.27600 25.92900 46.15500
C  58.93600 23.73900 47.38100
C  58.56600 26.98200 45.53800
C  58.14800 27.11500 43.98700
N  53.53900 26.28100 45.03300
C  54.13800 27.27600 45.80400
C  53.29100 28.41500 46.00900
C  52.19900 28.13400 45.15700
C  52.49100 26.86000 44.50600
C  53.45000 29.60600 46.85000
C  50.98300 28.64500 44.64800
O  50.40400 29.69300 44.78200
C  50.45000 27.55200 43.58000
C  50.18100 28.14400 42.22800
O  51.04700 28.65200 41.48800
O  48.85800 28.06100 41.93000
C  48.33100 28.65400 40.73700
H  52.20300 20.73500 42.50500
H  57.92200 22.13800 45.09700
H  55.78300 27.84900 46.99700
H  49.48300 24.74800 42.22100
H  50.64300 22.50000 40.99700
H  48.73600 22.92300 43.10000
H  49.96200 21.68400 43.55900
H  49.06800 21.47900 42.13200
H  51.48400 25.90500 40.50900
H  49.75100 25.87200 40.30400
H  49.86300 24.88900 38.49000
H  50.32400 23.43600 39.17100
H  54.48800 18.48000 42.00900
H  53.01000 18.83700 42.89700
H  54.07600 17.93400 43.68600
H  57.57700 20.39100 46.48100
H  58.86700 20.10500 45.34400
H  58.34900 18.83100 46.30800
H  59.01400 24.55000 45.41600
H  57.90900 26.24700 47.45100
H  59.01800 24.43600 48.21500
H  59.92400 23.38200 47.09100
H  58.26600 22.99400 47.81000
H  59.58800 26.62700 45.67200
H  58.52000 27.99300 45.94300
H  59.08700 27.02100 43.44200
H  57.62300 28.02900 43.70900
H  57.55500 26.26800 43.64200
H  53.87800 29.14700 47.74100
H  52.50700 30.08700 47.11300
H  54.21700 30.18200 46.33300
H  49.54100 27.11400 43.99200
H  49.00800 28.73700 39.88700
H  47.84200 29.61700 40.88800
H  47.52500 28.09300 40.26600

