158

Mg 1.49800 -2.93300 45.07300
C  4.90600 -1.98200 44.28700
C  0.49900 -0.35400 42.90700
C  -1.55800 -4.04100 45.39500
C  2.78600 -5.42100 46.96300
N  2.57300 -1.48600 43.55900
C  3.88800 -1.21000 43.53400
C  4.14300 -0.01800 42.65500
C  2.72400 0.56800 42.35300
C  1.88500 -0.49000 43.00900
C  2.59100 1.98400 42.94000
C  5.01000 -0.43300 41.42400
C  6.10000 0.54300 40.99900
H  5.88500 1.39200 39.71900
N  -0.22700 -2.27300 44.23700
C  -0.47500 -1.21600 43.37800
C  -1.89900 -1.11800 43.17000
C  -2.49200 -2.24500 43.79900
C  -1.41800 -2.93700 44.49800
C  -2.65000 -0.10300 42.37600
C  -4.01500 -2.51800 43.75400
O  -4.86700 -1.79800 43.24200
C  -4.60200 -3.75800 44.40000
N  0.78900 -4.53600 45.87500
C  -0.52200 -4.80400 45.96500
C  -0.78300 -6.09200 46.76100
C  0.57800 -6.46200 47.42300
C  1.45600 -5.43000 46.69400
C  -1.93800 -6.04200 47.83100
C  1.03700 -7.97500 47.16200
C  1.44700 -8.66700 48.46300
N  3.41800 -3.68800 45.53500
C  3.78900 -4.63900 46.42900
C  5.22000 -4.77300 46.50900
C  5.67800 -3.69800 45.80800
C  4.56600 -3.10700 45.12600
C  6.00300 -5.87400 47.23900
C  6.83600 -2.99400 45.35500
O  8.00200 -3.13100 45.67100
C  6.40000 -1.74600 44.54500
C  6.51500 -0.50200 45.43400
O  5.76300 -0.35900 46.37800
O  7.47500 0.37500 44.97700
C  7.50200 1.71900 45.61300
H  0.14700 0.50100 42.32500
H  -2.54700 -4.43600 45.63800
H  3.24100 -6.12700 47.66100
H  4.80400 0.61600 43.24700
H  2.59800 0.54300 41.27100
H  3.52400 2.36600 43.35400
H  1.79000 2.13500 43.66400
H  2.46100 2.74100 42.16600
H  4.33700 -0.29600 40.57700
H  5.47200 -1.39300 41.65400
H  6.98300 -0.05000 40.76400
H  6.43500 1.21500 41.79000
H  -3.25700 0.45700 43.08800
H  -3.30500 -0.42700 41.56800
H  -2.02500 0.62300 41.85600
H  -4.55700 -3.58300 45.47500
H  -3.96100 -4.56800 44.05200
H  -5.58900 -3.90000 43.96000
H  -1.04800 -6.70800 45.90200
H  0.57500 -6.34400 48.50600
H  -2.32200 -5.02900 47.95200
H  -1.63600 -6.47600 48.78500
H  -2.67200 -6.66300 47.31600
H  1.77700 -7.98900 46.36100
H  0.25500 -8.58800 46.71400
H  1.54300 -7.94500 49.27400
H  2.36200 -9.19700 48.19800
H  0.79400 -9.47600 48.79000
H  5.66900 -5.69800 48.26200
H  7.07300 -5.75200 47.07500
H  5.75900 -6.89400 46.94200
H  6.94700 -1.56600 43.61900
H  7.76700 2.46800 44.86700
H  8.16200 1.69600 46.48100
H  6.52300 1.93300 46.04100
Mg 47.18900 16.16200 27.95000
C  45.25800 15.82600 30.97900
C  49.32600 18.13900 29.85000
C  48.39500 17.41000 25.17800
C  44.41200 14.79600 26.28200
N  47.31900 16.87600 30.22400
C  46.47300 16.54900 31.21500
C  47.01700 17.02700 32.56800
C  48.30000 17.83300 32.16700
C  48.38200 17.52400 30.63800
C  48.18800 19.38000 32.44300
C  47.45000 15.90800 33.53800
C  46.75200 16.01000 34.93700
H  46.33800 17.46000 35.46200
N  48.75800 17.52400 27.50500
C  49.47100 18.21200 28.45400
C  50.56100 18.93800 27.78400
C  50.30700 18.77900 26.37300
C  49.11300 17.84000 26.30000
C  51.79500 19.56900 28.43800
C  50.97300 19.39900 25.13400
O  50.82200 18.99000 24.02700
C  51.89600 20.57600 25.28600
N  46.58600 16.02800 26.08400
C  47.28500 16.55500 25.08000
C  46.66600 16.15000 23.69100
C  45.68900 15.01100 24.10600
C  45.50500 15.29200 25.59800
C  46.09200 17.43500 22.95100
C  46.12200 13.53900 23.85200
C  47.45700 13.16200 24.39000
N  45.30100 15.38600 28.46800
C  44.24100 14.84000 27.67000
C  43.08900 14.51900 28.44900
C  43.46000 14.87400 29.73500
C  44.78000 15.34800 29.72300
C  41.90100 13.98600 27.90600
C  43.03700 14.80700 31.14400
O  41.96900 14.37300 31.55700
C  44.16700 15.48900 31.97000
C  43.57100 16.59800 32.69400
O  43.82800 17.76400 32.54200
O  42.76400 16.16800 33.71100
C  41.98300 17.14700 34.47000
H  49.97000 18.83400 30.39200
H  48.67600 17.81700 24.20400
H  43.61200 14.39000 25.66000
H  46.21900 17.65800 32.96000
H  49.26000 17.51900 32.57600
H  47.39600 19.51600 33.17900
H  47.77300 19.80300 31.52800
H  49.17000 19.81800 32.62500
H  48.50900 15.87700 33.79400
H  47.20100 14.93500 33.11400
H  47.34500 15.45200 35.66200
H  45.78600 15.50700 34.92200
H  51.69800 19.48400 29.52000
H  51.74600 20.63500 28.21500
H  52.75800 19.22700 28.06100
H  51.51100 21.23000 26.06800
H  51.87200 21.13900 24.35300
H  52.93900 20.28300 25.40800
H  47.44300 15.73700 23.04800
H  44.72200 15.13500 23.61800
H  46.91700 17.97300 22.48300
H  45.48300 17.98700 23.66600
H  45.35700 17.11800 22.21200
H  46.09200 13.29200 22.79100
H  45.34100 12.91100 24.28100
H  48.11300 12.81900 23.59000
H  47.36100 12.25900 24.99300
H  47.91900 13.95000 24.98500
H  41.48900 14.55000 27.07000
H  41.10600 14.06900 28.64600
H  42.07600 12.95400 27.60000
H  44.33200 14.60300 32.58300
H  41.43300 17.75300 33.75000
H  42.62900 17.67200 35.17300
H  41.32800 16.47400 35.02500

