158

Mg 36.12600 49.25000 25.48300
C  35.96700 47.41500 28.53900
C  35.38300 52.08100 27.33500
C  35.98600 50.93200 22.59300
C  36.33000 46.22600 23.73000
N  35.77400 49.70700 27.71900
C  35.73600 48.78600 28.75300
C  35.64300 49.56600 30.15300
C  35.20400 50.99400 29.60600
C  35.46900 50.95900 28.14500
C  33.72000 51.35500 29.83900
C  36.89900 49.42500 31.05200
C  36.64300 48.95500 32.50900
H  35.24300 49.29200 33.14400
N  35.83500 51.25600 25.06600
C  35.56600 52.26200 25.93700
C  35.54200 53.54000 25.16600
C  35.79700 53.23100 23.80000
C  35.92300 51.78400 23.76700
C  35.41700 54.85700 25.83400
C  36.00400 54.17200 22.61700
O  36.33700 53.83300 21.49300
C  35.64500 55.55400 22.72700
N  35.85600 48.65100 23.48900
C  35.84800 49.58900 22.53600
C  35.92500 48.86400 21.16100
C  36.38000 47.38200 21.53100
C  36.09900 47.40700 23.00900
C  34.59900 48.98900 20.43000
C  37.97800 47.16400 21.33700
C  38.26300 46.29800 20.11900
N  36.08100 47.28900 25.97200
C  36.22500 46.16300 25.14300
C  36.27600 44.97700 25.94500
C  36.12000 45.42100 27.28800
C  36.13300 46.82400 27.27300
C  36.31000 43.54200 25.43600
C  36.08000 45.04200 28.68600
O  36.15100 43.91400 29.21800
C  35.99900 46.30700 29.56000
C  34.69100 46.14200 30.33200
O  33.56500 46.25400 29.84200
O  34.89600 45.80500 31.63300
C  33.56600 45.54100 32.30200
H  35.15200 52.96200 27.93700
H  36.00100 51.38900 21.60200
H  36.45200 45.31400 23.14200
H  34.79900 49.12300 30.68200
H  35.82800 51.74400 30.09200
H  33.28200 50.68300 30.57800
H  33.00900 51.30900 29.01500
H  33.67900 52.38100 30.20500
H  37.45700 50.36100 31.08700
H  37.51400 48.68700 30.53800
H  37.39700 49.50200 33.07500
H  36.79800 47.89600 32.71600
H  36.31500 55.45400 25.67200
H  35.54300 54.77800 26.91300
H  34.50500 55.35000 25.49900
H  34.56300 55.61300 22.84000
H  35.86900 56.08900 21.80300
H  36.13500 56.04200 23.56900
H  36.68000 49.31500 20.51800
H  35.71000 46.76000 20.93700
H  34.24900 48.00900 20.10500
H  34.63400 49.74200 19.64300
H  33.82600 49.21700 21.16500
H  38.50800 46.73400 22.18700
H  38.47000 48.11600 21.13900
H  38.81200 45.38100 20.33400
H  38.82700 46.89800 19.40400
H  37.35000 45.98500 19.61300
H  37.17400 43.51800 24.77100
H  35.44100 43.33400 24.81200
H  36.37300 42.82600 26.25500
H  36.88800 46.35200 30.18900
H  32.80300 46.29000 32.09300
H  33.80200 45.47800 33.36500
H  33.27700 44.51800 32.06000
Mg -5.23100 25.71500 26.23700
C  -4.11800 27.46500 28.97200
C  -6.61200 23.35800 28.34800
C  -6.07500 23.77900 23.48300
C  -2.93200 27.48000 24.20000
N  -5.33500 25.39100 28.40800
C  -4.89900 26.34000 29.33000
C  -5.33400 26.01400 30.69600
C  -5.88400 24.48900 30.52400
C  -5.93500 24.37900 29.01100
C  -5.12300 23.31700 31.09300
C  -6.36700 27.02100 31.28100
C  -7.07900 26.58400 32.59700
H  -6.45400 25.48300 33.45700
N  -6.43300 24.06200 25.92700
C  -7.02300 23.36700 26.96600
C  -7.92100 22.33700 26.36800
C  -7.77600 22.47700 24.92500
C  -6.70800 23.48500 24.71500
C  -8.84600 21.41500 27.22300
C  -8.41800 21.83100 23.80200
O  -8.27400 22.10900 22.64100
C  -9.63100 20.81700 24.00700
N  -4.43500 25.55600 24.17200
C  -5.05200 24.71800 23.27600
C  -4.48800 24.97300 21.88900
C  -3.61300 26.35600 22.08800
C  -3.69100 26.52700 23.56500
C  -3.77500 23.78400 21.26200
C  -4.18000 27.53600 21.21700
C  -3.21700 28.69100 21.00600
N  -3.82100 27.14400 26.50000
C  -2.99700 27.78800 25.59000
C  -2.26200 28.78300 26.31000
C  -2.66700 28.62900 27.67700
C  -3.59500 27.61500 27.70100
C  -1.26300 29.82900 25.77600
C  -2.35200 29.11500 28.94500
O  -1.63800 29.96400 29.44100
C  -3.36500 28.48100 29.86400
C  -2.76700 27.84100 31.00300
O  -1.94500 26.93700 31.00500
O  -3.30500 28.39600 32.16900
C  -2.80600 27.69600 33.35100
H  -7.16900 22.64300 28.95700
H  -6.25200 23.27200 22.53200
H  -2.16200 28.09300 23.72700
H  -4.47000 25.81200 31.32900
H  -6.92100 24.44400 30.85700
H  -4.57000 22.76100 30.33700
H  -5.84600 22.75400 31.68400
H  -4.33800 23.63700 31.77800
H  -7.14900 27.19700 30.54200
H  -5.84000 27.95600 31.47200
H  -8.08600 26.37800 32.23600
H  -7.02600 27.45000 33.25700
H  -8.50900 20.39800 27.02000
H  -9.89300 21.70700 27.13900
H  -8.65400 21.46400 28.29500
H  -9.84000 20.43900 23.00600
H  -10.44800 21.36900 24.47100
H  -9.19400 19.97700 24.54800
H  -5.34500 25.19600 21.25500
H  -2.58800 26.13500 21.79200
H  -3.80000 22.99100 22.00900
H  -2.70900 23.97200 21.13200
H  -4.26700 23.41800 20.36200
H  -5.12400 27.84300 21.66600
H  -4.39200 27.15000 20.22000
H  -2.74800 28.64600 20.02300
H  -2.49700 28.80400 21.81600
H  -3.85400 29.56800 21.12100
H  -0.76800 29.62900 24.82600
H  -0.44400 29.88000 26.49300
H  -1.77200 30.78400 25.64500
H  -3.99800 29.32900 30.12500
H  -2.55000 26.63900 33.27900
H  -3.58800 27.64100 34.10800
H  -2.01200 28.34500 33.71900

