158

Mg 24.67000 -6.21100 45.80400
C  27.05500 -3.99200 44.41800
C  22.32800 -5.06500 43.46300
C  22.83100 -8.81800 46.49700
C  27.38500 -7.79800 47.51800
N  24.66400 -4.50900 44.25300
C  25.75100 -3.82100 43.83900
C  25.38500 -2.84300 42.68800
C  23.80700 -3.00800 42.53400
C  23.54800 -4.27600 43.46500
C  23.09000 -1.68000 42.96600
C  26.18500 -2.93200 41.33200
C  26.79000 -1.70700 40.68300
H  26.22500 -1.42800 39.27900
N  22.88600 -6.75300 45.14100
C  22.03600 -6.13600 44.24400
C  20.86000 -6.86900 44.21300
C  20.91200 -7.85000 45.20300
C  22.25100 -7.86100 45.68700
C  19.63200 -6.40300 43.32100
C  19.79000 -8.81400 45.54900
O  18.79500 -8.74800 44.87600
C  19.72500 -9.73900 46.73500
N  25.05800 -8.04000 46.89500
C  24.09900 -8.96600 46.99400
C  24.56200 -10.29100 47.68800
C  26.01000 -9.81700 48.10000
C  26.17600 -8.50000 47.44800
C  23.69200 -10.86300 48.87300
C  27.01000 -10.89500 47.56500
C  27.28100 -12.08400 48.55300
N  26.73800 -5.88300 46.07800
C  27.68800 -6.55700 46.86600
C  29.01500 -5.96400 46.72800
C  28.75900 -4.96400 45.77800
C  27.37400 -4.88700 45.44900
C  30.24300 -6.42300 47.51400
C  29.38800 -3.87100 45.13800
O  30.52000 -3.42200 45.18500
C  28.34100 -3.23200 44.09800
C  28.34700 -1.81100 44.37700
O  28.02700 -1.26900 45.48800
O  28.67700 -1.04800 43.26600
C  28.32600 0.36500 43.42200
H  21.74100 -4.56000 42.69400
H  22.11900 -9.60700 46.74800
H  28.24200 -8.16600 48.08600
H  25.61300 -1.81500 42.96700
H  23.63400 -3.25800 41.48800
H  23.21300 -1.50600 44.03500
H  22.03300 -1.71700 42.70400
H  23.51400 -0.80600 42.47100
H  25.57300 -3.38100 40.54900
H  26.88800 -3.73800 41.54000
H  27.86500 -1.83200 40.55600
H  26.49700 -0.81900 41.24200
H  19.09900 -7.11400 42.69100
H  20.01900 -5.72700 42.55900
H  18.97000 -5.89700 44.02400
H  18.74400 -10.17200 46.92900
H  20.10800 -9.23600 47.62300
H  20.33300 -10.55700 46.34900
H  24.58000 -11.17100 47.04500
H  26.04300 -9.61600 49.17100
H  23.50500 -11.92300 48.70100
H  22.67200 -10.47800 48.87500
H  24.04900 -10.75400 49.89700
H  28.01300 -10.52300 47.35900
H  26.59300 -11.38200 46.68400
H  28.34200 -12.28500 48.70500
H  26.75300 -12.94100 48.13400
H  26.86600 -11.80300 49.52100
H  30.43600 -7.47500 47.30600
H  29.95000 -6.30500 48.55800
H  31.03700 -5.77500 47.14200
H  28.68600 -3.36700 43.07300
H  29.06000 0.76500 44.12100
H  27.27900 0.47000 43.70500
H  28.32500 0.73200 42.39500
Mg 34.61900 49.09500 26.50400
C  35.07400 47.26600 29.26100
C  33.96500 51.84400 28.48500
C  33.79400 50.84600 23.64000
C  35.52700 46.50000 24.53800
N  34.52200 49.50500 28.63000
C  34.75200 48.52500 29.57000
C  34.65900 49.15100 31.02900
C  33.99400 50.53600 30.77700
C  34.15200 50.68900 29.21500
C  32.56900 50.65300 31.19500
C  36.11500 49.14700 31.62900
C  36.33000 48.79100 33.05800
H  36.30200 49.77700 34.27100
N  34.00500 51.07200 26.13800
C  33.89500 52.07200 27.06800
C  33.46600 53.31400 26.45900
C  33.36100 53.04700 25.04500
C  33.76500 51.58500 24.89900
C  33.31300 54.63300 27.13800
C  32.96800 54.00400 23.86600
O  32.76200 53.61100 22.73700
C  32.74900 55.52400 24.02400
N  34.84300 48.79000 24.34400
C  34.35000 49.55400 23.33800
C  34.52800 48.88700 21.90200
C  35.04100 47.51300 22.24100
C  35.20400 47.63800 23.76000
C  33.16000 48.91000 21.12500
C  36.27700 47.01600 21.47900
C  36.17200 45.92100 20.36700
N  35.16500 47.26300 26.76400
C  35.47500 46.23900 25.90600
C  35.79600 44.99600 26.66900
C  35.68500 45.41500 27.98900
C  35.25100 46.76100 27.97900
C  36.16200 43.66300 26.07200
C  35.79800 44.94600 29.29300
O  35.99600 43.82200 29.71900
C  35.35300 46.10500 30.17700
C  34.27800 45.60300 31.10200
O  33.14200 45.30700 30.73000
O  34.73700 45.55100 32.35700
C  33.78100 45.11700 33.41100
H  33.73900 52.75500 29.04500
H  33.52600 51.39800 22.73700
H  35.81400 45.58200 24.01900
H  33.97000 48.54100 31.61200
H  34.63300 51.22200 31.33300
H  32.40300 51.64400 31.62000
H  32.18200 49.86700 31.84300
H  31.95300 50.60400 30.29700
H  36.36500 50.20700 31.64900
H  36.75500 48.46200 31.07200
H  37.21500 48.15400 33.06800
H  35.54600 48.08500 33.33200
H  34.01700 55.39600 26.80800
H  33.39000 54.57800 28.22400
H  32.29000 54.96900 26.96800
H  31.78800 55.75200 24.48400
H  32.73600 55.91200 23.00600
H  33.59100 56.05700 24.46600
H  35.22100 49.55800 21.39300
H  34.28800 46.73000 22.15500
H  32.32700 48.98800 21.82300
H  33.05800 47.96200 20.59700
H  33.22400 49.75500 20.43900
H  37.02200 46.56600 22.13400
H  36.72500 47.90500 21.03600
H  35.60500 46.21400 19.48300
H  35.62500 45.10500 20.84100
H  37.13000 45.62800 19.93900
H  37.07900 43.71800 25.48500
H  35.32700 43.22200 25.52700
H  36.34000 42.91300 26.84300
H  36.28400 46.40900 30.65500
H  32.73600 45.12700 33.10100
H  33.93200 45.80200 34.24500
H  34.11300 44.13100 33.73800

