158

Mg 23.81700 -5.43500 46.49600
C  26.09700 -3.42800 44.79200
C  21.32500 -4.58700 44.35100
C  22.14400 -8.18900 47.42600
C  26.69900 -7.12300 47.85600
N  23.78800 -4.16100 44.84500
C  24.76000 -3.33600 44.36400
C  24.22100 -2.44400 43.26200
C  22.62200 -2.80800 43.23500
C  22.59300 -3.89500 44.27800
C  21.71900 -1.56100 43.50700
C  25.01000 -2.69300 41.83600
C  25.48600 -1.49200 41.06100
H  25.44400 -1.61600 39.55000
N  21.95000 -6.17400 46.11600
C  21.04500 -5.65900 45.21800
C  19.79600 -6.38100 45.29800
C  20.02900 -7.44700 46.17500
C  21.44000 -7.30400 46.64400
C  18.53700 -6.07200 44.52200
C  18.93600 -8.42400 46.64300
O  17.89700 -8.48000 46.06900
C  19.24500 -9.45600 47.75300
N  24.40400 -7.39200 47.62000
C  23.38600 -8.27100 47.93600
C  23.99300 -9.46200 48.71100
C  25.54600 -9.03900 48.93500
C  25.57000 -7.81200 48.06200
C  23.21800 -9.90800 49.97000
C  26.56300 -10.23300 48.70100
C  27.10800 -10.48500 47.38600
N  25.91400 -5.19600 46.57900
C  26.90600 -5.89400 47.19700
C  28.17400 -5.27400 46.92100
C  27.88000 -4.25400 46.06600
C  26.48900 -4.25100 45.81600
C  29.47300 -5.82200 47.38000
C  28.51700 -3.30300 45.18900
O  29.70500 -3.01000 45.04500
C  27.32500 -2.69300 44.35200
C  27.16500 -1.21300 44.68200
O  26.78900 -0.79300 45.75200
O  27.56800 -0.42700 43.61100
C  27.77100 0.98500 43.85700
H  20.58100 -4.36800 43.58300
H  21.70500 -9.12400 47.78100
H  27.59100 -7.59900 48.26700
H  24.38200 -1.43100 43.63100
H  22.43300 -3.12600 42.21000
H  21.95000 -1.20900 44.51200
H  20.69400 -1.91700 43.40100
H  22.09900 -0.84400 42.78000
H  24.34600 -3.12400 41.08700
H  25.85600 -3.37000 41.95500
H  26.50300 -1.45100 41.45200
H  24.87200 -0.71200 41.51100
H  18.57400 -5.12200 43.98900
H  17.66700 -6.07900 45.17900
H  18.29000 -6.78900 43.74000
H  18.28600 -9.91800 47.98700
H  19.54700 -8.97700 48.68500
H  19.99400 -10.20900 47.50900
H  23.86500 -10.33000 48.06400
H  25.59900 -8.69500 49.96800
H  23.84400 -10.06300 50.84900
H  22.66600 -10.79700 49.66600
H  22.49900 -9.09200 50.04800
H  26.06400 -11.17700 48.92000
H  27.43000 -10.14800 49.35500
H  28.18200 -10.65800 47.31100
H  26.85600 -9.77500 46.59900
H  26.72100 -11.46500 47.10600
H  29.68000 -6.73100 46.81600
H  29.45400 -5.94500 48.46300
H  30.35900 -5.22900 47.15100
H  27.54800 -2.90800 43.30600
H  27.28400 1.47600 43.01400
H  28.81000 1.31200 43.89000
H  27.27600 1.32600 44.76600
Mg -11.50300 16.56900 40.24900
C  -8.28900 15.00900 39.54300
C  -10.23000 19.43100 38.84600
C  -14.65300 17.60600 39.77000
C  -12.67100 13.42400 41.00200
N  -9.52300 17.05900 39.39300
C  -8.31500 16.33400 39.22100
C  -7.12600 17.20900 38.77400
C  -7.79600 18.59900 38.75800
C  -9.32400 18.38300 38.96500
C  -7.22500 19.60100 39.82000
C  -6.67900 16.85400 37.42000
C  -5.43600 17.62400 36.88300
H  -4.55600 16.89800 35.79400
N  -12.30000 18.43500 39.69100
C  -11.67400 19.48100 39.13800
C  -12.62700 20.61900 38.87800
C  -13.92400 20.07900 39.22400
C  -13.64000 18.64500 39.58100
C  -12.27700 22.00900 38.38800
C  -15.20600 20.85200 39.08700
O  -15.12400 21.95500 38.59500
C  -16.48300 20.13800 39.36200
N  -13.42900 15.62800 40.37900
C  -14.61000 16.26800 40.11500
C  -15.76000 15.34500 40.37800
C  -15.10300 13.99300 40.56300
C  -13.61900 14.36900 40.72600
C  -16.69600 15.83400 41.58600
C  -15.27000 13.06300 39.36900
C  -15.69000 11.65500 39.69300
N  -10.67800 14.64100 40.43300
C  -11.25900 13.49300 40.74700
C  -10.33200 12.43100 40.81400
C  -9.16600 12.97500 40.37400
C  -9.42800 14.27600 40.04600
C  -10.51500 10.95500 40.98200
C  -7.75800 12.66800 40.09200
O  -7.08000 11.65700 40.08700
C  -7.19000 13.96200 39.56600
C  -5.96800 14.18900 40.29700
O  -5.86800 14.76100 41.37300
O  -4.84800 13.77000 39.55000
C  -3.44000 14.31900 39.74600
H  -9.76700 20.31000 38.39200
H  -15.68200 17.81600 39.46800
H  -13.06200 12.44300 41.28100
H  -6.39400 17.05200 39.56600
H  -7.69400 19.13500 37.81500
H  -6.36100 20.11800 39.40200
H  -6.98500 18.91400 40.63100
H  -7.88700 20.31700 40.30800
H  -7.49000 16.90700 36.69400
H  -6.31700 15.82800 37.35000
H  -4.80600 17.92000 37.72200
H  -5.68300 18.54500 36.35500
H  -12.28300 22.31800 37.34300
H  -11.21000 22.02000 38.61200
H  -12.80400 22.69600 39.05000
H  -17.19100 20.96100 39.26300
H  -16.53600 19.73500 40.37300
H  -16.67100 19.36500 38.61700
H  -16.31400 15.33900 39.43900
H  -15.39800 13.60100 41.53600
H  -16.13400 16.71600 41.89200
H  -16.59000 15.16800 42.44200
H  -17.69600 16.10300 41.24600
H  -14.32300 13.05900 38.82900
H  -15.98600 13.47300 38.65700
H  -16.75200 11.41300 39.69800
H  -15.22600 11.24600 40.59000
H  -15.23600 11.00900 38.94100
H  -11.13100 10.74400 41.85600
H  -9.60000 10.36400 41.02900
H  -11.12900 10.56800 40.16900
H  -6.91100 13.67800 38.55100
H  -3.06900 14.88200 38.89000
H  -2.67200 13.54500 39.73600
H  -3.25000 14.86900 40.66800

