158

Mg 16.82800 -1.65200 27.48700
C  15.67600 0.51100 29.94000
C  18.67800 -3.19100 29.98400
C  18.48100 -3.27100 25.20800
C  15.33300 0.24700 25.10800
N  17.23200 -1.27200 29.70900
C  16.52200 -0.39800 30.49000
C  16.88300 -0.54400 31.97800
C  17.99400 -1.64600 31.93400
C  18.02700 -2.05700 30.45800
C  19.47400 -1.15100 32.37600
C  15.65300 -0.94200 32.88200
C  15.64500 -0.29400 34.31500
H  16.93600 0.34400 34.91300
N  18.13700 -3.26900 27.58600
C  18.69400 -3.82000 28.70900
C  19.24600 -5.09700 28.43600
C  19.48700 -4.95300 27.00700
C  18.74700 -3.77800 26.50700
C  19.59200 -6.10400 29.47600
C  20.32400 -5.95500 26.14900
O  20.58500 -5.83200 24.94300
C  20.96200 -7.09300 26.76600
N  16.83400 -1.53300 25.45500
C  17.59500 -2.36200 24.63500
C  17.53100 -1.99800 23.15300
C  16.40800 -0.95300 23.17100
C  16.15200 -0.75900 24.64700
C  18.93000 -1.53900 22.61800
C  15.17700 -1.14300 22.28200
C  14.80000 0.14200 21.48500
N  15.58700 0.01000 27.53100
C  15.04300 0.61900 26.45300
C  14.18300 1.69900 26.86400
C  14.33000 1.67600 28.26000
C  15.26000 0.67300 28.61000
C  13.40600 2.65300 26.01000
C  13.90400 2.34800 29.51300
O  13.18900 3.37400 29.64600
C  14.71800 1.56100 30.61500
C  15.43600 2.50900 31.49000
O  16.52400 2.98500 31.24300
O  14.62800 2.80000 32.59100
C  15.16200 3.88600 33.40800
H  19.04400 -3.85800 30.76800
H  19.18700 -3.78800 24.55500
H  14.79900 0.78900 24.32500
H  17.25900 0.44400 32.24400
H  17.75600 -2.50800 32.55700
H  19.52100 -0.33800 33.10000
H  20.02200 -0.74500 31.52600
H  19.94900 -2.00800 32.85300
H  15.63700 -2.02700 32.98200
H  14.85200 -0.57000 32.24300
H  15.26800 -1.06200 34.99000
H  14.96200 0.55200 34.24200
H  19.19200 -7.05200 29.11700
H  19.12600 -5.89600 30.43900
H  20.65600 -6.03600 29.70000
H  21.42900 -6.80300 27.70800
H  21.79400 -7.30400 26.09400
H  20.36700 -8.00400 26.82400
H  17.21400 -2.81300 22.50300
H  16.92800 -0.05400 22.83800
H  19.57700 -1.46100 23.49200
H  18.89200 -0.57100 22.11800
H  19.32900 -2.25500 21.90000
H  14.31800 -1.32000 22.92900
H  15.26500 -2.04200 21.67100
H  15.75100 0.54100 21.13300
H  14.32700 0.79300 22.22000
H  14.17200 0.04800 20.59900
H  13.96200 3.58400 25.90000
H  12.44200 2.85600 26.47600
H  13.34900 2.13100 25.05500
H  13.93300 0.98400 31.10500
H  16.24100 3.85800 33.56100
H  14.73300 3.88500 34.41000
H  15.05000 4.88500 32.98800
Mg 54.46500 23.41800 45.01500
C  51.96200 25.72000 44.12700
C  52.15500 20.85700 44.44100
C  56.98100 21.06400 45.33700
C  56.62900 26.04100 45.47000
N  52.35000 23.33400 44.27700
C  51.51500 24.43000 43.97000
C  50.13100 23.86800 43.44200
C  50.20600 22.31700 43.71700
C  51.64500 22.15200 44.18300
C  49.21700 21.72100 44.63800
C  50.01400 24.22700 41.87200
C  48.61600 24.79200 41.62900
H  48.17300 24.73700 40.15500
N  54.50300 21.23900 44.92400
C  53.39300 20.41700 44.82700
C  53.89900 19.06400 44.88100
C  55.24900 19.11900 45.27500
C  55.65800 20.51200 45.19100
C  52.98300 17.86800 44.63000
C  56.11900 17.85700 45.80800
O  55.48500 16.80300 45.85500
C  57.60600 17.87700 46.35700
N  56.59400 23.55100 45.08200
C  57.36000 22.44800 45.33700
C  58.80500 22.93600 45.46700
C  58.75000 24.47800 45.65600
C  57.22300 24.74100 45.44100
C  59.53200 22.29100 46.71700
C  59.68600 25.31200 44.75000
C  60.76600 26.15500 45.58600
N  54.42000 25.59500 44.78900
C  55.32700 26.49600 45.24000
C  54.71500 27.83500 45.17200
C  53.37500 27.57900 44.74100
C  53.25100 26.20900 44.48100
C  55.38300 29.16300 45.45000
C  52.07200 28.14300 44.47300
O  51.72900 29.30200 44.45500
C  51.18800 26.98400 43.83700
C  50.92500 27.39300 42.40400
O  51.68300 27.12100 41.46100
O  49.88200 28.31900 42.38600
C  49.69000 28.98100 41.07200
H  51.42200 20.05100 44.36800
H  57.79300 20.36100 45.53300
H  57.35500 26.80800 45.74700
H  49.30500 24.29600 44.01000
H  50.12200 21.77000 42.77900
H  49.61000 21.13300 45.46600
H  48.59100 21.14200 43.95900
H  48.44000 22.39900 44.99100
H  50.07400 23.35800 41.21700
H  50.82200 24.92600 41.65400
H  48.56000 25.87200 41.76100
H  47.83800 24.36900 42.26400
H  53.50400 17.09400 44.06800
H  52.11300 18.07200 44.00500
H  52.67400 17.52800 45.61900
H  57.87400 16.83700 46.54700
H  57.64600 18.52900 47.22900
H  58.26000 18.31000 45.60100
H  59.41700 22.70700 44.59400
H  58.91200 24.77800 46.69100
H  58.89000 22.18000 47.59100
H  60.32300 23.01400 46.91500
H  59.98700 21.41500 46.25500
H  59.23900 26.00400 44.03600
H  60.35400 24.64000 44.21200
H  61.18000 25.55900 46.40000
H  60.24100 27.00300 46.02600
H  61.52400 26.47700 44.87300
H  56.31000 29.11500 44.87800
H  55.35900 29.33100 46.52600
H  54.86100 29.97500 44.94500
H  50.20300 26.94800 44.30200
H  49.49100 28.18200 40.35800
H  50.57200 29.59800 40.89500
H  48.77100 29.56300 41.01200

