158

Mg 49.26100 46.14400 42.65300
C  45.74300 46.23500 41.66100
C  49.41300 42.95300 41.51200
C  52.55200 46.30300 42.94100
C  48.96700 49.60000 43.13100
N  47.72600 44.76000 41.77400
C  46.40900 44.95900 41.50100
C  45.82900 43.59600 41.04600
C  46.97500 42.56200 41.11500
C  48.11900 43.45600 41.60300
C  46.84600 41.39700 42.14200
C  44.89600 43.52300 39.76000
C  45.57800 43.82900 38.34800
H  45.50500 42.65400 37.35300
N  50.77500 44.70700 42.44200
C  50.64500 43.42300 42.02300
C  51.90400 42.77500 41.93900
C  52.86600 43.69600 42.36700
C  52.05800 44.97600 42.67300
C  51.93200 41.28000 41.55000
C  54.33600 43.50400 42.40100
O  54.78400 42.38400 42.22400
C  55.27400 44.55600 42.66900
N  50.55100 47.78800 43.02700
C  51.90200 47.59800 43.07300
C  52.61800 49.00600 43.16500
C  51.41700 50.01400 43.04000
C  50.24600 49.06800 43.13400
C  53.46200 49.19100 44.41300
C  51.46900 50.79400 41.70500
C  51.47300 52.32600 41.79100
N  47.61700 47.61500 42.67300
C  47.69200 48.97900 42.88900
C  46.37400 49.59700 42.76000
C  45.56300 48.51500 42.35800
C  46.38400 47.38000 42.30000
C  45.93800 51.07100 42.91600
C  44.24400 48.17400 41.93800
O  43.25800 48.81800 41.90900
C  44.30700 46.70200 41.37500
C  43.32900 45.82900 42.18000
O  42.38200 45.15400 41.67400
O  43.66300 45.78800 43.48000
C  42.83800 44.92700 44.41900
H  49.49600 41.93200 41.13300
H  53.60100 46.60300 42.97700
H  48.79900 50.65100 43.37800
H  45.14400 43.46700 41.88400
H  47.26700 42.31000 40.09500
H  45.85900 41.33000 42.60000
H  47.45900 41.56100 43.02800
H  47.06100 40.43800 41.67000
H  44.11600 44.26500 39.93000
H  44.42500 42.54100 39.78400
H  46.58700 44.22200 38.47300
H  45.01000 44.65200 37.91600
H  52.38600 41.30100 40.55900
H  51.01500 40.73100 41.33500
H  52.45400 40.73400 42.33400
H  55.01000 45.34400 41.96300
H  56.25300 44.16000 42.40400
H  55.11000 44.93100 43.68000
H  53.27900 49.02700 42.29800
H  51.29200 50.65900 43.90900
H  54.51400 49.06800 44.15300
H  53.09400 48.51500 45.18400
H  53.42900 50.16700 44.89700
H  50.55900 50.55600 41.15400
H  52.30700 50.43100 41.11000
H  50.58900 52.76400 41.32800
H  52.27400 52.65300 41.12900
H  51.67600 52.60800 42.82400
H  45.23200 51.39300 42.15100
H  46.82400 51.69800 43.01400
H  45.43700 51.17700 43.87900
H  44.00200 46.58400 40.33500
H  43.12300 45.11600 45.45400
H  42.81000 43.84900 44.26100
H  41.78600 45.15300 44.24100
Mg 31.51100 57.81700 39.85500
C  28.53700 56.17400 38.84900
C  33.34000 55.23500 38.55900
C  34.22300 59.94500 40.03200
C  29.43900 60.66000 40.62000
N  30.97600 56.00500 38.79100
C  29.71800 55.51300 38.49200
C  29.84500 54.24000 37.65400
C  31.29800 53.81500 38.03900
C  31.93000 55.12900 38.38100
C  31.35600 52.96400 39.26300
C  29.55300 54.36100 36.05800
C  28.49500 53.49100 35.44700
H  27.42900 54.33500 34.68100
N  33.45600 57.62300 39.34500
C  34.08300 56.43700 38.93100
C  35.49100 56.69300 38.75300
C  35.76700 57.99100 39.16000
C  34.44700 58.59000 39.54800
C  36.51700 55.68200 38.29900
C  37.17100 58.70000 39.19900
O  38.18100 58.03000 38.92800
C  37.33200 60.13400 39.34500
N  31.77800 59.94800 40.27400
C  32.98200 60.48700 40.47300
C  32.90400 61.97400 40.90800
C  31.37700 62.16000 41.03000
C  30.81500 60.86900 40.59100
C  33.70000 62.34900 42.10600
C  30.80300 63.36500 40.16900
C  30.18900 64.50000 41.10300
N  29.41800 58.25500 40.03800
C  28.74300 59.44700 40.28800
C  27.25900 59.23600 40.18500
C  27.19400 57.85100 39.78100
C  28.47400 57.38200 39.54900
C  26.04700 60.26200 40.38600
C  26.26900 56.73900 39.38700
O  25.02400 56.73400 39.37700
C  27.11200 55.59100 38.75600
C  26.88800 54.38400 39.49000
O  27.65200 53.76000 40.22500
O  25.69000 53.91800 39.02600
C  25.31300 52.63700 39.58700
H  34.02100 54.45600 38.21000
H  35.10500 60.57700 40.15800
H  28.80200 61.48200 40.95300
H  29.21900 53.43600 38.04100
H  31.92900 53.40500 37.25000
H  32.41300 52.77300 39.45000
H  30.75600 52.07900 39.05100
H  30.83800 53.34900 40.14100
H  30.49600 54.11100 35.57200
H  29.20700 55.38400 35.90900
H  27.85000 52.99600 36.17300
H  29.06500 52.86000 34.76500
H  37.47600 56.05400 37.93700
H  36.16400 54.98700 37.53800
H  36.75500 55.00900 39.12400
H  37.04300 60.49300 40.33200
H  36.78900 60.64000 38.54700
H  38.34500 60.48400 39.14500
H  33.21800 62.64100 40.10500
H  31.03200 62.32100 42.05100
H  33.10300 62.48400 43.00700
H  34.20300 63.27800 41.84000
H  34.43200 61.66700 42.54100
H  29.93100 63.09100 39.57600
H  31.62600 63.79900 39.60000
H  30.51000 65.40100 40.58100
H  30.62000 64.39900 42.09900
H  29.10400 64.57800 41.17200
H  26.34100 61.04800 41.08200
H  25.21100 59.69200 40.79100
H  25.74700 60.69800 39.43400
H  26.80000 55.35100 37.73900
H  25.03100 52.70700 40.63700
H  26.07100 51.87100 39.42600
H  24.34800 52.32200 39.18900

