158

Mg 46.52100 17.12300 28.86600
C  44.88600 16.87100 31.89400
C  48.99800 19.03900 30.50700
C  47.96600 17.64400 25.77600
C  44.06100 15.46200 27.35300
N  47.02900 17.73600 31.08700
C  46.12000 17.46800 32.09100
C  46.59200 18.09100 33.40200
C  47.82900 18.99400 32.97300
C  47.95700 18.59400 31.41400
C  47.69900 20.57500 33.07400
C  46.90500 17.07100 34.53600
C  46.33400 17.40900 35.95000
H  46.49000 18.85300 36.41700
N  48.22900 18.12200 28.22500
C  49.14400 18.77600 29.06700
C  50.14800 19.37600 28.17200
C  49.94500 18.94300 26.83900
C  48.69700 18.13400 26.91800
C  51.23600 20.21900 28.73700
C  50.79100 19.24600 25.61100
O  50.53400 18.83000 24.51400
C  52.05000 20.07200 25.76100
N  46.10300 16.50400 26.95900
C  46.77800 16.91900 25.82500
C  45.98200 16.62000 24.53400
C  44.99300 15.53400 25.04000
C  45.09400 15.77400 26.58100
C  45.28900 17.96700 24.13500
C  45.31000 14.10100 24.49800
C  44.94100 13.86800 23.00600
N  44.83100 16.24200 29.50600
C  43.83700 15.72600 28.70500
C  42.69800 15.42100 29.48200
C  43.09800 15.79500 30.73500
C  44.36300 16.33000 30.68100
C  41.35200 14.83200 29.01400
C  42.60200 15.91600 32.12900
O  41.52100 15.60500 32.60900
C  43.75000 16.62600 32.95500
C  43.19500 17.82900 33.63200
O  43.38200 19.00600 33.33900
O  42.45200 17.44200 34.72400
C  41.83200 18.59700 35.49100
H  49.74800 19.63000 31.03500
H  48.36100 17.80200 24.77100
H  43.25400 14.88900 26.89200
H  45.80300 18.79200 33.67400
H  48.74300 18.78300 33.52900
H  46.81500 20.84600 33.65000
H  47.59000 20.96500 32.06100
H  48.59900 20.96800 33.54800
H  47.96500 16.89600 34.72100
H  46.38900 16.16500 34.21600
H  46.90700 16.79700 36.64600
H  45.28100 17.14600 36.04300
H  50.84400 20.57200 29.69100
H  51.52800 21.07600 28.13100
H  52.16600 19.69900 28.96900
H  52.74600 19.78000 24.97400
H  52.39100 19.79200 26.75700
H  51.90100 21.14500 25.64600
H  46.69500 16.35200 23.75500
H  43.95900 15.74600 24.77000
H  45.94800 18.66500 23.61800
H  44.83000 18.41300 25.01700
H  44.42500 17.78500 23.49700
H  44.83600 13.36500 25.14700
H  46.37400 14.05400 24.73100
H  44.02600 14.42000 22.79100
H  44.73100 12.80200 22.92000
H  45.77800 14.11400 22.35200
H  41.35000 13.74200 29.03200
H  41.23800 15.22300 28.00300
H  40.55600 15.24400 29.63400
H  43.99600 15.88500 33.71600
H  41.92800 18.41200 36.56100
H  40.77500 18.83600 35.37800
H  42.21300 19.59800 35.28600
Mg 16.89500 51.29200 26.68600
C  18.87600 49.92700 29.21500
C  14.54200 52.03200 29.22700
C  14.84500 52.46200 24.32700
C  19.22100 50.17800 24.33700
N  16.68000 50.95000 28.95100
C  17.66600 50.41900 29.73200
C  17.42900 50.77300 31.19700
C  15.92400 51.04700 31.18200
C  15.70200 51.37800 29.73900
C  14.98800 49.86600 31.84500
C  18.35000 51.83500 31.69800
C  18.86900 51.48300 33.11900
H  18.03400 52.01500 34.30500
N  15.04700 52.24400 26.77900
C  14.26900 52.47000 27.89300
C  13.05500 53.18500 27.45400
C  13.14200 53.41200 26.06500
C  14.37500 52.64200 25.68800
C  12.03100 53.61000 28.45700
C  12.24500 54.27600 25.09200
O  12.57200 54.46700 23.94500
C  11.10100 55.02800 25.68100
N  16.91600 51.14900 24.63600
C  15.97200 51.75800 23.84700
C  16.49300 51.85100 22.45900
C  17.90300 51.16700 22.38200
C  18.00700 50.78900 23.91100
C  15.47200 51.27500 21.43500
C  19.09900 51.99800 21.80400
C  19.81500 51.30000 20.59300
N  18.67700 50.20900 26.63200
C  19.57200 49.87300 25.62900
C  20.65700 49.11000 26.21100
C  20.45700 49.19100 27.56300
C  19.19200 49.80200 27.86200
C  21.83100 48.56000 25.39100
C  21.03900 48.76000 28.87300
O  22.02200 48.04600 29.08400
C  20.04700 49.32600 29.96000
C  19.59700 48.21100 30.88900
O  18.64700 47.49300 30.73300
O  20.40800 48.20500 32.01600
C  20.08900 47.31400 33.11700
H  13.90800 52.44100 30.01500
H  14.39400 53.11100 23.57400
H  19.89700 49.95100 23.51000
H  17.59500 49.81100 31.68100
H  15.77100 51.89500 31.84900
H  14.36300 50.18600 32.67900
H  15.62100 49.04400 32.17900
H  14.30600 49.44700 31.10500
H  17.89200 52.82000 31.78200
H  19.16600 52.01100 30.99700
H  19.91800 51.76400 33.20900
H  18.88300 50.40200 33.26300
H  12.07100 54.68000 28.66000
H  12.03400 53.01800 29.37200
H  11.07300 53.56500 27.93900
H  10.42200 54.45600 26.31500
H  10.56400 55.50000 24.85800
H  11.47200 55.87700 26.25500
H  16.64200 52.92100 22.31200
H  17.79200 50.26200 21.78500
H  15.89000 50.45300 20.85400
H  15.14200 52.08300 20.78200
H  14.60900 51.00400 22.04200
H  19.76900 52.24300 22.62800
H  18.71600 52.91100 21.34800
H  19.59200 50.24000 20.46800
H  20.88500 51.49200 20.67600
H  19.55500 51.82700 19.67500
H  21.46800 48.74800 24.38000
H  22.02400 47.53800 25.71600
H  22.71200 49.18900 25.52000
H  20.50300 50.14200 30.52100
H  20.74900 47.70200 33.89300
H  20.46000 46.29100 33.04500
H  19.06100 47.44200 33.45500

