158

Mg 35.53800 1.28900 29.79500
C  33.24000 2.43500 32.32000
C  37.97900 1.42000 32.22600
C  37.81200 0.78300 27.40900
C  32.98600 1.85200 27.41100
N  35.60100 1.93900 31.93100
C  34.54100 2.20300 32.80200
C  34.94100 2.28000 34.24700
C  36.58600 2.36600 34.13700
C  36.73500 1.88500 32.71200
C  37.20900 3.73200 34.48700
C  34.42600 1.12100 34.98600
C  34.43400 1.24700 36.50800
H  35.21100 2.35100 37.22000
N  37.62400 0.83400 29.80200
C  38.42700 1.05300 30.90600
C  39.83300 0.79700 30.50000
C  39.78400 0.53900 29.06500
C  38.36700 0.78900 28.68800
C  40.94100 0.84500 31.47100
C  40.89400 0.30900 28.15100
O  40.79800 0.17000 26.94100
C  42.29400 0.27400 28.70200
N  35.35700 1.14600 27.70800
C  36.47500 0.89700 26.97600
C  36.12600 0.75500 25.45300
C  34.57700 1.10700 25.45300
C  34.27600 1.43400 26.95700
C  37.07400 1.69200 24.55100
C  33.76600 -0.05600 24.89000
C  33.33500 -1.15700 25.83200
N  33.54800 2.08100 29.78700
C  32.61000 2.13300 28.72500
C  31.31500 2.56300 29.25400
C  31.57100 2.66200 30.63800
C  32.91100 2.41300 30.93800
C  30.07500 2.88400 28.45300
C  30.86900 3.00800 31.88300
O  29.66200 3.37600 31.99200
C  31.91400 2.84500 33.03400
C  31.96800 4.15900 33.76300
O  32.30500 5.23400 33.23700
O  31.79300 3.95300 35.10500
C  31.72900 5.23200 35.86300
H  38.75500 1.34700 32.99100
H  38.56200 0.72900 26.61700
H  32.18600 1.92500 26.67200
H  34.56400 3.21200 34.66900
H  37.03900 1.64800 34.82000
H  38.04800 3.67800 35.17900
H  36.50300 4.50600 34.78800
H  37.64700 4.15400 33.58200
H  34.96600 0.21600 34.70400
H  33.42200 0.79300 34.71800
H  34.57700 0.25000 36.92400
H  33.39600 1.50200 36.71900
H  41.40200 -0.13800 31.57100
H  40.57400 1.18600 32.43900
H  41.76800 1.47500 31.14400
H  42.73900 1.22700 28.98700
H  43.00700 -0.21200 28.03600
H  42.29700 -0.40800 29.55300
H  36.34400 -0.28000 25.18800
H  34.27500 1.94500 24.82500
H  37.77100 1.01600 24.05500
H  37.66000 2.43400 25.09300
H  36.58400 2.19900 23.71900
H  34.36400 -0.50600 24.09700
H  32.89200 0.37300 24.40000
H  33.73600 -1.04500 26.84000
H  33.60600 -2.15600 25.49100
H  32.26600 -1.09200 26.03200
H  30.33100 2.82200 27.39500
H  29.67900 3.87100 28.68800
H  29.29200 2.15800 28.67300
H  31.62800 2.01900 33.68500
H  31.03200 5.94000 35.41400
H  32.74100 5.62800 35.95000
H  31.36800 4.83500 36.81100
Mg 46.43700 24.63500 28.16800
C  47.19900 26.81700 31.00900
C  45.74100 22.17100 30.48000
C  46.57000 22.43000 25.69300
C  47.43400 27.20100 26.14200
N  46.63600 24.49600 30.46600
C  46.76700 25.54200 31.38900
C  46.64600 24.99600 32.85800
C  46.26100 23.52000 32.60200
C  46.11100 23.34500 31.11100
C  47.10900 22.48400 33.27300
C  45.56800 25.79100 33.66200
C  45.86400 26.57900 34.90500
H  44.85800 26.49700 36.03500
N  46.09600 22.61900 28.09000
C  45.77900 21.77200 29.15400
C  45.58200 20.34700 28.65500
C  45.76400 20.44500 27.18100
C  46.19600 21.86300 26.90200
C  45.19200 19.12700 29.60100
C  45.74700 19.42600 26.20500
O  46.12400 19.51700 25.07100
C  45.31200 18.07100 26.70600
N  47.12800 24.76900 26.25100
C  46.96500 23.71500 25.33600
C  47.33800 24.25700 23.94100
C  47.17400 25.75900 24.07400
C  47.22300 25.97500 25.60100
C  48.78800 23.79900 23.64400
C  45.92000 26.35100 23.40200
C  44.59900 26.25900 24.27600
N  47.03300 26.64500 28.39100
C  47.43000 27.53600 27.41800
C  47.67000 28.80900 28.03500
C  47.63700 28.55500 29.47700
C  47.27900 27.25100 29.61000
C  48.03800 30.08700 27.36200
C  47.96500 29.15300 30.71300
O  48.35300 30.24900 31.02200
C  47.67000 28.03400 31.85100
C  48.92200 27.61900 32.55000
O  49.97100 27.36300 31.97500
O  48.75200 27.68100 33.92500
C  49.89300 27.28600 34.72500
H  45.36000 21.43000 31.18600
H  46.66900 21.72500 24.86500
H  47.46700 27.98300 25.38000
H  47.65500 25.07300 33.26300
H  45.29100 23.43400 33.09100
H  47.68300 21.91300 32.54300
H  46.53400 21.79700 33.89500
H  47.94600 22.91600 33.82200
H  44.65200 25.21700 33.79600
H  45.28000 26.59000 32.98000
H  45.95200 27.64300 34.68400
H  46.82000 26.23500 35.29900
H  46.07800 18.50900 29.74500
H  44.42100 18.55100 29.09000
H  44.78100 19.49000 30.54300
H  44.24400 17.95800 26.89300
H  45.96700 17.72100 27.50400
H  45.42200 17.43400 25.82900
H  46.69400 23.88900 23.14300
H  47.96000 26.33700 23.58900
H  49.46400 24.65200 23.58400
H  48.66500 23.44100 22.62200
H  49.23500 23.00800 24.24700
H  45.59700 25.95900 22.43700
H  46.11500 27.41500 23.26700
H  44.60300 27.17200 24.87200
H  44.70200 25.38500 24.91900
H  43.68200 26.20800 23.68800
H  47.72000 30.14100 26.32000
H  49.12800 30.09100 27.37000
H  47.74500 30.97800 27.91600
H  46.95100 28.44900 32.55800
H  50.69800 28.00500 34.87600
H  50.36000 26.41100 34.27200
H  49.58600 26.89700 35.69600

