158

Mg 0.38100 8.13100 25.54200
C  1.38800 10.11800 28.08800
C  0.89100 5.41200 27.54700
C  -0.14100 6.18000 22.82000
C  0.67500 10.85000 23.40700
N  1.26200 7.77500 27.53900
C  1.28600 8.74100 28.44700
C  1.42600 8.17000 29.84900
C  1.45000 6.64700 29.67600
C  1.12200 6.60700 28.18600
C  2.80600 5.98300 30.01900
C  0.26700 8.58100 30.73300
C  0.41600 8.28400 32.23100
H  1.64300 7.54700 32.74700
N  0.35900 6.10100 25.22700
C  0.63800 5.08800 26.24600
C  0.40400 3.71800 25.74400
C  -0.02700 3.93800 24.34500
C  0.01000 5.44300 24.03700
C  0.43400 2.38000 26.51000
C  -0.41700 2.94500 23.19100
O  -0.73100 3.36100 22.10600
C  -0.50600 1.48500 23.44700
N  0.31900 8.47200 23.38200
C  0.02200 7.52800 22.44600
C  -0.10900 8.11800 20.98700
C  0.17700 9.59800 21.23800
C  0.40700 9.72400 22.79300
C  0.86100 7.45000 19.92900
C  -0.97800 10.55500 20.78600
C  -2.20300 10.51100 21.79000
N  0.95500 10.11300 25.65500
C  0.86200 11.08800 24.75200
C  1.17900 12.36400 25.38200
C  1.26800 12.03500 26.78900
C  1.21700 10.62900 26.82500
C  1.32700 13.65800 24.74000
C  1.65900 12.54300 28.08600
O  2.00300 13.66500 28.47900
C  1.69800 11.33000 28.99100
C  3.04300 11.31300 29.63700
O  3.97100 10.55300 29.36800
O  2.98600 12.11600 30.65800
C  4.00000 11.96800 31.68800
H  0.87500 4.54600 28.21200
H  -0.33700 5.50500 21.98400
H  0.81400 11.77200 22.83900
H  2.27800 8.68300 30.29400
H  0.71500 6.12700 30.29000
H  3.52800 6.74600 30.30800
H  3.16900 5.59300 29.06800
H  2.74100 5.21000 30.78400
H  -0.59200 8.02200 30.36200
H  0.11000 9.65400 30.62400
H  -0.38800 7.60800 32.52200
H  0.36600 9.13000 32.91600
H  -0.43200 1.76400 26.26800
H  0.26700 2.38100 27.58700
H  1.33100 1.82400 26.23500
H  -1.37500 1.16300 24.02100
H  0.33100 1.13500 24.05100
H  -0.41800 0.96300 22.49400
H  -1.09600 7.84200 20.61600
H  1.05000 9.89200 20.65500
H  1.70800 6.94400 20.39300
H  1.15400 8.24200 19.24000
H  0.35400 6.65400 19.38300
H  -1.19200 10.26300 19.75800
H  -0.67800 11.60100 20.84800
H  -2.29100 11.35200 22.47700
H  -2.13200 9.54200 22.28400
H  -3.11600 10.46600 21.19600
H  0.39200 14.21300 24.68200
H  1.72200 13.39600 23.75800
H  1.94500 14.37500 25.28000
H  0.92700 11.63900 29.69700
H  4.91600 12.14300 31.12400
H  3.96100 10.94100 32.05000
H  3.78500 12.62100 32.53500
Mg 36.56400 49.44900 24.87800
C  36.83100 47.41600 27.69600
C  35.63100 52.02200 27.05900
C  36.40000 51.35800 22.22100
C  37.97100 46.80000 23.00900
N  36.12000 49.61400 27.18200
C  36.46400 48.70100 28.10600
C  36.45200 49.34800 29.47000
C  35.86200 50.75700 29.26500
C  35.86400 50.85400 27.72300
C  34.44700 51.08500 29.91500
C  37.92200 49.33200 30.04300
C  38.06600 49.26600 31.54000
H  36.90600 49.00600 32.50600
N  35.82800 51.37100 24.72500
C  35.57100 52.31300 25.66500
C  35.08300 53.57400 24.97800
C  35.33100 53.40000 23.56700
C  35.91900 52.03200 23.41600
C  34.38000 54.54600 25.77300
C  34.99100 54.33900 22.36800
O  35.23600 54.00300 21.21000
C  34.27100 55.69200 22.45400
N  36.80500 48.97500 22.72700
C  36.80000 50.05300 21.90500
C  37.30100 49.62300 20.54100
C  38.12800 48.36300 20.87200
C  37.64900 47.98400 22.28400
C  36.13100 49.49700 19.49800
C  39.63500 48.54900 20.71300
C  40.33600 47.21900 20.40600
N  37.06500 47.43500 25.18300
C  37.58200 46.46400 24.31300
C  37.85900 45.27000 25.07400
C  37.49000 45.57900 26.35400
C  37.11100 46.94500 26.42100
C  38.60900 44.11200 24.67900
C  37.50100 45.00700 27.63500
O  37.68000 43.87800 27.99200
C  37.19300 46.26000 28.58900
C  36.06900 45.94800 29.54100
O  34.90000 46.15700 29.32300
O  36.59000 45.51400 30.70700
C  35.64800 44.97300 31.65600
H  35.47100 52.82900 27.77700
H  36.48100 51.98400 21.32900
H  38.71300 46.11200 22.59700
H  35.81100 48.76000 30.12700
H  36.51400 51.58500 29.54400
H  33.78600 51.33700 29.08600
H  34.45500 51.92800 30.60500
H  33.87000 50.25400 30.32100
H  38.24500 50.33200 29.75400
H  38.54100 48.59100 29.53600
H  38.59700 50.17400 31.82300
H  38.83500 48.50300 31.66200
H  33.71100 54.11300 26.51700
H  33.78600 55.25700 25.19800
H  35.16300 55.11000 26.27900
H  34.88800 56.36900 23.04500
H  33.33000 55.42700 22.93700
H  34.16300 56.09100 21.44500
H  38.03200 50.37800 20.25300
H  37.82400 47.67200 20.08500
H  35.23300 49.40300 20.10900
H  36.01100 48.63000 18.84900
H  36.10600 50.38800 18.87100
H  40.09900 48.73000 21.68300
H  39.99300 49.24400 19.95400
H  39.75700 46.69000 19.64900
H  40.35400 46.65100 21.33600
H  41.34900 47.42200 20.05700
H  38.91500 44.17700 23.63500
H  37.95600 43.24300 24.75600
H  39.57700 43.86800 25.11600
H  38.00700 46.64100 29.20500
H  35.24600 44.01100 31.33800
H  34.82300 45.66400 31.83200
H  36.17900 45.00800 32.60700

