158

Mg 47.34300 25.36200 28.72000
C  48.02400 27.73800 31.20700
C  46.34500 23.15800 31.13700
C  46.60200 23.13400 26.18700
C  48.75900 27.61100 26.41000
N  47.45600 25.39200 30.95300
C  47.51900 26.52800 31.73100
C  47.09800 26.22000 33.18800
C  46.64400 24.75000 33.08900
C  46.93100 24.36000 31.66600
C  47.34800 23.68700 34.14300
C  45.94100 27.26200 33.58400
C  46.02300 28.01900 34.95300
H  46.59900 27.41600 36.22200
N  46.53000 23.39700 28.69200
C  46.11100 22.74900 29.83900
C  45.45900 21.59700 29.34400
C  45.49500 21.61400 27.94600
C  46.26400 22.71100 27.55900
C  44.90400 20.50100 30.29500
C  44.75000 20.70700 27.00300
O  44.83900 20.78000 25.79300
C  43.74300 19.73800 27.47500
N  47.68200 25.32600 26.63000
C  47.30700 24.31900 25.78300
C  47.69700 24.62700 24.34200
C  48.16400 26.07700 24.45900
C  48.19100 26.40200 25.92300
C  48.79100 23.67500 23.81200
C  47.24300 27.09000 23.80600
C  47.99000 28.08800 22.81900
N  48.26200 27.31300 28.71700
C  48.81400 28.03600 27.75100
C  49.29400 29.34400 28.27200
C  48.95600 29.28300 29.63000
C  48.36900 28.01000 29.86900
C  49.94000 30.40500 27.48600
C  48.90200 30.00800 30.89600
O  49.20800 31.13900 31.20200
C  48.37200 28.94300 32.01600
C  49.33400 28.77300 33.10000
O  50.22500 27.89900 33.20100
O  49.08200 29.74800 34.01500
C  50.09800 29.91800 35.00100
H  45.79900 22.58400 31.88800
H  46.17800 22.58000 25.34700
H  49.05500 28.35900 25.67200
H  47.89200 26.23200 33.93500
H  45.57400 24.58400 33.21100
H  48.15000 23.37200 33.47500
H  46.68600 22.84500 34.35000
H  47.71300 24.26100 34.99500
H  45.05200 26.63600 33.65400
H  45.79900 28.02900 32.82200
H  45.05200 28.42800 35.23500
H  46.52700 28.97000 34.78500
H  45.12900 19.50400 29.91700
H  43.81900 20.58000 30.37100
H  45.25200 20.56700 31.32600
H  43.16000 20.08400 28.32800
H  44.27600 18.88000 27.88600
H  43.02200 19.38100 26.74000
H  46.69300 24.60800 23.91700
H  49.19500 26.13300 24.11200
H  49.64200 24.05200 24.37800
H  48.85900 23.87000 22.74200
H  48.45700 22.67400 24.08600
H  46.73200 27.68200 24.56500
H  46.40300 26.65400 23.26500
H  49.02300 27.74500 22.76700
H  48.00000 29.13800 23.11000
H  47.57700 28.20600 21.81700
H  50.98900 30.15500 27.32800
H  49.92900 31.33500 28.05400
H  49.44300 30.56300 26.52800
H  47.48500 29.43200 32.41900
H  49.87400 29.30700 35.87500
H  50.07100 30.97000 35.28200
H  51.12500 29.64700 34.75400
Mg -1.25500 34.37400 27.13600
C  -3.17300 32.74700 29.69800
C  -0.18000 36.63500 29.50400
C  0.00600 36.11200 24.59400
C  -2.81000 32.17900 24.93800
N  -1.59300 34.60200 29.34100
C  -2.34700 33.79900 30.15200
C  -2.24300 34.26900 31.57400
C  -1.56700 35.66400 31.42900
C  -1.02300 35.63500 30.03100
C  -2.49100 36.88000 31.61400
C  -1.38200 33.38000 32.55400
C  -2.14500 32.74700 33.75400
H  -1.50400 33.03300 35.13200
N  -0.08200 36.05600 27.03700
C  0.28500 36.77300 28.12300
C  1.28800 37.73000 27.69100
C  1.39300 37.59600 26.23400
C  0.41400 36.54100 25.89500
C  1.88900 38.66800 28.76400
C  2.11700 38.50100 25.10700
O  2.01200 38.27900 23.90400
C  3.08700 39.56600 25.50800
N  -1.49300 34.29100 25.07800
C  -0.87300 35.12000 24.17200
C  -1.11800 34.70600 22.70400
C  -1.76800 33.29000 22.93800
C  -1.94800 33.14900 24.41800
C  -2.10800 35.66700 22.02100
C  -1.04700 32.05300 22.31400
C  0.21200 31.62700 23.00200
N  -2.64700 32.64300 27.26400
C  -3.17300 31.88700 26.27300
C  -4.13700 30.98000 26.83300
C  -4.08000 31.15400 28.22400
C  -3.29000 32.28000 28.38500
C  -5.09000 30.17600 26.01900
C  -4.53100 30.77100 29.52300
O  -5.21800 29.88400 29.91400
C  -3.94300 31.81400 30.55700
C  -5.16200 32.19000 31.32800
O  -5.91400 33.08600 31.02000
O  -5.31400 31.45200 32.48300
C  -6.38900 31.88300 33.38200
H  0.25200 37.26900 30.28000
H  0.33100 36.75500 23.77300
H  -3.13000 31.42300 24.21800
H  -3.23600 34.46300 31.97900
H  -0.74200 35.83000 32.12100
H  -3.42300 36.68900 32.14700
H  -2.85300 37.25500 30.65700
H  -1.97100 37.64900 32.18500
H  -0.58500 33.94500 33.03800
H  -0.92800 32.59300 31.95100
H  -2.16700 31.65800 33.77200
H  -3.16300 33.12900 33.83500
H  2.44800 39.41600 28.20200
H  2.64100 38.19700 29.39700
H  1.13100 39.21000 29.33000
H  3.66700 39.86600 24.63600
H  3.83700 39.10400 26.15000
H  2.74700 40.45100 26.04600
H  -0.13600 34.78000 22.23700
H  -2.83500 33.21400 22.72700
H  -2.31900 36.47400 22.72300
H  -3.03900 35.24200 21.64600
H  -1.73200 36.17300 21.13200
H  -0.76200 32.28800 21.28800
H  -1.63400 31.13600 22.36700
H  0.06900 30.60500 23.35100
H  0.47700 32.34200 23.78100
H  0.95200 31.53000 22.20800
H  -6.08000 30.55700 26.27000
H  -5.06600 29.12100 26.29000
H  -4.88600 30.20600 24.94800
H  -3.26300 31.37100 31.28500
H  -6.00200 32.49600 34.19600
H  -6.93600 31.06200 33.84500
H  -7.12400 32.57400 32.97100

