158

Mg -9.61100 38.75900 39.80300
C  -8.73300 35.43800 39.22600
C  -6.41800 39.67700 38.55500
C  -10.71300 41.88100 39.38300
C  -12.71800 37.68200 40.77900
N  -7.87100 37.58900 38.83000
C  -7.65800 36.27300 38.90200
C  -6.20800 35.90400 38.51000
C  -5.44400 37.29200 38.71800
C  -6.64500 38.26200 38.74100
C  -4.44400 37.36900 39.92700
C  -6.18900 35.32100 37.01700
C  -6.50700 36.19000 35.83400
H  -7.73100 35.90500 34.99000
N  -8.66700 40.59100 39.12500
C  -7.41500 40.73200 38.62800
C  -7.19500 42.16000 38.44000
C  -8.36200 42.88700 38.81200
C  -9.34500 41.78100 39.14000
C  -5.88900 42.74500 38.07000
C  -8.45800 44.36000 38.82600
O  -7.48100 45.05400 38.54400
C  -9.75500 45.04200 39.24700
N  -11.49300 39.56900 39.90600
C  -11.63200 40.88400 39.77700
C  -13.05500 41.37500 40.15100
C  -13.68800 40.06600 40.78800
C  -12.62900 39.03800 40.41600
C  -13.16500 42.70600 41.00800
C  -15.02100 39.62200 40.34100
C  -16.14500 39.67200 41.40100
N  -10.58700 36.93100 40.14400
C  -11.82200 36.64200 40.60900
C  -11.92300 35.15900 40.84000
C  -10.81600 34.66100 40.19100
C  -9.95800 35.78400 39.81000
C  -13.08900 34.37400 41.51700
C  -10.09900 33.47500 39.74700
O  -10.36700 32.28600 39.88800
C  -8.74300 33.92300 39.11800
C  -7.59300 33.31200 39.91700
O  -7.63900 33.20800 41.13600
O  -6.71200 32.70700 39.09100
C  -5.45000 32.18200 39.69000
H  -5.42800 40.11600 38.41700
H  -11.20300 42.84200 39.21000
H  -13.65200 37.40600 41.27400
H  -5.78000 35.13800 39.15700
H  -4.93600 37.71900 37.85400
H  -4.87500 37.80300 40.82900
H  -3.51900 37.92700 39.78100
H  -4.06300 36.39900 40.24700
H  -6.82500 34.43700 36.97300
H  -5.16200 34.96900 36.92300
H  -5.70700 36.04100 35.10800
H  -6.45100 37.22700 36.16500
H  -5.57700 43.17700 39.02100
H  -5.92100 43.55500 37.34000
H  -5.12600 42.05700 37.70700
H  -9.90500 44.70500 40.27200
H  -10.59200 44.83400 38.58000
H  -9.54500 46.11200 39.23700
H  -13.55200 41.56800 39.20000
H  -13.67000 40.07900 41.87800
H  -12.16500 43.04400 41.28200
H  -13.71300 42.47100 41.92000
H  -13.59400 43.50800 40.40700
H  -14.96500 38.65200 39.84500
H  -15.36200 40.16600 39.46000
H  -16.84500 40.49400 41.25200
H  -15.92800 39.58000 42.46500
H  -16.78900 38.80000 41.28700
H  -14.03600 34.87700 41.32200
H  -12.90900 34.21500 42.58000
H  -13.01400 33.35600 41.13500
H  -8.69100 33.65500 38.06300
H  -4.81100 32.04600 38.81700
H  -5.52100 31.19700 40.15200
H  -5.00800 33.04700 40.18300
Mg -5.45400 25.77900 26.42600
C  -4.11600 27.44200 29.12100
C  -7.14600 23.61200 28.59400
C  -6.56900 23.97900 23.76400
C  -3.55600 27.85300 24.19100
N  -5.55100 25.56400 28.61900
C  -5.00600 26.38700 29.51200
C  -5.46000 26.00100 30.97100
C  -6.17400 24.57400 30.68700
C  -6.38700 24.65700 29.17500
C  -5.20900 23.39000 31.07200
C  -6.40700 27.10500 31.52700
C  -6.45000 27.29800 33.04300
H  -5.88800 26.16600 33.92900
N  -6.73000 24.00300 26.17700
C  -7.31300 23.29900 27.17900
C  -8.16600 22.28200 26.63200
C  -8.08900 22.41500 25.22000
C  -7.06100 23.46600 24.97200
C  -9.07300 21.40400 27.48900
C  -8.85200 21.79400 24.16500
O  -8.62600 22.10900 23.03800
C  -9.91300 20.71100 24.49500
N  -4.82900 25.72800 24.31200
C  -5.55500 24.93200 23.41000
C  -5.13800 25.27500 21.91100
C  -4.19100 26.54700 22.04900
C  -4.16900 26.75000 23.59300
C  -4.57900 24.14000 21.01800
C  -4.71100 27.83100 21.19600
C  -5.48100 27.56800 19.91700
N  -4.14000 27.34700 26.58100
C  -3.50800 28.14500 25.54600
C  -2.77400 29.21400 26.19900
C  -2.96300 28.94700 27.62700
C  -3.75300 27.78800 27.77200
C  -1.94300 30.27700 25.65700
C  -2.64100 29.43900 28.94700
O  -1.95200 30.42600 29.32800
C  -3.44100 28.54300 29.97500
C  -2.51300 28.01200 30.97900
O  -1.73500 27.13800 30.72800
O  -2.78200 28.52000 32.23600
C  -2.05500 28.03400 33.38100
H  -7.67900 22.97200 29.30100
H  -6.88900 23.50600 22.83300
H  -3.06800 28.42700 23.40000
H  -4.60700 25.91700 31.64500
H  -7.08800 24.47900 31.27400
H  -5.18100 22.79200 30.16100
H  -5.62500 22.75700 31.85600
H  -4.20400 23.74500 31.29800
H  -7.41300 27.08100 31.10900
H  -6.14100 28.04500 31.04400
H  -7.52800 27.24700 33.19100
H  -6.17700 28.30600 33.35400
H  -8.97500 21.65100 28.54600
H  -9.02400 20.35400 27.20100
H  -10.09900 21.64800 27.21200
H  -9.40700 19.96800 25.11000
H  -10.17100 20.17300 23.58200
H  -10.77900 21.24600 24.88600
H  -6.10600 25.47900 21.45300
H  -3.20100 26.27400 21.68600
H  -3.55600 24.34800 20.70400
H  -5.33100 23.88300 20.27200
H  -4.43600 23.20100 21.55200
H  -3.80200 28.38100 20.95200
H  -5.23800 28.55800 21.81300
H  -6.49900 27.88500 20.14300
H  -5.48700 26.58100 19.45500
H  -5.00700 28.29000 19.25100
H  -1.22000 29.86100 24.95500
H  -1.25200 30.82800 26.29400
H  -2.55200 30.89200 24.99400
H  -4.29700 29.07500 30.38900
H  -2.55200 27.21700 33.90300
H  -1.96200 28.89700 34.03900
H  -1.01800 27.73100 33.23600

