158

Mg 17.92800 -1.91200 28.01300
C  16.69600 0.06600 30.69100
C  19.89000 -3.63900 30.20300
C  19.45900 -3.37800 25.45600
C  16.49700 0.47400 25.75100
N  18.35700 -1.67700 30.24000
C  17.66200 -0.90700 31.12100
C  17.99900 -1.39300 32.57700
C  19.22200 -2.34600 32.33400
C  19.11700 -2.59600 30.86400
C  20.60500 -1.80000 32.68600
C  16.85400 -2.16000 33.33500
C  16.31100 -1.44900 34.62300
H  17.19000 -0.85800 35.62100
N  19.36100 -3.41800 27.78000
C  20.02100 -4.02400 28.84100
C  20.73300 -5.17000 28.32200
C  20.60400 -5.18700 26.94800
C  19.79000 -3.96900 26.67500
C  21.41100 -6.07100 29.25000
C  21.12300 -6.00300 25.86800
O  20.64400 -6.02100 24.73100
C  22.25300 -6.85600 26.14400
N  17.94100 -1.53600 25.92100
C  18.76100 -2.26800 25.10600
C  18.81700 -1.72300 23.73500
C  17.78500 -0.57000 23.79900
C  17.33200 -0.54400 25.22900
C  20.16100 -1.26800 23.09900
C  16.53500 -0.64400 22.81400
C  16.38700 0.53400 21.78600
N  16.70500 -0.17700 28.14400
C  16.05000 0.60300 27.15500
C  15.17200 1.46500 27.80700
C  15.33500 1.34000 29.13800
C  16.36900 0.29000 29.34100
C  14.45700 2.59800 27.01400
C  14.93000 1.87800 30.43200
O  14.14700 2.79600 30.67400
C  15.67400 0.91700 31.54400
C  16.38400 1.77600 32.48900
O  17.44000 2.36300 32.27100
O  15.58900 1.95600 33.60300
C  16.13600 3.01400 34.52100
H  20.29300 -4.38800 30.88800
H  19.89700 -3.88600 24.59400
H  16.10400 1.24100 25.08100
H  18.18000 -0.46900 33.12700
H  19.18700 -3.35400 32.74600
H  20.71600 -0.74600 32.94100
H  21.24600 -2.02700 31.83500
H  20.86500 -2.17500 33.67600
H  17.16500 -3.15700 33.64900
H  15.94800 -2.25200 32.73500
H  15.95500 -2.34700 35.12900
H  15.37700 -0.90200 34.50000
H  22.30600 -5.64900 29.70700
H  21.73000 -6.95800 28.70200
H  20.78300 -6.41800 30.07000
H  22.63200 -7.20200 25.18300
H  21.78300 -7.69400 26.66000
H  23.03900 -6.26500 26.61500
H  18.44600 -2.55500 23.13600
H  18.29800 0.34900 23.51600
H  20.01400 -1.12700 22.02800
H  20.90100 -2.05400 23.25100
H  20.40200 -0.27200 23.47100
H  15.59200 -0.68700 23.35800
H  16.50200 -1.62600 22.34300
H  15.47000 0.46400 21.20000
H  17.28300 0.58700 21.16700
H  16.35200 1.44900 22.37600
H  13.80400 2.18100 26.24800
H  15.25500 3.22100 26.61000
H  13.82800 3.27800 27.58800
H  14.95200 0.36900 32.14900
H  15.38200 3.22600 35.27900
H  16.35100 3.95800 34.02000
H  17.05100 2.68600 35.01500
Mg 10.13600 48.37700 25.57900
C  7.67300 48.49900 28.22600
C  12.37000 49.80400 27.84400
C  12.42800 48.42400 23.23900
C  7.65300 47.41500 23.49600
N  10.04500 49.11800 27.82000
C  8.89900 48.98300 28.68300
C  9.32000 49.37000 30.09000
C  10.66200 50.11000 29.89100
C  11.06900 49.74100 28.39000
C  10.63000 51.61200 30.14800
C  9.44800 48.06400 31.04900
C  10.50100 48.00700 32.19000
H  10.10000 47.14800 33.42600
N  12.09700 48.89700 25.59700
C  12.85700 49.37500 26.61300
C  14.28300 49.36000 26.14900
C  14.29900 48.74300 24.90200
C  12.90400 48.66400 24.53900
C  15.45100 49.90100 27.04600
C  15.47400 48.22200 24.04500
O  15.39500 47.79000 22.94200
C  16.79900 48.33300 24.65700
N  9.99000 48.14900 23.64000
C  11.10000 48.20800 22.79300
C  10.72800 47.71700 21.38800
C  9.25100 47.30400 21.52600
C  8.92700 47.64500 22.97100
C  11.04800 48.74900 20.23700
C  8.87300 45.88700 21.08600
C  8.87700 44.74100 22.16100
N  8.08100 47.97800 25.79500
C  7.17900 47.58200 24.80000
C  5.83300 47.48800 25.35400
C  6.03500 47.71700 26.71300
C  7.35600 48.03700 26.91300
C  4.43200 47.18100 24.61700
C  5.31500 47.84000 28.01600
O  4.09500 47.72000 28.28400
C  6.37700 48.30600 29.08700
C  6.62000 47.23200 30.02500
O  7.22700 46.14600 29.89500
O  5.99500 47.58500 31.20000
C  5.88300 46.50400 32.20200
H  13.11900 50.30400 28.46200
H  13.10400 48.23400 22.40300
H  6.93200 46.82900 22.92300
H  8.57200 49.92600 30.65600
H  11.40900 49.66200 30.54600
H  10.79800 52.03300 29.15700
H  11.43100 51.84800 30.84800
H  9.72500 52.04000 30.58000
H  9.65500 47.12300 30.53900
H  8.46800 48.09900 31.52500
H  10.94400 48.96700 32.45400
H  11.34500 47.35600 31.95900
H  15.11600 50.00400 28.07800
H  15.83500 50.85100 26.67500
H  16.23000 49.15600 27.20500
H  16.91500 47.68200 25.52400
H  17.00500 49.34700 25.00100
H  17.58700 48.13200 23.93200
H  11.24500 46.77000 21.24100
H  8.61600 47.99300 20.96700
H  11.99300 49.25800 20.42800
H  10.20600 49.44100 20.21800
H  11.05300 48.13900 19.33400
H  9.52100 45.52800 20.28600
H  7.95800 46.03800 20.51300
H  9.33800 44.99800 23.11500
H  9.46600 43.95300 21.69200
H  7.94800 44.27300 22.48800
H  4.09500 46.14600 24.68200
H  4.62000 47.42600 23.57200
H  3.55900 47.76800 24.90400
H  6.01600 49.16000 29.65900
H  6.78100 46.56700 32.81600
H  5.88200 45.53900 31.69300
H  5.01200 46.60000 32.84900

