158

Mg 26.13800 1.56500 29.92800
C  28.11600 1.48600 32.76000
C  23.39700 2.08800 32.11700
C  24.11200 1.69000 27.18300
C  28.63400 0.41900 28.06600
N  25.75200 1.82400 32.24300
C  26.78800 1.75900 33.16300
C  26.24800 2.10500 34.55800
C  24.68800 1.96100 34.39900
C  24.53800 2.01500 32.84700
C  24.09000 0.63000 35.02100
C  26.77800 3.47700 35.05600
C  27.43700 3.65500 36.49000
H  26.45600 4.33100 37.44700
N  24.04800 1.92100 29.72600
C  23.10900 1.98300 30.72900
C  21.80100 2.11600 30.15600
C  22.00400 2.18700 28.72300
C  23.44000 1.91800 28.44900
C  20.53500 2.29100 30.96100
C  20.95900 2.35600 27.62900
O  21.21900 2.21000 26.42600
C  19.47100 2.52500 27.89900
N  26.35400 1.03300 27.91700
C  25.38800 1.16500 26.95100
C  25.96800 1.03000 25.49200
C  27.51500 0.86700 25.79700
C  27.51300 0.68900 27.34700
C  25.43600 -0.03900 24.66500
C  28.42100 2.06500 25.35700
C  29.82700 1.67800 24.90900
N  28.00400 0.91400 30.32400
C  28.95900 0.49700 29.39900
C  30.24000 0.36700 30.05100
C  29.98200 0.72700 31.38200
C  28.63500 1.10300 31.44900
C  31.43600 -0.15700 29.35000
C  30.54300 0.85000 32.73900
O  31.63900 0.63100 33.23900
C  29.38500 1.39000 33.69700
C  29.27600 0.46200 34.87300
O  28.62700 -0.59200 34.81200
O  29.80100 0.91900 36.03300
C  29.84600 0.03600 37.17100
H  22.54800 2.29000 32.77300
H  23.54200 1.85200 26.26500
H  29.47500 0.11600 27.43900
H  26.61800 1.42000 35.32100
H  24.13600 2.75400 34.90200
H  23.76000 -0.05100 34.23600
H  23.17800 0.84500 35.57800
H  24.73000 0.14600 35.75900
H  25.96800 4.20300 35.00300
H  27.56600 3.85500 34.40400
H  28.33700 4.26900 36.51600
H  27.78500 2.69200 36.86600
H  19.93800 1.38400 30.86200
H  20.00200 3.19300 30.66000
H  20.81100 2.29700 32.01500
H  19.04900 1.72100 28.50200
H  18.89200 2.48900 26.97600
H  19.29000 3.45300 28.44100
H  25.77400 1.98800 25.00900
H  27.85400 -0.04900 25.31200
H  24.64400 0.29600 23.99500
H  25.02600 -0.78300 25.34700
H  26.18400 -0.52300 24.03700
H  28.56100 2.73800 26.20200
H  27.95200 2.55500 24.50400
H  30.53000 2.30800 25.45400
H  29.85700 1.86300 23.83500
H  29.93100 0.61400 25.11900
H  32.12900 0.68400 29.32200
H  31.27300 -0.46000 28.31600
H  31.89100 -0.91100 29.99200
H  29.72800 2.38800 33.97200
H  30.04700 -0.98000 36.83200
H  28.89100 0.13500 37.68700
H  30.58400 0.27300 37.93700
Mg 9.67800 47.66200 26.09200
C  7.76300 48.06700 28.91400
C  12.50300 48.42500 27.79900
C  11.45500 47.21400 23.20800
C  6.72600 47.52100 24.23500
N  10.13800 48.22500 28.13700
C  9.18400 48.25300 29.17300
C  9.90700 48.30000 30.50100
C  11.27200 48.78100 30.03800
C  11.35100 48.47900 28.57000
C  11.69100 50.24900 30.24600
C  9.83300 47.01700 31.38100
C  9.67500 47.35200 32.89400
H  9.46400 46.22500 33.94800
N  11.69100 47.70600 25.58800
C  12.71600 48.06700 26.48000
C  13.95600 48.15500 25.79300
C  13.64600 47.87300 24.43600
C  12.23200 47.53200 24.37900
C  15.37500 48.52000 26.42400
C  14.60600 47.84200 23.17700
O  14.16600 47.73800 22.05100
C  16.14500 47.84500 23.44800
N  9.19700 47.34000 24.08300
C  10.09800 47.15600 23.13100
C  9.41400 46.72700 21.81000
C  7.88500 46.75600 22.17200
C  7.92400 47.21300 23.60300
C  9.83000 47.42000 20.45800
C  7.27700 45.35900 22.07100
C  7.49700 44.36200 23.20900
N  7.61300 48.00200 26.39900
C  6.52900 47.92300 25.55300
C  5.26000 47.98800 26.30100
C  5.70000 47.98300 27.63700
C  7.12900 48.01100 27.64100
C  3.90200 47.91900 25.69600
C  5.27500 47.93000 28.99800
O  4.12700 47.83900 29.41900
C  6.54200 47.95800 29.91300
C  6.49100 46.66500 30.68200
O  6.90200 45.55900 30.37600
O  5.86300 46.85900 31.92200
C  5.80800 45.68200 32.82200
H  13.45100 48.55500 28.32400
H  12.08200 46.94700 22.35500
H  5.88800 47.32000 23.56400
H  9.33800 49.07000 31.02300
H  11.96300 48.18300 30.63300
H  10.79200 50.80800 30.50700
H  12.24900 50.77700 29.47200
H  12.37300 50.36500 31.08700
H  10.69600 46.35800 31.27700
H  9.02100 46.42600 30.95800
H  8.73700 47.90600 32.89800
H  10.46000 48.02600 33.23800
H  15.46900 48.46900 27.50900
H  15.78000 49.47100 26.07900
H  16.07600 47.74500 26.11500
H  16.30800 46.97700 24.08600
H  16.47200 48.74900 23.96200
H  16.83200 47.83600 22.60100
H  9.74000 45.68900 21.73900
H  7.24200 47.43100 21.60700
H  10.17900 48.38900 20.81600
H  9.09200 47.68900 19.70200
H  10.76000 46.95300 20.13200
H  7.72600 44.90000 21.19000
H  6.20000 45.34200 21.90400
H  6.98000 43.41400 23.06400
H  6.99300 44.74100 24.09900
H  8.48900 44.11800 23.58900
H  3.76600 46.84800 25.84500
H  3.79400 48.05400 24.62000
H  3.19100 48.50100 26.28300
H  6.46400 48.73900 30.66800
H  6.73100 45.10400 32.77700
H  4.91600 45.07900 32.65400
H  5.68000 46.00500 33.85500

