158

Mg 16.98900 -1.01400 27.34200
C  16.25400 0.92400 30.09900
C  19.16600 -2.87600 29.32200
C  18.40200 -2.45500 24.54900
C  15.33000 1.19700 25.28700
N  17.72500 -0.81900 29.41000
C  17.14600 -0.05700 30.41900
C  17.65600 -0.43100 31.78900
C  18.76000 -1.54000 31.51700
C  18.56900 -1.75400 29.92300
C  20.26900 -1.26200 31.89300
C  16.48900 -0.89200 32.71300
C  16.32600 -0.23400 34.01400
H  17.56700 0.49200 34.66900
N  18.41500 -2.57900 26.98400
C  19.12500 -3.27700 27.97400
C  19.74700 -4.42200 27.38900
C  19.53000 -4.33600 25.93900
C  18.78700 -3.06200 25.75600
C  20.57100 -5.43900 28.20900
C  19.89400 -5.25400 24.82900
O  19.74900 -4.86800 23.65100
C  20.69200 -6.63800 25.07600
N  16.85800 -0.69600 25.24500
C  17.49600 -1.40700 24.28500
C  17.06000 -1.02500 22.84700
C  15.99600 0.05300 23.09000
C  16.09900 0.28200 24.65100
C  18.13600 -0.66000 21.81800
C  14.55400 -0.21300 22.51200
C  14.14400 0.77600 21.44500
N  15.81400 0.64300 27.59700
C  15.16500 1.42700 26.67300
C  14.46300 2.43700 27.38900
C  14.74000 2.25700 28.77800
C  15.61700 1.14400 28.84400
C  13.59000 3.49700 26.70200
C  14.60800 2.80900 30.14400
O  14.00700 3.81500 30.49900
C  15.52000 1.89100 31.05200
C  16.48700 2.76900 31.84700
O  17.53400 3.15400 31.48800
O  15.90600 3.11100 33.05700
C  16.44700 4.30700 33.69400
H  19.79000 -3.49500 29.97100
H  18.75500 -2.91200 23.62200
H  14.82600 1.82100 24.54600
H  18.06000 0.46600 32.25700
H  18.49100 -2.44800 32.05700
H  20.61200 -2.21800 32.28900
H  20.28500 -0.63100 32.78100
H  20.82800 -0.91300 31.02500
H  16.72600 -1.93700 32.90800
H  15.54500 -1.00700 32.18100
H  15.97800 -0.96800 34.74100
H  15.54400 0.51300 33.87600
H  20.32800 -6.50000 28.15200
H  20.57500 -5.21000 29.27400
H  21.62100 -5.26800 27.96900
H  21.58100 -6.53400 25.69800
H  21.04800 -7.15700 24.18600
H  19.95600 -7.32700 25.48900
H  16.46600 -1.86600 22.49100
H  16.40600 1.02200 22.80600
H  17.96700 0.33800 21.41500
H  18.23000 -1.52600 21.16200
H  19.07700 -0.55600 22.35700
H  13.80600 -0.01300 23.28000
H  14.36300 -1.23000 22.17200
H  14.88600 1.51700 21.14900
H  13.22900 1.26400 21.78200
H  13.79100 0.22000 20.57600
H  13.54600 3.41600 25.61600
H  13.95900 4.48800 26.96500
H  12.59700 3.34800 27.12700
H  14.91300 1.40900 31.81800
H  17.32000 4.02400 34.28100
H  15.80400 4.69200 34.48600
H  16.71000 5.06500 32.95600
Mg 30.46900 57.06400 39.27800
C  28.03700 54.74100 38.38100
C  32.73500 54.75200 38.07900
C  32.80100 59.47200 39.50500
C  28.07100 59.49600 40.06900
N  30.33000 55.04400 38.17800
C  29.27200 54.23500 38.11200
C  29.59500 52.85400 37.54100
C  31.12900 52.85100 37.62300
C  31.44000 54.31000 37.98200
C  31.68900 51.81100 38.62500
C  29.00300 52.39800 36.21200
C  29.41100 53.08200 34.93700
H  28.34400 53.89700 34.19200
N  32.55000 57.07600 38.85300
C  33.29900 56.00900 38.48200
C  34.71300 56.45600 38.42400
C  34.76200 57.75700 38.87200
C  33.35400 58.15200 39.10900
C  35.83700 55.53700 37.88300
C  36.09300 58.49700 39.03200
O  37.13700 57.91700 38.85000
C  36.14300 59.94000 39.43400
N  30.44100 59.29600 39.59200
C  31.56900 60.04200 39.78900
C  31.24200 61.51700 39.99800
C  29.70400 61.51000 40.18500
C  29.37500 59.98300 40.00500
C  32.17800 62.33500 40.89000
C  28.90600 62.49900 39.15500
C  27.96000 63.60400 39.85400
N  28.47000 57.18900 39.23900
C  27.61200 58.24100 39.66500
C  26.26800 57.78200 39.31500
C  26.37500 56.41400 38.99400
C  27.70200 56.10400 38.85700
C  24.96200 58.44000 39.44700
C  25.61900 55.24700 38.62000
O  24.39300 55.07600 38.63400
C  26.70200 54.13700 38.32500
C  26.35700 53.11300 39.35400
O  26.95600 52.80600 40.41900
O  25.25500 52.48200 38.91700
C  24.62900 51.42200 39.69900
H  33.41400 53.97500 37.72200
H  33.59100 60.19900 39.70300
H  27.29100 60.25500 40.16600
H  29.14300 52.29300 38.35900
H  31.55300 52.63500 36.64200
H  32.19200 51.18700 37.88600
H  30.90500 51.23100 39.11200
H  32.41900 52.35700 39.22300
H  27.92700 52.43600 36.38400
H  29.19400 51.32800 36.13200
H  29.89800 52.34400 34.29800
H  30.08600 53.85700 35.30000
H  36.45800 56.05800 37.15400
H  35.47200 54.62100 37.41600
H  36.58100 55.20800 38.60800
H  37.19300 60.22900 39.41300
H  35.62800 59.98000 40.39400
H  35.55600 60.50100 38.70700
H  31.54600 61.86100 39.00900
H  29.37100 61.80800 41.17900
H  32.90900 61.74700 41.44600
H  31.46200 62.82100 41.55200
H  32.67500 63.18600 40.42300
H  28.34500 62.11400 38.30300
H  29.68300 63.09400 38.67600
H  27.45200 63.12500 40.69100
H  27.22900 63.97600 39.13600
H  28.62700 64.43100 40.10000
H  25.05600 59.52100 39.54400
H  24.46000 58.06000 40.33700
H  24.43100 58.13200 38.54600
H  26.54300 53.68100 37.34800
H  24.45400 50.56900 39.04400
H  23.74500 51.82100 40.19800
H  25.32400 51.04800 40.45100

