158

Mg 30.07700 60.27400 40.37400
C  26.90200 59.13800 39.46500
C  31.36800 57.29000 39.05900
C  33.03300 61.69300 40.50600
C  28.54600 63.59600 40.91700
N  29.16200 58.43300 39.23600
C  27.87600 58.16900 39.11700
C  27.71500 56.88800 38.32700
C  29.00600 56.16100 38.58100
C  29.96700 57.37200 38.92300
C  29.09600 54.95600 39.53100
C  27.20400 57.24800 36.81500
C  25.90400 56.56000 36.36700
H  26.09100 55.58200 35.18800
N  32.01700 59.48600 39.97100
C  32.33400 58.25500 39.48500
C  33.73000 58.19800 39.48300
C  34.27300 59.47400 39.84400
C  33.05000 60.31300 40.17400
C  34.57600 57.00900 39.05700
C  35.74500 59.75300 39.90000
O  36.61500 58.90400 39.57600
C  36.30900 61.01800 40.37400
N  30.71400 62.46700 40.64200
C  32.01300 62.65900 40.74200
C  32.28800 64.18600 41.00400
C  30.86700 64.80700 41.21100
C  29.98400 63.58400 40.95900
C  33.26500 64.46400 42.18000
C  30.47200 65.96400 40.23700
C  30.04900 67.30300 40.96400
N  28.22800 61.19100 40.33500
C  27.76000 62.47000 40.64000
C  26.27300 62.38000 40.70500
C  25.93100 61.11500 40.17200
C  27.11100 60.42700 40.07300
C  25.40000 63.54900 41.15800
C  24.81000 60.32200 39.76500
O  23.62700 60.51800 39.83500
C  25.45500 58.96300 39.26100
C  24.81300 57.76600 39.84600
O  24.97500 57.44200 41.01100
O  23.92500 57.20000 39.00500
C  23.43300 55.85700 39.40800
H  31.92300 56.36700 38.88200
H  34.01200 62.16900 40.59100
H  28.14900 64.59800 41.09400
H  26.95500 56.24000 38.76500
H  29.45300 55.82000 37.64700
H  28.27300 54.24600 39.60700
H  29.20900 55.35900 40.53700
H  30.00300 54.42100 39.25000
H  28.02700 56.90400 36.18800
H  27.06400 58.32900 36.83200
H  25.19400 57.32400 36.05100
H  25.50100 55.95200 37.17600
H  35.07800 57.17400 38.10300
H  33.89500 56.17500 38.89200
H  35.27900 56.64000 39.80400
H  37.38600 60.97800 40.53500
H  35.89400 61.13200 41.37500
H  36.10400 61.84300 39.69300
H  32.66400 64.61500 40.07600
H  30.71900 65.03000 42.26800
H  33.51900 63.51700 42.65600
H  32.72800 65.00200 42.96100
H  34.14500 65.03000 41.87700
H  29.68100 65.59900 39.58100
H  31.25700 66.26600 39.54500
H  30.52900 67.33200 41.94200
H  28.96600 67.19100 41.02300
H  30.36800 68.23200 40.49100
H  24.78300 63.98600 40.37300
H  26.07600 64.30800 41.55100
H  24.64500 63.24300 41.88200
H  25.27200 59.02400 38.18800
H  22.40600 55.86100 39.77400
H  24.11400 55.36000 40.09900
H  23.38600 55.30300 38.47000
Mg -9.85900 17.66900 42.80000
C  -6.32600 17.54500 43.03900
C  -9.63100 21.15500 42.31400
C  -13.07300 17.77200 41.85100
C  -9.99800 14.21400 43.04500
N  -8.11200 19.16900 42.59000
C  -6.77000 18.84200 42.80700
C  -5.98500 20.19400 42.75700
C  -7.08100 21.28200 42.69900
C  -8.39200 20.53400 42.52900
C  -7.15600 22.29600 43.84300
C  -4.87100 20.30400 41.51600
C  -4.92700 19.29200 40.40900
H  -5.09300 19.84400 39.01300
N  -11.13800 19.25700 42.25400
C  -10.88800 20.62700 42.25200
C  -12.03100 21.36500 41.83000
C  -13.06900 20.42900 41.59500
C  -12.45400 19.06000 41.85900
C  -12.00900 22.82400 41.57000
C  -14.43300 20.78000 41.02300
O  -14.69500 21.91700 40.71100
C  -15.46700 19.72400 40.77100
N  -11.32000 16.21700 42.51000
C  -12.60400 16.50300 42.25100
C  -13.49900 15.27700 42.31500
C  -12.52100 14.12100 42.64200
C  -11.11600 14.89700 42.63200
C  -14.78200 15.33200 43.19900
C  -12.46600 12.98700 41.61500
C  -13.68900 12.15700 41.28800
N  -8.46200 16.15300 42.91200
C  -8.68500 14.83100 43.14500
C  -7.45700 14.15600 43.43700
C  -6.46100 15.15700 43.30900
C  -7.12700 16.34900 43.04900
C  -7.09700 12.72600 43.62700
C  -5.04800 15.44400 43.39800
O  -4.08500 14.77900 43.59400
C  -4.98300 16.99800 43.40000
C  -4.46200 17.50300 44.68000
O  -3.50200 18.23100 44.71700
O  -5.20300 17.09200 45.81000
C  -4.71000 17.41900 47.14400
H  -9.66000 22.24500 42.25500
H  -14.15000 17.67400 41.69800
H  -10.07100 13.12600 43.10200
H  -5.41900 20.33700 43.67700
H  -7.06600 21.90300 41.80300
H  -6.19300 22.46600 44.32400
H  -7.86400 21.90800 44.57700
H  -7.52600 23.26000 43.49500
H  -3.84500 20.33600 41.88200
H  -5.10700 21.26400 41.05700
H  -5.60700 18.44300 40.47700
H  -3.96500 18.78000 40.40400
H  -12.38400 23.06600 40.57500
H  -11.04000 23.32200 41.53800
H  -12.68800 23.39600 42.20200
H  -15.62400 19.22400 41.72700
H  -15.19100 19.02200 39.98400
H  -16.39300 20.16600 40.40200
H  -13.90000 15.07200 41.32200
H  -12.66300 13.57300 43.57400
H  -15.63600 15.37500 42.52200
H  -14.70500 16.23500 43.80400
H  -14.85900 14.44900 43.83300
H  -11.67200 12.28400 41.86700
H  -12.31600 13.54600 40.69100
H  -14.19900 12.07100 42.24700
H  -13.39900 11.18200 40.89500
H  -14.31100 12.66800 40.55400
H  -7.07700 12.47800 44.68800
H  -6.14900 12.43100 43.17800
H  -7.80800 12.10200 43.08400
H  -4.20800 17.31200 42.70100
H  -3.68900 17.78200 47.26300
H  -4.95900 16.68800 47.91400
H  -5.26300 18.27500 47.53000

