158

Mg 0.90600 7.16800 26.52800
C  1.44100 9.45600 28.97200
C  1.13200 4.56200 28.81600
C  0.76100 4.88900 23.99500
C  1.05300 9.77300 24.19500
N  1.02600 7.02800 28.67200
C  1.30800 8.12800 29.49900
C  1.41800 7.68300 30.97700
C  1.61300 6.16000 30.86100
C  1.24700 5.88900 29.37700
C  2.98400 5.57800 31.27800
C  0.13400 8.08800 31.71800
C  0.21200 8.39300 33.26300
H  1.38700 7.89300 34.07900
N  0.95800 5.01900 26.41800
C  1.04400 4.15100 27.45900
C  0.85800 2.77400 26.93300
C  0.69900 2.86700 25.57200
C  0.82200 4.33200 25.23000
C  0.82400 1.65900 27.92200
C  0.37700 1.77200 24.63000
O  -0.01500 1.97200 23.44400
C  0.57700 0.35900 24.98000
N  0.74700 7.34100 24.48900
C  0.75300 6.29000 23.61700
C  0.45700 6.74900 22.13000
C  0.46000 8.31100 22.31500
C  0.73900 8.48800 23.73400
C  1.22400 6.17700 20.99200
C  -0.84100 8.91200 21.73100
C  -2.11700 8.89600 22.54800
N  1.13400 9.21400 26.56700
C  1.27200 10.13600 25.52100
C  1.63900 11.45500 26.08200
C  1.74500 11.17400 27.42700
C  1.33900 9.85700 27.65700
C  1.96000 12.65600 25.24900
C  2.17100 11.74800 28.60900
O  2.63100 12.87800 28.86300
C  1.81900 10.73400 29.66000
C  2.92700 10.63200 30.61200
O  4.09400 10.34100 30.35200
O  2.42200 11.08600 31.84200
C  3.43900 11.25000 32.88000
H  1.22300 3.68500 29.46100
H  0.60900 4.23600 23.13400
H  0.92900 10.61700 23.51400
H  2.26000 8.18600 31.45300
H  0.92800 5.65600 31.54300
H  3.61800 5.75100 30.40800
H  2.93700 4.49600 31.39500
H  3.44100 6.08700 32.12700
H  -0.64800 7.34300 31.57300
H  -0.27900 9.01000 31.30800
H  -0.67400 8.04400 33.79300
H  0.27700 9.47600 33.37000
H  0.16600 1.90800 28.75400
H  1.85400 1.63500 28.27900
H  0.51500 0.70700 27.49200
H  -0.32500 -0.04100 25.44300
H  1.52100 0.09100 25.45500
H  0.63900 -0.23200 24.06700
H  -0.59300 6.50100 21.97200
H  1.41200 8.60800 21.87500
H  0.63900 5.38200 20.52900
H  2.10700 5.64000 21.33900
H  1.43300 7.03600 20.35500
H  -0.99400 8.50600 20.73100
H  -0.65300 9.97800 21.59900
H  -2.73500 9.79000 22.63800
H  -2.00300 8.53800 23.57100
H  -2.82300 8.19900 22.09700
H  2.02300 12.38400 24.19600
H  2.93900 13.07700 25.48000
H  1.25300 13.48200 25.32400
H  0.94600 11.11400 30.19100
H  4.47000 11.43000 32.57500
H  3.25500 10.55100 33.69700
H  3.38700 12.26600 33.27100
Mg 26.19500 -7.90500 47.73200
C  27.81700 -5.15600 46.41900
C  23.41900 -7.17200 45.74900
C  24.77100 -10.91000 48.73100
C  29.18900 -8.96900 49.15500
N  25.79600 -6.46500 45.91300
C  26.54200 -5.32800 45.74700
C  25.80500 -4.28000 44.95000
C  24.28300 -4.78300 45.10700
C  24.47200 -6.25100 45.65300
C  23.42800 -3.95200 46.11600
C  26.41600 -4.14400 43.45300
C  26.85100 -2.71700 43.04500
H  26.81200 -2.26500 41.59400
N  24.34300 -8.83900 47.35500
C  23.33600 -8.39200 46.51800
C  22.14100 -9.23600 46.69900
C  22.47200 -10.28400 47.57700
C  23.94000 -10.09700 47.92200
C  20.84000 -9.01400 45.82300
C  21.57100 -11.40900 47.98600
O  20.38700 -11.46800 47.67200
C  22.00900 -12.47800 48.89900
N  26.90800 -9.75100 48.67700
C  26.10800 -10.78100 49.07800
C  26.84800 -11.89300 49.96800
C  28.31000 -11.33800 49.89500
C  28.11300 -9.92700 49.24200
C  26.15600 -12.05400 51.43800
C  29.33800 -12.22600 49.13000
C  30.76700 -12.34500 49.74300
N  28.06900 -7.19100 47.86600
C  29.18800 -7.76700 48.40600
C  30.24200 -6.72400 48.53200
C  29.70000 -5.66500 47.83800
C  28.41100 -6.06300 47.24600
C  31.64500 -6.91200 49.14200
C  29.92800 -4.30800 47.35800
O  30.88600 -3.56200 47.51200
C  28.79100 -4.00200 46.31900
C  28.16900 -2.78800 46.91300
O  27.54600 -2.61800 47.97200
O  28.64100 -1.68800 46.24700
C  28.00000 -0.40900 46.36200
H  22.45200 -6.79200 45.41200
H  24.36000 -11.86800 49.05600
H  30.01100 -9.24000 49.82100
H  25.88900 -3.34000 45.49600
H  23.75500 -4.69800 44.15800
H  23.60600 -4.24600 47.15000
H  22.38400 -4.15100 45.87500
H  23.70000 -2.90700 45.96100
H  25.58700 -4.35500 42.77700
H  27.23700 -4.82200 43.22000
H  27.78900 -2.42800 43.51900
H  26.13200 -2.01500 43.46600
H  21.00600 -9.43600 44.83200
H  20.67400 -7.93800 45.86200
H  20.06900 -9.66100 46.24100
H  22.81100 -13.14100 48.57700
H  21.18700 -13.11300 49.23100
H  22.19600 -11.94800 49.83300
H  26.79600 -12.88100 49.51100
H  28.69700 -11.12200 50.89100
H  25.12000 -11.73200 51.33600
H  26.67900 -11.34300 52.07800
H  26.28300 -13.07700 51.79100
H  29.59900 -11.82500 48.15000
H  28.98100 -13.25000 49.02100
H  30.93700 -11.66200 50.57500
H  31.44000 -12.14900 48.90900
H  30.78300 -13.41500 49.95200
H  31.48200 -7.38600 50.11000
H  32.07800 -5.91200 49.11200
H  32.13500 -7.68800 48.55400
H  29.01800 -3.71200 45.29300
H  28.60900 0.23100 47.00000
H  26.99000 -0.46400 46.76800
H  27.96900 0.23400 45.48200

