158

Mg -2.25000 17.61700 26.67800
C  -2.90400 15.86800 29.61500
C  -3.02500 20.47900 28.60500
C  -2.19600 19.52500 23.88700
C  -2.46400 14.83200 24.79100
N  -3.03100 18.10000 28.90000
C  -3.00900 17.23400 29.92700
C  -3.34800 17.88800 31.26700
C  -3.90500 19.29600 30.83600
C  -3.29600 19.37200 29.32800
C  -5.37100 19.63800 30.97800
C  -2.11600 17.93000 32.23800
C  -2.39100 17.47900 33.65300
H  -1.20500 17.41200 34.53200
N  -2.30700 19.72200 26.32100
C  -2.57900 20.67800 27.24600
C  -2.46900 22.01000 26.59900
C  -2.16500 21.82500 25.21900
C  -2.14700 20.30300 25.03900
C  -2.80600 23.34100 27.19000
C  -1.90000 22.81100 24.08000
O  -1.69500 22.44000 22.95300
C  -2.05900 24.30400 24.39600
N  -2.56400 17.32800 24.57400
C  -2.37500 18.18800 23.58200
C  -2.01200 17.56700 22.25300
C  -2.20700 16.06300 22.58300
C  -2.38100 16.02500 24.12300
C  -2.93000 18.15000 21.12200
C  -1.08700 15.17400 21.95200
C  0.37400 15.43000 22.40800
N  -2.53200 15.72300 27.03000
C  -2.60000 14.66000 26.20100
C  -2.67500 13.43000 27.00400
C  -2.77600 13.85400 28.32400
C  -2.73700 15.25800 28.33000
C  -2.53200 12.08000 26.38100
C  -2.88300 13.45800 29.71400
O  -3.02300 12.28900 30.12800
C  -2.86200 14.66900 30.56300
C  -1.65100 14.63800 31.46100
O  -0.55800 15.15200 31.23700
O  -1.97500 13.82900 32.56200
C  -0.94900 13.53500 33.55000
H  -3.19500 21.36400 29.22200
H  -2.16700 20.12300 22.97400
H  -2.31100 13.93400 24.18900
H  -4.17200 17.33300 31.71600
H  -3.53000 20.14700 31.40400
H  -5.44800 20.43800 31.71500
H  -5.99900 18.85300 31.40100
H  -5.73900 20.04800 30.03800
H  -1.90700 18.99800 32.30700
H  -1.23400 17.51200 31.75400
H  -2.82600 16.48000 33.66300
H  -3.13100 18.12300 34.12900
H  -3.05200 23.26300 28.24900
H  -3.55600 23.88900 26.61900
H  -1.85000 23.85500 27.09000
H  -1.93600 24.76500 23.41600
H  -1.38100 24.68100 25.16200
H  -3.05100 24.47700 24.81400
H  -0.95700 17.76000 22.05800
H  -3.13300 15.69100 22.14300
H  -3.61800 18.90900 21.49300
H  -3.62800 17.40200 20.74800
H  -2.21700 18.44400 20.35100
H  -1.21300 15.37800 20.88900
H  -1.19000 14.09800 22.09300
H  0.35700 15.87700 23.40200
H  0.94800 15.97400 21.65800
H  0.80000 14.43700 22.54800
H  -1.85900 11.41000 26.91700
H  -1.96700 12.23800 25.46200
H  -3.46000 11.51700 26.28300
H  -3.77300 14.85200 31.13200
H  -1.07900 13.97100 34.54000
H  0.01300 13.90400 33.19500
H  -0.93300 12.44500 33.54900
Mg 45.62000 3.70600 46.97800
C  43.26300 6.25900 46.55000
C  43.09500 1.47600 46.91500
C  47.86200 1.30400 47.17500
C  48.09400 6.08800 46.46300
N  43.47400 3.90400 46.67100
C  42.67800 4.99500 46.69700
C  41.23000 4.58800 46.63000
C  41.26500 3.09000 47.15600
C  42.71200 2.80000 46.85700
C  40.78200 2.91900 48.59200
C  40.64900 4.64100 45.18300
C  39.51700 5.63600 44.81700
H  39.82500 6.52500 43.60500
N  45.47600 1.67300 47.01300
C  44.37400 0.91700 47.02600
C  44.69400 -0.48700 47.16300
C  46.11500 -0.56800 47.26600
C  46.54800 0.83500 47.08700
C  43.63300 -1.57700 46.99200
C  46.98700 -1.91500 47.32800
O  46.39200 -3.00600 47.27600
C  48.52700 -1.88200 47.45100
N  47.61200 3.68300 46.68100
C  48.33400 2.65200 47.02800
C  49.83600 2.85800 47.30300
C  49.88900 4.29800 46.68000
C  48.48600 4.77800 46.53600
C  50.15400 2.69100 48.80600
C  50.77000 4.58900 45.40600
C  49.95900 4.74300 44.10200
N  45.71700 5.77400 46.62500
C  46.76200 6.62600 46.44400
C  46.33900 8.02400 46.36700
C  44.96000 7.91600 46.35200
C  44.65000 6.52100 46.52400
C  47.32100 9.20200 46.26000
C  43.64000 8.63600 46.41700
O  43.47200 9.81900 46.33600
C  42.56800 7.67300 46.53500
C  41.75000 7.91300 47.84900
O  42.03200 7.44500 48.94500
O  40.61500 8.52900 47.49600
C  39.61800 8.89200 48.48600
H  42.26600 0.79300 47.11300
H  48.65700 0.61600 47.47100
H  48.84200 6.87400 46.58400
H  40.74800 5.17200 47.41300
H  40.59400 2.46700 46.56400
H  39.89100 2.29600 48.50700
H  40.46100 3.85000 49.06000
H  41.49100 2.45000 49.27400
H  40.33400 3.64800 44.86200
H  41.54300 4.96300 44.64900
H  39.38000 6.25000 45.70700
H  38.67500 4.94800 44.74500
H  43.65700 -1.87300 45.94400
H  42.69600 -1.16400 47.36700
H  44.00600 -2.39300 47.61100
H  48.72800 -1.40400 48.40900
H  49.02800 -1.37100 46.62800
H  48.84800 -2.92300 47.41400
H  50.42000 2.14500 46.72100
H  50.30000 4.86700 47.51400
H  50.81300 1.82300 48.83100
H  49.21000 2.55700 49.33400
H  50.80700 3.54200 48.99900
H  51.50500 3.80600 45.22000
H  51.25900 5.55000 45.57000
H  50.61900 4.68900 43.23600
H  49.52000 5.74000 44.14400
H  49.21000 3.96000 43.98900
H  47.44500 9.51100 47.29800
H  46.71800 9.91200 45.69500
H  48.17800 9.30200 45.59400
H  41.79500 7.73400 45.76900
H  39.67800 9.96600 48.65900
H  39.64900 8.35900 49.43600
H  38.67600 8.67900 47.98000

