158

Mg 24.62100 -5.52800 45.36000
C  27.17900 -3.42900 44.07000
C  22.47900 -4.05100 43.26100
C  22.66000 -8.18300 45.71100
C  27.17300 -7.12600 47.24500
N  24.88400 -3.96700 43.81100
C  25.94300 -3.15700 43.49900
C  25.55700 -2.05100 42.53600
C  23.98300 -2.10100 42.54900
C  23.74700 -3.43700 43.29300
C  23.28700 -0.88800 43.34100
C  26.19300 -2.42300 41.19000
C  26.84500 -1.25600 40.38300
H  26.25900 -1.05000 38.98400
N  22.79100 -6.00700 44.60000
C  22.00100 -5.22300 43.79000
C  20.69200 -5.86200 43.60100
C  20.68300 -7.09100 44.37100
C  22.07000 -7.18200 44.95700
C  19.58600 -5.37700 42.71200
C  19.46600 -8.03500 44.53200
O  18.32400 -7.71000 44.09600
C  19.61200 -9.32500 45.20800
N  24.88600 -7.32200 46.33900
C  23.85800 -8.23600 46.35700
C  24.18100 -9.49000 47.21000
C  25.62600 -9.20100 47.61800
C  25.93700 -7.79200 47.05100
C  23.24100 -9.77400 48.42300
C  26.64000 -10.22600 47.00600
C  26.82300 -11.51100 47.85300
N  26.71000 -5.25800 45.72500
C  27.57700 -6.01300 46.50000
C  28.85000 -5.41700 46.56400
C  28.81600 -4.35000 45.59300
C  27.46500 -4.30700 45.12400
C  29.99900 -5.82800 47.32800
C  29.59200 -3.31900 45.03500
O  30.75600 -2.98900 45.12800
C  28.61600 -2.68900 43.98500
C  28.52400 -1.25900 44.23900
O  28.08500 -0.70700 45.28700
O  28.85400 -0.45900 43.17000
C  28.79000 1.00800 43.30600
H  21.73300 -3.58400 42.61500
H  22.02200 -9.05300 45.87900
H  27.86500 -7.63900 47.91600
H  25.84600 -1.06500 42.90000
H  23.61700 -2.25400 41.53400
H  22.65800 -0.41700 42.58500
H  23.87800 -0.02500 43.65000
H  22.60800 -1.23400 44.12100
H  25.46600 -3.05200 40.67700
H  26.96100 -3.17900 41.35200
H  27.90400 -1.49200 40.27400
H  26.67200 -0.35100 40.96500
H  19.25800 -6.31600 42.26700
H  20.14500 -4.90700 41.90300
H  18.85900 -4.70700 43.17000
H  18.62500 -9.77100 45.33000
H  19.97600 -8.95500 46.16700
H  20.24600 -9.91800 44.54900
H  24.04200 -10.40500 46.63500
H  25.82500 -8.96300 48.66300
H  22.71700 -10.70400 48.20300
H  22.59100 -8.92300 48.62700
H  23.94500 -9.95900 49.23400
H  27.64700 -9.80800 46.98600
H  26.34800 -10.29700 45.95800
H  27.88800 -11.45000 48.07600
H  26.49300 -12.42300 47.35600
H  26.36100 -11.40900 48.83600
H  29.77400 -5.28500 48.24600
H  30.92100 -5.39200 46.94600
H  30.06300 -6.90600 47.47700
H  29.00100 -2.67800 42.96500
H  29.70600 1.27900 43.83100
H  27.96200 1.40400 43.89400
H  28.76700 1.40400 42.29100
Mg -11.39300 37.99200 42.38400
C  -9.04500 35.44000 41.16900
C  -9.42800 40.30800 40.80200
C  -13.91700 39.95100 42.65700
C  -13.22000 35.26500 43.67300
N  -9.52700 37.81700 40.96900
C  -8.78100 36.70800 40.63100
C  -7.58800 37.09900 39.79000
C  -7.67500 38.68300 39.75000
C  -8.93500 38.98500 40.64300
C  -6.37500 39.40600 40.04500
C  -7.61500 36.42000 38.36800
C  -6.26800 35.81100 37.87600
H  -5.55300 36.53000 36.72000
N  -11.58000 39.97100 41.95100
C  -10.69400 40.76600 41.37200
C  -11.20800 42.14100 41.46100
C  -12.52500 42.06900 42.00300
C  -12.75800 40.62000 42.18500
C  -10.56900 43.41600 40.94400
C  -13.45600 43.22800 42.41400
O  -13.19800 44.40400 42.15500
C  -14.75400 42.90200 43.15400
N  -13.27200 37.71000 43.13400
C  -14.14400 38.65100 43.12500
C  -15.52800 38.19200 43.61100
C  -15.35500 36.61100 43.88200
C  -13.87700 36.50500 43.57100
C  -15.96300 39.00000 44.80300
C  -16.18600 35.70800 42.81800
C  -17.27200 34.89800 43.60400
N  -11.21100 35.77700 42.64300
C  -11.94300 34.91200 43.32500
C  -11.19600 33.60900 43.31100
C  -10.15200 33.79100 42.53600
C  -10.14700 35.11400 42.07200
C  -11.69200 32.33200 43.87200
C  -9.02100 33.14800 41.80200
O  -8.61700 32.01700 41.80000
C  -8.17100 34.24200 41.06000
C  -6.87600 34.27100 41.84200
O  -6.01900 33.40000 41.70600
O  -6.77100 35.35300 42.63500
C  -5.56900 35.39500 43.41900
H  -8.81300 41.11600 40.39900
H  -14.83900 40.50800 42.48000
H  -13.88300 34.54300 44.15300
H  -6.66000 36.79400 40.27200
H  -8.02100 39.19900 38.85400
H  -5.65000 38.89900 40.68100
H  -6.59500 40.39700 40.44300
H  -5.85600 39.61700 39.11000
H  -7.92900 37.16900 37.64200
H  -8.45200 35.72200 38.35400
H  -6.56700 34.77800 37.70000
H  -5.47900 35.71800 38.62200
H  -11.23100 43.89800 40.22500
H  -9.65700 43.18200 40.39500
H  -10.30300 44.08300 41.76400
H  -15.19600 43.79600 43.59400
H  -14.50400 42.21300 43.96000
H  -15.48100 42.42500 42.49700
H  -16.29200 38.36000 42.85200
H  -15.55800 36.34100 44.91900
H  -15.13200 38.83000 45.48800
H  -16.87500 38.67300 45.30200
H  -16.12000 40.06900 44.65500
H  -15.42800 35.05000 42.39300
H  -16.72400 36.16500 41.98800
H  -18.18000 34.75800 43.01900
H  -17.59600 35.43700 44.49400
H  -16.84100 33.91500 43.79600
H  -12.61800 32.49100 44.42400
H  -10.96000 31.96100 44.59000
H  -11.79900 31.62300 43.05100
H  -7.94200 33.91400 40.04600
H  -5.63600 36.24300 44.10100
H  -4.71900 35.51100 42.74600
H  -5.39400 34.51400 44.03500

