158

Mg 41.27200 8.90100 29.32100
C  43.32600 10.21700 31.93100
C  39.13900 7.71200 31.63700
C  39.40500 7.64100 26.78900
C  43.66000 10.03300 27.04300
N  41.40200 8.80300 31.53100
C  42.19200 9.52500 32.40200
C  41.80200 9.44400 33.89800
C  40.49600 8.63800 33.71700
C  40.32700 8.34700 32.19000
C  40.40300 7.37300 34.68500
C  41.58700 10.91700 34.51500
C  40.85200 10.96600 35.90600
H  41.54400 11.90200 36.95900
N  39.39900 7.94800 29.21300
C  38.78300 7.43700 30.27400
C  37.56100 6.80800 29.80700
C  37.59400 6.92000 28.41000
C  38.82100 7.51100 28.05200
C  36.54000 6.24600 30.79100
C  36.59000 6.45700 27.45700
O  36.67600 6.67900 26.24400
C  35.30800 5.84100 27.93900
N  41.59800 8.75500 27.23200
C  40.64000 8.20900 26.40600
C  40.98100 8.33100 24.90200
C  42.14800 9.37900 25.00200
C  42.49000 9.46500 26.49300
C  41.34700 6.90400 24.30000
C  41.72500 10.83700 24.47600
C  41.43200 12.00200 25.44600
N  43.16700 9.84400 29.42800
C  44.00600 10.19400 28.41000
C  45.11500 10.98600 28.95300
C  44.88300 10.86300 30.27100
C  43.67500 10.25400 30.57700
C  46.14100 11.77000 28.21300
C  45.41400 11.25700 31.50100
O  46.46900 11.76200 31.78700
C  44.37000 11.01900 32.64500
C  44.97400 10.26000 33.80700
O  45.31300 9.07500 33.73900
O  45.15600 11.05500 34.91300
C  45.57800 10.39000 36.16400
H  38.49800 7.31800 32.42900
H  38.93300 7.20600 25.90600
H  44.33300 10.34200 26.24000
H  42.51500 8.79200 34.40400
H  39.77300 9.36900 34.08000
H  41.38000 7.03300 35.03000
H  39.93500 6.57800 34.10600
H  39.91000 7.68700 35.60500
H  41.00500 11.57800 33.87300
H  42.57800 11.35400 34.63700
H  40.85700 9.97400 36.35600
H  39.81300 11.29400 35.88700
H  36.19200 5.27500 30.43900
H  35.76800 7.01500 30.82100
H  36.94100 6.20500 31.80300
H  34.87300 6.42100 28.75300
H  35.60600 4.93100 28.45900
H  34.59000 5.70700 27.13000
H  40.15300 8.77800 24.35200
H  43.05200 9.00000 24.52500
H  40.97700 6.16300 25.00800
H  42.43600 6.85500 24.27400
H  41.05900 6.82500 23.25100
H  40.88700 10.82800 23.77900
H  42.55600 11.10600 23.82300
H  41.29500 11.57700 26.44000
H  40.48500 12.50100 25.24100
H  42.32200 12.63000 25.40900
H  46.04900 11.73300 27.12800
H  47.10600 11.42400 28.58500
H  46.01300 12.81400 28.49900
H  43.93400 11.98200 32.90900
H  44.98100 10.69500 37.02300
H  46.62800 10.66200 36.26300
H  45.61700 9.30100 36.12600
Mg 41.00400 40.93900 26.13400
C  40.43700 43.27600 28.87300
C  42.39000 38.89000 28.40200
C  41.75700 38.93000 23.60400
C  40.30800 43.60400 23.94200
N  41.42300 41.19100 28.35300
C  40.94400 42.08200 29.27600
C  41.06300 41.58600 30.67500
C  41.63600 40.17100 30.47700
C  41.80000 40.04700 28.97400
C  42.86200 39.90200 31.38000
C  39.69700 41.59900 31.45000
C  39.65100 42.32900 32.84200
H  38.83500 41.75300 34.03500
N  41.90600 39.12800 26.05000
C  42.36000 38.37800 27.06500
C  42.86800 37.07500 26.62200
C  42.55700 37.06900 25.21200
C  41.98600 38.41500 24.85600
C  43.51300 36.06700 27.57800
C  42.77700 35.89800 24.27300
O  42.38600 35.81900 23.12600
C  43.49400 34.71700 24.78600
N  41.17700 41.27500 24.07400
C  41.35300 40.22900 23.20000
C  41.00900 40.58200 21.75900
C  40.37900 42.00200 21.97400
C  40.67800 42.37800 23.42000
C  42.28300 40.53000 20.81400
C  38.84900 42.26300 21.61900
C  37.81500 41.81700 22.63000
N  40.55600 43.00800 26.26200
C  40.26200 43.94700 25.32800
C  39.86300 45.27100 25.93600
C  39.85300 44.99200 27.29500
C  40.38200 43.66000 27.50300
C  39.59900 46.56100 25.21500
C  39.64500 45.65800 28.59200
O  39.29400 46.78400 28.94000
C  40.08200 44.48100 29.71300
C  41.18800 44.99800 30.56200
O  42.34900 45.24500 30.17700
O  40.80000 45.06800 31.88100
C  41.79500 45.40700 32.89800
H  42.58700 38.11700 29.14700
H  41.94000 38.19100 22.82100
H  39.81900 44.27800 23.23600
H  41.81200 42.20800 31.16500
H  40.86900 39.50600 30.87300
H  42.78800 38.84400 31.63300
H  42.87500 40.44900 32.32200
H  43.76100 40.06000 30.78400
H  39.32100 40.58900 31.61200
H  39.03200 42.11000 30.75500
H  39.31300 43.35500 32.69300
H  40.67900 42.35200 33.20300
H  42.69400 35.36500 27.73000
H  43.86300 36.59300 28.46700
H  44.44400 35.68500 27.15900
H  43.48500 33.85700 24.11600
H  43.10000 34.32000 25.72100
H  44.52700 35.04700 24.89700
H  40.21600 40.01600 21.26900
H  41.10500 42.72100 21.59600
H  43.23700 40.39100 21.32400
H  42.38600 41.49800 20.32300
H  42.15100 39.79300 20.02200
H  38.62300 41.64500 20.75100
H  38.69400 43.30600 21.34400
H  37.00400 42.52100 22.81200
H  38.30900 41.59900 23.57700
H  37.43600 40.86500 22.25700
H  39.97400 46.61500 24.19300
H  40.12200 47.33600 25.77600
H  38.53900 46.78200 25.08700
H  39.17900 44.26600 30.28300
H  42.78800 45.71100 32.56600
H  42.01100 44.57200 33.56500
H  41.47600 46.19300 33.58200

