158

Mg 46.90900 16.46200 28.69600
C  44.89100 16.02000 31.51700
C  48.99700 18.36700 30.55100
C  48.42800 17.32900 25.88600
C  44.21900 15.02100 26.82300
N  46.87500 17.11800 30.74800
C  46.01900 16.79700 31.77700
C  46.49200 17.48600 33.09500
C  47.69300 18.43000 32.69300
C  47.87400 17.96900 31.15800
C  47.42800 20.00000 32.84400
C  46.86600 16.43200 34.22000
C  46.24900 16.74000 35.60300
H  45.94100 18.17900 36.05900
N  48.55800 17.60200 28.25700
C  49.33700 18.21100 29.20100
C  50.52400 18.79600 28.57500
C  50.43800 18.45800 27.17200
C  49.11600 17.75400 27.05900
C  51.53200 19.63000 29.43900
C  51.32500 18.69300 26.01600
O  51.07000 18.30200 24.91300
C  52.63100 19.42900 26.30000
N  46.28800 16.42400 26.67900
C  47.11000 16.82300 25.69300
C  46.48900 16.69900 24.28600
C  45.44800 15.63300 24.58100
C  45.25100 15.73900 26.11400
C  46.09300 17.99400 23.52300
C  45.78700 14.20400 24.06800
C  46.87700 13.56200 24.88900
N  45.11800 15.46100 29.01300
C  44.14300 14.96200 28.19400
C  43.13200 14.29800 28.92600
C  43.43000 14.62400 30.27400
C  44.59100 15.42100 30.26000
C  41.97100 13.43800 28.40100
C  42.92900 14.49700 31.67300
O  41.97600 13.93600 32.15500
C  43.86400 15.46500 32.52700
C  43.05100 16.53300 33.10700
O  42.79600 17.62000 32.61400
O  42.53500 16.04200 34.28700
C  41.58400 17.05900 34.86800
H  49.59000 19.02100 31.19300
H  48.99800 17.53200 24.97700
H  43.42700 14.60400 26.19800
H  45.67700 18.03600 33.56600
H  48.58400 18.17000 33.26400
H  48.25600 20.29900 33.48700
H  46.47100 20.13800 33.34700
H  47.42100 20.61500 31.94400
H  47.95300 16.40200 34.29100
H  46.52600 15.48200 33.80900
H  46.91600 16.33300 36.36300
H  45.29400 16.21500 35.58300
H  51.20100 19.89400 30.44300
H  51.42200 20.58300 28.92200
H  52.53800 19.21600 29.38000
H  53.41200 18.68600 26.46200
H  52.61000 20.11900 27.14300
H  52.87700 20.03200 25.42500
H  47.23200 16.29100 23.60200
H  44.48800 15.96000 24.18200
H  46.87500 18.17200 22.78500
H  46.03400 18.82300 24.22800
H  45.14600 17.87700 22.99600
H  46.19500 14.40600 23.07800
H  44.82400 13.69600 24.11600
H  46.41400 12.89000 25.61100
H  47.57900 14.25700 25.35100
H  47.43400 13.02200 24.12200
H  41.09000 14.00600 28.10300
H  41.71800 12.75100 29.20900
H  42.26600 12.87000 27.51900
H  44.41800 14.82200 33.21200
H  41.10900 17.75400 34.17600
H  42.07400 17.48600 35.74300
H  40.73400 16.42500 35.12100
Mg 36.92600 49.55900 24.37100
C  36.96400 47.72200 27.36100
C  35.69800 52.27200 26.37100
C  36.06700 51.10200 21.57500
C  37.53300 46.68500 22.63700
N  36.51400 49.95000 26.59300
C  36.69300 49.07500 27.63900
C  36.47600 49.78400 29.02400
C  36.15200 51.26100 28.65500
C  36.16100 51.17000 27.09900
C  34.88100 51.81400 29.33800
C  37.85400 49.61800 29.87000
C  37.87200 49.16900 31.31800
H  36.54500 48.95100 32.05000
N  36.06200 51.39200 24.06600
C  35.71500 52.42100 24.95000
C  35.19000 53.54500 24.17000
C  35.27400 53.21100 22.79600
C  35.85600 51.89600 22.78900
C  34.82000 54.76300 24.97500
C  34.80700 53.95900 21.54800
O  34.87700 53.48800 20.43500
C  34.15400 55.35500 21.71300
N  36.73100 48.93600 22.37700
C  36.44700 49.76900 21.34000
C  36.80800 49.23000 20.03800
C  37.42700 47.85400 20.39600
C  37.21100 47.77200 21.87700
C  35.56800 49.34900 19.08200
C  38.96600 47.82700 20.14400
C  39.35200 46.49900 19.55900
N  37.28600 47.61200 24.86600
C  37.50800 46.53200 24.02200
C  37.69100 45.37300 24.82200
C  37.54200 45.81500 26.16500
C  37.25300 47.16200 26.12700
C  37.86100 44.02100 24.33800
C  37.46300 45.38000 27.53900
O  37.82000 44.29900 28.01700
C  37.08600 46.57500 28.31000
C  35.79900 46.28800 29.08900
O  34.65500 46.69700 28.80300
O  36.14000 45.60100 30.17000
C  34.95400 45.23700 30.92900
H  35.28700 53.19100 26.79400
H  35.94000 51.58600 20.60400
H  37.71800 45.74900 22.10500
H  35.61500 49.40600 29.57600
H  36.97700 51.94200 28.86300
H  34.10700 52.06700 28.61400
H  35.01300 52.67700 29.99200
H  34.53300 51.06000 30.04400
H  38.42300 50.54800 29.85600
H  38.43000 48.91700 29.26500
H  38.44400 49.90200 31.88800
H  38.31000 48.17200 31.26000
H  34.34200 55.52900 24.36400
H  35.68800 55.14000 25.51500
H  34.07200 54.49800 25.72200
H  33.75200 55.69900 20.76000
H  34.87200 56.13300 21.97300
H  33.33000 55.36100 22.42700
H  37.62800 49.88500 19.74200
H  37.00100 47.01300 19.84900
H  34.68300 49.74300 19.58200
H  35.33900 48.34300 18.73000
H  35.81400 49.91000 18.18100
H  39.59900 47.92900 21.02500
H  39.36500 48.58500 19.47000
H  39.09000 45.69500 20.24600
H  40.42800 46.39400 19.41800
H  38.85500 46.40000 18.59400
H  38.87600 43.91600 23.95400
H  37.02700 43.76900 23.68300
H  37.83100 43.47300 25.27900
H  37.77000 46.93300 29.07900
H  35.17700 44.61600 31.79600
H  34.27200 44.62600 30.33600
H  34.31900 46.03000 31.32400

