158

Mg 1.11400 7.08100 25.40600
C  1.54500 8.62800 28.50000
C  0.93500 4.00300 27.11900
C  0.85700 5.53300 22.40000
C  1.45400 10.21000 23.83200
N  1.41300 6.40400 27.52800
C  1.32100 7.25200 28.65600
C  1.23900 6.51800 29.96100
C  1.33500 4.98300 29.51100
C  1.20200 5.09600 27.93100
C  2.68300 4.35500 29.96100
C  0.11900 6.93700 30.89300
C  0.55900 7.06400 32.31200
H  1.93700 6.47300 32.87000
N  0.90000 5.01000 24.80900
C  0.79200 3.95900 25.73600
C  0.48300 2.74500 24.91400
C  0.50200 3.15900 23.50100
C  0.75500 4.64400 23.52400
C  0.14700 1.39300 25.50300
C  0.30700 2.27700 22.22500
O  0.36500 2.81300 21.10700
C  -0.02200 0.80000 22.29500
N  1.37700 7.80400 23.46800
C  1.13000 6.95100 22.34400
C  1.01600 7.75100 21.06400
C  0.99900 9.19900 21.59800
C  1.28700 9.13300 23.04200
C  2.19800 7.51200 20.03500
C  -0.28700 9.96000 21.26300
C  -0.34300 10.49200 19.80900
N  1.65000 9.07600 25.95300
C  1.70600 10.21000 25.24100
C  1.91600 11.33800 26.13000
C  1.88400 10.74800 27.44200
C  1.65400 9.36700 27.26600
C  2.16600 12.82800 25.82900
C  1.95400 11.06500 28.89700
O  2.31500 12.08100 29.48500
C  1.72000 9.66400 29.66500
C  2.84300 9.49100 30.58500
O  4.01700 9.20600 30.33900
O  2.35100 10.03800 31.76000
C  3.42200 10.45200 32.68300
H  0.76400 3.06400 27.65000
H  0.82800 5.14600 21.37900
H  1.48600 11.22100 23.42100
H  2.18000 6.82100 30.42100
H  0.51700 4.36300 29.87700
H  3.33000 3.97100 29.17200
H  2.51500 3.47800 30.58500
H  3.35100 5.10300 30.38900
H  -0.62500 6.14800 30.78600
H  -0.36800 7.87300 30.61900
H  -0.28300 6.78200 32.94300
H  0.65400 8.13000 32.51800
H  0.98500 0.75200 25.23200
H  -0.82500 1.02200 25.17800
H  0.11300 1.45500 26.59100
H  0.74900 0.13100 22.67800
H  -0.21400 0.54500 21.25300
H  -0.96000 0.62800 22.82200
H  0.11200 7.64000 20.46500
H  1.83000 9.68000 21.08100
H  3.06600 8.15600 20.17700
H  1.85800 7.52100 18.99900
H  2.59800 6.51400 20.21000
H  -0.48600 10.77000 21.96500
H  -1.08200 9.22800 21.40900
H  0.64800 10.39600 19.36600
H  -0.75500 11.49800 19.88500
H  -0.96300 9.84700 19.18500
H  2.93300 13.31200 26.43400
H  1.26500 13.37900 26.09900
H  2.44500 12.94200 24.78100
H  0.74500 9.75800 30.14300
H  3.20800 11.46400 33.03000
H  4.42200 10.48200 32.25200
H  3.41700 9.81500 33.56800
Mg 30.28100 59.97000 39.30100
C  27.23900 58.35400 38.04900
C  32.01900 57.25400 38.21400
C  33.14600 61.66000 39.75000
C  28.25700 62.79200 39.76600
N  29.67500 58.10300 37.98800
C  28.42400 57.61900 37.78600
C  28.58600 56.31800 37.02100
C  29.94500 55.82000 37.51700
C  30.60700 57.12200 37.95400
C  30.02300 54.70600 38.64600
C  28.29200 56.53400 35.47900
C  27.14200 55.74900 34.78400
H  26.25400 56.41700 33.81600
N  32.33600 59.50600 39.04200
C  32.80300 58.32700 38.65200
C  34.19600 58.37400 38.65800
C  34.62000 59.61000 39.15900
C  33.38300 60.33800 39.38000
C  35.09000 57.30800 38.02700
C  36.03800 60.05500 39.39900
O  36.94100 59.33900 39.06000
C  36.32200 61.27000 40.13500
N  30.63400 61.93000 39.62000
C  31.86800 62.37700 39.83400
C  31.80100 63.94600 39.82100
C  30.29600 64.21200 40.19600
C  29.66000 62.88500 39.88000
C  32.81500 64.68200 40.79900
C  29.68600 65.42800 39.47000
C  28.83600 66.39900 40.43200
N  28.13000 60.52100 39.05300
C  27.51600 61.70100 39.33800
C  26.05300 61.56400 39.16000
C  25.88100 60.18700 38.67600
C  27.18100 59.64400 38.64800
C  24.90300 62.60000 39.22000
C  24.89800 59.24900 38.21000
O  23.66700 59.33300 38.11200
C  25.80600 57.94600 37.84000
C  25.26700 56.83500 38.58200
O  25.72300 56.43600 39.67300
O  24.18600 56.32200 37.93400
C  23.49400 55.22500 38.61000
H  32.55600 56.37900 37.84100
H  33.98900 62.35400 39.73300
H  27.68000 63.70900 39.89700
H  27.94000 55.51600 37.38000
H  30.53700 55.44700 36.68100
H  30.79800 55.03100 39.34000
H  30.39300 53.76300 38.24300
H  29.12500 54.66900 39.26400
H  29.17500 56.26400 34.89800
H  28.02800 57.59000 35.43100
H  26.44400 55.26500 35.46800
H  27.59400 54.86500 34.33400
H  34.57400 56.68600 37.29500
H  35.59900 56.79500 38.84300
H  35.92500 57.72200 37.46100
H  37.25900 61.24300 40.69100
H  35.57000 61.27700 40.92400
H  36.27600 62.19700 39.56300
H  32.05600 64.38100 38.85400
H  30.22000 64.30300 41.28000
H  33.50800 64.01900 41.31700
H  32.24000 65.17300 41.58300
H  33.32800 65.44700 40.21600
H  29.04100 65.11200 38.65100
H  30.55800 66.03400 39.22500
H  28.74700 66.01600 41.44900
H  27.83900 66.59900 40.03800
H  29.45400 67.24400 40.73400
H  24.02700 62.11700 38.78800
H  25.27600 63.51400 38.75700
H  24.75000 62.78000 40.28400
H  25.66100 57.69300 36.78900
H  23.99800 54.32300 38.26500
H  22.44500 55.19000 38.31500
H  23.62000 55.30400 39.69000

