158

Mg 46.06800 3.89900 47.65600
C  44.23300 6.77900 47.09800
C  43.32800 2.03600 46.51800
C  47.84100 1.08600 47.95800
C  48.81400 5.82500 48.23400
N  44.08700 4.35500 46.70400
C  43.53100 5.60600 46.63800
C  42.16300 5.58800 46.01900
C  41.83900 4.08300 46.10600
C  43.17600 3.43300 46.36400
C  40.71300 3.60100 47.03700
C  42.09100 6.12900 44.52600
C  41.21200 7.38800 44.50800
H  41.17000 8.25400 43.19800
N  45.69900 1.85000 47.29300
C  44.48100 1.28800 46.88000
C  44.52400 -0.10700 46.74600
C  45.87000 -0.43300 47.19700
C  46.56200 0.85200 47.51300
C  43.42500 -0.89700 46.01800
C  46.36900 -1.88000 47.17200
O  45.71200 -2.86200 46.71300
C  47.76700 -2.20100 47.48400
N  48.11000 3.45300 47.72800
C  48.63100 2.23500 48.06800
C  50.10300 2.30400 48.36900
C  50.34100 3.90100 48.33000
C  48.94000 4.41800 48.13800
C  50.40900 1.62000 49.78100
C  51.36500 4.36800 47.17700
C  52.58600 5.16800 47.72700
N  46.52500 5.92400 47.63300
C  47.64300 6.58400 47.96300
C  47.45500 7.97800 48.03400
C  46.15200 8.13800 47.66200
C  45.59800 6.83300 47.43500
C  48.44100 8.94900 48.14900
C  45.09000 9.02900 47.43300
O  45.06200 10.25000 47.34800
C  43.71200 8.21000 47.07600
C  42.74300 8.45200 48.18500
O  42.57100 7.83900 49.22000
O  41.93700 9.47400 47.72900
C  40.79600 9.89200 48.47700
H  42.44200 1.46400 46.23700
H  48.37300 0.17000 48.22500
H  49.79000 6.28700 48.39800
H  41.55200 6.22600 46.65700
H  41.46000 3.71700 45.15200
H  40.07500 4.38000 47.45300
H  41.28200 3.22600 47.88700
H  40.24000 2.74400 46.55600
H  41.82000 5.33800 43.82800
H  43.08800 6.42300 44.19700
H  41.43500 8.04600 45.34800
H  40.19000 7.06600 44.70900
H  43.68000 -1.92200 45.74900
H  43.01000 -0.39500 45.14400
H  42.54700 -0.96900 46.66000
H  47.97800 -3.19500 47.09000
H  47.89300 -2.33300 48.55900
H  48.49500 -1.51100 47.05700
H  50.70200 1.86200 47.57200
H  50.65400 4.36200 49.26700
H  50.67800 0.60300 49.49400
H  49.57300 1.74400 50.46900
H  51.18900 2.27200 50.17400
H  50.93400 5.02600 46.42200
H  51.82900 3.46600 46.77800
H  52.35600 6.16500 48.10300
H  53.37400 5.31600 46.98800
H  52.97000 4.68500 48.62600
H  48.57300 9.16900 47.09000
H  49.22600 8.46200 48.72800
H  48.20500 9.93000 48.56100
H  43.38400 8.49600 46.07600
H  40.82500 9.47300 49.48300
H  40.00000 9.50300 47.84300
H  40.69200 10.97500 48.54600
Mg 6.72300 53.27700 40.73000
C  6.50300 49.89300 40.35000
C  9.87300 53.31000 39.54400
C  6.54600 56.69900 40.48800
C  3.30900 53.22100 41.75900
N  7.96400 51.77700 39.91500
C  7.72400 50.40400 39.82400
C  8.99900 49.62900 39.43200
C  10.11700 50.74100 39.72000
C  9.27800 52.06600 39.67900
C  11.00900 50.52700 41.02900
C  8.98800 49.07700 37.97900
C  8.24400 49.88100 36.96600
H  7.59000 49.10300 35.72600
N  8.07700 54.81200 40.05800
C  9.32000 54.55900 39.54300
C  9.93600 55.85100 39.21300
C  8.95300 56.86400 39.50800
C  7.79400 56.14800 40.03800
C  11.36900 56.01200 38.76000
C  9.12000 58.46400 39.33000
O  10.16600 58.87200 38.77400
C  8.08100 59.41400 39.81100
N  5.17300 54.70600 40.98400
C  5.40000 56.03900 40.90400
C  4.10900 56.83600 41.15500
C  3.11100 55.73300 41.68400
C  3.92300 54.44200 41.51200
C  4.13300 58.17400 42.08000
C  1.67200 55.67900 41.00800
C  0.44500 55.57500 41.80900
N  5.23800 51.87500 41.17400
C  3.91200 51.98600 41.49800
C  3.38000 50.67600 41.81700
C  4.34300 49.79700 41.27200
C  5.41500 50.59200 40.90000
C  1.99800 50.29200 42.37500
C  4.64800 48.41100 40.96600
O  3.97900 47.38700 41.10300
C  6.15900 48.41000 40.44900
C  6.10300 47.68300 39.13000
O  5.75600 48.14600 38.04400
O  6.38300 46.33700 39.26400
C  6.35700 45.41100 38.09400
H  10.92900 53.14900 39.32000
H  6.33200 57.76000 40.33800
H  2.29600 53.06400 42.13700
H  9.08100 48.80500 40.14100
H  10.82300 50.67200 38.89300
H  11.20400 51.45000 41.57500
H  11.94000 50.07100 40.69400
H  10.58900 49.89200 41.81000
H  8.53300 48.08700 37.97900
H  9.98900 48.97900 37.55700
H  8.95100 50.54400 36.46700
H  7.55600 50.61000 37.39500
H  11.30700 56.45300 37.76500
H  11.87800 55.05500 38.65000
H  11.96800 56.67100 39.38900
H  7.18000 59.22500 39.22700
H  8.35400 60.45000 39.60800
H  8.05500 59.25000 40.88800
H  3.65900 57.06900 40.19000
H  2.92900 55.74100 42.75800
H  3.94900 59.10100 41.53600
H  5.06700 58.16200 42.64200
H  3.36100 58.23700 42.84600
H  1.49800 54.84800 40.32400
H  1.71800 56.55200 40.35700
H  0.64700 55.30800 42.84600
H  -0.18100 54.80100 41.36500
H  -0.04400 56.54600 41.89000
H  1.59700 51.09300 42.99700
H  2.03900 49.38600 42.97900
H  1.31500 50.21800 41.52900
H  6.74800 47.83200 41.16100
H  6.08100 45.94800 37.18700
H  5.69300 44.56500 38.27000
H  7.38000 45.04500 37.99700

