158

Mg 44.92300 3.44500 47.94600
C  42.78800 6.13300 47.14200
C  42.13700 1.31800 47.22900
C  46.92100 0.85300 48.04500
C  47.67200 5.63900 47.48900
N  42.76400 3.66600 47.43000
C  42.16900 4.83200 47.16800
C  40.66900 4.70000 46.68700
C  40.34400 3.16400 47.06600
C  41.83200 2.67200 47.25600
C  39.40600 2.88000 48.28600
C  40.63100 4.98400 45.17900
C  39.59000 5.99900 44.53500
H  38.83900 5.46300 43.30500
N  44.56800 1.36900 47.82900
C  43.38300 0.72700 47.61000
C  43.61400 -0.71000 47.79100
C  44.96100 -0.89800 47.96500
C  45.54900 0.48100 47.96600
C  42.70500 -1.87600 47.55100
C  45.70400 -2.20700 48.12800
O  45.06700 -3.25600 48.39300
C  47.17400 -2.30400 48.30100
N  46.94100 3.32100 47.66800
C  47.54100 2.07500 47.93600
C  49.04500 2.22500 48.19400
C  49.34000 3.70200 47.69000
C  47.94100 4.28300 47.71200
C  49.48200 1.96900 49.66600
C  50.23600 3.85200 46.37100
C  51.18500 5.01300 46.29800
N  45.24100 5.52800 47.53100
C  46.39700 6.25200 47.41500
C  46.02900 7.65600 47.09100
C  44.63600 7.66500 46.99600
C  44.18200 6.37100 47.30100
C  46.96600 8.77700 46.84100
C  43.44000 8.38800 46.71500
O  43.40600 9.56000 46.27300
C  42.19600 7.39600 46.81000
C  41.40200 7.92700 47.84000
O  41.44900 7.51100 48.99500
O  40.60900 8.93600 47.37900
C  39.73400 9.66900 48.34000
H  41.23600 0.72200 47.06600
H  47.70900 0.10800 48.16900
H  48.56400 6.26800 47.45500
H  40.07800 5.47700 47.17300
H  39.92100 2.67300 46.19000
H  38.81000 3.72700 48.62500
H  39.96900 2.45200 49.11500
H  38.79300 2.03300 47.97400
H  40.67500 4.06300 44.59700
H  41.56400 5.46000 44.87600
H  40.15500 6.86900 44.19900
H  38.85600 6.29200 45.28700
H  42.60900 -2.46300 48.46400
H  43.02800 -2.58100 46.78500
H  41.72400 -1.64300 47.13500
H  47.57200 -1.69200 47.49200
H  47.71900 -3.23900 48.43700
H  47.38700 -1.75100 49.21600
H  49.73100 1.60400 47.61800
H  49.81900 4.28000 48.48000
H  50.40300 2.47800 49.95000
H  49.73500 0.92200 49.83000
H  48.57500 2.12000 50.25200
H  49.47300 3.95100 45.59900
H  50.83800 2.98300 46.10500
H  51.10600 5.41100 45.28700
H  52.20600 4.68400 46.49000
H  51.05600 5.81200 47.02800
H  47.97300 8.36100 46.80700
H  46.93800 9.57800 47.57900
H  46.92900 9.28100 45.87500
H  41.68400 7.55400 45.86000
H  39.64800 10.70200 48.00400
H  40.13600 9.64700 49.35300
H  38.79100 9.12300 48.35000
Mg 46.99300 24.26000 28.38400
C  47.64100 26.74100 30.77500
C  46.17900 22.05000 30.70400
C  46.56300 21.89800 25.88700
C  48.23300 26.54100 26.02100
N  46.99000 24.39700 30.50600
C  47.11500 25.55000 31.31400
C  46.75100 25.26100 32.81200
C  46.41200 23.71100 32.75700
C  46.54700 23.32100 31.24100
C  47.36100 22.74100 33.48000
C  45.52800 26.07800 33.24800
C  44.93400 25.58600 34.57500
H  44.72800 26.64400 35.70000
N  46.49500 22.23000 28.34000
C  46.17400 21.49700 29.38500
C  45.81900 20.12000 28.98600
C  45.89000 20.05400 27.54600
C  46.39500 21.44300 27.21800
C  45.52100 19.08300 30.08700
C  45.60000 18.86000 26.69500
O  45.67000 18.92100 25.46700
C  44.93500 17.66600 27.28600
N  47.46000 24.14600 26.30700
C  47.07400 23.14800 25.49600
C  47.19200 23.63400 24.02500
C  47.43800 25.15700 24.05300
C  47.69000 25.31000 25.53500
C  48.10200 22.78000 23.12000
C  46.22900 26.14100 23.55800
C  44.81600 25.80800 24.11400
N  47.90600 26.17500 28.37100
C  48.31300 26.95500 27.34900
C  48.79100 28.24200 27.77900
C  48.49000 28.26500 29.19300
C  47.98600 26.95700 29.44400
C  49.36500 29.28400 26.92600
C  48.49500 29.05900 30.40500
O  48.86700 30.22500 30.53000
C  47.88600 28.09400 31.48000
C  48.79000 27.85300 32.69700
O  49.93800 27.42100 32.60200
O  48.19100 28.12800 33.87900
C  48.84700 27.63800 35.07800
H  45.87000 21.39200 31.51900
H  46.37200 21.24300 25.03500
H  48.48800 27.28300 25.26100
H  47.56300 25.52000 33.49200
H  45.38400 23.51700 33.06300
H  46.73800 21.99400 33.97200
H  47.89400 23.33200 34.22400
H  48.09900 22.20200 32.88500
H  44.79200 26.06700 32.44300
H  45.80300 27.10200 33.50100
H  45.47500 24.73200 34.98300
H  43.90300 25.27300 34.41100
H  44.49100 18.72500 30.08500
H  45.54600 19.49900 31.09500
H  46.23300 18.26600 29.96700
H  44.13100 18.07400 27.89900
H  45.62500 17.18600 27.98000
H  44.48800 16.92300 26.62600
H  46.17900 23.49800 23.64400
H  48.33900 25.34300 23.46900
H  47.64700 22.21800 22.30500
H  48.54600 22.03400 23.77900
H  48.91100 23.40200 22.73600
H  46.15300 26.02900 22.47700
H  46.55900 27.13700 23.85100
H  44.16100 25.36800 23.36200
H  44.45100 26.79500 24.40000
H  44.81500 25.20200 25.02000
H  48.56100 29.95500 26.62200
H  49.78000 28.86800 26.00800
H  50.18900 29.79000 27.42900
H  46.99900 28.52400 31.94600
H  49.92800 27.66100 34.93300
H  48.55500 26.62200 35.34100
H  48.55700 28.23100 35.94600

