158

Mg 26.39800 0.13400 29.04800
C  28.11800 0.08000 32.26800
C  23.51100 0.78800 30.76600
C  24.73800 -0.07400 26.23400
C  29.24200 -1.05800 27.59900
N  25.94300 0.30800 31.28900
C  26.78100 0.34700 32.42600
C  26.02000 0.82300 33.68100
C  24.48300 0.89400 33.15000
C  24.58400 0.64700 31.59100
C  23.54800 -0.11500 33.90100
C  26.57100 2.13500 34.21300
C  26.02100 2.64100 35.54900
H  27.09100 2.81100 36.69900
N  24.33300 0.36300 28.54600
C  23.35200 0.66900 29.42900
C  22.09400 0.66700 28.74900
C  22.35700 0.45400 27.35800
C  23.83800 0.20600 27.30900
C  20.73800 1.02100 29.33100
C  21.51100 0.48400 26.11400
O  21.94200 0.24500 25.01800
C  20.08000 0.75400 26.26000
N  26.95000 -0.49000 27.20400
C  26.11100 -0.36000 26.16600
C  26.79000 -0.61500 24.83100
C  28.20400 -1.05900 25.26800
C  28.10100 -0.95800 26.81200
C  26.11400 -1.64700 23.89600
C  29.34100 -0.21800 24.57300
C  29.72600 -0.58300 23.14500
N  28.28700 -0.41800 29.74700
C  29.32700 -0.82100 28.99100
C  30.51600 -0.97300 29.81800
C  30.11500 -0.63400 31.14800
C  28.71300 -0.33500 31.01700
C  31.83300 -1.54300 29.30200
C  30.51500 -0.46500 32.53400
O  31.58000 -0.57100 33.09200
C  29.19800 0.07700 33.24100
C  28.88500 -0.91200 34.32000
O  28.60300 -2.10800 34.12500
O  28.94100 -0.25400 35.54600
C  28.87400 -1.08500 36.70200
H  22.67600 1.03500 31.42500
H  24.29500 -0.10600 25.23700
H  30.18900 -1.38900 27.16600
H  26.10100 0.07900 34.47400
H  24.14900 1.91400 33.34000
H  23.10500 0.36700 34.77200
H  24.24400 -0.85900 34.28900
H  22.77000 -0.47700 33.22900
H  26.40800 2.94500 33.50300
H  27.65500 2.14200 34.33000
H  25.20300 2.02100 35.91600
H  25.61700 3.63500 35.35800
H  20.51600 2.06900 29.13100
H  20.97100 0.99200 30.39600
H  19.88300 0.42300 29.01800
H  19.57700 0.77600 25.29300
H  20.04500 1.78300 26.61800
H  19.59400 -0.01700 26.85900
H  26.77900 0.38900 24.40600
H  28.36400 -2.12100 25.08300
H  25.23000 -1.97000 24.44400
H  26.81100 -2.39700 23.52000
H  25.74900 -1.07700 23.04100
H  30.34600 -0.26800 24.99200
H  29.08100 0.84000 24.57700
H  30.78400 -0.84200 23.09200
H  29.57200 0.31100 22.54100
H  29.18400 -1.43600 22.73700
H  31.59200 -2.22100 28.48300
H  32.27900 -2.00600 30.18200
H  32.51900 -0.77400 28.94700
H  29.40500 1.09400 33.57500
H  29.87100 -1.26400 37.10400
H  28.32400 -2.01600 36.56700
H  28.34500 -0.56600 37.50100
Mg 47.13000 16.27100 27.05100
C  45.05000 15.88300 29.84900
C  49.43600 17.87000 29.10400
C  48.86900 17.13600 24.30300
C  44.72700 14.85600 24.98800
N  47.21300 16.85300 29.26600
C  46.26200 16.51200 30.22200
C  46.78300 16.90100 31.63500
C  48.09500 17.68100 31.29800
C  48.33000 17.40700 29.81000
C  47.98200 19.17100 31.63700
C  46.93300 15.66400 32.60100
C  46.15400 15.71900 33.92800
H  45.98900 17.15200 34.53200
N  48.97400 17.18700 26.75200
C  49.85400 17.68600 27.72700
C  51.07200 18.11800 27.11300
C  50.92800 17.87400 25.75000
C  49.51600 17.36700 25.49900
C  52.25100 18.67500 27.84700
C  51.91000 18.20700 24.61400
O  51.69600 17.90800 23.46300
C  53.09700 19.01300 24.81000
N  46.79200 16.09600 24.97600
C  47.64200 16.56700 24.09400
C  47.13600 16.35300 22.70900
C  46.06400 15.35600 22.87400
C  45.82200 15.39800 24.35100
C  46.80600 17.69100 21.91900
C  46.13700 13.90500 22.23600
C  44.76600 13.21900 21.94500
N  45.32100 15.50100 27.34000
C  44.49000 14.86600 26.37800
C  43.28900 14.31000 27.09200
C  43.50700 14.79300 28.43500
C  44.73600 15.43100 28.55800
C  41.91800 13.66600 26.66000
C  42.87400 14.66200 29.75000
O  41.75900 14.27000 30.13500
C  43.86900 15.40200 30.73900
C  43.05500 16.43000 31.43400
O  42.49900 17.39400 30.97500
O  43.10400 16.20700 32.82900
C  42.14900 17.05500 33.49700
H  50.16600 18.30300 29.79000
H  49.30700 17.46000 23.35700
H  44.00700 14.33000 24.35800
H  45.89800 17.45100 31.95400
H  48.87800 17.24800 31.92000
H  47.11700 19.20400 32.30000
H  47.90700 19.78800 30.74300
H  48.82100 19.38400 32.29900
H  47.95800 15.34700 32.79500
H  46.51800 14.74100 32.19800
H  46.79200 15.14300 34.59800
H  45.17900 15.24200 33.83300
H  52.44500 19.59700 27.29800
H  53.10600 18.00000 27.88300
H  51.88900 18.99200 28.82500
H  52.90900 20.00000 25.23300
H  53.52800 19.07200 23.81000
H  53.89600 18.55700 25.39400
H  47.90400 15.84700 22.12500
H  45.12700 15.75600 22.48300
H  45.78900 17.74800 21.53100
H  47.41300 17.75900 21.01700
H  46.99600 18.57000 22.53500
H  46.63100 13.28600 22.98500
H  46.83500 13.96100 21.40100
H  44.85100 12.94000 20.89500
H  43.94100 13.87600 22.22000
H  44.69300 12.28500 22.50200
H  42.01700 12.58200 26.59300
H  41.65400 13.97600 25.64900
H  41.22700 14.00200 27.43200
H  44.20900 14.76000 31.55200
H  41.17300 16.57500 33.43600
H  41.95700 18.08500 33.19600
H  42.38400 17.06900 34.56100

