158

Mg 24.04000 -4.50700 46.10900
C  26.51100 -2.23600 44.70400
C  21.71300 -3.04800 44.24100
C  22.31400 -7.28900 46.50800
C  26.87100 -6.01300 47.85000
N  24.13600 -2.83100 44.73200
C  25.19600 -2.07800 44.25800
C  24.62900 -0.98700 43.35400
C  23.09000 -0.95400 43.68400
C  22.92300 -2.35800 44.29900
C  22.65500 0.15900 44.64200
C  24.93900 -1.27600 41.87300
C  25.48600 -0.00600 41.12000
H  26.48500 -0.20800 40.00200
N  22.22700 -5.08100 45.46600
C  21.35600 -4.32200 44.67900
C  20.14700 -5.02700 44.56700
C  20.25900 -6.30100 45.24100
C  21.66600 -6.33200 45.74800
C  18.94100 -4.38900 43.84800
C  19.12400 -7.32400 45.32400
O  18.00900 -7.01900 44.93100
C  19.27400 -8.67800 45.92400
N  24.51200 -6.35600 47.03700
C  23.60800 -7.31600 47.12100
C  24.13500 -8.52200 47.93000
C  25.48100 -8.03900 48.53500
C  25.66400 -6.67700 47.83400
C  23.19200 -9.10500 49.02200
C  26.60700 -9.17500 48.29700
C  27.61400 -9.36500 49.48400
N  26.28700 -4.22500 46.30600
C  27.18700 -4.94100 47.04500
C  28.49700 -4.28200 46.90300
C  28.31000 -3.23700 45.99200
C  26.97900 -3.22100 45.62700
C  29.80400 -4.74600 47.49000
C  28.94100 -2.13800 45.29000
O  30.09200 -1.75500 45.29300
C  27.75900 -1.45500 44.39000
C  27.54200 -0.07500 44.90700
O  26.63200 0.22100 45.73800
O  28.35400 0.80700 44.19300
C  28.04800 2.22800 44.29700
H  20.87500 -2.42300 43.92300
H  21.75700 -8.21700 46.65800
H  27.54300 -6.43800 48.59800
H  24.96000 0.04100 43.49800
H  22.54600 -0.93100 42.74000
H  23.46100 0.77200 45.04600
H  22.08200 -0.33600 45.42600
H  21.90900 0.77700 44.14100
H  24.03400 -1.70400 41.44200
H  25.61000 -2.11500 41.68800
H  25.85400 0.81900 41.72900
H  24.61700 0.33100 40.55500
H  19.23100 -3.58400 43.17300
H  18.37300 -3.89000 44.63400
H  18.36000 -5.19400 43.39900
H  20.16000 -9.09600 45.44500
H  18.43900 -9.30300 45.61100
H  19.47500 -8.61000 46.99400
H  24.39800 -9.24100 47.15400
H  25.33400 -7.72600 49.56800
H  22.17100 -8.75400 48.87400
H  23.53200 -8.70400 49.97600
H  23.28000 -10.19100 49.04600
H  27.19200 -8.96700 47.40100
H  26.09300 -10.12400 48.14700
H  28.65400 -9.22300 49.19000
H  27.45200 -10.37300 49.86600
H  27.32100 -8.58900 50.19200
H  29.63500 -5.22700 48.45400
H  30.28300 -3.79300 47.71500
H  30.42000 -5.22700 46.73100
H  27.77800 -1.52100 43.30200
H  28.56800 2.56700 45.19300
H  26.98300 2.35500 44.49500
H  28.32400 2.80300 43.41300
Mg 27.02000 49.95000 26.04200
C  25.49700 51.45900 28.67200
C  29.81000 49.35700 27.96500
C  28.80000 49.13800 23.17800
C  24.51100 51.28100 23.91500
N  27.55300 50.48100 28.04300
C  26.70200 50.94500 28.99000
C  27.08100 50.55100 30.38400
C  28.56600 50.12300 30.15100
C  28.65000 49.95700 28.67100
C  29.75900 50.93000 30.76900
C  26.17100 49.44100 31.11700
C  25.64000 49.64400 32.55800
H  26.48000 50.37400 33.62000
N  28.99900 49.22900 25.66800
C  29.97500 49.03400 26.59900
C  31.13100 48.51300 26.00200
C  30.94600 48.49000 24.59200
C  29.48200 48.96500 24.42200
C  32.25500 48.05400 26.81700
C  31.94200 48.17500 23.56100
O  31.63300 48.15800 22.36700
C  33.34700 47.82200 23.92000
N  26.76500 50.24800 23.82400
C  27.53400 49.61600 22.92900
C  26.91000 49.48200 21.49200
C  25.50600 50.15400 21.77500
C  25.52000 50.53900 23.26400
C  27.64200 50.23900 20.31300
C  24.27900 49.23200 21.63600
C  23.01000 49.98200 21.11400
N  25.33600 51.11400 26.24700
C  24.39500 51.61000 25.29500
C  23.33900 52.33300 25.97600
C  23.64100 52.25900 27.33100
C  24.88500 51.49600 27.43500
C  22.01800 52.76800 25.47100
C  23.22400 52.56000 28.68500
O  22.16200 53.04200 29.10400
C  24.49300 52.12800 29.61500
C  25.00300 53.22700 30.46800
O  25.87400 53.95800 30.12300
O  24.27400 53.34000 31.59300
C  24.72500 54.13700 32.69600
H  30.60300 49.14700 28.68600
H  29.35900 48.71200 22.34200
H  23.79400 51.58600 23.14900
H  27.09500 51.47800 30.95800
H  28.72500 49.11300 30.53000
H  30.27600 51.57000 30.05400
H  30.47700 50.20600 31.15500
H  29.36500 51.58800 31.54300
H  26.70600 48.49200 31.10200
H  25.32900 49.21400 30.46200
H  25.45300 48.63900 32.93800
H  24.62800 50.04200 32.48500
H  32.02500 47.99900 27.88100
H  33.04600 48.78600 26.65700
H  32.60300 47.09100 26.44300
H  33.36800 46.95900 24.58500
H  33.72300 48.75500 24.34100
H  33.83800 47.51800 22.99600
H  26.82700 48.46500 21.10800
H  25.33100 51.14800 21.36300
H  28.63400 49.82700 20.12600
H  27.71500 51.30600 20.52700
H  27.10700 50.14000 19.36900
H  24.01900 48.79000 22.59800
H  24.54800 48.40700 20.97700
H  23.26700 50.99700 20.80900
H  22.34200 50.14000 21.96100
H  22.53200 49.38600 20.33700
H  21.81300 52.35700 24.48300
H  21.85700 53.84200 25.57100
H  21.21200 52.34900 26.07300
H  24.19600 51.40200 30.37200
H  24.01600 54.02000 33.51500
H  24.67200 55.19600 32.44200
H  25.71500 53.78700 32.99000

