158

Mg 44.64700 3.05200 47.81300
C  42.23300 5.67900 47.22800
C  41.98800 0.78300 47.62100
C  46.90200 0.64800 47.64700
C  46.91400 5.49800 47.00600
N  42.34400 3.29300 47.36800
C  41.60000 4.42600 47.18100
C  40.17300 4.07500 47.03100
C  40.10000 2.55200 47.54900
C  41.56800 2.12200 47.52500
C  39.29500 2.27900 48.82000
C  39.74100 4.17200 45.50400
C  38.78300 5.30800 45.27300
H  39.17200 6.13900 44.09200
N  44.51800 0.88600 47.83500
C  43.33500 0.24200 47.68200
C  43.67500 -1.18100 47.74600
C  45.10500 -1.31600 47.89800
C  45.63500 0.06800 47.83500
C  42.64100 -2.33600 47.42800
C  45.93000 -2.55100 47.81100
O  45.40400 -3.67500 47.75700
C  47.46100 -2.60100 47.89300
N  46.52600 3.08300 47.19200
C  47.30700 1.98200 47.48200
C  48.78500 2.32600 47.44800
C  48.82300 3.83700 47.22300
C  47.34800 4.17600 47.06700
C  49.54800 1.86900 48.70600
C  49.79200 4.34900 46.01000
C  51.12800 4.95700 46.56500
N  44.65500 5.23600 47.31100
C  45.66000 6.06000 47.03000
C  45.25900 7.43300 47.08800
C  43.91100 7.35000 47.13900
C  43.56600 5.94000 47.21000
C  46.12100 8.67500 47.17200
C  42.73900 8.12000 47.09600
O  42.53500 9.37300 47.05000
C  41.55000 7.08800 47.17200
C  40.73400 7.46900 48.29500
O  40.66500 6.97400 49.41900
O  39.96200 8.52200 47.89200
C  39.01100 9.09500 48.86300
H  41.13300 0.10300 47.61000
H  47.77700 0.01400 47.80600
H  47.66600 6.28900 46.97100
H  39.52500 4.69100 47.65600
H  39.52400 2.03700 46.78000
H  38.86700 3.23300 49.12800
H  40.02800 1.94800 49.55500
H  38.65200 1.42800 48.59200
H  39.22800 3.28200 45.14100
H  40.65200 4.20000 44.90600
H  38.72400 5.93700 46.16100
H  37.78000 4.90600 45.13400
H  41.57700 -2.11400 47.51400
H  42.85900 -3.15100 48.11800
H  42.63800 -2.76000 46.42400
H  47.67100 -2.16900 46.91500
H  47.78100 -3.64000 47.97400
H  47.91200 -2.09500 48.74700
H  49.17400 1.69600 46.64800
H  49.10700 4.32200 48.15600
H  50.43200 1.32400 48.37600
H  48.95400 1.18100 49.30900
H  49.97700 2.70200 49.26300
H  49.35200 5.16500 45.43600
H  49.97100 3.45200 45.41700
H  51.12800 5.97400 46.17300
H  51.98500 4.35100 46.27300
H  51.14300 4.89200 47.65300
H  45.79200 9.42700 46.45400
H  47.12200 8.35000 46.89000
H  46.30500 9.02100 48.18900
H  41.00500 7.23400 46.24000
H  39.25400 8.78900 49.88000
H  37.96700 8.83600 48.69000
H  39.23200 10.16000 48.79300
Mg -4.32800 24.82100 25.99300
C  -2.93800 26.69300 28.52400
C  -5.60600 22.56400 28.30400
C  -5.27900 22.84900 23.53300
C  -2.87800 27.02500 23.68800
N  -4.21200 24.62200 28.06600
C  -3.67900 25.58400 28.94500
C  -4.17100 25.32500 30.38500
C  -4.70200 23.81900 30.27800
C  -4.88500 23.66500 28.77500
C  -3.69600 22.80400 30.94300
C  -5.25600 26.39500 30.83100
C  -5.04600 26.92500 32.24900
H  -4.38600 25.97000 33.30100
N  -5.32800 22.97900 25.96500
C  -5.80000 22.18800 26.99800
C  -6.38900 20.98700 26.45300
C  -6.47100 21.17400 25.03900
C  -5.68100 22.36100 24.76800
C  -6.90500 19.83400 27.35000
C  -7.16500 20.27900 24.01600
O  -7.16800 20.48900 22.79700
C  -7.97000 19.08300 24.57600
N  -4.14300 24.92300 23.99700
C  -4.64400 23.99800 23.18700
C  -4.68600 24.47500 21.72600
C  -4.00400 25.83800 21.77600
C  -3.60100 25.97400 23.20800
C  -4.10400 23.46100 20.70600
C  -4.89600 27.05500 21.26600
C  -4.29000 27.89000 20.14100
N  -3.21700 26.60500 26.05200
C  -2.63400 27.32100 25.03200
C  -1.81700 28.37200 25.55900
C  -1.90200 28.19700 26.98600
C  -2.74000 27.07000 27.19500
C  -1.00100 29.47700 24.88100
C  -1.47500 28.69700 28.28400
O  -0.73600 29.61500 28.56900
C  -2.18800 27.71200 29.28700
C  -1.04400 27.16300 30.17600
O  -0.20800 26.29400 29.93800
O  -1.03900 27.88500 31.26000
C  -0.10000 27.55400 32.31200
H  -5.89500 21.88200 29.10700
H  -5.56500 22.21400 22.69200
H  -2.47600 27.78200 23.01000
H  -3.34600 25.47400 31.08100
H  -5.69800 23.91200 30.71100
H  -4.28800 22.36100 31.74500
H  -2.93300 23.44600 31.38300
H  -3.16300 22.05400 30.35900
H  -6.27700 26.02800 30.93500
H  -5.23000 27.20000 30.09700
H  -6.01500 26.98000 32.74600
H  -4.44100 27.83100 32.25800
H  -7.98300 19.72300 27.22800
H  -6.73900 19.90200 28.42500
H  -6.40300 18.95200 26.95200
H  -7.20200 18.41000 24.95700
H  -8.45600 18.70200 23.67800
H  -8.78000 19.38900 25.23900
H  -5.76600 24.55900 21.60400
H  -3.09800 25.86900 21.17100
H  -3.92400 22.47700 21.13800
H  -3.16700 23.75000 20.22900
H  -4.89700 23.08800 20.05900
H  -5.28300 27.73800 22.02200
H  -5.75000 26.60100 20.76300
H  -3.37900 27.53100 19.66200
H  -3.95600 28.85700 20.51500
H  -5.04500 28.01400 19.36500
H  -0.08100 29.04700 24.48400
H  -0.82100 30.23000 25.64800
H  -1.58200 29.88200 24.05300
H  -2.90400 28.22600 29.92900
H  0.86000 28.03000 32.10700
H  0.12800 26.48900 32.26500
H  -0.39900 27.58400 33.35900

