158

Mg 43.13400 42.21600 26.23100
C  42.11500 44.43300 28.64500
C  44.24300 40.05000 28.55600
C  44.19100 40.20700 23.72000
C  42.04200 44.44500 23.83000
N  43.26200 42.24800 28.30900
C  42.65500 43.22800 29.15000
C  42.64500 42.75800 30.61700
C  43.46400 41.43100 30.60300
C  43.65200 41.20700 29.02000
C  44.86300 41.42900 31.35900
C  41.13800 42.54300 31.09900
C  41.02200 41.78000 32.42300
H  40.22400 42.55200 33.45600
N  44.18900 40.46600 26.14600
C  44.52000 39.69100 27.24900
C  44.99400 38.35700 26.80400
C  44.87900 38.33600 25.36800
C  44.52100 39.70500 24.98700
C  45.62300 37.31800 27.67900
C  45.20000 37.23000 24.30600
O  45.29800 37.43600 23.10300
C  45.11800 35.84400 24.81300
N  43.16100 42.35900 24.09900
C  43.63600 41.38000 23.28700
C  43.53800 41.69900 21.72800
C  42.64800 42.93400 21.79100
C  42.59300 43.29600 23.34500
C  44.96500 41.96700 21.25200
C  41.24800 42.71500 21.21600
C  40.52100 41.55100 21.88300
N  42.25400 44.14200 26.18500
C  41.91700 44.98200 25.14400
C  41.47300 46.23700 25.66800
C  41.42500 46.04800 27.06100
C  41.90300 44.74100 27.34500
C  41.01300 47.48600 24.83700
C  41.04600 46.57000 28.28600
O  40.69000 47.72900 28.51100
C  41.48900 45.50800 29.43700
C  42.55100 46.09100 30.29300
O  43.63900 46.44800 29.90600
O  42.07200 46.20400 31.62400
C  42.78900 47.08900 32.55300
H  44.48500 39.28000 29.29100
H  44.44900 39.53600 22.89800
H  41.61700 45.07100 23.04300
H  43.10500 43.55700 31.19800
H  42.91800 40.59900 31.04700
H  45.02900 42.41400 31.79500
H  45.66700 41.27000 30.64000
H  44.87600 40.58500 32.04900
H  40.63800 41.97400 30.31400
H  40.58200 43.46700 31.25600
H  42.02300 41.55900 32.79500
H  40.59800 40.80100 32.20200
H  45.94200 37.79400 28.60600
H  46.49400 36.88000 27.19100
H  44.83800 36.58700 27.87200
H  44.45700 35.68800 25.66500
H  46.14500 35.57300 25.06000
H  44.73000 35.24100 23.99200
H  42.97900 40.94100 21.17800
H  43.07700 43.83600 21.35400
H  45.10300 41.65000 20.21900
H  45.69700 41.34300 21.76500
H  45.15400 43.03100 21.39100
H  41.31300 42.46100 20.15800
H  40.72900 43.66900 21.31600
H  40.24300 40.84300 21.10200
H  39.63100 41.87400 22.42300
H  41.22700 40.96300 22.46900
H  41.90200 48.03700 24.53000
H  40.40300 48.15200 25.44700
H  40.41100 47.09700 24.01600
H  40.61000 45.19200 29.99800
H  42.63000 46.79600 33.59100
H  42.41900 48.08900 32.32700
H  43.84700 47.08100 32.29000
Mg -0.99200 34.05000 27.01000
C  -2.66600 32.45800 29.72700
C  0.36900 36.26200 29.21500
C  0.27800 35.79100 24.32600
C  -2.77500 32.05400 24.81500
N  -1.22600 34.38000 29.14500
C  -1.87000 33.57200 30.07900
C  -1.40800 33.93100 31.49500
C  -0.60500 35.29000 31.31000
C  -0.45600 35.32200 29.79800
C  -1.28300 36.50100 31.95600
C  -0.76600 32.80100 32.39600
C  -0.62800 33.11300 33.86000
H  -1.65200 32.39600 34.76300
N  0.28800 35.60400 26.84000
C  0.71600 36.43700 27.85000
C  1.60900 37.43000 27.34400
C  1.52600 37.38800 25.93100
C  0.69900 36.19700 25.64200
C  2.45600 38.37000 28.32700
C  2.23400 38.27900 24.88600
O  2.09100 38.14200 23.63800
C  3.23600 39.30100 25.41600
N  -1.17500 33.97200 24.87600
C  -0.60400 34.77600 23.96200
C  -0.93700 34.37100 22.56500
C  -1.47500 32.85800 22.75200
C  -1.87600 32.93800 24.25500
C  -1.92500 35.32900 21.84700
C  -0.51700 31.67500 22.39900
C  0.43600 30.98400 23.46600
N  -2.52300 32.66400 27.13600
C  -3.17600 31.96000 26.19800
C  -4.06800 31.02000 26.81400
C  -3.90300 31.23400 28.19600
C  -2.95900 32.19200 28.39600
C  -4.90900 29.93200 26.16900
C  -4.40700 30.76100 29.49700
O  -5.30000 30.00000 29.76500
C  -3.53400 31.55200 30.50800
C  -4.51600 32.25700 31.45800
O  -5.21300 33.17600 31.17600
O  -4.58300 31.63200 32.67600
C  -5.45900 32.26300 33.65600
H  1.00000 36.76400 29.95100
H  0.55700 36.34200 23.42500
H  -3.21700 31.27500 24.19000
H  -2.30000 34.19600 32.06400
H  0.31200 35.11600 31.87200
H  -2.30800 36.38600 32.30900
H  -1.38100 37.26000 31.17900
H  -0.63100 37.01700 32.66100
H  0.27600 32.70400 32.09000
H  -1.37700 31.90900 32.25700
H  -0.87800 34.15800 34.04200
H  0.33200 32.99500 34.36300
H  2.31900 38.21600 29.39700
H  2.09100 39.38000 28.14000
H  3.52600 38.29900 28.13400
H  3.63000 39.89400 24.59000
H  4.04200 38.75500 25.90500
H  2.67300 39.84800 26.17300
H  0.05200 34.37100 22.10800
H  -2.41500 32.75200 22.21000
H  -2.69500 34.77300 21.31200
H  -1.35900 35.92700 21.13300
H  -2.37500 35.93300 22.63500
H  0.15600 32.14100 21.67800
H  -1.14100 30.95500 21.86900
H  0.23200 31.40800 24.44900
H  1.50700 31.01100 23.26600
H  0.10300 29.94900 23.54000
H  -4.93800 29.93500 25.08000
H  -5.96100 30.02900 26.43600
H  -4.63400 28.96600 26.59400
H  -2.89800 30.85400 31.05200
H  -5.01200 32.05500 34.62800
H  -6.49300 31.92400 33.60300
H  -5.44500 33.34200 33.49800

