158

Mg 25.97700 0.16900 29.79300
C  27.82300 -0.09200 32.73600
C  23.13100 0.65600 31.54300
C  24.29100 -0.06300 26.92100
C  28.97300 -0.73100 27.93300
N  25.55900 0.08300 31.92600
C  26.47200 0.14900 33.01600
C  25.78300 0.38600 34.35000
C  24.23700 0.50600 33.98800
C  24.30000 0.45000 32.36100
C  23.44300 -0.67300 34.57600
C  26.42200 1.62300 35.13500
C  26.85200 1.29100 36.55500
H  26.76400 2.34700 37.56900
N  23.99700 0.20600 29.31300
C  22.95600 0.44500 30.14700
C  21.69500 0.39700 29.42600
C  22.06300 0.26400 28.02600
C  23.52200 0.11200 28.06100
C  20.34900 0.79300 30.00600
C  21.13300 0.26200 26.81500
O  21.52900 0.30200 25.62800
C  19.61800 0.36100 27.00100
N  26.48000 -0.41700 27.72900
C  25.66000 -0.20400 26.74600
C  26.20500 -0.32300 25.35100
C  27.73100 -0.42400 25.66900
C  27.75000 -0.53000 27.16800
C  25.67800 -1.60700 24.61200
C  28.49400 0.80900 25.10900
C  29.84200 0.59700 24.43900
N  28.05000 -0.20100 30.15600
C  29.08400 -0.55700 29.33100
C  30.22900 -0.74700 30.19800
C  29.82300 -0.49500 31.47700
C  28.47400 -0.22500 31.45300
C  31.64100 -1.25900 29.89200
C  30.34100 -0.38200 32.87100
O  31.45800 -0.57100 33.33700
C  29.01100 -0.13900 33.75200
C  28.78300 -1.27000 34.71700
O  27.87900 -2.12200 34.62000
O  29.60100 -1.12600 35.82600
C  29.19100 -2.02200 37.02400
H  22.21300 0.84900 32.10200
H  23.72600 -0.04200 25.98700
H  29.95000 -0.90100 27.47700
H  25.77700 -0.53900 34.92700
H  23.84300 1.46400 34.33000
H  23.45700 -1.47700 33.84000
H  22.41300 -0.33300 34.68500
H  23.83900 -1.11800 35.48800
H  25.67100 2.41200 35.15000
H  27.24400 2.00100 34.52700
H  27.91300 1.04300 36.51700
H  26.45900 0.35700 36.95700
H  20.08700 1.69200 29.45000
H  20.27700 0.98700 31.07600
H  19.64800 -0.00700 29.76500
H  19.05700 0.29900 26.06900
H  19.35900 1.25600 27.56700
H  19.26800 -0.47500 27.60800
H  25.91100 0.62700 24.90600
H  28.11700 -1.37000 25.28900
H  25.03000 -2.18100 25.27500
H  26.46300 -2.29500 24.29900
H  25.22000 -1.40000 23.64500
H  28.53400 1.59400 25.86300
H  27.83000 1.23100 24.35400
H  30.54000 1.38000 24.73300
H  29.63800 0.58300 23.36900
H  30.21100 -0.39500 24.69900
H  32.35500 -0.50800 29.55400
H  31.51700 -1.97300 29.07800
H  31.99300 -1.78300 30.78100
H  29.17600 0.70400 34.42300
H  28.61700 -2.92500 36.81300
H  28.65500 -1.46100 37.79000
H  30.11200 -2.25700 37.55800
Mg 48.79500 44.95900 42.79800
C  45.27600 45.24400 42.01700
C  48.85500 41.99400 41.31500
C  52.07700 45.28000 43.00100
C  48.59900 48.51400 43.66800
N  47.17300 43.74600 41.93500
C  45.91800 44.05700 41.58300
C  45.31200 42.91900 40.70700
C  46.31900 41.71300 41.03700
C  47.54300 42.53300 41.38800
C  45.93100 40.78700 42.25200
C  45.16300 43.31300 39.19100
C  43.75000 43.08800 38.60300
H  43.36700 43.99400 37.44700
N  50.26500 43.69200 42.35100
C  50.10700 42.51500 41.72100
C  51.44000 41.86900 41.57700
C  52.39800 42.71600 42.20200
C  51.62000 43.97800 42.48300
C  51.63600 40.41700 40.97300
C  53.87400 42.37000 42.41700
O  54.37700 41.35100 41.93800
C  54.82000 43.30800 43.09300
N  50.06800 46.70700 43.14700
C  51.43300 46.48200 43.16600
C  52.16800 47.74300 43.36400
C  51.14800 48.81800 43.73400
C  49.84800 47.99100 43.57100
C  53.47400 47.60400 44.20700
C  51.25300 50.07600 42.93200
C  52.11900 51.20500 43.54100
N  47.31300 46.52200 42.98400
C  47.37100 47.85700 43.41600
C  46.07100 48.50300 43.35800
C  45.25000 47.45900 42.80700
C  46.04000 46.30300 42.60400
C  45.73700 49.92600 43.71300
C  43.94900 47.30000 42.26400
O  42.99100 48.08900 42.26000
C  43.92500 45.83100 41.68400
C  42.74800 44.99400 42.12500
O  41.88900 44.54700 41.43100
O  42.74900 44.84600 43.51200
C  41.45900 44.73500 44.12300
H  49.01800 40.99200 40.91200
H  53.16400 45.31800 42.90700
H  48.40900 49.48400 44.13100
H  44.36200 42.63200 41.15700
H  46.51700 41.08900 40.16600
H  44.97500 41.06500 42.69700
H  46.74700 40.94300 42.95900
H  45.90600 39.73500 41.96900
H  45.80300 42.83500 38.44900
H  45.27400 44.39700 39.20900
H  42.99600 43.17300 39.38500
H  43.58100 42.04700 38.32800
H  52.56500 40.25000 40.42800
H  50.82800 40.31200 40.25000
H  51.63800 39.64400 41.74100
H  55.20600 44.04600 42.39100
H  55.72000 42.74400 43.34000
H  54.40500 43.79200 43.97800
H  52.54900 47.94800 42.36400
H  51.32300 49.11300 44.76900
H  53.55800 48.41300 44.93200
H  54.26100 47.77100 43.47100
H  53.61600 46.62200 44.65900
H  50.28000 50.54900 42.79700
H  51.65400 49.79200 41.95900
H  52.31100 51.08700 44.60700
H  51.63600 52.16900 43.37900
H  53.06900 51.29400 43.01500
H  45.26700 50.33400 42.81800
H  46.59700 50.50500 44.05100
H  44.99800 49.88600 44.51400
H  44.04300 45.99800 40.61300
H  41.46200 43.87400 44.79200
H  40.60500 44.80600 43.45100
H  41.36900 45.56700 44.82200

