158

Mg 30.55100 57.56500 40.41000
C  27.83400 55.76800 38.99100
C  32.76800 55.23800 39.22700
C  33.07200 59.87400 40.83700
C  28.29700 60.20500 40.95700
N  30.27600 55.71000 39.07700
C  29.11100 55.11100 38.68100
C  29.39600 53.62300 38.31200
C  31.02000 53.48800 38.43100
C  31.42300 54.90400 38.95300
C  31.41700 52.24500 39.23700
C  28.77000 53.12700 37.00800
C  29.31600 53.85100 35.72700
H  28.34200 54.69400 34.92100
N  32.57200 57.49300 40.14900
C  33.36000 56.41300 39.70300
C  34.75500 56.75400 39.77200
C  34.81800 58.02300 40.36100
C  33.42100 58.51900 40.53800
C  35.83400 55.78700 39.41100
C  36.14400 58.70500 40.72500
O  37.20700 58.15700 40.38100
C  36.15300 59.93100 41.67800
N  30.68200 59.68700 40.90100
C  31.82100 60.42100 40.93900
C  31.55800 61.88100 41.25200
C  30.04600 61.89100 41.50600
C  29.60100 60.53900 41.07200
C  32.37300 62.55600 42.41400
C  29.31800 63.16800 40.84700
C  28.31100 63.82800 41.77500
N  28.48300 57.91100 40.14500
C  27.74800 59.04400 40.47800
C  26.40500 58.75600 40.30800
C  26.31800 57.46700 39.75200
C  27.65200 57.01300 39.63600
C  25.22500 59.62800 40.66400
C  25.45300 56.46700 39.17400
O  24.26300 56.42600 38.91200
C  26.38700 55.32300 38.68200
C  26.00900 54.01700 39.27500
O  26.43700 53.45600 40.26200
O  25.19900 53.33200 38.33900
C  24.67600 52.06600 38.93300
H  33.39100 54.37000 39.00300
H  33.92800 60.54600 40.75100
H  27.53200 60.93300 41.23500
H  29.01600 53.11000 39.19500
H  31.57500 53.50600 37.49300
H  30.65400 51.54500 39.57800
H  31.78300 52.76300 40.12300
H  32.15200 51.75400 38.59800
H  27.68800 53.25500 37.02700
H  29.13800 52.10000 37.00400
H  29.68900 53.19400 34.94200
H  30.14400 54.50800 35.99500
H  36.43100 56.36500 38.70500
H  35.57500 54.85300 38.91300
H  36.38600 55.56200 40.32400
H  36.10200 60.86300 41.11600
H  37.10700 59.76500 42.17800
H  35.42200 59.84500 42.48200
H  31.75900 62.44400 40.34100
H  29.88000 62.02300 42.57500
H  31.65400 63.12700 43.00100
H  33.12400 63.22000 41.98700
H  32.89900 61.90900 43.11600
H  28.73800 62.77700 40.01100
H  29.99500 63.90200 40.40900
H  28.20800 64.90600 41.65200
H  28.58500 63.73300 42.82600
H  27.33200 63.35000 41.72600
H  24.79300 59.98200 39.72800
H  25.32600 60.34000 41.48400
H  24.47200 58.96900 41.09400
H  26.27900 55.18300 37.60600
H  24.20700 52.26900 39.89600
H  25.36700 51.23000 39.03800
H  23.86900 51.65200 38.32900
Mg 27.29400 51.21200 26.59100
C  25.36400 52.25800 29.17600
C  29.66300 50.03800 28.91800
C  29.46000 50.43600 24.03400
C  25.01800 52.45500 24.32000
N  27.45100 50.99000 28.73600
C  26.49500 51.52700 29.60600
C  26.79000 51.12500 31.01700
C  28.31400 50.67600 30.93500
C  28.51100 50.58500 29.42700
C  29.24600 51.75000 31.54200
C  25.72500 50.08400 31.48700
C  25.08600 50.07200 32.88500
H  26.05000 50.37600 34.05500
N  29.24500 50.25000 26.50000
C  30.01900 49.80300 27.56200
C  31.21700 49.14600 27.05400
C  31.17000 49.41000 25.61000
C  29.91100 50.11500 25.31700
C  32.35000 48.49800 27.91000
C  32.26600 49.16700 24.63400
O  32.21800 49.47400 23.40800
C  33.52100 48.51000 25.02600
N  27.33700 51.61600 24.51600
C  28.34700 51.15600 23.67800
C  27.84900 51.07500 22.22800
C  26.40900 51.66700 22.30700
C  26.19200 51.90800 23.81400
C  28.78200 51.90200 21.25800
C  25.38400 50.74400 21.79200
C  24.90100 49.51600 22.58600
N  25.49000 52.09900 26.70600
C  24.63300 52.52900 25.72700
C  23.54600 53.32200 26.28100
C  23.74300 53.15600 27.68800
C  24.93500 52.43500 27.88300
C  22.52000 54.13600 25.50200
C  23.20200 53.45200 28.95400
O  22.18600 54.03800 29.22800
C  24.17400 52.78000 29.98100
C  24.58900 53.78000 31.01800
O  25.42000 54.67900 30.78400
O  24.02500 53.59700 32.24600
C  24.29100 54.54000 33.33900
H  30.29500 49.54300 29.65800
H  30.05900 50.06400 23.20000
H  24.21600 52.67900 23.61400
H  26.82500 52.04100 31.60600
H  28.62500 49.66400 31.19200
H  30.26800 51.50800 31.25100
H  29.25300 51.61300 32.62300
H  29.07600 52.79000 31.26400
H  26.34300 49.18700 31.45000
H  24.99200 49.89100 30.70400
H  24.72700 49.06100 33.07700
H  24.19300 50.69600 32.86300
H  32.25900 47.41600 27.82300
H  32.17800 48.58900 28.98300
H  33.29700 48.99900 27.71200
H  33.37700 47.61600 25.63200
H  34.26900 49.08100 25.57500
H  34.01000 48.23100 24.09200
H  27.76900 50.01500 21.99000
H  26.35500 52.58800 21.72600
H  29.75300 52.17900 21.66900
H  28.30200 52.76300 20.79200
H  29.09800 51.35400 20.37100
H  25.73700 50.38000 20.82700
H  24.50800 51.32900 21.51300
H  25.70300 49.27400 23.28200
H  24.82200 48.58100 22.03100
H  24.05100 49.71400 23.23900
H  22.81700 55.14000 25.20100
H  21.74000 54.29800 26.24600
H  22.24100 53.68400 24.55100
H  23.48300 52.03700 30.37900
H  24.86000 55.40600 32.99900
H  24.88900 53.95500 34.03800
H  23.35000 54.90600 33.74800

