158

Mg 48.45400 45.13900 43.83400
C  45.29300 45.73000 42.31700
C  48.51200 41.99200 42.40300
C  51.80800 45.05800 44.45400
C  48.48600 48.55500 44.79700
N  47.05000 44.08200 42.42100
C  45.83200 44.46800 42.09400
C  45.08400 43.26400 41.47900
C  46.04300 42.00200 41.65800
C  47.28900 42.72500 42.20700
C  45.52900 40.85800 42.65800
C  44.67800 43.50000 39.96800
C  43.67000 42.45500 39.45400
H  44.06700 41.73400 38.12800
N  49.97500 43.69800 43.54200
C  49.73000 42.46400 42.92800
C  50.97700 41.83700 42.91200
C  51.96500 42.56400 43.65400
C  51.29600 43.81900 43.92200
C  51.14100 40.48000 42.25500
C  53.40600 42.13900 43.94000
O  53.94900 41.22600 43.32300
C  54.26600 42.84000 44.88100
N  50.00700 46.71600 44.37400
C  51.26000 46.27400 44.72400
C  52.14400 47.47700 45.10600
C  51.07200 48.54200 45.45400
C  49.75100 47.93800 44.83700
C  53.11700 47.17700 46.31000
C  51.41500 49.95600 44.89300
C  51.22500 51.00900 46.03000
N  47.17200 46.80500 43.75200
C  47.30300 48.04000 44.24900
C  46.01500 48.77100 44.06900
C  45.22800 47.84100 43.36600
C  45.99100 46.68700 43.09300
C  45.68300 50.15300 44.63500
C  43.89000 47.65000 42.64000
O  43.00800 48.45400 42.52100
C  43.90700 46.18500 41.94400
C  42.75800 45.40000 42.43000
O  42.64200 45.13300 43.63300
O  41.90000 45.05000 41.43300
C  40.75500 44.23400 41.87200
H  48.47000 40.91300 42.24200
H  52.89600 45.07400 44.54800
H  48.47000 49.60000 45.11600
H  44.16200 43.05800 42.02300
H  46.26100 41.53000 40.70000
H  46.34800 40.52500 43.29700
H  45.21100 40.12400 41.91800
H  44.64000 41.24000 43.16000
H  45.53600 43.27900 39.33400
H  44.46900 44.51200 39.62000
H  42.71000 42.95500 39.32100
H  43.54700 41.72500 40.25400
H  52.08300 40.53200 41.70900
H  50.36700 40.17300 41.55200
H  51.20700 39.76300 43.07300
H  53.81400 42.89600 45.87200
H  54.49100 43.78100 44.37900
H  55.20400 42.31900 45.07400
H  52.64200 47.68800 44.16000
H  50.92100 48.63800 46.53000
H  53.19300 48.05200 46.95600
H  54.13700 46.98800 45.97500
H  52.77200 46.29500 46.85000
H  50.82900 50.10100 43.98600
H  52.45200 50.04900 44.56900
H  50.17300 51.23700 46.20200
H  51.78400 51.93900 45.92800
H  51.48300 50.64400 47.02400
H  46.63400 50.68400 44.67700
H  45.13900 50.02100 45.57000
H  45.09800 50.73800 43.92500
H  43.70400 46.50400 40.92200
H  40.96700 43.50600 42.65600
H  40.41100 43.57000 41.07900
H  40.02400 44.93000 42.28400
Mg 16.62200 51.76900 25.35900
C  18.26100 50.65700 28.23300
C  13.94400 52.73600 27.36000
C  15.01400 52.80100 22.55700
C  19.26000 50.32300 23.41300
N  16.13300 51.64300 27.48300
C  17.01400 51.23800 28.50500
C  16.36200 51.35600 29.92200
C  14.86500 51.76700 29.59800
C  14.92600 52.08800 28.05200
C  13.70200 50.84000 30.06900
C  17.04700 52.32300 30.86700
C  17.38900 51.73300 32.26500
H  16.33200 51.91000 33.49200
N  14.75300 52.66200 25.00600
C  13.86300 53.11000 26.00100
C  12.76500 53.83400 25.32600
C  12.96900 53.71000 23.93000
C  14.27500 52.98600 23.75600
C  11.63400 54.55500 26.01000
C  12.11300 54.24700 22.78400
O  12.46800 54.11100 21.63200
C  10.83200 54.89400 23.07800
N  17.12100 51.77200 23.34800
C  16.24900 52.20800 22.33300
C  16.89100 52.02600 20.94000
C  18.33000 51.47000 21.29100
C  18.24400 51.18700 22.79000
C  16.16300 51.06100 20.02000
C  19.58500 52.29600 20.86000
C  20.76900 51.56700 20.22900
N  18.38500 50.53400 25.66100
C  19.30900 50.04100 24.80300
C  20.29500 49.29300 25.55500
C  20.02300 49.63300 26.94000
C  18.79900 50.37100 26.95000
C  21.49500 48.56600 25.02000
C  20.43100 49.44300 28.27800
O  21.42100 48.83300 28.74500
C  19.34500 50.07000 29.20900
C  18.98600 49.03900 30.20500
O  18.36200 48.04700 29.89000
O  19.44600 49.26700 31.47000
C  19.18500 48.27500 32.54900
H  13.10500 53.07200 27.97300
H  14.44600 53.19500 21.71200
H  20.10900 50.08100 22.77000
H  16.30700 50.32800 30.28100
H  14.66200 52.75500 30.01100
H  13.97100 49.85100 30.43800
H  13.18000 50.81700 29.11200
H  13.08000 51.33900 30.81200
H  16.37300 53.16700 31.01700
H  17.89900 52.77500 30.35900
H  18.33400 52.16700 32.59300
H  17.53100 50.65900 32.14600
H  10.66000 54.11000 25.80400
H  11.70500 55.63300 25.86200
H  11.92600 54.30900 27.03000
H  10.17400 54.23400 23.64300
H  10.40700 55.11200 22.09900
H  10.86200 55.85400 23.59500
H  16.90000 53.03500 20.52900
H  18.55500 50.51300 20.81900
H  15.91400 50.14100 20.54900
H  16.90300 50.65900 19.32800
H  15.32400 51.53900 19.51500
H  19.85700 52.67800 21.84400
H  19.42900 53.18100 20.24200
H  20.82800 52.02100 19.24000
H  20.68700 50.48200 20.17400
H  21.67800 51.75600 20.80100
H  21.61800 48.60300 23.93800
H  21.52800 47.49400 25.21500
H  22.39700 49.00900 25.44400
H  19.75100 50.89900 29.78800
H  18.87400 48.78800 33.45900
H  20.14200 47.78600 32.73400
H  18.43100 47.51400 32.35200

