158

Mg 47.19000 24.61200 27.84000
C  48.37000 26.65700 30.53800
C  46.58500 22.04300 30.14000
C  46.85500 22.56800 25.26200
C  48.81500 26.85100 25.73600
N  47.54100 24.35400 30.17000
C  47.72300 25.44900 31.00400
C  47.32900 25.10600 32.46600
C  46.86600 23.55600 32.30800
C  47.06200 23.27400 30.82000
C  47.43900 22.49500 33.26600
C  46.29100 25.98500 33.16600
C  46.66500 26.58000 34.49700
H  45.61400 26.93500 35.54800
N  46.62900 22.56900 27.73100
C  46.44700 21.71900 28.77200
C  46.09900 20.47900 28.21700
C  46.15100 20.54200 26.79800
C  46.52800 21.96800 26.54600
C  45.78500 19.26200 29.09300
C  45.85200 19.52500 25.64800
O  45.87700 19.79300 24.46800
C  45.52200 18.15900 26.02800
N  47.91100 24.61200 25.80000
C  47.48000 23.72800 24.91800
C  47.79100 24.10200 23.46400
C  48.16600 25.60400 23.60300
C  48.33500 25.73400 25.10300
C  48.85000 23.15100 22.73200
C  47.08300 26.62900 23.00800
C  47.70000 27.70400 22.05800
N  48.21200 26.48500 27.99300
C  48.80900 27.21500 27.10500
C  49.43500 28.36200 27.71300
C  49.10500 28.25600 29.04600
C  48.46100 27.05800 29.16100
C  50.09800 29.46100 27.00900
C  49.37300 28.82600 30.30000
O  49.98100 29.82100 30.54400
C  48.67600 27.89200 31.34500
C  49.62100 27.59700 32.47400
O  50.42200 26.72300 32.51600
O  49.48400 28.51500 33.45700
C  50.29400 28.29200 34.70500
H  46.16600 21.30500 30.82700
H  46.57200 21.97600 24.38900
H  49.32800 27.55100 25.07200
H  48.25300 25.13800 33.04200
H  45.80300 23.59400 32.54100
H  48.04600 22.90300 34.07500
H  48.14100 21.87500 32.70900
H  46.73200 21.80900 33.73300
H  45.36300 25.46300 33.40000
H  45.87300 26.80300 32.58000
H  47.12300 27.53700 34.24500
H  47.33900 25.99500 35.12200
H  46.26300 19.35000 30.06800
H  46.16400 18.31700 28.70500
H  44.71300 19.13200 29.23900
H  46.24900 17.74400 26.72600
H  45.47700 17.52400 25.14400
H  44.59100 18.09800 26.59200
H  46.83400 24.02700 22.94800
H  49.16600 25.85200 23.24600
H  48.47700 22.84200 21.75600
H  48.91100 22.22600 23.30500
H  49.83900 23.58900 22.59700
H  46.55400 27.11100 23.83100
H  46.34400 26.10500 22.40200
H  47.40100 27.57100 21.01800
H  48.78500 27.59800 22.04600
H  47.38400 28.71300 22.32200
H  49.49200 30.14300 26.41200
H  50.91000 29.09000 26.38400
H  50.60300 29.99300 27.81500
H  47.81700 28.53100 31.55200
H  51.18500 28.87600 34.47400
H  50.59800 27.28200 34.98000
H  49.93500 28.68600 35.65600
Mg -13.20500 16.42000 42.13100
C  -10.16800 14.68100 41.84300
C  -11.61700 19.18300 40.96200
C  -16.31500 17.81100 41.70800
C  -14.79100 13.27600 42.86400
N  -11.17400 16.79900 41.43800
C  -10.10200 15.97100 41.42300
C  -8.83500 16.65400 40.98800
C  -9.23400 18.17100 40.95700
C  -10.78000 18.01900 41.16000
C  -8.51300 19.04400 42.03700
C  -8.31800 16.08800 39.60900
C  -6.85900 15.68800 39.54700
H  -6.40600 14.53400 38.70300
N  -13.86500 18.29400 41.46400
C  -13.05800 19.29600 41.04400
C  -13.87900 20.40500 40.61000
C  -15.21800 20.03300 40.88700
C  -15.20400 18.62100 41.30800
C  -13.28100 21.65600 40.02300
C  -16.45100 21.05100 40.59500
O  -16.23800 22.15900 40.04000
C  -17.83700 20.56100 40.96100
N  -15.28000 15.61500 42.21800
C  -16.33400 16.44300 42.09800
C  -17.69300 15.68300 42.24200
C  -17.22400 14.23300 42.65500
C  -15.69500 14.34700 42.59600
C  -18.80200 16.24000 43.20000
C  -17.75500 13.02400 41.73900
C  -18.74900 12.04600 42.40900
N  -12.65900 14.39900 42.39300
C  -13.36400 13.27700 42.73500
C  -12.53100 12.11400 42.75600
C  -11.27200 12.62200 42.45400
C  -11.38700 14.00900 42.28700
C  -12.85700 10.69500 43.16600
C  -9.89900 12.25600 42.31100
O  -9.33800 11.20900 42.38600
C  -9.05000 13.62900 41.94200
C  -7.96600 13.87600 42.90200
O  -8.05100 14.25800 44.07700
O  -6.77800 13.66300 42.21900
C  -5.54600 13.72200 42.93600
H  -10.94600 20.02300 40.76900
H  -17.32400 18.04400 41.36200
H  -15.36700 12.39100 43.14000
H  -8.03000 16.63800 41.72200
H  -9.11300 18.58100 39.95400
H  -7.89200 19.86900 41.68600
H  -7.78500 18.45300 42.59300
H  -9.21800 19.39600 42.79000
H  -8.52000 16.74600 38.76400
H  -8.94700 15.20500 39.49600
H  -6.39800 15.66300 40.53500
H  -6.33700 16.48100 39.01200
H  -13.63300 22.37700 40.76000
H  -13.62200 21.92600 39.02300
H  -12.19300 21.71800 40.02600
H  -18.11200 19.78500 40.24600
H  -18.53500 21.39500 40.88800
H  -17.78800 20.26700 42.01000
H  -18.07200 15.79400 41.22600
H  -17.52400 13.96700 43.66800
H  -18.46000 16.96900 43.93500
H  -19.25400 15.35200 43.64200
H  -19.56700 16.68500 42.56300
H  -16.86600 12.50700 41.37700
H  -18.13100 13.56400 40.87000
H  -19.27200 12.46600 43.26700
H  -18.09000 11.26200 42.78300
H  -19.38400 11.68700 41.59900
H  -13.12200 10.04500 42.33200
H  -13.71300 10.80200 43.83200
H  -11.95600 10.23800 43.57600
H  -8.59900 13.41800 40.97200
H  -5.48700 12.81100 43.53300
H  -5.53600 14.65000 43.50800
H  -4.67300 13.62900 42.29100

