158

Mg 50.87200 45.43800 42.37900
C  47.54700 46.21800 41.51600
C  50.24100 42.22500 41.25200
C  54.08600 44.72900 42.69200
C  51.39000 48.76500 43.00600
N  49.10300 44.42500 41.30300
C  47.85600 44.92500 41.13800
C  46.90600 43.79900 40.68000
C  47.74500 42.51200 40.96200
C  49.17100 43.06800 41.13700
C  47.31300 41.59500 42.13100
C  46.51500 43.97200 39.19600
C  45.03900 43.74900 38.87700
H  44.70800 42.90600 37.69200
N  51.97000 43.68900 42.05200
C  51.56600 42.47200 41.66600
C  52.62300 41.51100 41.64900
C  53.81100 42.20000 42.06300
C  53.32800 43.61800 42.28100
C  52.34500 40.09100 41.35700
C  55.17900 41.64500 42.27400
O  55.31400 40.42200 42.08500
C  56.38300 42.47200 42.91800
N  52.45900 46.61400 42.65400
C  53.65700 46.03700 43.01100
C  54.65000 47.10600 43.53800
C  53.91200 48.43000 43.36200
C  52.49900 47.93400 42.97700
C  55.16800 46.89100 45.04400
C  54.52200 49.40200 42.28000
C  54.65700 50.91100 42.82900
N  49.74400 47.16900 42.43300
C  50.09400 48.45600 42.68600
C  48.92000 49.35700 42.64700
C  47.88800 48.46600 42.20800
C  48.48800 47.18200 41.97500
C  48.90900 50.79500 42.91600
C  46.51000 48.47100 41.87600
O  45.63200 49.38100 41.88000
C  46.26200 46.98200 41.26500
C  44.97500 46.45800 41.83400
O  44.89600 45.87800 42.91800
O  43.94800 46.72900 40.96300
C  42.61000 46.15900 41.35400
H  50.10400 41.18700 40.94200
H  55.15600 44.57600 42.84500
H  51.50500 49.79900 43.33700
H  45.95000 43.77700 41.20400
H  47.67300 41.72800 40.20800
H  46.43500 41.97500 42.65200
H  48.21400 41.49200 42.73600
H  46.99600 40.58500 41.87400
H  47.08100 43.21100 38.65800
H  46.85000 44.95300 38.86000
H  44.75900 44.78800 38.70000
H  44.48200 43.39700 39.74500
H  51.87700 39.95300 40.38300
H  51.75000 39.63100 42.14600
H  53.27800 39.52700 41.37700
H  56.00500 42.94700 43.82400
H  56.51400 43.26000 42.17500
H  57.29600 41.88700 43.02800
H  55.56900 47.09900 42.95100
H  53.66000 48.97000 44.27400
H  56.25500 46.90200 45.12200
H  54.74700 45.93100 45.34200
H  54.65200 47.54100 45.75100
H  53.84600 49.53700 41.43600
H  55.50600 49.05800 41.96100
H  54.62600 51.05800 43.90900
H  53.92500 51.57500 42.37000
H  55.67400 51.23000 42.60200
H  49.81200 51.00200 43.49000
H  47.92000 51.07100 43.28100
H  49.03200 51.46100 42.06100
H  46.06000 47.04400 40.19500
H  41.97200 46.26500 40.47600
H  42.17700 46.69800 42.19700
H  42.68300 45.08700 41.53700
Mg 48.14100 35.29900 26.86100
C  46.20800 33.99300 29.48100
C  48.54200 38.12700 28.70200
C  49.36400 36.60500 24.05600
C  47.16700 32.40100 24.95800
N  47.64900 35.87100 28.97500
C  46.96300 35.10800 29.88200
C  47.13800 35.65500 31.25900
C  47.61200 37.22400 30.98600
C  47.93300 37.08400 29.40600
C  46.63400 38.33100 31.44300
C  48.26800 34.77700 31.86600
C  48.21200 34.50600 33.30200
H  47.26300 35.36900 34.11800
N  48.86800 37.12100 26.39700
C  49.10800 38.14500 27.36100
C  49.89800 39.16900 26.70800
C  50.01700 38.81000 25.32100
C  49.36300 37.49400 25.16100
C  50.35400 40.40400 27.37900
C  50.71000 39.55400 24.20900
O  50.87400 39.13400 23.07800
C  51.22200 40.94500 24.46600
N  48.23400 34.61000 24.76700
C  48.86000 35.40600 23.79500
C  48.98200 34.64100 22.41700
C  48.50000 33.16400 22.83300
C  47.91200 33.38000 24.27100
C  48.35800 35.32900 21.20300
C  49.52400 31.96300 22.76600
C  49.56400 31.10600 21.46800
N  47.03700 33.54200 27.11700
C  46.61100 32.53400 26.24600
C  45.68500 31.65500 26.93500
C  45.44400 32.23000 28.16800
C  46.32100 33.32900 28.23100
C  45.13800 30.37800 26.35100
C  44.69300 32.14200 29.40400
O  43.78800 31.42500 29.74400
C  45.13300 33.34100 30.25200
C  45.49400 32.78100 31.57800
O  46.45300 32.17700 31.84800
O  44.41300 33.00400 32.40800
C  44.37800 32.33400 33.68700
H  48.86300 39.02700 29.23100
H  49.83600 37.10500 23.20800
H  47.02000 31.47300 24.40100
H  46.21200 35.57600 31.82900
H  48.57400 37.41300 31.46200
H  45.67500 37.95100 31.79600
H  46.44800 39.02300 30.62200
H  47.09300 38.78400 32.32200
H  49.19700 35.33300 31.73500
H  48.38300 33.78600 31.42700
H  49.23800 34.66400 33.63500
H  48.00400 33.44200 33.41400
H  50.25400 40.23300 28.45000
H  49.69400 41.23800 27.13800
H  51.41100 40.66000 27.30000
H  50.58700 41.59700 25.06500
H  51.19200 41.44600 23.49800
H  52.21900 40.85800 24.89700
H  50.04500 34.66100 22.17600
H  47.65500 32.82400 22.23400
H  47.59100 34.75000 20.68900
H  49.22100 35.55500 20.57800
H  47.94000 36.28400 21.52200
H  49.19800 31.24700 23.52000
H  50.46000 32.48900 22.95100
H  49.15000 30.11800 21.67000
H  50.62000 31.06300 21.20300
H  49.00700 31.50700 20.62200
H  44.37200 29.97700 27.01500
H  45.96700 29.67000 26.33500
H  44.72900 30.48200 25.34600
H  44.28600 34.00900 30.40400
H  45.29900 32.29800 34.26900
H  44.00100 31.32900 33.49800
H  43.62800 32.91900 34.21900

