158

Mg 16.89200 -2.19000 27.92300
C  15.72300 0.00000 30.44300
C  19.14900 -3.55600 30.11000
C  18.13800 -3.96100 25.42200
C  14.70300 -0.55000 25.67100
N  17.37200 -1.81300 30.02100
C  16.77000 -0.87500 30.89600
C  17.37800 -0.96100 32.28500
C  18.51000 -2.09600 32.18300
C  18.43800 -2.48000 30.64500
C  19.96000 -1.52500 32.55800
C  16.27100 -1.33600 33.27700
C  16.32000 -1.04800 34.76800
H  17.57300 -0.31400 35.29500
N  18.35000 -3.64000 27.77300
C  19.07500 -4.13500 28.84200
C  19.83900 -5.28600 28.36300
C  19.50200 -5.46400 26.97900
C  18.60900 -4.35000 26.68800
C  20.88900 -6.15900 29.08800
C  20.12800 -6.45200 25.91000
O  19.97500 -6.34700 24.69800
C  20.96900 -7.64100 26.34500
N  16.50000 -2.34900 25.81700
C  17.24400 -3.02400 24.99300
C  17.01500 -2.59400 23.51700
C  15.68800 -1.81400 23.70100
C  15.63200 -1.51800 25.14000
C  18.19300 -1.78300 22.99200
C  14.49200 -2.64600 23.12100
C  13.66700 -1.91400 21.99600
N  15.57100 -0.56700 27.98200
C  14.70900 -0.03600 27.02900
C  13.84100 0.94500 27.57400
C  14.29300 1.11500 28.85000
C  15.18200 0.06500 29.09800
C  12.75700 1.72100 26.95000
C  14.09400 1.82500 30.11700
O  13.27500 2.68900 30.44600
C  15.08200 1.13300 31.15600
C  16.06500 2.18100 31.78300
O  17.23500 2.30600 31.45200
O  15.44700 2.79000 32.83700
C  16.31400 3.75800 33.56600
H  19.79100 -4.01900 30.86200
H  18.57000 -4.52100 24.58900
H  13.92600 -0.16700 25.00600
H  17.71600 0.00500 32.66000
H  18.32200 -3.01400 32.73800
H  19.99600 -0.47700 32.85500
H  20.66900 -1.78100 31.77000
H  20.34800 -2.05100 33.43100
H  16.22900 -2.42500 33.25000
H  15.25000 -1.10300 32.97500
H  16.16700 -1.91400 35.41200
H  15.46100 -0.40900 34.97200
H  20.46500 -7.16000 29.16500
H  21.13400 -5.72800 30.05900
H  21.86600 -6.29600 28.62300
H  21.74400 -7.47300 27.09300
H  21.45100 -8.12900 25.49800
H  20.30500 -8.42400 26.71300
H  16.85700 -3.46500 22.88100
H  15.74900 -0.82700 23.24200
H  18.78400 -2.47800 22.39500
H  18.74800 -1.51100 23.88900
H  17.97000 -0.93900 22.33900
H  13.72500 -2.79500 23.88100
H  14.80600 -3.63000 22.77300
H  14.10700 -0.93800 21.79300
H  12.62600 -1.85300 22.31200
H  13.67300 -2.41200 21.02600
H  12.31200 1.25500 26.07200
H  13.21700 2.63600 26.57800
H  11.95300 1.84600 27.67600
H  14.38700 0.67600 31.86000
H  16.74300 4.36600 32.77000
H  17.04700 3.20000 34.14800
H  15.63200 4.32700 34.19700
Mg 35.84000 49.49600 24.82300
C  36.25400 47.65300 27.92400
C  34.37000 51.97000 26.67900
C  35.22700 51.02700 21.94000
C  37.22000 46.76600 23.07000
N  35.39800 49.73500 26.98500
C  35.57300 48.87200 28.03500
C  35.17500 49.51300 29.37200
C  34.46900 50.87700 28.91100
C  34.69600 50.81400 27.40000
C  32.96600 51.09300 29.28300
C  36.40200 49.58100 30.35500
C  36.06200 49.27400 31.81500
H  34.61000 49.01700 32.38600
N  35.16400 51.28100 24.42600
C  34.61500 52.20300 25.31500
C  34.13500 53.40300 24.58200
C  34.42300 53.19600 23.18900
C  34.94800 51.76800 23.11600
C  33.65300 54.65400 25.28300
C  34.18400 54.12300 21.89300
O  34.58300 53.84700 20.76800
C  33.43100 55.43500 22.03400
N  36.24600 48.98100 22.77100
C  35.85600 49.81400 21.73400
C  36.35400 49.32500 20.37300
C  37.27100 48.02100 20.80100
C  36.94900 47.90300 22.30000
C  35.23100 49.05900 19.30000
C  38.79100 48.17100 20.57700
C  39.61100 47.24000 19.76000
N  36.48700 47.52100 25.33400
C  37.03800 46.53400 24.47300
C  37.54100 45.42500 25.30600
C  37.18300 45.83700 26.61700
C  36.61400 47.08100 26.60000
C  38.14500 44.07800 24.90000
C  37.16100 45.37200 28.02100
O  37.50000 44.25000 28.45100
C  36.56800 46.53900 28.90300
C  35.44300 46.15800 29.83500
O  34.27100 46.14500 29.51800
O  35.93600 45.73700 31.00800
C  35.07200 45.09300 32.02700
H  33.93500 52.73000 27.33200
H  35.01300 51.51800 20.98900
H  37.71300 45.99200 22.47900
H  34.46600 48.77200 29.74100
H  35.02500 51.71300 29.33500
H  32.42500 50.67500 28.43400
H  32.74100 52.14100 29.48200
H  32.77600 50.47300 30.15900
H  36.75200 50.61300 30.38000
H  37.24900 48.98100 30.02300
H  36.64100 49.84600 32.54000
H  36.41700 48.24900 31.91600
H  33.87900 55.54900 24.70300
H  34.07600 54.71900 26.28600
H  32.56600 54.58700 25.31900
H  33.06600 55.66300 21.03200
H  34.03100 56.17400 22.56500
H  32.60500 55.31400 22.73500
H  36.97900 50.18100 20.12100
H  36.89500 47.19200 20.20200
H  35.78400 49.45600 18.44900
H  34.33000 49.62900 19.52700
H  35.00300 48.02300 19.05000
H  39.32000 48.44200 21.49000
H  38.93800 49.13700 20.09300
H  40.63300 47.31800 20.12900
H  39.54800 47.45400 18.69300
H  39.30300 46.19700 19.82600
H  38.02900 43.97500 23.82100
H  37.72700 43.21100 25.41100
H  39.21500 44.03600 25.10300
H  37.35400 46.74000 29.63100
H  35.68600 45.50500 32.82700
H  35.23200 44.04200 32.27100
H  34.04200 45.44700 32.07800

