158

Mg 0.63200 7.65800 26.68300
C  1.20700 9.62500 29.43000
C  0.67700 4.87100 28.69600
C  0.48600 5.68700 23.97400
C  0.89100 10.52300 24.62800
N  1.03800 7.34200 28.83500
C  1.06800 8.24200 29.81700
C  1.12600 7.54600 31.30200
C  1.21600 6.02500 30.94800
C  0.97200 6.08100 29.41300
C  2.56800 5.29400 31.33500
C  -0.07900 8.00800 32.16200
C  0.32600 8.62600 33.46500
H  -0.45600 8.05300 34.66500
N  0.39500 5.51100 26.37800
C  0.47900 4.55900 27.34100
C  0.07800 3.25700 26.71800
C  -0.04200 3.53400 25.31200
C  0.30400 4.96500 25.17700
C  -0.18800 2.05400 27.58700
C  -0.42800 2.55400 24.22100
O  -0.50500 2.96100 23.03700
C  -0.65300 1.17200 24.51300
N  0.88500 8.04700 24.54400
C  0.78500 7.02600 23.64200
C  0.97500 7.66900 22.22900
C  0.54800 9.16800 22.47900
C  0.77400 9.29400 23.97800
C  2.48200 7.51000 21.64400
C  -1.01000 9.40600 22.19400
C  -1.27200 10.26700 21.00600
N  1.06000 9.67500 26.90200
C  1.14700 10.79100 25.98400
C  1.30400 12.03200 26.72900
C  1.30300 11.62300 28.01100
C  1.18200 10.17200 28.08700
C  1.38700 13.42600 26.07700
C  1.46000 12.09700 29.39900
O  1.69600 13.19500 29.81500
C  1.38900 10.78900 30.38200
C  2.48700 10.78400 31.40000
O  3.63900 10.38300 31.20800
O  1.97300 11.46500 32.45000
C  2.89400 11.49600 33.59800
H  0.53600 4.07300 29.42800
H  0.29300 5.11300 23.06600
H  0.83000 11.36700 23.93800
H  2.01900 7.98100 31.75100
H  0.52500 5.51700 31.62100
H  3.05700 5.09900 30.38100
H  2.37600 4.39500 31.92000
H  3.27000 5.96200 31.83400
H  -0.74200 7.14900 32.26600
H  -0.72000 8.72700 31.65200
H  -0.06400 9.64300 33.48700
H  1.38800 8.72000 33.68800
H  -1.12200 1.84900 27.06300
H  -0.38500 2.27500 28.63500
H  0.48200 1.20400 27.45800
H  -0.69900 0.63900 23.56300
H  -1.57900 1.09600 25.08100
H  0.20900 0.79700 25.06500
H  0.26800 7.15500 21.57900
H  1.20700 9.85400 21.94900
H  3.05000 7.47500 22.57400
H  2.63200 8.29600 20.90400
H  2.74200 6.49100 21.35800
H  -1.51400 9.71200 23.11000
H  -1.35100 8.42200 21.87100
H  -0.90200 11.23800 21.33500
H  -2.36000 10.32400 20.98700
H  -0.87200 9.91300 20.05600
H  1.16700 14.10000 26.90500
H  0.68000 13.54600 25.25600
H  2.41800 13.56300 25.75300
H  0.50700 10.85100 31.02000
H  2.29800 11.32500 34.49400
H  3.26300 12.51500 33.71200
H  3.66000 10.72100 33.59500
Mg 40.98200 9.99400 29.51600
C  42.70700 11.13300 32.45100
C  38.96100 8.09800 31.61100
C  39.43500 8.77600 26.79900
C  43.60800 11.14800 27.68800
N  40.80700 9.78500 31.84700
C  41.59600 10.36000 32.83200
C  40.99900 10.06200 34.20300
C  39.99500 8.89200 33.83800
C  39.96100 8.79400 32.31300
C  40.12200 7.59400 34.63400
C  40.45200 11.33200 34.86700
C  39.93900 11.15000 36.36100
H  40.49500 12.09200 37.45100
N  39.30600 8.75200 29.27500
C  38.65800 8.06900 30.26100
C  37.59100 7.28900 29.60800
C  37.63500 7.56100 28.19100
C  38.81300 8.36300 28.02400
C  36.75200 6.27400 30.36300
C  36.79300 7.03600 27.13200
O  36.93100 7.24400 25.95900
C  35.52800 6.28300 27.49500
N  41.38000 10.09900 27.54600
C  40.67700 9.45100 26.58900
C  41.38700 9.45200 25.18900
C  42.65800 10.28400 25.50300
C  42.57400 10.53700 27.02700
C  41.61600 8.11800 24.52000
C  42.79700 11.45500 24.55900
C  42.16900 12.81500 24.89900
N  42.79200 10.99300 29.92500
C  43.67600 11.48100 29.06000
C  44.74700 12.02900 29.77600
C  44.38400 12.00800 31.19200
C  43.18200 11.32700 31.13600
C  46.08500 12.35800 29.15100
C  44.83500 12.32800 32.52600
O  45.76300 12.95300 33.00100
C  43.69100 11.77400 33.42500
C  44.30000 10.88800 34.47200
O  44.97100 9.88600 34.17700
O  44.00400 11.31500 35.73900
C  44.76900 10.62000 36.81000
H  38.43700 7.56600 32.40800
H  39.17900 8.36100 25.82200
H  44.36000 11.57300 27.02000
H  41.91100 9.70100 34.67800
H  39.01400 9.13600 34.24400
H  40.20100 6.79300 33.89800
H  39.21200 7.53400 35.23100
H  40.96300 7.45600 35.31300
H  39.88600 11.97500 34.19400
H  41.28500 11.97500 35.15300
H  40.34900 10.16100 36.56400
H  38.85100 11.11300 36.29600
H  36.75600 5.38400 29.73300
H  35.73400 6.63500 30.51000
H  37.34900 6.14800 31.26700
H  34.78900 6.85400 28.05900
H  35.83000 5.34800 27.96700
H  34.96600 6.02300 26.59800
H  40.74500 10.03400 24.52800
H  43.53200 9.66000 25.31700
H  41.34500 7.32700 25.21900
H  42.65800 7.99300 24.22500
H  40.88800 8.07200 23.71000
H  42.51400 11.18600 23.54100
H  43.85100 11.73000 24.51700
H  41.47100 13.13800 24.12700
H  43.00500 13.51000 24.96900
H  41.64400 12.95100 25.84500
H  46.70200 12.60400 30.01500
H  46.11400 13.20500 28.46500
H  46.26600 11.44800 28.57900
H  43.30400 12.65800 33.93300
H  44.70300 11.20200 37.72900
H  45.81800 10.40700 36.60400
H  44.38900 9.60900 36.95500

