158

Mg 36.12700 48.77500 24.06100
C  36.57400 47.04700 27.24200
C  34.86800 51.36800 25.97900
C  35.83700 50.35800 21.28700
C  37.43900 46.03800 22.49000
N  35.63600 49.04800 26.33800
C  36.03500 48.34600 27.45300
C  35.62000 49.01000 28.79900
C  34.99000 50.34500 28.27100
C  35.11100 50.25500 26.75900
C  33.54500 50.70600 28.75700
C  36.85900 49.11900 29.71800
C  36.86700 48.42000 31.13200
H  35.52000 48.43400 31.99000
N  35.53200 50.61200 23.68200
C  34.98600 51.54100 24.64800
C  34.55800 52.72200 23.89800
C  34.77600 52.45700 22.49900
C  35.36100 51.09300 22.43700
C  33.94900 53.89000 24.54000
C  34.38600 53.19500 21.23000
O  34.49000 52.73100 20.08600
C  33.67400 54.48900 21.34000
N  36.41100 48.17600 22.12100
C  36.34800 49.06600 21.13700
C  36.63700 48.44200 19.73100
C  37.36400 47.20700 20.18800
C  37.06300 47.11900 21.66800
C  35.39500 48.10200 18.90500
C  38.89300 47.15600 19.81400
C  39.79300 47.96300 20.76200
N  36.82000 46.85600 24.67000
C  37.29300 45.87000 23.88800
C  37.64000 44.73800 24.70200
C  37.36400 45.10900 26.01400
C  36.79500 46.41300 25.96700
C  38.30000 43.42600 24.29500
C  37.55400 44.71800 27.40100
O  38.07300 43.75300 27.98000
C  36.91800 45.94400 28.18000
C  35.73400 45.46800 29.03000
O  34.56100 45.62300 28.72900
O  36.17800 44.95200 30.20300
C  35.11600 44.47200 31.16400
H  34.43800 52.21800 26.51300
H  35.92500 50.87900 20.33200
H  37.77900 45.13000 21.98900
H  34.82500 48.43000 29.26800
H  35.64200 51.14200 28.62900
H  33.06800 49.78200 29.08500
H  32.88500 50.99800 27.94000
H  33.43900 51.44200 29.55300
H  37.08500 50.17000 29.90100
H  37.74300 48.66700 29.26900
H  37.62500 48.96500 31.69300
H  37.26100 47.40500 31.07000
H  32.87400 53.87800 24.71500
H  34.14400 54.84200 24.04800
H  34.30800 53.94800 25.56800
H  33.19600 54.78300 20.40600
H  34.34600 55.20400 21.81600
H  32.89600 54.23300 22.05900
H  37.26900 49.04700 19.08000
H  36.84300 46.32800 19.80700
H  35.26800 48.82500 18.09900
H  34.55200 47.97300 19.58300
H  35.48600 47.16800 18.35100
H  39.09500 47.58100 18.83100
H  39.21800 46.12300 19.94200
H  40.58100 48.47200 20.20700
H  40.18000 47.47600 21.65600
H  39.22900 48.76400 21.23900
H  38.48700 43.32300 23.22600
H  37.70700 42.65500 24.78800
H  39.27100 43.34200 24.78200
H  37.63500 46.24200 28.94500
H  34.98000 43.39200 31.21300
H  34.10500 44.87300 31.08400
H  35.47400 44.79100 32.14300
Mg -12.17200 16.99200 42.19500
C  -8.99500 15.71400 41.61800
C  -10.88800 20.16600 41.15500
C  -15.23800 18.06000 41.62800
C  -13.36900 13.78700 42.63900
N  -10.13200 17.86300 41.46200
C  -8.99700 17.07900 41.35200
C  -7.82700 18.00400 41.01100
C  -8.40600 19.49800 41.10100
C  -9.84600 19.20800 41.31900
C  -7.90700 20.52400 42.16900
C  -7.26200 17.64900 39.53200
C  -5.74000 17.36400 39.45100
H  -5.27700 16.09600 38.68500
N  -12.94300 18.86800 41.63100
C  -12.31900 19.99900 41.24700
C  -13.25600 21.02100 40.76200
C  -14.49100 20.43800 41.10200
C  -14.28800 19.06100 41.45300
C  -12.81100 22.36200 40.18200
C  -15.77800 21.33900 41.10500
O  -15.64400 22.51700 40.77000
C  -17.12800 20.82500 41.39400
N  -14.02100 15.99700 42.01900
C  -15.14000 16.67400 41.88100
C  -16.40200 15.88400 42.29800
C  -15.83600 14.55300 42.79400
C  -14.31600 14.74600 42.53100
C  -17.39600 16.57700 43.30600
C  -16.30700 13.26600 42.13600
C  -17.54000 12.52100 42.79900
N  -11.33200 15.11800 42.37500
C  -12.00800 13.89100 42.51800
C  -10.99600 12.83600 42.50800
C  -9.79500 13.53300 42.18600
C  -10.12400 14.91800 41.98500
C  -11.22200 11.44900 42.77700
C  -8.41000 13.24100 42.04600
O  -7.71900 12.25500 42.23900
C  -7.80500 14.73400 41.70100
C  -6.88500 15.07000 42.78500
O  -7.22300 15.56400 43.86700
O  -5.60600 14.62700 42.46000
C  -4.58300 15.03700 43.38700
H  -10.47400 21.16400 40.99400
H  -16.25900 18.43900 41.55800
H  -13.68800 12.78000 42.91800
H  -6.97700 17.94200 41.69000
H  -8.36400 20.02200 40.14600
H  -8.41800 20.55200 43.13200
H  -8.06100 21.45800 41.62800
H  -6.82400 20.42500 42.25300
H  -7.45200 18.39600 38.76100
H  -7.77700 16.75200 39.18700
H  -5.38700 17.26100 40.47600
H  -5.27000 18.25900 39.04200
H  -11.83100 22.33200 39.70600
H  -12.79500 23.09000 40.99300
H  -13.51100 22.73800 39.43600
H  -17.42000 20.23900 40.52300
H  -17.76200 21.71100 41.36800
H  -17.21800 20.08800 42.19200
H  -16.99600 15.73500 41.39700
H  -15.93500 14.48200 43.87700
H  -18.45400 16.55200 43.04500
H  -17.07500 17.61400 43.40000
H  -17.37600 16.07000 44.27000
H  -15.47500 12.57400 42.00300
H  -16.63500 13.47700 41.11800
H  -18.29900 12.55100 42.01700
H  -17.74600 13.06000 43.72400
H  -17.23800 11.49600 43.01200
H  -11.60400 10.93300 41.89700
H  -12.06100 11.14200 43.40200
H  -10.34700 11.00200 43.25000
H  -7.29900 14.73100 40.73500
H  -3.67600 15.12200 42.79000
H  -4.53000 14.30200 44.19100
H  -4.84100 16.02500 43.76800

