158

Mg -2.17300 17.59600 26.89900
C  -2.68600 15.10100 29.61900
C  -2.75700 19.92600 29.30200
C  -1.97100 19.79800 24.46100
C  -2.71600 14.93700 24.64900
N  -2.75700 17.49300 29.13600
C  -2.71300 16.38900 30.05700
C  -2.75100 16.81400 31.57600
C  -2.89700 18.29900 31.38000
C  -2.73700 18.60200 29.85900
C  -4.15100 18.92800 31.98000
C  -1.54300 16.34900 32.50200
C  -1.29600 17.06000 33.90900
H  -0.77300 16.15700 35.07300
N  -2.15500 19.60200 26.92600
C  -2.55400 20.41500 27.97500
C  -2.39600 21.73200 27.58500
C  -2.04500 21.74700 26.20500
C  -2.01800 20.35300 25.76800
C  -2.66300 22.93900 28.49600
C  -1.91200 22.93200 25.16000
O  -1.76500 22.73300 23.97900
C  -2.04700 24.36100 25.65800
N  -2.34900 17.39400 24.82100
C  -2.25400 18.48100 24.04700
C  -2.44800 18.10300 22.60500
C  -2.56700 16.57100 22.64600
C  -2.50000 16.24400 24.14700
C  -3.60500 18.80100 21.87900
C  -1.60100 15.75800 21.68200
C  -0.34400 14.98700 22.10600
N  -2.51500 15.51200 27.05100
C  -2.74600 14.60100 26.09200
C  -2.92700 13.22900 26.65900
C  -2.83600 13.44600 28.06500
C  -2.65200 14.80400 28.25800
C  -3.11500 11.91600 25.97900
C  -2.90800 12.71000 29.33500
O  -3.11300 11.50200 29.57900
C  -2.85100 13.82400 30.44700
C  -1.54100 13.48700 31.08800
O  -0.47900 13.99400 30.82900
O  -1.74400 12.54400 31.98500
C  -0.63800 12.36900 32.94500
H  -2.83800 20.69200 30.07600
H  -1.92700 20.47800 23.60700
H  -2.74500 14.07600 23.97800
H  -3.62100 16.28200 31.96100
H  -2.02800 18.83800 31.75800
H  -4.74100 19.46400 31.23600
H  -3.93900 19.38000 32.94900
H  -4.80100 18.08100 32.20100
H  -0.63800 16.36100 31.89400
H  -1.74200 15.36600 32.92900
H  -2.20000 17.64100 34.08800
H  -0.45500 17.70500 33.65700
H  -1.86000 23.66100 28.34700
H  -2.70100 22.66400 29.55000
H  -3.60300 23.41300 28.21400
H  -2.92100 24.37500 26.30800
H  -2.23500 25.15200 24.93300
H  -1.19500 24.65600 26.26900
H  -1.52500 18.36100 22.08500
H  -3.55800 16.25600 22.32000
H  -4.27300 19.22800 22.62700
H  -4.25100 18.19700 21.24100
H  -3.24800 19.65100 21.29800
H  -1.26100 16.43100 20.89500
H  -2.23400 14.94800 21.32100
H  -0.48000 13.95900 21.77100
H  -0.24500 15.03100 23.19100
H  0.59800 15.37900 21.72400
H  -3.69300 11.28100 26.64900
H  -2.18500 11.38500 25.77600
H  -3.77600 12.19000 25.15700
H  -3.63300 13.66500 31.18900
H  -0.01000 13.25700 32.88900
H  -0.01700 11.47500 32.88000
H  -1.12900 12.33600 33.91800
Mg -11.21700 38.42900 41.10300
C  -10.12600 35.18200 40.74900
C  -8.41800 39.55100 39.54200
C  -12.77500 41.42800 40.64900
C  -14.43900 36.94800 41.93500
N  -9.52300 37.45800 40.19800
C  -9.20000 36.14400 40.29200
C  -7.91400 35.88700 39.44300
C  -7.20800 37.27900 39.48600
C  -8.42800 38.14600 39.74800
C  -6.08500 37.54000 40.56100
C  -8.14200 35.30700 37.97000
C  -6.95000 34.74100 37.17000
H  -6.52300 35.48600 35.88200
N  -10.63000 40.34000 40.36200
C  -9.36100 40.59800 39.82300
C  -9.21800 41.99600 39.65700
C  -10.50600 42.60700 39.94800
C  -11.39100 41.49900 40.34500
C  -7.90200 42.63900 39.21600
C  -10.81800 44.10400 39.87100
O  -9.95000 44.81400 39.34000
C  -12.11900 44.64800 40.36800
N  -13.32800 39.07300 41.07800
C  -13.61800 40.34800 40.93800
C  -15.13000 40.62700 41.35700
C  -15.69000 39.17400 41.60400
C  -14.40600 38.31800 41.51300
C  -15.29900 41.51700 42.68100
C  -16.88700 38.65600 40.70200
C  -18.23200 39.49700 40.70500
N  -12.10100 36.54200 41.65000
C  -13.36800 36.11400 42.02000
C  -13.35400 34.69600 42.22300
C  -12.11300 34.30300 41.73000
C  -11.37000 35.40500 41.36100
C  -14.50300 33.87900 42.77000
C  -11.28300 33.11200 41.52400
O  -11.48000 31.91100 41.69100
C  -9.96800 33.64600 40.88800
C  -8.72300 33.21900 41.51600
O  -7.70100 32.92300 40.99300
O  -8.93800 33.23600 42.89600
C  -7.66300 32.99900 43.57500
H  -7.45600 39.88400 39.14600
H  -13.15100 42.45300 40.66000
H  -15.41600 36.49300 42.11100
H  -7.32700 35.10800 39.93000
H  -6.82000 37.58500 38.51500
H  -6.20800 36.84800 41.39400
H  -6.14100 38.53600 41.00100
H  -5.12700 37.37700 40.06700
H  -8.72500 36.01200 37.37900
H  -8.87700 34.52800 38.17700
H  -7.17800 33.77000 36.72900
H  -6.10900 34.58700 37.84700
H  -8.00700 43.06400 38.21700
H  -7.10500 41.90000 39.30300
H  -7.54600 43.51600 39.75600
H  -12.94400 44.35100 39.72000
H  -12.04800 45.73600 40.37900
H  -12.11800 44.33800 41.41300
H  -15.66500 41.08000 40.52200
H  -16.03700 39.19900 42.63600
H  -14.80900 41.00700 43.51200
H  -16.37700 41.62800 42.79000
H  -14.75300 42.43400 42.45900
H  -17.09000 37.60600 40.91600
H  -16.45600 38.64100 39.70200
H  -18.96700 38.98200 41.32400
H  -18.62800 39.60900 39.69600
H  -18.14600 40.50700 41.10400
H  -14.74200 34.16900 43.79300
H  -14.23700 32.82200 42.80100
H  -15.43500 33.88400 42.20400
H  -9.98200 33.22200 39.88500
H  -7.85900 32.67600 44.59700
H  -7.14800 33.96000 43.59000
H  -7.10400 32.16600 43.14800

