158

Mg -0.48900 7.68200 26.21600
C  0.78500 9.61600 28.97900
C  -0.53300 4.96400 28.35300
C  -1.06600 5.78700 23.60600
C  0.19400 10.39300 24.15600
N  0.08000 7.36400 28.48100
C  0.46700 8.28800 29.41600
C  0.64700 7.64900 30.77000
C  0.35800 6.05500 30.55400
C  -0.00100 6.10300 29.01000
C  1.52900 5.10400 30.87000
C  -0.06300 8.25700 31.94600
C  0.64800 8.13400 33.33400
H  1.88600 7.22100 33.57500
N  -0.88700 5.64700 25.96400
C  -0.94500 4.72100 26.96000
C  -1.41900 3.43300 26.34900
C  -1.38100 3.56000 24.93400
C  -1.13100 5.00600 24.72800
C  -1.64200 2.20700 27.25100
C  -1.64100 2.65800 23.72600
O  -1.68500 3.10900 22.57200
C  -1.79100 1.16200 23.87700
N  -0.25900 7.98800 24.12200
C  -0.67400 7.09000 23.27200
C  -0.82800 7.61100 21.85300
C  -0.62600 9.16800 22.08200
C  -0.23500 9.17100 23.55800
C  0.16500 6.98700 20.84900
C  -1.82300 10.07400 21.77100
C  -2.86800 10.34900 23.00200
N  0.28900 9.61800 26.49400
C  0.53100 10.56900 25.52600
C  1.05100 11.77700 26.11100
C  1.11400 11.44500 27.48000
C  0.69900 10.10300 27.65100
C  1.36800 13.11500 25.38400
C  1.57100 11.96500 28.74900
O  2.03500 12.98800 29.01900
C  1.33300 10.77800 29.76900
C  2.54900 10.49700 30.70500
O  3.43100 9.68000 30.56700
O  2.43700 11.35700 31.82300
C  3.28500 11.07300 32.96600
H  -0.62400 4.15200 29.07700
H  -1.41000 5.22400 22.73700
H  0.36500 11.30100 23.57400
H  1.70500 7.60400 31.02700
H  -0.49100 5.73400 31.15700
H  1.19700 4.59700 31.77600
H  2.50600 5.57100 30.99400
H  1.52100 4.20300 30.25800
H  -1.04000 7.85500 32.21600
H  -0.10500 9.30700 31.65700
H  -0.15000 7.81700 34.00400
H  0.80300 9.15400 33.68400
H  -0.72900 1.63500 27.41600
H  -2.50700 1.57900 27.04200
H  -1.87900 2.54300 28.26100
H  -2.52600 0.91100 24.64100
H  -0.81400 0.79100 24.18700
H  -2.21200 0.87500 22.91300
H  -1.86900 7.44500 21.57500
H  0.30600 9.38600 21.56100
H  1.15000 7.12800 21.29400
H  0.11400 7.65600 19.99000
H  -0.13600 6.03000 20.42300
H  -2.41600 9.56400 21.01200
H  -1.54700 11.06200 21.40300
H  -2.86900 11.39300 23.31600
H  -2.48200 9.80100 23.86200
H  -3.85700 9.93400 22.81300
H  0.61800 13.27900 24.61000
H  2.29100 12.86400 24.86100
H  1.61200 13.95500 26.03400
H  0.59200 11.15500 30.47500
H  2.91000 10.09100 33.25400
H  3.08500 11.83900 33.71600
H  4.30200 10.99700 32.58200
Mg 49.54600 46.36000 43.08300
C  46.40600 47.02900 41.57500
C  49.49900 43.30200 41.26200
C  52.75700 46.06400 43.70200
C  49.51900 49.70500 44.26600
N  48.18000 45.37000 41.44700
C  46.91200 45.81200 41.07200
C  46.26900 44.86300 40.07400
C  47.14300 43.54300 40.27000
C  48.38500 44.09800 41.06000
C  46.48700 42.40100 40.99000
C  46.36600 45.47700 38.62800
C  45.22100 44.90300 37.70100
H  45.69300 44.34900 36.32400
N  50.99500 44.87300 42.64600
C  50.70600 43.65800 41.97600
C  51.96600 42.91500 41.97100
C  52.96900 43.64500 42.63300
C  52.27700 44.92500 43.01400
C  52.16200 41.62300 41.31500
C  54.48300 43.27300 42.86400
O  54.95800 42.18700 42.55100
C  55.37000 44.21400 43.55200
N  50.94100 47.76700 43.62300
C  52.15600 47.31500 43.92300
C  53.05700 48.50400 44.49300
C  52.02400 49.65000 44.78000
C  50.76100 49.01900 44.22300
C  53.95800 48.14400 45.73000
C  52.40300 51.08800 44.09300
C  52.11900 52.35400 44.99500
N  48.16900 47.97500 43.19400
C  48.31000 49.23300 43.72800
C  46.95600 49.82400 43.66000
C  46.20300 49.01800 42.87700
C  46.96500 47.90400 42.53100
C  46.48700 51.18200 44.08500
C  44.87200 48.92200 42.25600
O  43.91700 49.70300 42.27300
C  44.96000 47.58300 41.32700
C  43.96400 46.72300 41.92600
O  44.17600 45.93200 42.86400
O  42.77700 46.96200 41.38000
C  41.67900 46.04000 41.73200
H  49.57200 42.29600 40.84300
H  53.80500 46.06200 44.01200
H  49.48300 50.64200 44.82600
H  45.24000 44.67500 40.38100
H  47.41500 43.18900 39.27500
H  46.06400 41.60000 40.38400
H  45.79300 42.73100 41.76300
H  47.10800 41.94200 41.76000
H  47.29500 45.32500 38.07800
H  46.19000 46.55300 38.61700
H  44.42600 45.63200 37.54900
H  44.89800 43.93600 38.08700
H  52.71000 40.94400 41.96700
H  52.76900 41.93600 40.46500
H  51.38500 41.07400 40.78300
H  55.02200 44.28800 44.58200
H  55.44100 45.21300 43.12200
H  56.39700 43.85900 43.63800
H  53.69200 49.04200 43.78900
H  51.89900 49.73400 45.85900
H  53.93300 47.08600 45.99200
H  53.67000 48.72500 46.60600
H  54.96900 48.45100 45.46300
H  51.74300 51.24300 43.24000
H  53.41900 51.17900 43.70900
H  53.10400 52.61700 45.38100
H  51.57000 52.01700 45.87500
H  51.58800 53.14500 44.46700
H  45.64200 51.43700 43.44600
H  47.27300 51.93700 44.04600
H  46.05600 51.00500 45.07100
H  44.83900 47.86200 40.28000
H  40.74100 46.36000 41.27900
H  41.45800 46.18700 42.78900
H  41.87000 44.99800 41.47800

