158

Mg -1.44400 17.14300 26.19500
C  -1.55300 14.91700 28.95500
C  -1.91100 19.64200 28.50200
C  -1.61200 19.15900 23.64900
C  -1.48600 14.27900 24.11000
N  -1.63700 17.19700 28.40400
C  -1.50900 16.22200 29.38400
C  -1.79500 16.83300 30.79100
C  -2.41600 18.27000 30.46200
C  -2.00800 18.38400 29.02700
C  -3.93200 18.28300 30.62100
C  -0.63100 16.87700 31.83300
C  -1.12400 16.37900 33.29900
H  -0.05600 16.06800 34.47200
N  -1.62100 19.21300 26.03600
C  -1.73000 20.06900 27.09800
C  -1.68700 21.40200 26.61600
C  -1.61300 21.31200 25.22400
C  -1.64700 19.88300 24.90200
C  -1.69700 22.58600 27.56900
C  -1.43500 22.41900 24.13000
O  -1.30700 22.24200 22.89100
C  -1.26900 23.79400 24.69500
N  -1.40000 16.77000 24.21700
C  -1.60200 17.75800 23.29700
C  -1.69100 17.25600 21.93000
C  -1.38400 15.72000 22.05200
C  -1.34900 15.53100 23.55100
C  -3.09600 17.60200 21.18100
C  0.00900 15.20400 21.41700
C  -0.14800 14.83100 19.95900
N  -1.52100 15.07200 26.43500
C  -1.65900 14.01000 25.48500
C  -1.74600 12.71300 26.13100
C  -1.72900 12.98700 27.52900
C  -1.52100 14.43900 27.67700
C  -1.94800 11.39200 25.52200
C  -1.81600 12.37900 28.88300
O  -1.90700 11.18400 29.22600
C  -1.82900 13.63800 29.87900
C  -0.90000 13.47000 30.95900
O  0.34100 13.57700 30.98000
O  -1.56100 13.04200 32.00500
C  -0.76600 12.38900 33.06700
H  -2.00200 20.31200 29.35900
H  -1.77700 19.74300 22.74100
H  -1.62000 13.41300 23.45800
H  -2.62600 16.22700 31.15400
H  -2.05300 19.03300 31.15100
H  -4.32000 17.31600 30.94100
H  -4.44400 18.59000 29.70900
H  -4.25300 18.94000 31.43000
H  -0.35800 17.92500 31.95600
H  0.29600 16.41300 31.49600
H  -1.53100 15.39400 33.07000
H  -1.89300 17.05900 33.66300
H  -2.02100 22.40900 28.59400
H  -2.30500 23.41800 27.21300
H  -0.64000 22.85100 27.61400
H  -0.54700 23.87600 25.50700
H  -2.24300 24.07400 25.09700
H  -0.97300 24.51200 23.93000
H  -0.96800 17.71900 21.25900
H  -2.25400 15.14800 21.72900
H  -2.84600 18.00500 20.19900
H  -3.68400 18.35300 21.70900
H  -3.68500 16.69700 21.03100
H  0.39600 14.39300 22.03500
H  0.77900 15.97500 21.43900
H  0.49400 15.47100 19.35300
H  -1.14500 14.80700 19.51700
H  0.44800 13.92700 19.83800
H  -0.98700 10.98200 25.21000
H  -2.48600 11.54000 24.58600
H  -2.57300 10.85800 26.23800
H  -2.79200 13.79400 30.36600
H  -1.54200 11.97800 33.71300
H  -0.24300 13.14400 33.65300
H  -0.02200 11.70200 32.66400
Mg -1.90500 34.21000 25.90500
C  -2.92500 32.42800 28.78300
C  -0.29600 36.43200 27.79400
C  -1.58200 36.13000 23.21400
C  -3.36700 31.72100 24.05400
N  -1.87100 34.43700 28.11100
C  -2.24300 33.60500 29.09800
C  -1.69700 34.04600 30.45000
C  -1.01400 35.42600 30.04400
C  -1.01400 35.46500 28.51200
C  -1.56300 36.74800 30.75000
C  -0.67400 32.90200 30.89900
C  -1.10600 32.31800 32.31600
H  -0.00300 32.24700 33.37100
N  -1.08300 36.09300 25.58700
C  -0.38000 36.78000 26.48100
C  0.38100 37.79700 25.75600
C  -0.06700 37.85100 24.48000
C  -1.00800 36.68000 24.37500
C  1.35500 38.64900 26.50600
C  0.33000 38.79900 23.35100
O  -0.06600 38.72100 22.21000
C  0.97700 40.16200 23.67800
N  -2.27400 33.86700 23.87100
C  -2.19900 34.86000 23.00500
C  -2.60400 34.32200 21.57900
C  -2.85100 32.77600 21.85700
C  -2.83000 32.78500 23.37100
C  -3.64000 35.00000 20.79300
C  -1.76100 31.80100 21.30500
C  -0.30500 31.99100 21.80100
N  -3.04200 32.50600 26.30000
C  -3.50800 31.54100 25.44900
C  -4.27800 30.55000 26.16600
C  -4.12200 30.80100 27.51500
C  -3.27100 31.99000 27.49800
C  -4.99300 29.40100 25.53200
C  -4.42300 30.40900 28.88000
O  -5.09800 29.50600 29.37200
C  -3.52200 31.34500 29.72200
C  -4.43600 31.99200 30.73600
O  -5.10200 32.98900 30.55900
O  -4.39300 31.27000 31.93200
C  -4.88100 31.84200 33.20200
H  0.31700 37.00800 28.49000
H  -1.38300 36.76000 22.34500
H  -3.77300 31.01000 23.33200
H  -2.42600 34.26500 31.23000
H  0.05500 35.42000 30.25400
H  -2.08500 36.39700 31.64000
H  -2.28800 37.18200 30.06200
H  -0.81200 37.50000 30.99600
H  0.28100 33.41200 31.02100
H  -0.51200 32.07200 30.21200
H  -1.47800 31.30800 32.14300
H  -1.83600 32.98900 32.76800
H  0.90600 39.64000 26.57500
H  2.34200 38.73400 26.05200
H  1.41100 38.35400 27.55400
H  2.04700 40.00900 23.82000
H  0.54300 40.69400 24.52500
H  0.72000 40.80900 22.84000
H  -1.65100 34.37900 21.05400
H  -3.82700 32.42400 21.52300
H  -4.08300 35.87800 21.26200
H  -4.38200 34.26600 20.48000
H  -3.19000 35.32700 19.85600
H  -1.88600 31.77500 20.22200
H  -2.03100 30.76200 21.49400
H  -0.09900 32.98100 22.20800
H  0.30000 31.87700 20.90100
H  0.02000 31.30300 22.58100
H  -4.47800 29.17500 24.59900
H  -6.02500 29.70400 25.35600
H  -4.97000 28.53000 26.18700
H  -2.86900 30.72500 30.33600
H  -4.08600 32.02100 33.92500
H  -5.65400 31.24400 33.68600
H  -5.34000 32.82400 33.08800

