158

Mg -0.55400 6.98800 26.95400
C  0.09100 9.11700 29.63500
C  -1.06400 4.44700 29.19500
C  -1.31700 5.08300 24.29800
C  -0.21300 9.74400 24.78400
N  -0.48700 6.76500 29.24500
C  -0.18000 7.83000 30.11100
C  -0.11300 7.27400 31.52100
C  -0.27000 5.70400 31.37300
C  -0.67600 5.63300 29.88300
C  1.14000 4.97700 31.55500
C  -1.19300 7.90400 32.46700
C  -0.90500 7.82000 33.99000
H  0.40600 7.08700 34.50000
N  -1.07100 5.07500 26.76300
C  -1.24700 4.17300 27.77600
C  -1.67700 2.93200 27.17800
C  -1.68000 3.04000 25.78100
C  -1.36500 4.39700 25.53900
C  -2.14700 1.76400 28.08200
C  -2.01500 2.03300 24.69900
O  -2.13700 2.33700 23.51300
C  -2.44200 0.58400 25.09500
N  -0.89300 7.40400 24.81000
C  -1.13800 6.41400 23.96700
C  -1.20500 7.00300 22.52100
C  -1.39400 8.58400 22.75600
C  -0.74100 8.59000 24.17900
C  0.07800 6.71300 21.67600
C  -2.86300 9.15700 22.73000
C  -2.93800 10.34800 21.82200
N  0.00200 8.90300 27.13900
C  0.21700 9.87600 26.17100
C  0.56300 11.15100 26.78600
C  0.58400 10.88200 28.15500
C  0.24500 9.49900 28.28600
C  0.67000 12.56300 26.16100
C  0.76400 11.47800 29.38700
O  1.03300 12.61600 29.65100
C  0.32100 10.35600 30.43600
C  1.48900 10.20400 31.33600
O  2.53100 9.65300 31.11000
O  1.11500 10.74100 32.56300
C  2.15200 10.81100 33.60300
H  -0.95900 3.53200 29.78100
H  -1.26900 4.46600 23.39900
H  -0.20200 10.62100 24.13200
H  0.89100 7.56000 31.83500
H  -0.93800 5.19900 32.07000
H  1.86500 5.73400 31.25400
H  1.13200 4.26400 30.73100
H  1.29000 4.38000 32.45400
H  -2.16000 7.42800 32.30800
H  -1.33800 8.94400 32.17400
H  -1.76700 7.33700 34.45100
H  -0.89500 8.85600 34.32600
H  -1.36200 1.04200 28.30900
H  -2.92000 1.15800 27.60900
H  -2.56800 2.10800 29.02700
H  -1.66300 0.05400 25.64300
H  -2.59800 -0.00900 24.19400
H  -3.41600 0.65400 25.57900
H  -2.11400 6.71200 21.99400
H  -0.76900 9.26000 22.17200
H  0.59100 7.67300 21.74100
H  -0.28300 6.46300 20.67800
H  0.64600 5.88400 22.09900
H  -2.90200 9.64300 23.70500
H  -3.59900 8.35600 22.65500
H  -2.16800 10.43900 21.05600
H  -3.02400 11.23200 22.45400
H  -3.86000 10.19600 21.26100
H  0.27500 13.22900 26.92800
H  0.09000 12.60700 25.24000
H  1.72700 12.76200 25.98300
H  -0.54800 10.68100 31.00800
H  2.74200 11.69300 33.35500
H  2.68400 9.87200 33.75600
H  1.53400 11.06200 34.46500
Mg -12.76400 38.97000 42.37400
C  -10.83500 35.99300 41.57600
C  -10.68900 40.70800 40.18500
C  -14.69800 41.59000 42.77400
C  -15.16000 36.80500 43.72400
N  -10.92000 38.39700 41.07400
C  -10.25600 37.18800 41.03600
C  -8.96000 37.36800 40.26300
C  -8.95900 38.92400 39.90700
C  -10.31000 39.34800 40.35800
C  -7.75200 39.75800 40.46100
C  -8.83100 36.41100 38.99500
C  -7.57400 35.52700 39.00000
H  -6.65500 35.56300 37.65800
N  -12.66100 40.94400 41.65000
C  -11.74300 41.46600 40.76300
C  -12.13500 42.85000 40.34200
C  -13.34400 43.14100 41.14400
C  -13.63300 41.89700 41.89500
C  -11.73200 43.71200 39.16700
C  -14.12900 44.42100 41.05200
O  -13.75600 45.45700 40.50300
C  -15.42100 44.62300 41.76200
N  -14.64300 39.21800 43.16200
C  -15.21500 40.43800 43.30800
C  -16.63100 40.30600 43.92200
C  -16.78400 38.77800 44.18300
C  -15.48600 38.20000 43.57800
C  -16.86400 41.19200 45.19100
C  -18.10600 38.15600 43.81200
C  -18.78900 37.07100 44.68800
N  -12.87800 36.78500 42.75800
C  -13.95800 36.09700 43.35500
C  -13.70300 34.74500 43.36500
C  -12.46800 34.63800 42.78200
C  -11.97200 35.95700 42.38500
C  -14.65100 33.67500 43.81000
C  -11.47400 33.64700 42.30900
O  -11.40200 32.46400 42.43500
C  -10.40000 34.46100 41.44800
C  -9.05400 34.28600 42.06300
O  -8.26500 33.43600 41.70200
O  -8.73400 35.25000 42.94100
C  -7.42300 35.13700 43.60000
H  -10.03500 41.40400 39.65600
H  -15.49900 42.30200 42.98600
H  -15.86300 36.02200 44.01500
H  -8.15000 37.17800 40.96700
H  -8.85100 39.05300 38.83000
H  -7.00200 39.68000 39.67400
H  -7.31400 39.23600 41.31200
H  -8.01300 40.79600 40.66800
H  -8.80600 36.96300 38.05600
H  -9.69600 35.75300 38.91900
H  -7.93600 34.50300 39.09200
H  -6.99400 35.66700 39.91200
H  -12.58300 43.65400 38.48700
H  -10.78300 43.39600 38.73400
H  -11.50600 44.75500 39.39100
H  -16.08000 43.85200 41.36300
H  -15.79500 45.57300 41.38000
H  -15.37400 44.59700 42.85100
H  -17.41600 40.64300 43.24500
H  -16.66600 38.44300 45.21300
H  -17.43500 42.05900 44.85900
H  -15.91100 41.50400 45.61800
H  -17.29500 40.67200 46.04700
H  -17.98800 37.73900 42.81200
H  -18.92500 38.87100 43.74400
H  -18.84800 36.10200 44.19300
H  -19.80300 37.32600 44.99800
H  -18.23500 36.86900 45.60500
H  -14.67500 33.68300 44.89900
H  -14.32500 32.73700 43.36100
H  -15.58700 33.81200 43.26900
H  -10.25900 34.19600 40.40000
H  -6.89700 36.09200 43.58700
H  -6.78000 34.33400 43.23900
H  -7.46800 34.82600 44.64300

