158

Mg -1.61900 17.67900 25.59400
C  -2.19900 15.65000 28.20500
C  -2.73600 20.43500 27.52400
C  -1.27100 19.72000 22.93200
C  -1.13500 14.96300 23.59800
N  -2.24400 18.02100 27.61500
C  -2.48100 17.02500 28.49100
C  -2.90500 17.60300 29.89400
C  -3.61500 18.97500 29.45000
C  -2.81400 19.15500 28.10900
C  -5.17700 19.00300 29.15800
C  -1.77500 17.80300 30.88300
C  -2.08100 17.75100 32.38200
H  -1.10700 17.18500 33.35300
N  -1.84600 19.85300 25.27300
C  -2.35100 20.79900 26.22400
C  -2.48300 22.10500 25.58300
C  -1.98100 21.91800 24.23100
C  -1.67700 20.46700 24.10000
C  -3.07800 23.38200 26.27000
C  -1.68900 22.89700 23.13100
O  -1.17000 22.67000 22.04200
C  -2.10600 24.31200 23.30300
N  -1.32300 17.41100 23.53300
C  -1.23100 18.40800 22.65400
C  -1.00000 17.85100 21.17900
C  -0.88100 16.32100 21.46200
C  -1.02900 16.22700 22.94500
C  -2.10000 18.21500 20.14100
C  0.42500 15.75900 21.00900
C  1.66300 16.23100 21.75900
N  -1.63900 15.65800 25.77800
C  -1.38600 14.65600 24.91800
C  -1.62800 13.37300 25.56000
C  -1.88700 13.72300 26.89700
C  -1.82500 15.11000 26.96300
C  -1.84400 11.99400 24.96700
C  -2.32200 13.24800 28.17000
O  -2.57500 12.14600 28.56900
C  -2.52800 14.50000 29.02600
C  -1.70500 14.43400 30.22600
O  -0.46900 14.48900 30.26500
O  -2.55400 14.17300 31.28200
C  -2.00500 13.38600 32.39900
H  -3.30400 21.19200 28.06800
H  -1.14700 20.42200 22.10500
H  -0.91300 14.17400 22.87700
H  -3.66400 16.93300 30.29800
H  -3.35900 19.80100 30.11400
H  -5.69300 19.69900 29.82000
H  -5.49400 17.98800 29.39700
H  -5.53400 19.36100 28.19200
H  -1.42100 18.80900 30.65800
H  -1.00900 17.05500 30.67700
H  -3.07000 17.34000 32.58600
H  -2.07400 18.76100 32.79200
H  -2.24100 24.05300 26.45800
H  -3.59300 23.20600 27.21400
H  -3.82300 23.86400 25.63700
H  -3.18100 24.29800 23.11900
H  -1.63900 24.97700 22.57700
H  -1.95100 24.74800 24.29000
H  -0.06500 18.25700 20.79400
H  -1.65300 15.78800 20.90600
H  -3.01900 18.39700 20.69900
H  -2.45500 17.38100 19.53600
H  -1.86900 19.06300 19.49600
H  0.52000 16.10000 19.97800
H  0.39200 14.67100 21.06200
H  2.12900 15.31300 22.11700
H  1.36000 16.83600 22.61300
H  2.29200 16.64700 20.97200
H  -2.15600 12.15400 23.93500
H  -2.61200 11.48000 25.54500
H  -0.92400 11.41300 25.02400
H  -3.59600 14.55700 29.23600
H  -1.10900 12.80600 32.17900
H  -2.67800 12.54700 32.57700
H  -1.95100 13.97500 33.31400
Mg 48.45600 13.81500 27.81700
C  46.65500 14.21500 30.66200
C  50.94100 15.91100 29.14800
C  50.42400 13.37400 24.92000
C  45.92700 12.15800 26.40700
N  48.76200 14.89300 29.70000
C  47.83600 14.89100 30.71400
C  48.39100 15.59600 31.90500
C  49.45800 16.48000 31.23600
C  49.80700 15.64400 29.96500
C  49.03300 17.91100 30.94200
C  48.98100 14.56800 32.99800
C  48.37800 14.88100 34.38300
H  49.37300 14.85500 35.56900
N  50.35700 14.61600 27.14400
C  51.20200 15.45500 27.84700
C  52.43600 15.74900 27.11800
C  52.21400 15.11500 25.84200
C  50.97400 14.33700 25.88300
C  53.57300 16.45300 27.68200
C  53.08300 15.08400 24.60500
O  52.76500 14.78100 23.49000
C  54.53500 15.69600 24.62400
N  48.16900 12.99000 25.84900
C  49.14200 12.80200 24.88200
C  48.58500 12.04800 23.69200
C  47.12700 11.73600 24.21700
C  47.09300 12.28300 25.66400
C  48.72000 12.69700 22.31500
C  46.59000 10.26700 23.96500
C  46.91300 9.25800 25.01400
N  46.60100 13.33900 28.30700
C  45.68000 12.61700 27.65900
C  44.56100 12.34800 28.52700
C  44.89600 12.92900 29.73400
C  46.12500 13.58400 29.56600
C  43.25700 11.67200 28.13700
C  44.39000 13.23800 31.09100
O  43.34000 12.98500 31.71200
C  45.60900 13.94900 31.73500
C  45.04800 15.18300 32.27900
O  44.53200 16.12800 31.63400
O  45.16800 15.21700 33.61700
C  44.55900 16.32500 34.42400
H  51.60300 16.59600 29.68300
H  50.95500 13.23500 23.97500
H  45.08800 11.62000 25.95900
H  47.64300 16.33300 32.19800
H  50.39500 16.40000 31.78700
H  48.73200 18.46400 31.83200
H  48.23200 17.82800 30.20700
H  49.76300 18.48700 30.37300
H  50.06600 14.67500 33.00000
H  48.72200 13.52000 32.84700
H  47.68500 14.06500 34.59200
H  47.90900 15.85900 34.49400
H  53.45000 16.91000 28.66400
H  53.88500 17.33200 27.11700
H  54.42100 15.77100 27.73300
H  55.08300 15.20900 25.43100
H  54.39700 16.77500 24.68900
H  55.06700 15.54000 23.68500
H  49.11600 11.10300 23.57300
H  46.61300 12.46200 23.58800
H  49.27300 12.05700 21.62700
H  49.19000 13.63800 22.60100
H  47.75200 12.96100 21.88800
H  47.09600 9.87300 23.08300
H  45.51100 10.32600 23.82200
H  47.29100 9.69900 25.93700
H  47.71500 8.60900 24.66300
H  46.02900 8.67200 25.26600
H  42.36700 12.16700 28.52500
H  43.31100 10.61400 28.39300
H  43.02600 11.85700 27.08800
H  46.10600 13.41900 32.54700
H  43.48700 16.16700 34.54600
H  44.79300 17.30400 34.00700
H  45.03800 16.24900 35.40000

