158

Mg -0.43900 7.72900 27.66200
C  0.27400 9.89100 30.16200
C  -0.55300 5.03500 29.89300
C  -1.34500 5.78700 25.06000
C  0.13200 10.40100 25.38700
N  -0.05500 7.46300 29.74800
C  0.04100 8.53500 30.60200
C  -0.11500 8.06000 32.03600
C  0.17600 6.46700 31.88600
C  -0.26000 6.28100 30.42900
C  1.65400 5.97200 32.18400
C  -1.50400 8.48100 32.63700
C  -1.64400 8.57500 34.20000
H  -0.37900 8.43600 35.01200
N  -0.98300 5.71200 27.48100
C  -0.96600 4.75600 28.55500
C  -1.33700 3.45000 28.00600
C  -1.43900 3.66600 26.56500
C  -1.32100 5.08700 26.30100
C  -1.35200 2.14800 28.83400
C  -1.57200 2.60100 25.48900
O  -1.51700 2.87100 24.27900
C  -1.72800 1.16000 25.80400
N  -0.60000 8.05200 25.49800
C  -1.04600 7.04000 24.67700
C  -0.95300 7.51200 23.20900
C  -0.73100 9.07100 23.41900
C  -0.41500 9.25700 24.85600
C  0.08800 6.71000 22.36900
C  -1.85500 10.06000 22.92800
C  -1.58100 10.88400 21.64600
N  0.30400 9.72700 27.68900
C  0.47400 10.67300 26.73500
C  0.91800 11.92100 27.32500
C  0.83800 11.66200 28.72800
C  0.33400 10.31800 28.87200
C  1.30300 13.22600 26.69100
C  1.09400 12.13400 30.06600
O  1.49400 13.19700 30.39300
C  0.71000 11.00700 31.04400
C  1.90600 10.67200 31.88500
O  2.83900 9.99800 31.51400
O  1.80100 11.25600 33.13600
C  2.89900 11.05600 34.00900
H  -0.41000 4.19300 30.57300
H  -1.69000 5.21900 24.19400
H  0.33600 11.17800 24.64800
H  0.70600 8.51400 32.59200
H  -0.56000 5.91000 32.46600
H  2.07100 6.87900 32.62300
H  2.09600 5.63800 31.24500
H  1.60800 5.16300 32.91200
H  -2.12800 7.63400 32.35400
H  -1.86100 9.39200 32.15700
H  -2.46600 7.99800 34.62300
H  -2.06000 9.56600 34.37400
H  -0.62300 1.49700 28.35200
H  -2.36800 1.75300 28.81300
H  -1.04100 2.37100 29.85400
H  -2.55500 1.25700 26.50700
H  -0.77400 0.68700 26.03800
H  -2.18100 0.59100 24.99200
H  -1.91100 7.36500 22.71000
H  0.24600 9.31300 23.00000
H  -0.29600 6.18000 21.49700
H  0.59700 5.94600 22.95600
H  0.73600 7.43700 21.87900
H  -2.02200 10.84200 23.66800
H  -2.82900 9.57400 22.97500
H  -1.16600 11.85200 21.92600
H  -2.48300 10.83900 21.03500
H  -0.77700 10.39900 21.09200
H  1.39000 13.02400 25.62300
H  2.32800 13.51600 26.92000
H  0.54200 13.94600 26.99200
H  -0.16100 11.20600 31.66800
H  3.84600 10.85300 33.51000
H  2.56100 10.39000 34.80300
H  3.09700 12.05000 34.41100
Mg 0.66600 41.93800 25.48600
C  2.23400 42.42800 28.69300
C  -2.19400 41.01700 27.08600
C  -0.54500 40.96400 22.54700
C  3.83300 42.37100 24.09600
N  0.11600 41.73100 27.66600
C  0.78200 42.20700 28.71900
C  -0.05200 41.94800 29.99500
C  -1.45100 41.56800 29.48600
C  -1.18700 41.44200 27.96800
C  -2.13900 40.24500 30.14300
C  0.06300 43.26200 30.93900
C  0.34700 43.08800 32.36400
H  -0.60500 43.64900 33.42700
N  -1.13500 41.16000 24.92400
C  -2.19500 40.88000 25.69200
C  -3.22100 40.34200 24.88500
C  -2.68000 40.13400 23.56400
C  -1.36800 40.69000 23.63400
C  -4.58900 40.04500 25.51100
C  -3.28100 39.42900 22.27800
O  -2.59100 39.34400 21.23000
C  -4.65000 38.74400 22.37200
N  1.56100 41.58800 23.60100
C  0.86800 41.34000 22.51100
C  1.78000 41.26900 21.27900
C  3.07900 41.98400 21.79600
C  2.84700 41.91100 23.29100
C  1.85900 39.79300 20.83600
C  3.31700 43.42800 21.29200
C  2.31100 44.50300 21.78100
N  2.64200 42.52800 26.13200
C  3.80500 42.61500 25.47500
C  4.88800 42.86300 26.40700
C  4.31400 42.68200 27.64800
C  2.89800 42.55200 27.44200
C  6.40000 43.11700 26.09300
C  4.64900 42.63600 29.09900
O  5.68700 42.61400 29.69300
C  3.25800 42.65100 29.81800
C  3.29600 41.49900 30.76200
O  3.09900 40.34100 30.46100
O  3.55600 41.84200 32.03300
C  3.45300 40.72200 32.97300
H  -3.04900 40.81000 27.73200
H  -1.02500 40.81200 21.57800
H  4.85800 42.60400 23.80000
H  0.41300 41.12600 30.53900
H  -2.17700 42.36700 29.63700
H  -1.56600 39.89100 31.00000
H  -2.02700 39.46100 29.39500
H  -3.16200 40.51500 30.40500
H  -0.90400 43.74000 30.78400
H  0.78100 43.96200 30.51100
H  1.21200 43.74400 32.46700
H  0.70600 42.07300 32.53100
H  -5.39200 40.10200 24.77500
H  -4.71800 40.77500 26.31000
H  -4.49400 39.05200 25.95100
H  -4.75200 38.14500 21.46700
H  -5.42600 39.50900 22.34300
H  -4.61000 38.02600 23.19100
H  1.23000 41.80600 20.50600
H  3.85100 41.22900 21.65000
H  1.56000 39.19200 21.69400
H  2.77200 39.59100 20.27500
H  1.17100 39.71000 19.99500
H  3.34000 43.51500 20.20600
H  4.31500 43.69300 21.64100
H  2.80000 45.03800 22.59500
H  1.40300 44.03100 22.15500
H  2.12100 45.15700 20.93000
H  6.53800 43.09900 25.01200
H  7.10200 42.33600 26.38500
H  6.70300 44.08400 26.49300
H  3.12400 43.62700 30.28400
H  2.54300 40.15500 32.77500
H  3.47200 41.03200 34.01800
H  4.20400 39.98100 32.69900

