158

Mg 16.65200 -1.24300 28.10100
C  15.58200 1.02400 30.60800
C  18.40000 -2.75500 30.28500
C  18.03300 -2.88300 25.44800
C  14.81200 0.74500 25.75200
N  17.03700 -0.77800 30.24200
C  16.42900 0.01000 31.06500
C  16.88100 -0.21600 32.55400
C  17.92600 -1.37400 32.43100
C  17.76700 -1.68300 30.91300
C  19.33200 -1.16500 32.93900
C  15.68300 -0.58800 33.44900
C  15.60200 0.03900 34.89700
H  16.98600 0.59300 35.39900
N  17.96800 -2.72600 27.90000
C  18.57400 -3.23300 28.98700
C  19.46500 -4.37300 28.64100
C  19.50700 -4.26500 27.17900
C  18.46400 -3.26600 26.76100
C  20.09600 -5.41300 29.56700
C  20.33500 -5.09600 26.25200
O  20.30400 -4.89500 25.03100
C  21.26300 -6.14800 26.87200
N  16.41600 -1.12900 25.94700
C  17.18700 -1.84700 25.07800
C  16.84300 -1.44900 23.62500
C  15.70400 -0.38300 23.78300
C  15.59200 -0.29400 25.24700
C  18.06500 -1.01900 22.82400
C  14.32700 -0.85700 23.19200
C  14.07400 -0.41000 21.79300
N  15.39900 0.52700 28.11300
C  14.75200 1.18600 27.05200
C  14.04300 2.27800 27.62300
C  14.39300 2.32400 29.00100
C  15.16100 1.22700 29.25100
C  13.08100 3.15000 26.77600
C  14.02600 2.98800 30.17300
O  13.29500 3.98900 30.38200
C  14.75700 2.09400 31.32300
C  15.53000 3.08300 32.18000
O  16.71400 3.25800 32.26500
O  14.65800 3.64200 33.04900
C  15.18000 4.31900 34.22500
H  19.01800 -3.28600 31.01200
H  18.39100 -3.35600 24.53200
H  14.22600 1.28300 25.00400
H  17.41700 0.71200 32.75600
H  17.66100 -2.27500 32.98500
H  19.40600 -0.18500 33.41000
H  19.95500 -1.01300 32.05700
H  19.65800 -1.89500 33.68000
H  15.52000 -1.65800 33.57700
H  14.84200 -0.33000 32.80400
H  15.35500 -0.76600 35.59000
H  14.81800 0.79500 34.84700
H  21.18400 -5.37500 29.60700
H  19.73500 -6.34500 29.13100
H  19.75800 -5.34000 30.60000
H  22.07100 -5.66900 27.42500
H  21.62500 -6.65900 25.97900
H  20.73800 -6.89100 27.47300
H  16.49500 -2.38000 23.17900
H  16.14700 0.51100 23.34500
H  17.76300 -0.18100 22.19500
H  18.45800 -1.81600 22.19300
H  18.85700 -0.79900 23.53900
H  13.50700 -0.50400 23.81800
H  14.39100 -1.94200 23.10900
H  14.93900 0.11900 21.39300
H  13.18400 0.18300 21.58100
H  14.15800 -1.26700 21.12500
H  13.06000 2.72200 25.77400
H  13.46500 4.17000 26.79200
H  12.05600 3.12600 27.14600
H  14.06500 1.60800 32.01200
H  15.95400 3.70600 34.68700
H  14.38200 4.41000 34.96200
H  15.53300 5.32000 33.97400
Mg 42.53700 41.79100 26.26200
C  41.35200 43.94400 28.70200
C  43.66000 39.81000 28.71500
C  43.63100 39.58600 23.81700
C  41.72200 44.07900 23.79000
N  42.27500 41.77400 28.50200
C  41.83300 42.79800 29.22700
C  41.88800 42.39300 30.68600
C  42.67600 41.03800 30.74200
C  42.90900 40.87600 29.25700
C  44.01300 41.04700 31.62900
C  40.45000 42.30200 31.21800
C  40.24000 41.59200 32.53600
H  39.69900 42.48000 33.71800
N  43.48200 40.00200 26.27300
C  43.93400 39.40800 27.42300
C  44.59400 38.12400 27.00300
C  44.50200 38.02700 25.60200
C  43.88100 39.25400 25.15700
C  45.12900 37.17400 28.08200
C  44.80600 36.84900 24.67500
O  44.94800 36.91500 23.46900
C  45.10600 35.54200 25.32800
N  42.68200 41.85300 24.06600
C  43.19700 40.81300 23.32500
C  42.96700 41.11500 21.83700
C  42.16800 42.47600 21.81100
C  42.13600 42.84200 23.28800
C  44.25000 41.12300 20.95200
C  40.75400 42.31100 21.17400
C  39.83500 41.13300 21.71400
N  41.75600 43.65800 26.17400
C  41.47400 44.44600 25.11100
C  41.04800 45.81800 25.56600
C  40.94200 45.57800 26.96200
C  41.36600 44.27400 27.30400
C  40.62700 46.92300 24.78800
C  40.57900 46.20400 28.26100
O  40.26300 47.36800 28.47300
C  40.87500 45.17500 29.41100
C  41.86000 45.80200 30.37700
O  42.99700 46.18100 30.10200
O  41.27100 45.96600 31.64700
C  42.00700 46.75400 32.61700
H  44.01100 39.17600 29.53100
H  43.85500 38.97900 22.93700
H  41.27600 44.83000 23.13400
H  42.40900 43.12800 31.30000
H  42.01700 40.21800 31.02600
H  43.97900 41.96100 32.22300
H  44.91600 40.94500 31.02600
H  44.10600 40.21900 32.33100
H  39.73200 41.92200 30.49200
H  40.14800 43.31400 31.48700
H  41.20900 41.21600 32.86300
H  39.47600 40.84800 32.31100
H  46.11400 36.80700 27.79600
H  44.44300 36.35200 28.28900
H  45.21400 37.71700 29.02400
H  45.02300 34.83400 24.50400
H  44.21500 35.29500 25.90500
H  46.02800 35.54700 25.90900
H  42.34300 40.27600 21.52700
H  42.73000 43.24400 21.28000
H  44.49000 42.05900 20.44800
H  44.27800 40.36100 20.17300
H  45.11800 40.89600 21.57200
H  40.99800 42.08000 20.13800
H  40.23500 43.26800 21.12700
H  39.67900 40.35000 20.97300
H  38.88800 41.62400 21.93900
H  40.19900 40.63600 22.61300
H  39.54300 46.85300 24.69600
H  41.13100 46.84100 23.82500
H  40.95400 47.87500 25.20500
H  39.92600 45.17000 29.94700
H  41.31300 47.10100 33.38200
H  42.52100 47.66700 32.31600
H  42.74500 46.08900 33.06600

