158

Mg 47.67600 16.52900 28.72200
C  45.82900 15.94900 31.60900
C  49.99100 18.39000 30.73000
C  49.37500 17.30700 25.95200
C  45.33900 14.78600 26.93500
N  47.92600 17.09900 30.90600
C  46.98900 16.65700 31.86700
C  47.55800 17.09000 33.21900
C  48.60600 18.17100 32.87200
C  48.93600 17.82800 31.43400
C  48.09000 19.68800 32.93700
C  48.12400 15.87100 33.98400
C  48.01700 15.91200 35.57300
H  47.66000 17.21500 36.25300
N  49.48800 17.72300 28.37700
C  50.23900 18.41400 29.32400
C  51.32700 19.07000 28.54900
C  51.20000 18.68400 27.19000
C  49.97200 17.87100 27.10500
C  52.37400 19.97000 29.27300
C  52.09000 19.04200 25.99300
O  51.97900 18.61100 24.91200
C  53.19900 20.05200 26.05500
N  47.38900 16.23400 26.73500
C  48.15100 16.67200 25.69600
C  47.72000 16.11500 24.34100
C  46.50600 15.18500 24.69800
C  46.42800 15.37900 26.24200
C  47.51200 17.19200 23.27600
C  46.63500 13.66000 24.26600
C  45.62800 13.30400 23.17800
N  45.92400 15.72400 29.08500
C  44.99800 15.14400 28.21000
C  43.87600 14.65700 28.89300
C  44.20700 14.88800 30.18900
C  45.41800 15.60900 30.30500
C  42.65100 13.89600 28.36800
C  43.63000 14.81100 31.55600
O  42.61000 14.26300 31.92400
C  44.71600 15.44900 32.52500
C  44.08600 16.60400 33.26100
O  43.63800 17.67100 32.70100
O  44.15300 16.26900 34.57500
C  43.53200 17.31000 35.46300
H  50.64600 19.11200 31.22000
H  49.88800 17.55400 25.02100
H  44.55900 14.17000 26.48100
H  46.75100 17.54500 33.79300
H  49.50400 18.00800 33.46900
H  48.40700 20.20900 32.03300
H  48.52100 20.29400 33.73300
H  47.00300 19.72600 33.01500
H  49.15600 15.70500 33.67500
H  47.54500 15.01000 33.64900
H  48.94900 15.54500 36.00400
H  47.25300 15.16200 35.77800
H  53.39900 19.62800 29.12900
H  52.27500 20.02500 30.35700
H  52.21600 20.97700 28.88700
H  52.96500 20.94900 26.62800
H  53.46500 20.35200 25.04200
H  54.04500 19.48900 26.45000
H  48.54300 15.60300 23.84200
H  45.55600 15.52300 24.28500
H  46.50800 17.16500 22.85300
H  48.34000 17.09800 22.57300
H  47.59100 18.18200 23.72600
H  46.55200 12.93300 25.07400
H  47.65700 13.55100 23.90300
H  46.14800 13.06500 22.25000
H  44.89000 14.08200 22.98200
H  45.15700 12.35400 23.43200
H  43.01300 12.87000 28.29700
H  42.41000 14.16000 27.33800
H  41.75100 14.01300 28.97100
H  44.98800 14.69300 33.26100
H  43.85100 18.29000 35.11000
H  43.99600 17.17200 36.43900
H  42.45100 17.17000 35.45900
Mg -6.15700 24.70800 26.74000
C  -4.63100 25.92700 29.79200
C  -8.20800 22.72200 28.68800
C  -7.10900 22.97300 23.98000
C  -3.60400 26.26600 25.00600
N  -6.39500 24.39600 28.97800
C  -5.68700 25.00900 29.97500
C  -6.29700 24.64000 31.34100
C  -7.43600 23.57100 30.97100
C  -7.41000 23.57600 29.45700
C  -7.08300 22.17600 31.62400
C  -6.90800 25.96300 32.03000
C  -7.14300 25.96600 33.56100
H  -6.47600 24.83900 34.34500
N  -7.55800 23.18700 26.40800
C  -8.34700 22.56500 27.34200
C  -9.36000 21.80600 26.59700
C  -9.02700 21.82900 25.20100
C  -7.85300 22.73400 25.11600
C  -10.51600 21.03700 27.17400
C  -9.61500 21.01100 24.02300
O  -9.01500 20.90500 22.93600
C  -10.95500 20.29400 24.10700
N  -5.40000 24.54600 24.76500
C  -5.98100 23.76600 23.81300
C  -5.34500 24.11200 22.40100
C  -4.39700 25.26900 22.75100
C  -4.41900 25.35500 24.23800
C  -4.68900 22.88800 21.75800
C  -4.84500 26.65800 22.23500
C  -4.36600 26.95200 20.77700
N  -4.42500 25.82500 27.23400
C  -3.51100 26.44600 26.41300
C  -2.49200 27.17500 27.19000
C  -2.83600 26.91400 28.51100
C  -4.05300 26.19700 28.49700
C  -1.25600 27.91500 26.73900
C  -2.43300 27.18500 29.85300
O  -1.40500 27.71000 30.30500
C  -3.63000 26.68800 30.82200
C  -2.83400 25.93200 31.82100
O  -2.42600 24.77900 31.73600
O  -2.63300 26.70900 32.94800
C  -2.09100 25.99000 34.08800
H  -8.92100 22.12500 29.26200
H  -7.56600 22.59100 23.06500
H  -2.92300 26.87900 24.41200
H  -5.49900 24.31300 32.00700
H  -8.44800 23.80300 31.30200
H  -7.14600 21.42200 30.83900
H  -7.69700 21.87200 32.47200
H  -6.08700 22.19100 32.06700
H  -7.87700 26.05000 31.53900
H  -6.45600 26.87700 31.64400
H  -8.22400 25.83700 33.61000
H  -6.93500 26.96600 33.94000
H  -10.46300 19.96700 26.97300
H  -11.47200 21.44300 26.84200
H  -10.39600 21.22000 28.24200
H  -10.93900 19.43500 23.43600
H  -11.76600 20.95200 23.79700
H  -11.27900 19.92300 25.07900
H  -6.09800 24.42700 21.68000
H  -3.39200 25.03600 22.39800
H  -5.29600 22.61400 20.89500
H  -4.84200 22.11500 22.51100
H  -3.64700 22.98000 21.45300
H  -4.36600 27.45400 22.80600
H  -5.93300 26.71100 22.25600
H  -4.31200 25.98500 20.27600
H  -3.35300 27.35300 20.75300
H  -5.07200 27.59700 20.25400
H  -0.81700 28.30400 27.65800
H  -1.41000 28.67000 25.96800
H  -0.52800 27.27300 26.24300
H  -4.08200 27.56600 31.28400
H  -1.11600 26.43500 34.28700
H  -2.18000 24.90800 33.98700
H  -2.73200 26.28000 34.92000

