158

Mg 46.33400 25.45900 28.04100
C  47.62300 27.64200 30.64500
C  46.55700 22.91900 30.34700
C  45.83800 23.34400 25.45100
C  47.24700 27.89700 25.74200
N  47.07200 25.31700 30.27800
C  47.36600 26.30700 31.15500
C  47.52200 25.85200 32.57900
C  47.33300 24.30700 32.45100
C  46.97400 24.11000 30.96900
C  48.50200 23.27300 32.89600
C  46.68900 26.51500 33.66300
C  46.50700 25.88800 35.06500
H  46.82600 26.68600 36.37400
N  45.93100 23.47800 27.95400
C  46.13000 22.59600 28.99300
C  45.91300 21.21600 28.47300
C  45.48700 21.39200 27.11100
C  45.69400 22.75400 26.73600
C  45.98000 19.92000 29.30400
C  45.24800 20.26300 26.09100
O  44.83000 20.52500 24.96300
C  45.33500 18.79800 26.40500
N  46.36900 25.67300 25.87500
C  46.15000 24.62700 25.06800
C  46.44300 24.96100 23.59500
C  46.63100 26.50600 23.72700
C  46.78600 26.73000 25.21300
C  47.70100 24.20700 23.13300
C  45.39500 27.37000 23.23100
C  45.83700 28.52500 22.38900
N  47.14800 27.44300 28.10700
C  47.46100 28.26300 27.10000
C  47.91500 29.46500 27.67300
C  47.98000 29.30800 29.03000
C  47.55600 28.02100 29.29800
C  48.35500 30.72200 26.97100
C  48.39700 29.89900 30.24100
O  48.79900 31.01900 30.46800
C  48.07200 28.91700 31.36800
C  49.25000 28.82900 32.37900
O  50.24900 28.10600 32.31900
O  49.02100 29.64300 33.45200
C  49.87500 29.58400 34.61200
H  46.53700 22.07300 31.03700
H  45.65800 22.74200 24.55800
H  47.50400 28.66200 25.00600
H  48.51600 26.10100 32.95100
H  46.38800 24.01600 32.90800
H  49.04200 22.85900 32.04400
H  47.95000 22.44300 33.33600
H  49.18000 23.66700 33.65300
H  45.74000 26.62900 33.13900
H  46.96900 27.56700 33.72400
H  47.01200 24.93000 35.19100
H  45.42000 25.81400 35.02800
H  46.15700 20.28900 30.31400
H  46.68500 19.17400 28.93700
H  44.96600 19.53900 29.18000
H  45.09900 18.26000 25.48700
H  44.66100 18.62800 27.24500
H  46.38400 18.66700 26.67400
H  45.53400 24.73700 23.03700
H  47.58700 26.75900 23.27000
H  47.71400 23.24900 23.65200
H  48.62300 24.77200 23.26600
H  47.61000 23.96700 22.07400
H  44.84600 27.79000 24.07400
H  44.69900 26.70000 22.72700
H  45.71000 28.35400 21.32100
H  46.80700 28.89500 22.72100
H  45.19200 29.39800 22.49500
H  47.82600 30.81300 26.02300
H  49.43400 30.69200 26.81800
H  48.18400 31.65700 27.50500
H  47.22200 29.38800 31.86300
H  49.48300 28.96000 35.41400
H  50.16900 30.56700 34.98100
H  50.88700 29.27200 34.35300
Mg -4.38800 25.50100 26.02300
C  -3.48200 27.34900 28.98600
C  -6.32600 23.57200 28.08100
C  -5.01300 23.75800 23.37500
C  -2.23100 27.57000 24.25100
N  -4.78700 25.40900 28.25500
C  -4.32500 26.23900 29.28000
C  -5.03700 25.89300 30.55900
C  -5.75000 24.50000 30.31600
C  -5.54400 24.42100 28.80400
C  -5.08800 23.29700 31.06200
C  -5.89900 27.12700 31.06900
C  -6.51900 26.90600 32.45100
H  -6.02300 25.86500 33.51400
N  -5.56200 23.92100 25.72300
C  -6.35700 23.31100 26.67100
C  -7.15900 22.32700 26.00500
C  -6.71300 22.24900 24.66200
C  -5.70300 23.27700 24.53200
C  -8.17500 21.48100 26.75600
C  -7.26800 21.42400 23.52400
O  -6.85700 21.51000 22.37000
C  -8.40900 20.53500 23.77100
N  -3.66000 25.56400 24.13200
C  -4.10400 24.78200 23.17700
C  -3.35500 25.04800 21.84800
C  -2.77800 26.43600 22.12600
C  -2.87200 26.51700 23.60300
C  -2.31300 23.93700 21.51400
C  -3.63900 27.55000 21.37900
C  -3.04700 27.93300 20.06100
N  -3.15800 27.28300 26.49200
C  -2.24700 27.97100 25.64400
C  -1.61700 29.08200 26.39200
C  -2.04600 28.88300 27.73500
C  -2.91100 27.74700 27.72600
C  -0.71000 30.18300 25.83300
C  -2.00300 29.40200 29.10600
O  -1.42100 30.37700 29.56100
C  -2.89100 28.38500 29.98800
C  -2.02500 27.69200 30.93800
O  -1.02700 27.09200 30.59400
O  -2.54900 27.67400 32.22000
C  -1.87500 26.84000 33.18800
H  -6.92100 22.88100 28.68100
H  -5.28000 23.13600 22.51900
H  -1.64800 28.27000 23.64900
H  -4.24200 25.73400 31.28700
H  -6.81500 24.43900 30.53800
H  -4.32000 22.84500 30.43500
H  -5.80200 22.52200 31.34100
H  -4.67300 23.53600 32.04100
H  -6.69200 27.14700 30.32100
H  -5.25700 28.00300 31.16100
H  -7.58600 26.85400 32.23800
H  -6.32200 27.84400 32.97100
H  -9.10400 21.44600 26.18700
H  -8.45600 21.87500 27.73300
H  -7.76000 20.48300 26.89800
H  -8.31700 19.82400 24.59200
H  -8.41600 19.95800 22.84600
H  -9.34000 21.09600 23.85600
H  -4.10900 25.06500 21.06100
H  -1.74400 26.62900 21.84100
H  -1.24900 24.16400 21.44800
H  -2.71700 23.56100 20.57400
H  -2.36800 23.11500 22.22700
H  -3.76300 28.38600 22.06800
H  -4.60200 27.08300 21.17200
H  -3.73600 27.78400 19.23000
H  -2.27300 27.18500 19.88900
H  -2.70500 28.96700 20.03500
H  -0.24200 29.79200 24.92900
H  0.13300 30.41500 26.48400
H  -1.31400 31.08200 25.71000
H  -3.69400 28.89200 30.52300
H  -2.44000 26.71800 34.11200
H  -0.90900 27.28200 33.43500
H  -1.91500 25.82100 32.80300

