158

Mg 23.73800 -4.92900 45.55700
C  26.33900 -2.80500 44.02100
C  21.64600 -3.92300 42.97600
C  21.90300 -7.58400 46.09600
C  26.40200 -6.25700 47.33400
N  23.97300 -3.51900 43.78200
C  25.08700 -2.79600 43.37400
C  24.78200 -2.04800 42.04100
C  23.25300 -2.40600 41.79000
C  22.91900 -3.29500 42.97800
C  22.33400 -1.24900 41.66800
C  25.66600 -2.49100 40.83600
C  26.55400 -1.47100 40.05000
H  26.10500 -1.48400 38.54800
N  21.89800 -5.66200 44.74500
C  21.20200 -4.99100 43.77300
C  19.84700 -5.61300 43.74700
C  19.91100 -6.78300 44.53800
C  21.24500 -6.75000 45.17200
C  18.75400 -5.09400 42.82500
C  18.80800 -7.75800 44.73200
O  17.68300 -7.50000 44.26100
C  18.85700 -9.01600 45.58200
N  24.16000 -6.73300 46.38800
C  23.16000 -7.65700 46.61700
C  23.69900 -8.88600 47.33200
C  25.01900 -8.32600 47.96200
C  25.22800 -7.05200 47.21500
C  22.68200 -9.61500 48.33100
C  26.30200 -9.31500 48.03100
C  26.11500 -10.92700 47.76200
N  25.82300 -4.43200 45.94100
C  26.75300 -5.05800 46.68800
C  28.02300 -4.52500 46.58500
C  27.87000 -3.56800 45.61600
C  26.55100 -3.62600 45.20500
C  29.27200 -4.98800 47.18700
C  28.64500 -2.62800 44.81100
O  29.83800 -2.35800 44.81300
C  27.66200 -2.09700 43.73900
C  27.61700 -0.58500 43.77300
O  27.17100 0.05400 44.66200
O  28.08400 0.04000 42.64300
C  28.23200 1.46900 42.65600
H  20.91400 -3.57600 42.24400
H  21.27300 -8.43200 46.37000
H  27.16500 -6.68400 47.98800
H  24.93700 -0.99300 42.26900
H  23.08000 -3.01700 40.90500
H  21.51100 -1.35700 42.37500
H  21.82700 -1.36400 40.71000
H  22.81800 -0.27200 41.66200
H  25.16200 -3.06000 40.05400
H  26.30300 -3.25200 41.28700
H  27.63900 -1.56900 40.06300
H  26.43000 -0.52000 40.56900
H  18.57400 -5.87000 42.08200
H  19.02800 -4.25600 42.18300
H  17.80600 -4.98700 43.35100
H  17.97400 -9.65200 45.51700
H  19.09500 -8.72900 46.60600
H  19.63700 -9.67100 45.19200
H  23.97700 -9.54100 46.50600
H  24.94800 -8.04700 49.01300
H  21.84200 -8.99600 48.64400
H  23.23700 -9.91600 49.22000
H  22.29200 -10.54900 47.92700
H  26.72000 -9.23000 49.03400
H  27.03600 -9.02100 47.28100
H  26.51700 -11.31500 46.82600
H  25.10400 -11.33200 47.81300
H  26.71200 -11.36100 48.56500
H  29.03600 -5.49100 48.12500
H  29.92000 -4.13000 47.36400
H  29.86500 -5.64100 46.54700
H  27.96000 -2.43000 42.74500
H  29.06400 1.73500 43.30800
H  27.40800 1.94500 43.18700
H  28.35800 1.97400 41.69800
Mg 35.43400 48.59200 26.15800
C  36.17200 46.42700 28.90600
C  34.06400 50.89000 28.28600
C  34.34100 50.34000 23.33200
C  36.16700 45.76000 24.04000
N  35.09900 48.57500 28.31900
C  35.58500 47.67800 29.26400
C  35.43600 48.23000 30.69900
C  34.55200 49.56300 30.45600
C  34.58100 49.71500 28.92300
C  33.12200 49.63300 31.05800
C  36.82300 48.55400 31.17800
C  37.22800 48.14200 32.56500
H  37.16900 49.18500 33.66300
N  34.49900 50.35800 25.86300
C  34.02300 51.19900 26.88300
C  33.47400 52.40500 26.35400
C  33.73200 52.36300 24.90100
C  34.26600 50.93200 24.64400
C  32.75700 53.43900 27.22700
C  33.63800 53.46900 23.87600
O  33.90100 53.39100 22.69300
C  33.17700 54.83200 24.30700
N  35.10100 48.03400 23.97200
C  34.80000 49.04000 23.10000
C  34.82300 48.44700 21.72800
C  35.74000 47.18000 21.87200
C  35.70600 46.93900 23.35200
C  33.46100 48.22600 21.10900
C  37.25600 47.22800 21.45700
C  37.57300 46.06000 20.56100
N  36.02100 46.50500 26.38600
C  36.34000 45.53800 25.42000
C  36.82500 44.33700 26.09700
C  36.77500 44.67800 27.43600
C  36.26600 45.95200 27.60700
C  37.25500 42.97400 25.47400
C  37.04700 44.12500 28.77800
O  37.44300 43.08800 29.20200
C  36.72500 45.26800 29.74000
C  35.86500 44.75200 30.81000
O  34.72100 44.38600 30.64000
O  36.54100 44.70300 32.00800
C  35.82800 44.23200 33.17900
H  33.71100 51.68200 28.95000
H  34.07800 50.91000 22.43800
H  36.58600 44.96500 23.42000
H  34.92100 47.53100 31.35800
H  35.12200 50.37600 30.90400
H  33.02300 48.78300 31.73300
H  32.37800 49.47100 30.27800
H  32.86000 50.60400 31.47900
H  36.99000 49.62800 31.26400
H  37.58100 48.11200 30.53100
H  38.22900 47.70900 32.57600
H  36.47300 47.41000 32.85100
H  32.07100 53.07500 27.99100
H  32.20200 54.01200 26.48400
H  33.48700 54.15200 27.61000
H  33.57900 55.20200 25.25000
H  32.09200 54.79400 24.40400
H  33.28500 55.63400 23.57600
H  35.35700 49.19600 21.14400
H  35.20000 46.32700 21.46200
H  33.16700 47.18000 21.01800
H  33.46900 48.58900 20.08100
H  32.66100 48.73900 21.64300
H  37.96800 47.20300 22.28200
H  37.50500 48.12500 20.89100
H  37.25000 46.36400 19.56500
H  37.00500 45.15700 20.78300
H  38.60700 45.72200 20.63700
H  37.53200 43.10700 24.42900
H  36.54900 42.16500 25.66000
H  38.17000 42.60800 25.94000
H  37.63700 45.61200 30.22900
H  36.01200 44.91800 34.00500
H  36.25200 43.29700 33.54700
H  34.77000 44.07000 32.97600

