158

Mg 16.70700 52.73600 26.80000
C  18.82500 50.87700 28.76500
C  14.58200 53.06300 29.48000
C  14.57700 54.22000 24.76800
C  18.49400 51.59100 23.93200
N  16.74600 52.13000 29.00400
C  17.78400 51.39300 29.57400
C  17.60300 51.30500 31.08200
C  16.08000 51.66400 31.18600
C  15.69000 52.28400 29.84500
C  15.10600 50.51200 31.59200
C  18.55300 52.29100 31.79900
C  18.96500 52.01100 33.24900
H  17.96000 51.43800 34.18900
N  14.96700 53.75000 27.11900
C  14.23500 53.73800 28.28600
C  12.96700 54.45500 28.09100
C  12.88400 54.70000 26.65100
C  14.17300 54.31300 26.14300
C  12.09800 54.66700 29.12400
C  11.70400 55.17900 25.80800
O  11.87400 55.48000 24.58900
C  10.27600 55.48500 26.38400
N  16.49900 52.79000 24.63500
C  15.56900 53.59900 24.12700
C  15.73200 53.78200 22.61700
C  17.03700 53.00600 22.30700
C  17.42400 52.47500 23.72300
C  14.47800 53.48500 21.79600
C  18.15400 53.86200 21.62600
C  18.58100 55.08000 22.45000
N  18.27600 51.47200 26.37600
C  18.97400 51.20300 25.19500
C  20.07700 50.26900 25.50700
C  20.11600 50.17700 26.93600
C  18.95600 50.90000 27.38100
C  20.95200 49.77500 24.43200
C  20.78300 49.62500 28.10600
O  21.90800 49.07800 28.12800
C  20.03200 50.15700 29.38500
C  19.65900 49.06000 30.27000
O  18.88500 48.17500 29.93100
O  20.18100 49.27000 31.51300
C  19.84700 48.34600 32.62500
H  13.79100 53.11100 30.23200
H  13.99800 54.77600 24.02800
H  19.06900 51.30800 23.04800
H  17.72900 50.26300 31.37600
H  15.88800 52.47100 31.89200
H  14.19700 50.66800 31.01200
H  14.90900 50.47700 32.66400
H  15.58100 49.55300 31.38700
H  18.01100 53.23700 31.80900
H  19.38000 52.35400 31.09100
H  19.40500 52.92300 33.65300
H  19.73100 51.25200 33.09300
H  12.71700 54.96600 29.97000
H  11.65700 53.70800 29.39600
H  11.33100 55.42700 28.97400
H  9.88300 54.51400 26.68200
H  9.65100 55.89600 25.59100
H  10.36200 56.12400 27.26300
H  15.97000 54.83300 22.45600
H  16.86300 52.08200 21.75500
H  14.61400 52.87300 20.90400
H  14.03100 54.43800 21.51500
H  13.86200 52.91700 22.49400
H  17.69800 54.21500 20.70200
H  19.11100 53.43400 21.32700
H  19.59800 55.03500 22.84000
H  18.05800 55.18800 23.40000
H  18.45500 55.99500 21.87100
H  21.73300 49.14200 24.85300
H  21.45700 50.64800 24.02000
H  20.36600 49.33400 23.62500
H  20.64000 50.77100 30.04800
H  19.41900 47.41200 32.26000
H  19.14000 48.88100 33.25800
H  20.73300 48.09500 33.20800
Mg -11.18800 38.53300 41.45800
C  -9.46400 35.54100 40.76000
C  -8.67400 40.24600 39.71300
C  -13.23200 41.21000 41.15400
C  -13.83500 36.63300 42.66700
N  -9.43300 37.92900 40.21400
C  -8.87300 36.63200 40.14600
C  -7.45000 36.65200 39.62000
C  -7.22500 38.19000 39.29500
C  -8.54100 38.88300 39.80100
C  -5.88300 38.63900 39.87300
C  -7.28300 35.74400 38.39500
C  -6.06500 34.71100 38.56300
H  -4.87700 34.76400 37.51100
N  -10.92900 40.49200 40.74700
C  -9.81200 40.97700 40.03100
C  -10.03100 42.39400 39.69200
C  -11.29600 42.77200 40.18900
C  -11.87500 41.49300 40.73500
C  -9.02400 43.25400 39.00200
C  -11.92200 44.19700 40.06200
O  -11.17900 45.08300 39.64400
C  -13.30200 44.52200 40.51600
N  -13.28800 38.81300 41.56600
C  -13.90700 39.99800 41.49400
C  -15.39400 39.95400 41.77500
C  -15.54300 38.55900 42.39800
C  -14.11200 37.97600 42.29300
C  -16.03300 41.09100 42.63000
C  -16.62600 37.62100 41.67200
C  -17.33700 36.72400 42.68200
N  -11.60300 36.44800 41.75100
C  -12.69900 35.88500 42.32500
C  -12.41700 34.47300 42.46600
C  -11.18700 34.29800 41.82600
C  -10.70300 35.54800 41.40900
C  -13.41000 33.44900 42.98900
C  -10.22500 33.33100 41.43800
O  -10.25400 32.11400 41.50400
C  -9.01000 34.10800 40.88600
C  -7.85500 33.82900 41.80000
O  -7.09000 32.83100 41.70800
O  -7.53000 34.82000 42.77500
C  -6.55900 34.56200 43.85700
H  -7.76100 40.72800 39.35800
H  -13.85300 42.10100 41.04700
H  -14.67800 36.10100 43.11300
H  -6.64000 36.39600 40.30300
H  -7.01400 38.33900 38.23600
H  -5.09700 37.90400 39.69900
H  -6.03400 38.54400 40.94800
H  -5.73300 39.69500 39.64700
H  -7.29500 36.37000 37.50400
H  -8.23200 35.20800 38.36700
H  -6.49700 33.71300 38.63600
H  -5.52600 34.89200 39.49300
H  -8.92100 44.22700 39.48300
H  -8.99500 43.41600 37.92400
H  -8.05900 42.76400 39.13500
H  -13.50900 44.09900 41.49900
H  -14.00100 44.06500 39.81600
H  -13.50200 45.59300 40.47400
H  -15.72800 39.88100 40.74000
H  -15.68500 38.70400 43.46800
H  -16.57100 41.64200 41.85800
H  -15.39000 41.85000 43.07600
H  -16.72500 40.64900 43.34700
H  -16.09500 36.96600 40.98200
H  -17.27200 38.28900 41.10100
H  -18.34000 36.49400 42.32400
H  -17.54100 37.19400 43.64400
H  -16.88000 35.73500 42.69300
H  -13.78800 33.60400 43.99900
H  -13.09100 32.41000 42.90600
H  -14.24800 33.50500 42.29400
H  -8.72000 33.60200 39.96500
H  -6.85800 33.67800 44.42100
H  -6.57700 35.36900 44.58900
H  -5.58300 34.52400 43.37500

