158

Mg 30.63900 57.59900 40.54900
C  27.61400 55.79600 39.53800
C  32.48400 54.96600 39.23400
C  33.29200 59.57700 40.53800
C  28.50100 60.40200 41.09300
N  30.12500 55.68600 39.56600
C  28.85400 55.13100 39.26700
C  28.96000 53.67100 38.83600
C  30.51900 53.36600 39.12600
C  31.09600 54.72900 39.39700
C  30.71000 52.42700 40.36300
C  28.58100 53.41000 37.31200
C  29.20600 54.33100 36.22500
H  28.60300 54.54100 34.73800
N  32.63000 57.37400 40.00300
C  33.15800 56.23000 39.50700
C  34.47300 56.39900 39.13500
C  34.81900 57.69700 39.58200
C  33.54600 58.27500 40.09600
C  35.34700 55.41700 38.41900
C  36.22100 58.22900 39.47000
O  37.09400 57.54100 38.92500
C  36.48500 59.63400 39.85300
N  30.83500 59.64900 40.83300
C  32.09300 60.22700 40.93100
C  32.00300 61.75600 41.06500
C  30.45800 61.95800 41.41800
C  29.83700 60.59700 41.05800
C  32.87000 62.45100 42.07900
C  29.93000 63.32400 40.75000
C  28.73800 64.06000 41.57700
N  28.53600 58.01500 40.45100
C  27.83500 59.16600 40.78400
C  26.45700 58.90900 40.67500
C  26.26100 57.56800 40.24500
C  27.58100 57.08700 40.07100
C  25.30000 59.85900 40.94300
C  25.28900 56.51300 39.70300
O  24.10400 56.53700 39.50600
C  26.20400 55.26700 39.23200
C  25.86300 54.14100 40.05700
O  26.45600 53.75800 41.08200
O  24.77300 53.57500 39.47400
C  24.36700 52.44300 40.18900
H  33.09600 54.12500 38.90300
H  34.05800 60.35200 40.46300
H  27.83500 61.25300 41.24900
H  28.30800 53.06800 39.46800
H  30.98600 52.88200 38.26700
H  31.09000 51.49000 39.95500
H  29.74900 52.32000 40.86500
H  31.48900 52.72600 41.06500
H  27.51600 53.18200 37.25700
H  29.10700 52.48500 37.07500
H  30.17700 53.87300 36.03500
H  29.46100 55.33000 36.58000
H  34.80600 54.61200 37.92100
H  35.99600 55.01500 39.19700
H  36.00800 55.89100 37.69300
H  37.51900 59.94200 39.70000
H  36.10000 59.88900 40.84000
H  36.02600 60.27400 39.09900
H  32.08000 62.08700 40.02900
H  30.29700 62.06600 42.49100
H  32.32800 62.95600 42.87800
H  33.46700 63.23700 41.61700
H  33.53300 61.71100 42.52800
H  29.61300 63.22100 39.71200
H  30.76200 64.02500 40.80600
H  28.53200 63.49100 42.48200
H  27.82700 64.00200 40.98200
H  28.97400 65.09800 41.81500
H  24.77700 59.72300 41.88900
H  24.59400 59.81200 40.11400
H  25.66100 60.88600 40.87700
H  26.17000 54.98600 38.18000
H  23.73600 51.79200 39.58300
H  23.76600 52.69500 41.06300
H  25.27100 51.89100 40.44700
Mg 35.94500 49.47800 25.17100
C  36.39200 47.78400 28.30900
C  34.15600 51.79400 26.86600
C  35.20400 50.73600 22.22000
C  37.39400 46.72000 23.58500
N  35.24400 49.66900 27.31300
C  35.73700 48.98600 28.42200
C  35.42100 49.71700 29.70500
C  34.59200 50.97400 29.23600
C  34.67200 50.82000 27.72300
C  33.08600 50.98000 29.83500
C  36.73000 50.10200 30.39900
C  36.80400 49.84600 31.90600
H  35.52300 49.95400 32.78400
N  34.77100 50.96400 24.60700
C  34.11400 51.92400 25.48200
C  33.40300 52.88300 24.73400
C  33.67700 52.57100 23.35700
C  34.60500 51.40200 23.33900
C  32.35800 53.75200 25.32000
C  33.08400 53.14700 22.07600
O  33.43000 52.74000 20.94500
C  32.25000 54.42900 22.09600
N  36.14600 48.72100 23.18300
C  35.91500 49.48800 22.18000
C  36.38500 48.94500 20.82300
C  37.34500 47.78000 21.27000
C  36.89900 47.69300 22.74600
C  35.11800 48.50400 19.98700
C  38.81100 48.10700 20.96500
C  39.61300 47.07100 20.15000
N  36.61200 47.57900 25.74500
C  37.21900 46.60400 24.93500
C  37.70400 45.52800 25.78400
C  37.34500 45.92900 27.12500
C  36.72400 47.23400 27.02300
C  38.32000 44.24100 25.30700
C  37.50700 45.58400 28.52300
O  37.97900 44.61400 29.07600
C  36.87900 46.76000 29.29300
C  35.74200 46.19000 30.18000
O  34.62800 45.92100 29.82400
O  36.17900 46.07500 31.46500
C  35.06300 45.82400 32.39000
H  33.79700 52.63100 27.46900
H  35.01500 51.11800 21.21500
H  37.92200 45.87300 23.14300
H  34.74400 49.09200 30.28700
H  35.00900 51.95800 29.44600
H  32.43600 50.25100 29.35200
H  32.64200 51.97400 29.79000
H  33.12700 50.65000 30.87300
H  37.00400 51.15500 30.34100
H  37.58200 49.54700 30.00700
H  37.43900 50.66000 32.25700
H  37.22700 48.87700 32.17000
H  32.33800 54.73500 24.85100
H  32.59000 53.91300 26.37300
H  31.38100 53.30800 25.13000
H  32.71100 55.21100 22.70000
H  31.23700 54.19500 22.42400
H  32.14000 54.81200 21.08200
H  36.90900 49.62500 20.15200
H  37.09400 46.85800 20.74600
H  34.20600 48.63300 20.57000
H  35.15500 47.48600 19.59800
H  35.12600 49.02900 19.03300
H  39.35900 48.22900 21.90000
H  38.84200 49.12800 20.58300
H  39.06600 46.12800 20.17300
H  40.63600 46.95800 20.50800
H  39.57100 47.41200 19.11600
H  38.67600 44.31300 24.27900
H  37.55000 43.47200 25.35800
H  39.12200 43.95600 25.98800
H  37.55900 47.27300 29.97300
H  34.47300 44.94800 32.12100
H  34.27100 46.56000 32.25200
H  35.27200 45.63200 33.44300

