158

Mg 8.64300 3.85900 28.04900
C  9.77500 2.29600 30.97300
C  6.52000 5.73000 29.98200
C  7.24600 5.01000 25.08400
C  10.44900 1.44400 26.15400
N  8.32100 3.97100 30.22600
C  8.92100 3.31600 31.23000
C  8.30200 3.74300 32.63300
C  7.25900 4.77200 32.22100
C  7.33900 4.82100 30.68700
C  5.75600 4.64500 32.70600
C  9.44400 4.11900 33.69400
C  9.18600 5.17400 34.71300
H  9.58400 4.90300 36.17400
N  7.20200 5.24500 27.61500
C  6.42200 5.89600 28.54100
C  5.56800 6.86100 27.83800
C  5.79200 6.70000 26.47300
C  6.75300 5.59000 26.36100
C  4.50000 7.63100 28.57200
C  5.15100 7.42200 25.27300
O  5.49900 7.16200 24.14900
C  4.16200 8.57700 25.46400
N  8.65600 3.17400 25.95500
C  8.09900 3.93100 24.97800
C  8.67200 3.50300 23.61400
C  9.95200 2.71000 24.01700
C  9.68700 2.39900 25.44700
C  7.61300 2.73800 22.82100
C  11.32300 3.43000 23.91400
C  11.25600 4.96700 23.83300
N  9.91900 2.18100 28.44400
C  10.56100 1.31200 27.57500
C  11.18500 0.24200 28.40400
C  11.03900 0.66600 29.73200
C  10.13800 1.76400 29.68900
C  11.87700 -1.03600 27.91000
C  11.35700 0.35100 31.08600
O  12.08000 -0.58800 31.52200
C  10.53200 1.37600 32.07300
C  9.60000 0.50300 32.81300
O  8.50800 0.15300 32.43600
O  10.16000 0.27700 34.02800
C  9.44400 -0.72000 34.86800
H  6.07600 6.46500 30.65700
H  6.94100 5.47000 24.14200
H  11.20100 0.88700 25.59200
H  7.79000 2.85100 32.99300
H  7.52100 5.74400 32.64000
H  5.64600 5.37900 33.50400
H  5.62600 3.64400 33.11700
H  5.01000 4.85600 31.93900
H  10.37400 4.38500 33.19200
H  9.64500 3.23700 34.30200
H  8.09800 5.17300 34.65200
H  9.55100 6.15000 34.39400
H  4.35600 7.43600 29.63500
H  3.60700 7.27500 28.05800
H  4.74400 8.67900 28.40000
H  3.60300 8.72000 24.54000
H  4.64500 9.54000 25.63100
H  3.47200 8.42900 26.29400
H  8.98700 4.41300 23.10400
H  9.97800 1.77800 23.45200
H  6.75800 2.45900 23.43600
H  8.02900 1.86800 22.31300
H  7.15600 3.49800 22.18700
H  11.74200 3.32500 22.91300
H  12.09800 3.16300 24.63300
H  11.19200 5.37900 22.82600
H  12.09700 5.52000 24.25100
H  10.35500 5.27500 24.36200
H  12.83500 -0.75200 27.47400
H  11.20700 -1.65100 27.30900
H  12.15500 -1.52500 28.84300
H  11.26600 1.91800 32.67000
H  9.30200 -1.70200 34.41500
H  8.44700 -0.36400 35.12500
H  10.07200 -0.80500 35.75500
Mg 56.22900 25.74700 45.37300
C  53.15500 27.06800 44.10100
C  55.28200 22.69300 44.07200
C  59.28600 24.87900 45.57500
C  57.07800 29.12200 46.19900
N  54.41300 24.97400 44.23100
C  53.25800 25.67000 43.90300
C  52.14800 24.68600 43.37600
C  52.78900 23.29000 43.56300
C  54.26000 23.66600 43.99500
C  52.17000 22.38600 44.72200
C  51.75300 24.98200 41.86900
C  50.25300 24.88300 41.51800
H  50.06500 24.11400 40.17500
N  57.12500 23.97300 45.05200
C  56.59700 22.82000 44.55000
C  57.64400 21.75500 44.53600
C  58.79900 22.40600 44.99000
C  58.48300 23.76400 45.26100
C  57.45100 20.35600 43.88500
C  60.08600 21.62500 45.11300
O  60.18300 20.43900 44.70200
C  61.31500 22.19400 45.80100
N  57.98500 26.83100 45.83300
C  59.11300 26.21200 45.81000
C  60.26700 27.12200 46.15200
C  59.58100 28.42200 46.56200
C  58.05900 28.15400 46.18900
C  61.32700 26.53900 47.13300
C  60.03300 29.69100 45.76500
C  60.27400 30.90700 46.63300
N  55.41900 27.66100 45.15900
C  55.79800 28.90200 45.68900
C  54.66600 29.84000 45.80300
C  53.63700 29.17400 45.08400
C  54.09000 27.88200 44.76700
C  54.64300 31.20000 46.34500
C  52.28200 29.30900 44.60600
O  51.58300 30.32300 44.65500
C  52.07500 28.04700 43.78100
C  52.02700 28.41200 42.33500
O  52.96200 28.40500 41.55800
O  50.74800 28.72300 42.05200
C  50.31800 28.78200 40.63000
H  55.09300 21.65700 43.78600
H  60.34100 24.63900 45.71800
H  57.29400 30.13600 46.54200
H  51.28100 24.84300 44.01700
H  52.88700 22.68000 42.66400
H  51.34600 22.79700 45.30600
H  52.89600 22.25200 45.52500
H  51.91800 21.42700 44.26900
H  52.39600 24.32700 41.28200
H  52.14300 25.95700 41.57600
H  49.68100 25.80800 41.45500
H  49.87600 24.33500 42.38200
H  58.31000 20.24100 43.22400
H  56.49300 20.23900 43.37900
H  57.38700 19.68800 44.74400
H  61.81900 22.91600 45.15900
H  62.09200 21.45900 46.01500
H  60.82900 22.57000 46.70100
H  60.69000 27.22600 45.15300
H  59.67000 28.54900 47.64100
H  61.67600 27.34700 47.77600
H  62.21300 26.13700 46.64200
H  60.82100 25.79400 47.74700
H  59.28800 30.04000 45.05100
H  60.91100 29.41200 45.18300
H  59.88200 30.88300 47.64900
H  59.78400 31.70800 46.08000
H  61.35000 31.08000 46.61900
H  55.15300 31.95900 45.75200
H  55.17200 31.20900 47.29800
H  53.59300 31.48400 46.42500
H  51.09400 27.66200 44.05700
H  51.10800 29.11900 39.95800
H  49.55900 29.55500 40.50800
H  49.89300 27.80400 40.40600

