158

Mg 53.38300 23.82800 44.80200
C  50.65700 26.02700 44.37900
C  51.31100 21.19100 44.18200
C  56.13600 21.91700 44.23000
C  55.47400 26.63900 45.12700
N  51.16700 23.63300 44.11300
C  50.25300 24.67500 44.21500
C  48.80400 24.12700 44.25200
C  49.07800 22.64600 44.56400
C  50.54700 22.43600 44.21800
C  48.79300 22.17100 46.01000
C  47.88900 24.35300 43.01300
C  48.44700 24.26400 41.61200
H  47.91700 23.04000 40.77300
N  53.75200 21.84600 44.26900
C  52.70300 20.90100 44.08900
C  53.29500 19.60300 43.98500
C  54.75400 19.74400 43.96500
C  54.91900 21.24100 44.15200
C  52.34800 18.39100 43.75600
C  55.76300 18.56600 43.84400
O  55.46300 17.36600 43.82500
C  57.20800 18.88000 43.89600
N  55.56800 24.22800 44.59500
C  56.51500 23.26000 44.38600
C  57.94200 23.86800 44.21700
C  57.65000 25.38400 44.66400
C  56.12600 25.44500 44.86000
C  58.90900 23.01300 45.13000
C  58.20700 26.53100 43.66700
C  57.24000 26.92300 42.49500
N  53.17500 25.89500 44.85900
C  54.10400 26.90500 45.07900
C  53.39400 28.20000 45.16300
C  52.06600 27.87300 44.85300
C  51.99900 26.49400 44.62700
C  54.14400 29.43900 45.50200
C  50.76000 28.43600 44.74300
O  50.43000 29.59900 44.94600
C  49.77500 27.23400 44.44700
C  49.23700 27.48400 43.08000
O  49.90000 27.58000 42.03700
O  47.88200 27.71400 43.17300
C  47.12400 27.93000 41.95500
H  50.65000 20.34000 44.35500
H  57.04100 21.34700 44.01200
H  56.07800 27.53400 45.28900
H  48.33000 24.56400 45.13100
H  48.48300 21.99300 43.92500
H  49.73400 22.10600 46.55600
H  48.41600 21.15600 45.88200
H  48.09900 22.77700 46.59200
H  47.43600 25.33700 43.12800
H  47.08200 23.62600 43.10700
H  49.52100 24.44200 41.55800
H  48.11900 25.23400 41.24000
H  51.86800 18.50900 42.78500
H  51.61900 18.22900 44.55000
H  52.91500 17.46800 43.63500
H  57.78300 17.95900 43.79400
H  57.32300 19.40300 44.84600
H  57.41500 19.60000 43.10500
H  58.31500 23.69200 43.20800
H  58.03700 25.62000 45.65600
H  59.74300 22.64300 44.53300
H  58.48900 22.17500 45.68600
H  59.35900 23.78700 45.75100
H  59.16400 26.26600 43.21700
H  58.51500 27.43300 44.19500
H  56.62600 27.76200 42.82400
H  56.58800 26.08600 42.24300
H  57.95500 27.20200 41.72100
H  54.55900 29.24600 46.49200
H  53.47900 30.30300 45.50900
H  54.92300 29.54800 44.74800
H  48.98900 26.99400 45.16300
H  46.62800 28.89100 42.09400
H  46.32700 27.18800 41.90600
H  47.74200 27.93000 41.05700
Mg 46.76300 34.53800 28.12600
C  45.28500 33.04300 30.89700
C  47.24600 37.44800 30.15900
C  47.88600 36.21900 25.45700
C  45.95000 31.91200 26.18300
N  46.25400 35.18500 30.25500
C  45.82600 34.28500 31.20400
C  46.16400 34.80700 32.58900
C  46.33900 36.33300 32.30600
C  46.53000 36.36000 30.78800
C  45.20500 37.38600 32.79600
C  47.39400 34.17600 33.31300
C  47.51100 34.31100 34.78600
H  46.64000 35.20000 35.67400
N  47.30200 36.63700 27.81100
C  47.58500 37.57300 28.77500
C  48.12000 38.75600 28.15300
C  48.27700 38.44100 26.77100
C  47.82000 37.04200 26.59600
C  48.36300 40.03400 28.89100
C  48.86900 39.32600 25.59000
O  48.87200 38.88500 24.43400
C  49.42400 40.72600 25.76100
N  47.01800 34.05900 26.17800
C  47.49300 34.92500 25.17100
C  47.67700 34.11000 23.85100
C  46.94100 32.77500 24.10300
C  46.71100 32.86700 25.59200
C  47.25000 34.90600 22.61200
C  47.84400 31.53400 23.69300
C  47.08500 30.31200 23.45400
N  45.77800 32.78500 28.42900
C  45.52600 31.76100 27.53000
C  44.89300 30.65200 28.15400
C  44.82000 31.09300 29.49600
C  45.34000 32.42100 29.60400
C  44.45400 29.31300 27.47400
C  44.23500 30.80500 30.77600
O  43.59500 29.87100 31.11300
C  44.46600 32.09700 31.59100
C  44.82200 31.79200 32.96700
O  45.82900 31.25600 33.40500
O  43.64100 31.97400 33.69200
C  43.60500 31.58400 35.13500
H  47.61000 38.24700 30.80800
H  48.23300 36.47300 24.45300
H  45.86500 31.04200 25.52900
H  45.23700 34.64800 33.14100
H  47.34500 36.60000 32.63000
H  44.39200 36.73100 33.10700
H  44.85500 37.92900 31.91700
H  45.39500 38.15500 33.54400
H  48.31600 34.63000 32.95000
H  47.44600 33.11800 33.05600
H  48.53500 34.66500 34.90700
H  47.32300 33.28700 35.10900
H  48.40000 40.89900 28.22900
H  49.39600 39.91800 29.21800
H  47.62100 40.33300 29.63100
H  49.76100 40.93300 26.77600
H  48.56800 41.39400 25.66600
H  50.22000 40.86000 25.02800
H  48.74500 33.90800 23.77700
H  45.93600 32.66400 23.69300
H  46.53700 35.69300 22.85400
H  46.80200 34.28200 21.83900
H  48.18000 35.30000 22.20100
H  48.65000 31.36100 24.40600
H  48.47400 31.71300 22.82100
H  47.13800 29.72000 24.36800
H  47.53300 29.75300 22.63200
H  46.03600 30.51700 23.24400
H  43.52000 29.45900 26.93100
H  44.33400 28.56500 28.25800
H  45.15200 28.93500 26.72700
H  43.47900 32.55500 31.64700
H  42.57700 31.53200 35.49400
H  44.17100 32.40700 35.57100
H  44.10500 30.64600 35.37800

