158

Mg 41.35200 41.09600 27.23600
C  41.22300 43.72900 29.58900
C  41.98100 38.93300 29.83100
C  42.02800 38.61500 25.01500
C  40.75400 43.29000 24.70000
N  41.72200 41.33800 29.48700
C  41.48400 42.43300 30.20600
C  41.43700 42.08700 31.70200
C  41.82700 40.61500 31.70800
C  41.84400 40.24500 30.24300
C  43.15300 40.25000 32.52000
C  40.17600 42.57400 32.39600
C  39.63700 41.89300 33.63800
H  39.24100 42.75200 34.86900
N  41.81400 39.05500 27.41200
C  42.08800 38.38600 28.59300
C  42.49200 37.00700 28.18800
C  42.41700 36.82500 26.80100
C  42.01700 38.19600 26.34300
C  42.84000 36.01000 29.18000
C  42.53300 35.61800 25.94500
O  42.33500 35.72600 24.73500
C  42.68700 34.25600 26.56100
N  41.41400 40.97400 25.18600
C  41.67100 39.86200 24.47800
C  41.44700 40.13300 22.95400
C  40.72300 41.55500 22.90700
C  40.96500 41.97300 24.36400
C  42.73600 40.14400 22.02700
C  39.21400 41.57800 22.51300
C  38.22600 40.58800 23.13400
N  40.99100 43.02100 27.12800
C  40.82100 43.83900 25.98500
C  40.69600 45.23300 26.42100
C  40.82400 45.18400 27.84300
C  41.06000 43.83600 28.20500
C  40.51700 46.36200 25.43900
C  40.92100 45.98700 28.97400
O  40.85500 47.23800 29.06500
C  41.08000 45.04000 30.21600
C  42.24100 45.41200 31.03800
O  43.40000 45.14800 30.79100
O  41.83500 45.97800 32.23100
C  42.74900 45.96100 33.35500
H  42.14800 38.34500 30.73600
H  42.40900 37.99900 24.19800
H  40.46900 43.95200 23.87900
H  42.23500 42.69200 32.13000
H  40.96100 40.04500 32.04500
H  42.90800 39.43600 33.20100
H  43.63400 41.04000 33.09700
H  43.93600 39.82000 31.89500
H  39.49000 42.39200 31.56800
H  40.21500 43.63600 32.63800
H  40.46100 41.27100 33.98800
H  38.88700 41.26200 33.16100
H  42.19900 35.12900 29.19400
H  42.75500 36.45000 30.17400
H  43.83500 35.57900 29.06800
H  42.56300 33.46500 25.82200
H  41.91300 34.17600 27.32400
H  43.69400 34.41300 26.94800
H  40.66900 39.42900 22.65800
H  41.27000 42.22600 22.24400
H  42.34600 39.78800 21.07400
H  43.41000 39.45000 22.52900
H  43.15900 41.13500 21.85800
H  39.16200 41.50800 21.42700
H  38.85100 42.53400 22.89000
H  37.72400 40.20400 22.24500
H  37.62400 41.09900 23.88500
H  38.74200 39.73000 23.56500
H  40.16400 47.18400 26.06200
H  39.91000 46.12100 24.56600
H  41.51700 46.56300 25.05500
H  40.16500 45.05000 30.80900
H  42.50900 45.24400 34.13900
H  42.81200 46.99900 33.68200
H  43.74900 45.57000 33.16300
Mg -4.71000 24.88500 25.89800
C  -2.89500 26.44500 28.51000
C  -5.74400 22.63400 28.13800
C  -6.36400 23.56000 23.47800
C  -3.11000 27.13100 23.59900
N  -4.38200 24.69000 28.05300
C  -3.73700 25.46100 28.90800
C  -4.07600 25.15900 30.39300
C  -4.71200 23.78900 30.22100
C  -5.03000 23.67700 28.69900
C  -3.79800 22.64000 30.70000
C  -5.09600 26.25700 30.88800
C  -5.02300 26.43000 32.44500
H  -4.62300 25.24700 33.33500
N  -5.95700 23.33100 25.82300
C  -6.18600 22.45900 26.80500
C  -6.88600 21.29000 26.27300
C  -7.15200 21.52100 24.88800
C  -6.50300 22.84300 24.68500
C  -7.47300 20.16700 27.20700
C  -7.97400 20.77300 23.87000
O  -8.26500 21.27700 22.79500
C  -8.54000 19.38100 24.18300
N  -4.89400 25.48400 23.85500
C  -5.60800 24.67200 23.08000
C  -5.41300 24.85400 21.57000
C  -4.45400 26.09600 21.58900
C  -4.14200 26.31500 23.10200
C  -4.76600 23.59500 20.95100
C  -5.03800 27.31400 20.89200
C  -4.20500 27.76200 19.70800
N  -3.25400 26.41700 25.96600
C  -2.73200 27.24400 24.96000
C  -1.81700 28.22400 25.60100
C  -1.89100 27.99400 26.96000
C  -2.70600 26.81700 27.16700
C  -1.15400 29.33600 24.90500
C  -1.31900 28.43300 28.27200
O  -0.48100 29.30400 28.51300
C  -2.11000 27.48400 29.37200
C  -1.12500 26.79200 30.22600
O  -0.24700 26.06900 29.92100
O  -1.44600 27.11700 31.52900
C  -0.58300 26.72300 32.66100
H  -6.19400 21.91500 28.82500
H  -6.88100 23.15500 22.60600
H  -2.74800 27.77800 22.79800
H  -3.20600 25.19000 31.04900
H  -5.58100 23.72400 30.87500
H  -4.41900 22.01600 31.34300
H  -3.02700 22.96900 31.39700
H  -3.37200 22.06800 29.87500
H  -6.11700 26.03300 30.57900
H  -4.87600 27.24400 30.48100
H  -5.99400 26.69100 32.86800
H  -4.25600 27.17400 32.65800
H  -6.79500 19.31400 27.22400
H  -8.48300 20.06100 26.81200
H  -7.56900 20.64600 28.18100
H  -7.72700 18.71800 24.47700
H  -8.98600 19.06900 23.23800
H  -9.25800 19.37500 25.00300
H  -6.42100 24.99700 21.18000
H  -3.50400 25.85900 21.10900
H  -4.70600 22.74900 21.63600
H  -3.78200 23.71000 20.49700
H  -5.38900 23.37600 20.08400
H  -5.10600 28.16900 21.56400
H  -6.06800 27.18200 20.56000
H  -4.82600 28.36900 19.04900
H  -3.96900 26.88800 19.10000
H  -3.36100 28.31900 20.11500
H  -0.08400 29.24000 25.08800
H  -1.34700 30.35600 25.23800
H  -1.28700 29.15600 23.83800
H  -2.73100 28.17300 29.94600
H  0.22300 27.45300 32.73700
H  -0.05100 25.81200 32.38400
H  -0.98800 26.68500 33.67200

