158

Mg -0.54500 43.49500 25.99900
C  1.60000 43.37600 28.86500
C  -3.11400 42.38900 28.10500
C  -2.47500 43.50900 23.29100
C  2.32000 44.16800 24.08400
N  -0.69700 43.00100 28.27100
C  0.26400 43.10400 29.23100
C  -0.28700 42.74800 30.60300
C  -1.70700 42.14100 30.26700
C  -1.89100 42.57000 28.83500
C  -1.83400 40.60800 30.58600
C  -0.17300 44.00700 31.51200
C  0.53600 43.72600 32.93400
H  0.43400 42.33000 33.66800
N  -2.54100 43.00800 25.74800
C  -3.45300 42.56200 26.71300
C  -4.76400 42.45800 26.04300
C  -4.52500 42.79500 24.65700
C  -3.10500 43.09300 24.54500
C  -5.99300 41.90800 26.68900
C  -5.55500 42.76200 23.52600
O  -5.33000 43.31100 22.43100
C  -6.85400 42.07900 23.77000
N  -0.12700 43.68200 23.84700
C  -1.17600 43.78600 22.96800
C  -0.66600 44.41900 21.64200
C  0.87100 44.60000 21.86900
C  1.07600 44.13100 23.32900
C  -1.11700 43.48600 20.47200
C  1.33700 46.04100 21.70700
C  1.84700 46.51200 20.34700
N  1.52200 43.62500 26.29300
C  2.55900 43.88600 25.40200
C  3.85900 43.76300 26.07600
C  3.52400 43.67000 27.35800
C  2.12300 43.54300 27.51100
C  5.21600 43.75300 25.45800
C  4.07700 43.65400 28.72100
O  5.29000 43.68700 29.05200
C  2.86600 43.46800 29.73900
C  3.10200 42.23800 30.44600
O  2.96900 41.05400 30.00500
O  3.60500 42.66700 31.70600
C  4.07400 41.55600 32.53600
H  -3.84100 41.76200 28.62500
H  -3.20300 43.59800 22.48200
H  3.17500 44.36400 23.43400
H  0.36200 42.02900 31.10400
H  -2.55100 42.47000 30.87300
H  -2.70900 40.49300 31.22600
H  -1.03200 40.25600 31.23500
H  -1.90000 39.97600 29.70000
H  -1.21000 44.32300 31.63400
H  0.45000 44.81300 31.12400
H  0.24600 44.46200 33.68400
H  1.61200 43.86900 32.83200
H  -5.82500 41.87700 27.76500
H  -6.41900 40.94300 26.41500
H  -6.82400 42.60200 26.55600
H  -6.46800 41.10300 24.06400
H  -7.30500 42.03800 22.77800
H  -7.40200 42.53000 24.59700
H  -1.27800 45.31500 21.53200
H  1.42400 43.97300 21.16900
H  -0.71500 43.82900 19.51800
H  -2.20400 43.40000 20.45300
H  -0.67200 42.49800 20.59000
H  1.99600 46.43600 22.48000
H  0.48100 46.66400 21.96500
H  2.27200 45.80200 19.63700
H  2.55000 47.29400 20.63200
H  1.05800 47.04800 19.81900
H  5.88600 44.04800 26.26600
H  5.16300 44.56300 24.73100
H  5.44800 42.80200 24.97800
H  2.91100 44.34900 30.38100
H  5.10100 41.30100 32.27600
H  3.55500 40.61200 32.37100
H  4.17700 41.77900 33.59800
Mg -11.57800 16.94300 42.56700
C  -8.17400 17.26200 42.60100
C  -11.77000 20.39200 41.92300
C  -14.87000 16.65800 41.95600
C  -11.14200 13.43900 42.35600
N  -10.07800 18.66200 42.32400
C  -8.76000 18.50900 42.43500
C  -8.11300 19.93400 42.23700
C  -9.26500 20.86800 42.27700
C  -10.48400 19.95300 42.21700
C  -9.35900 21.83000 43.49200
C  -7.25000 19.93200 40.96100
C  -5.90100 20.64100 41.10000
H  -5.40400 21.44000 39.88100
N  -13.05200 18.32000 42.18000
C  -12.94000 19.68400 42.02500
C  -14.26300 20.28900 41.82400
C  -15.18000 19.22400 41.87000
C  -14.38100 17.99500 42.05400
C  -14.58800 21.75800 41.78000
C  -16.70500 19.41500 41.85300
O  -17.26200 20.48300 41.63100
C  -17.57400 18.21900 41.95300
N  -12.81700 15.22100 42.20300
C  -14.16900 15.41500 42.08800
C  -14.87800 14.07100 42.13100
C  -13.67000 13.09400 41.95900
C  -12.44800 13.96400 42.22200
C  -16.00400 13.86200 43.29100
C  -13.57700 12.43900 40.50700
C  -13.73500 10.88700 40.48100
N  -10.05700 15.60100 42.56400
C  -10.03600 14.20900 42.50200
C  -8.62100 13.73300 42.70200
C  -7.90900 14.97900 42.73900
C  -8.83300 16.00600 42.66700
C  -8.21000 12.35300 42.62400
C  -6.53100 15.43200 42.87000
O  -5.44500 14.88600 43.02000
C  -6.71000 17.01400 42.95100
C  -6.33800 17.49200 44.35600
O  -6.98900 17.32100 45.38500
O  -5.08100 18.17100 44.27000
C  -4.61800 18.91100 45.44300
H  -11.89500 21.44900 41.67800
H  -15.89900 16.53400 41.61200
H  -10.90700 12.37300 42.37600
H  -7.38500 20.00700 43.04500
H  -9.27500 21.50500 41.39300
H  -9.95500 22.69500 43.20000
H  -8.35300 22.11600 43.79900
H  -9.95600 21.39000 44.29100
H  -7.88500 20.33000 40.17000
H  -6.94100 18.89700 40.81700
H  -5.10800 19.92800 41.32400
H  -5.81500 21.38900 41.88900
H  -15.22200 21.94900 40.91400
H  -13.72900 22.34800 41.46300
H  -14.94700 22.10700 42.74800
H  -18.59400 18.60200 41.93400
H  -17.43800 17.72000 42.91300
H  -17.52700 17.60300 41.05500
H  -15.53800 14.09600 41.26400
H  -13.59200 12.31400 42.71600
H  -16.31700 14.84400 43.64600
H  -15.61900 13.26800 44.12000
H  -16.84600 13.26900 42.93400
H  -12.60700 12.79400 40.16000
H  -14.40700 12.84000 39.92500
H  -14.28700 10.43200 41.30200
H  -12.88500 10.24800 40.23800
H  -14.33900 10.58400 39.62600
H  -8.80100 11.79100 41.90100
H  -8.21700 11.84100 43.58600
H  -7.22900 12.38000 42.15100
H  -5.94700 17.34500 42.24800
H  -5.11400 18.42500 46.28300
H  -4.76000 19.99100 45.46100
H  -3.55300 18.79000 45.64000

