158

Mg 24.63700 0.92400 30.21200
C  26.42500 0.98500 33.25400
C  21.77100 1.16200 32.04000
C  22.91900 0.91200 27.38100
C  27.58400 0.54600 28.57400
N  24.24000 1.11000 32.40200
C  25.06000 1.10200 33.47200
C  24.28900 1.40000 34.78100
C  22.81700 1.10200 34.33900
C  22.94000 1.13200 32.81500
C  22.22500 -0.24000 34.90600
C  24.64400 2.78900 35.41000
C  25.40200 2.86700 36.71900
H  24.78200 3.67900 37.81800
N  22.63200 0.93400 29.77300
C  21.57100 0.99300 30.65400
C  20.32000 1.03000 29.94500
C  20.60300 0.84900 28.55200
C  22.12700 0.94800 28.51500
C  18.96300 1.18000 30.67000
C  19.67400 0.60200 27.39300
O  20.16700 0.35800 26.28300
C  18.13000 0.52000 27.59600
N  25.13200 0.74700 28.27000
C  24.34100 0.82700 27.22600
C  25.09200 1.18200 25.95500
C  26.56800 0.90500 26.36500
C  26.45000 0.69000 27.83500
C  24.63700 0.37800 24.72200
C  27.51500 2.15100 25.99600
C  27.43800 3.42800 26.88100
N  26.63000 0.74700 30.70400
C  27.72900 0.45600 29.94600
C  28.91200 0.27900 30.77700
C  28.44100 0.62500 32.06900
C  27.03600 0.74900 32.00700
C  30.37700 0.05400 30.32300
C  28.80900 0.85500 33.40700
O  29.95100 0.83700 33.94300
C  27.53300 1.13500 34.25500
C  27.64500 0.04600 35.27300
O  27.07700 -1.03400 35.26700
O  28.45300 0.49900 36.33500
C  28.41000 -0.48600 37.49400
H  20.85400 1.40200 32.58200
H  22.45300 1.00600 26.39800
H  28.56100 0.51600 28.08700
H  24.63400 0.57700 35.40700
H  22.10300 1.87100 34.63100
H  21.39000 -0.03800 35.57700
H  22.91000 -0.86000 35.48500
H  21.75700 -0.81900 34.11100
H  23.72500 3.36900 35.49700
H  25.25100 3.32500 34.68100
H  26.41500 3.25700 36.62400
H  25.67900 1.86400 37.04300
H  19.08400 0.91700 31.72100
H  18.07900 0.76100 30.19000
H  18.78800 2.25500 30.71800
H  17.61900 0.34800 26.64900
H  17.91100 1.54400 27.89900
H  17.90900 -0.18800 28.39500
H  24.99300 2.26000 25.83100
H  26.86000 0.05200 25.75300
H  24.36900 -0.62500 25.05200
H  25.42200 0.22900 23.98100
H  23.80500 0.90400 24.25400
H  27.06200 2.41600 25.04000
H  28.53500 1.79100 25.86000
H  28.42100 3.73500 27.23700
H  26.73600 3.44800 27.71500
H  27.19800 4.23600 26.18900
H  30.44800 0.59900 29.38200
H  30.64500 -1.00100 30.27100
H  30.96700 0.49000 31.12900
H  27.56800 2.08100 34.79400
H  29.26200 -0.23400 38.12500
H  28.51100 -1.49100 37.08500
H  27.52400 -0.20300 38.06200
Mg 36.10400 49.08500 25.60800
C  36.46500 47.14600 28.47400
C  34.82300 51.61100 27.62600
C  35.37900 50.84500 22.81600
C  37.08900 46.31700 23.57000
N  35.50100 49.16500 27.77500
C  35.95900 48.42400 28.79000
C  35.86900 49.10200 30.14000
C  35.09200 50.40800 29.77500
C  35.16200 50.40400 28.28500
C  33.60600 50.46600 30.27400
C  37.20600 49.22700 30.97400
C  37.09200 49.24400 32.50600
H  35.71100 49.53600 33.10500
N  35.23200 50.93600 25.29500
C  34.86700 51.86200 26.24400
C  34.48600 53.10300 25.60600
C  34.43100 52.80800 24.20400
C  35.02400 51.46400 24.04400
C  34.25300 54.40000 26.43600
C  34.03500 53.73600 23.08400
O  34.19400 53.45800 21.91600
C  33.47900 55.14200 23.38100
N  36.46500 48.74000 23.48700
C  35.96800 49.60100 22.53100
C  36.10600 49.04100 21.08200
C  36.80600 47.62900 21.27200
C  36.78100 47.53900 22.82500
C  34.71200 49.02500 20.39300
C  38.29700 47.55400 20.70800
C  38.72900 46.22900 19.94000
N  36.74200 47.22600 25.90100
C  37.06900 46.19300 25.02300
C  37.50700 45.02800 25.72900
C  37.20900 45.36000 27.05800
C  36.73100 46.70000 27.17700
C  38.24500 43.88200 25.22700
C  37.19800 44.84000 28.45100
O  37.61900 43.75800 28.78700
C  36.62500 45.98100 29.37300
C  35.39500 45.55300 30.00700
O  34.27000 45.28600 29.53900
O  35.56400 45.74200 31.35300
C  34.40100 45.47000 32.28100
H  34.49600 52.43700 28.26100
H  35.32500 51.43700 21.90000
H  37.29700 45.41000 22.99800
H  35.13400 48.47200 30.64000
H  35.50500 51.38100 30.04400
H  33.43700 51.47800 30.64100
H  33.29100 49.74600 31.02900
H  32.92100 50.28000 29.44700
H  37.59700 50.22900 30.79900
H  37.91300 48.48800 30.59600
H  37.78900 49.98900 32.89100
H  37.49600 48.25700 32.73200
H  33.18200 54.58500 26.50800
H  34.66300 55.17000 25.78100
H  34.82500 54.41800 27.36400
H  34.35900 55.77800 23.48000
H  32.65800 55.09900 24.09600
H  32.99100 55.49300 22.47100
H  36.77100 49.74600 20.58300
H  36.17200 46.79600 20.96800
H  34.72800 49.68200 19.52300
H  33.84700 49.18900 21.03700
H  34.59000 48.06400 19.89500
H  39.09000 47.60100 21.45400
H  38.42300 48.41500 20.05100
H  39.40900 45.59000 20.50300
H  39.15100 46.54700 18.98700
H  37.87500 45.61900 19.64600
H  38.74200 43.55400 26.14000
H  38.85400 44.18500 24.37500
H  37.55500 43.07800 24.96900
H  37.48200 46.15400 30.02400
H  33.54500 44.95300 31.84800
H  34.06200 46.39100 32.75700
H  34.77100 44.81500 33.07000

