158

Mg 2.45800 -1.39000 45.13200
C  6.01200 -0.85800 44.79100
C  2.02900 1.63400 43.54200
C  -0.80000 -2.23100 44.60000
C  3.25000 -4.54000 46.16400
N  3.83000 0.08400 44.25300
C  5.19100 0.11500 44.21300
C  5.73500 1.23100 43.41400
C  4.50200 2.24600 43.22700
C  3.36400 1.28500 43.72800
C  4.45100 3.52200 44.07900
C  6.46400 0.74400 42.15000
C  7.88300 1.26500 41.86300
H  8.08500 1.56700 40.40000
N  0.79300 -0.43700 44.26800
C  0.86700 0.81200 43.73400
C  -0.49100 1.25000 43.30400
C  -1.33400 0.15500 43.68500
C  -0.50400 -0.90000 44.23000
C  -0.77600 2.62900 42.54700
C  -2.85800 0.10100 43.53400
O  -3.44000 1.01800 42.92100
C  -3.63300 -0.93000 44.27400
N  1.36700 -3.21300 45.25600
C  0.00900 -3.26200 45.13200
C  -0.51100 -4.66200 45.72600
C  0.78000 -5.51900 46.14300
C  1.89900 -4.40700 45.75700
C  -1.54100 -4.59500 46.83700
C  0.89900 -6.85700 45.28400
C  1.60400 -8.03000 45.99200
N  4.23000 -2.51200 45.57000
C  4.38000 -3.71900 46.09300
C  5.76700 -4.01900 46.44300
C  6.45300 -2.92300 46.01800
C  5.50200 -2.02000 45.45400
C  6.30100 -5.25700 47.04900
C  7.69500 -2.25000 45.88700
O  8.80000 -2.61400 46.32600
C  7.52800 -0.93700 45.01200
C  8.12900 0.28900 45.57100
O  7.96800 0.61900 46.77200
O  8.95800 0.97300 44.71200
C  9.36000 2.31300 45.22400
H  1.99900 2.58900 43.01300
H  -1.80600 -2.63800 44.47600
H  3.45400 -5.46600 46.70500
H  6.53000 1.66700 44.01800
H  4.23000 2.45700 42.19300
H  5.50200 3.72500 44.28500
H  3.84100 3.44400 44.97900
H  4.00500 4.32600 43.49300
H  5.79800 0.81400 41.29000
H  6.64600 -0.33000 42.18700
H  8.57000 0.62500 42.41700
H  8.10600 2.20900 42.36000
H  -1.84300 2.82200 42.65400
H  -0.53200 2.43200 41.50300
H  -0.21300 3.46600 42.96000
H  -4.64800 -0.62100 44.52400
H  -3.01700 -1.02200 45.16900
H  -3.61700 -1.86800 43.72000
H  -1.03300 -5.17600 44.91900
H  0.77600 -5.80300 47.19600
H  -1.76800 -3.56600 47.11500
H  -1.16200 -5.05800 47.74800
H  -2.45600 -5.15000 46.63100
H  1.51000 -6.71600 44.39200
H  -0.05900 -7.25300 44.94800
H  1.44100 -8.03300 47.07000
H  2.67800 -7.96500 45.81800
H  1.14900 -8.96700 45.67000
H  5.97300 -6.18300 46.57700
H  5.96200 -5.35700 48.08000
H  7.38700 -5.16700 47.08800
H  8.03900 -1.15700 44.07500
H  8.57400 2.91100 45.68500
H  9.66400 2.84900 44.32500
H  10.16600 2.22900 45.95400
Mg 1.64200 8.54500 27.00800
C  2.18500 10.25800 29.96100
C  1.65100 5.58300 28.71500
C  1.41400 6.91500 24.04500
C  2.30600 11.54100 25.26400
N  1.85700 8.01900 29.03000
C  1.97000 8.90700 30.13000
C  1.85000 8.19400 31.48100
C  2.11500 6.73400 30.99700
C  1.81100 6.74400 29.46700
C  3.40500 6.14000 31.32800
C  0.43800 8.55100 32.15100
C  0.44600 8.81300 33.68600
H  1.70600 8.36800 34.41900
N  1.32000 6.55500 26.49800
C  1.36100 5.49000 27.32400
C  0.96000 4.26300 26.59600
C  0.94800 4.60600 25.21600
C  1.27800 6.06700 25.21500
C  0.61600 3.00200 27.26100
C  0.70900 3.71200 23.99400
O  0.48700 4.07000 22.81300
C  0.76300 2.23000 24.18300
N  1.72500 9.07800 24.99500
C  1.61900 8.26000 23.88600
C  1.55800 8.95800 22.58100
C  1.55000 10.44100 23.07400
C  1.98700 10.35200 24.53500
C  2.80400 8.64300 21.72000
C  0.21800 11.28100 22.82600
C  0.29100 12.20000 21.58100
N  2.26100 10.50200 27.45200
C  2.47800 11.61300 26.66700
C  2.77200 12.79300 27.48400
C  2.69300 12.30900 28.78700
C  2.41100 10.95300 28.73100
C  3.01400 14.19100 26.96000
C  2.79400 12.65600 30.19100
O  3.17300 13.67700 30.64800
C  2.47000 11.34400 31.01800
C  3.64200 11.18600 31.83700
O  4.55700 10.47300 31.56500
O  3.37600 11.80600 33.05200
C  4.18900 11.40300 34.15600
H  1.70500 4.55900 29.09000
H  1.21900 6.38200 23.11100
H  2.48600 12.47900 24.73600
H  2.65900 8.50000 32.14500
H  1.42500 6.11400 31.56900
H  4.21200 6.37100 30.63200
H  3.32000 5.05800 31.42100
H  3.79100 6.47400 32.29100
H  -0.10100 7.61200 32.02500
H  -0.11100 9.38200 31.70900
H  -0.42300 8.35700 34.15900
H  0.29700 9.88400 33.82400
H  0.18900 3.31700 28.21300
H  1.47300 2.39500 27.55100
H  -0.25000 2.52700 26.79900
H  1.70200 1.88200 24.61300
H  0.74100 1.75900 23.20000
H  -0.05800 1.87700 24.80600
H  0.62800 8.58700 22.14900
H  2.38300 11.03800 22.70400
H  2.88600 9.37900 20.92000
H  2.73900 7.61900 21.35300
H  3.72100 8.94900 22.22400
H  -0.09100 11.92100 23.65200
H  -0.58300 10.55200 22.70500
H  1.19500 11.92100 21.04000
H  0.46200 13.26300 21.75000
H  -0.66000 12.15300 21.04900
H  3.51500 13.97900 26.01600
H  3.75000 14.69800 27.58400
H  2.09000 14.76800 26.91800
H  1.61800 11.64700 31.62600
H  4.94300 12.19000 34.18900
H  4.54200 10.38500 33.99300
H  3.69600 11.46600 35.12700

