158

Mg 47.64000 26.43800 28.15800
C  48.87700 28.50700 30.82100
C  46.42000 24.27300 30.52300
C  47.08900 24.21100 25.74000
C  49.41700 28.52100 25.93600
N  47.72300 26.41600 30.46000
C  48.15700 27.36500 31.35200
C  47.70600 27.08500 32.80700
C  47.08400 25.65600 32.64400
C  47.02900 25.42400 31.10100
C  47.84600 24.54500 33.52500
C  46.64400 28.11700 33.25500
C  45.68200 27.64400 34.44300
H  45.50700 28.52100 35.64200
N  46.89000 24.46000 28.11900
C  46.45900 23.77700 29.23500
C  46.09800 22.44600 28.82200
C  46.30500 22.36200 27.39100
C  46.78200 23.68800 27.00500
C  45.61800 21.41100 29.84000
C  46.22300 21.13700 26.44400
O  46.55400 21.26400 25.26500
C  45.78700 19.79900 26.91800
N  48.07400 26.44300 26.11800
C  47.58600 25.46500 25.34500
C  47.83700 25.88400 23.83800
C  48.65700 27.24300 23.90500
C  48.71200 27.48000 25.37800
C  48.56300 24.91800 22.82500
C  47.99000 28.36500 23.14900
C  48.91600 29.44500 22.54800
N  48.85100 28.21200 28.30300
C  49.51500 28.87400 27.29300
C  50.30600 29.90500 27.84000
C  50.02400 29.89200 29.23000
C  49.16700 28.76200 29.48300
C  51.26500 30.81300 27.08900
C  50.29400 30.55900 30.42000
O  51.06900 31.50600 30.66700
C  49.40000 29.77300 31.48400
C  50.33300 29.35200 32.57900
O  51.23600 28.58500 32.42000
O  50.06500 30.06800 33.69000
C  51.13600 29.93200 34.73100
H  45.98200 23.64800 31.30500
H  46.91100 23.51500 24.91800
H  50.18900 28.95700 25.30000
H  48.61700 27.08400 33.40500
H  46.06300 25.72100 33.02100
H  48.58400 25.08600 34.11600
H  48.36500 23.82400 32.89400
H  47.12200 24.06000 34.18000
H  46.12900 28.41800 32.34300
H  47.20200 29.01700 33.51400
H  46.04000 26.72700 34.91000
H  44.65500 27.55500 34.08600
H  44.54000 21.29300 29.73700
H  45.81000 21.59600 30.89700
H  46.02500 20.42900 29.59600
H  46.60900 19.47000 27.55400
H  45.68900 19.23200 25.99200
H  44.87100 19.79400 27.50900
H  46.82000 26.16400 23.56100
H  49.68600 27.14400 23.55900
H  47.81600 24.56900 22.11200
H  48.95600 24.14300 23.48200
H  49.28500 25.44700 22.20300
H  47.36500 28.87700 23.88100
H  47.31500 27.95800 22.39600
H  48.70900 30.47400 22.84100
H  48.84800 29.38500 21.46200
H  49.96000 29.23000 22.77700
H  51.56500 31.51400 27.86900
H  50.83700 31.25000 26.18700
H  52.14400 30.21000 26.86200
H  48.61400 30.48000 31.75000
H  52.11800 29.89200 34.26000
H  51.00100 29.06800 35.38200
H  51.07500 30.75700 35.44100
Mg -12.19800 17.24500 40.85700
C  -8.81600 16.22600 40.66600
C  -11.09600 20.51400 40.06700
C  -15.26100 18.16400 39.58800
C  -13.17400 13.92000 40.85300
N  -10.18300 18.26500 40.38000
C  -8.93900 17.64500 40.44200
C  -7.79800 18.60900 40.36100
C  -8.54400 19.98700 40.47900
C  -10.02400 19.60300 40.36300
C  -8.25500 20.83400 41.76700
C  -7.08100 18.36900 38.99800
C  -5.57300 18.15200 39.19800
H  -4.82700 17.08500 38.43800
N  -13.15600 19.10000 40.26900
C  -12.47000 20.32600 39.96100
C  -13.48600 21.29800 39.58500
C  -14.75500 20.61100 39.52600
C  -14.43000 19.24800 39.80600
C  -13.11900 22.66500 39.16700
C  -16.06900 21.26800 39.20100
O  -16.07500 22.47400 39.00100
C  -17.40000 20.55900 39.07900
N  -13.94500 16.17600 40.28700
C  -15.06800 16.82100 39.81300
C  -16.19000 15.77600 39.52600
C  -15.55100 14.45900 40.09100
C  -14.12600 14.84500 40.46100
C  -17.54600 16.26100 40.08400
C  -15.63200 13.26700 39.10700
C  -14.77700 13.16400 37.79300
N  -11.25900 15.41300 40.87000
C  -11.76200 14.15500 40.85700
C  -10.63500 13.16200 41.08600
C  -9.50300 13.93800 40.98700
C  -9.93300 15.25300 40.81200
C  -10.67000 11.62500 41.29800
C  -8.04800 13.86800 40.96400
O  -7.26400 12.87700 41.01700
C  -7.54900 15.36000 40.75800
C  -6.60000 15.64700 41.81700
O  -6.85400 16.25800 42.84300
O  -5.29100 15.31500 41.50100
C  -4.31800 15.42600 42.60900
H  -10.76000 21.55200 40.00800
H  -16.21400 18.41100 39.11500
H  -13.49100 12.87500 40.85300
H  -7.10300 18.44100 41.18400
H  -8.34300 20.57500 39.58300
H  -7.84300 20.10500 42.46500
H  -9.07300 21.43400 42.16700
H  -7.48500 21.59300 41.62500
H  -7.07500 19.26300 38.37400
H  -7.46300 17.46000 38.53500
H  -5.36200 17.91800 40.24200
H  -5.08600 19.12000 39.07400
H  -13.63400 22.97800 38.25900
H  -12.05900 22.78900 38.94400
H  -13.38100 23.36800 39.95900
H  -17.53900 20.29900 38.03000
H  -18.15400 21.31800 39.28700
H  -17.62000 19.69200 39.70100
H  -16.30200 15.56000 38.46300
H  -16.09700 14.25100 41.01200
H  -18.36400 15.54400 40.15300
H  -17.92400 17.06900 39.45700
H  -17.31800 16.42100 41.13800
H  -16.58600 13.44800 38.61100
H  -15.71400 12.32400 39.64800
H  -15.36200 12.78500 36.95500
H  -14.05500 12.36300 37.95800
H  -14.24600 14.07800 37.52800
H  -11.72300 11.41000 41.47600
H  -10.13100 11.21200 42.15000
H  -10.26900 11.12900 40.41300
H  -7.09400 15.36500 39.76700
H  -4.76400 15.42500 43.60300
H  -3.54700 16.14200 42.32200
H  -3.83700 14.45200 42.52100

