158

Mg -0.86700 17.71500 26.12100
C  -1.04600 15.22900 28.60900
C  -2.00300 19.87900 28.55800
C  -1.49000 20.17900 23.75200
C  -0.54600 15.42700 23.76100
N  -1.43700 17.53800 28.38500
C  -1.20900 16.50000 29.20200
C  -1.33400 16.88800 30.68000
C  -1.90300 18.31700 30.58800
C  -1.77200 18.62900 29.11000
C  -3.38800 18.40900 31.24600
C  -0.01400 16.73400 31.46200
C  0.16400 17.47700 32.78800
H  0.04600 16.76100 34.03900
N  -1.43200 19.83300 26.20200
C  -1.96200 20.48000 27.30000
C  -2.39400 21.76600 26.94800
C  -2.10800 21.90000 25.56600
C  -1.60700 20.58400 25.09400
C  -3.06100 22.73600 27.89200
C  -2.38700 23.06400 24.68400
O  -2.11400 22.99300 23.47300
C  -2.86700 24.46100 25.25800
N  -0.66900 17.85700 24.12300
C  -0.94300 18.95900 23.31400
C  -0.73800 18.61900 21.80800
C  -0.29100 17.12200 21.95300
C  -0.53900 16.76300 23.37800
C  -1.86700 18.89900 20.79800
C  1.17300 16.74400 21.50100
C  1.22900 16.01800 20.08800
N  -0.69700 15.76000 26.12300
C  -0.64000 14.89700 25.03500
C  -0.68600 13.59200 25.44600
C  -0.81700 13.61500 26.82700
C  -0.83100 15.00300 27.21700
C  -0.75800 12.38100 24.53800
C  -0.87100 12.83800 28.04700
O  -1.06800 11.64700 28.31600
C  -1.14800 13.85600 29.22700
C  -0.18900 13.61300 30.29300
O  1.01600 13.56400 30.20800
O  -0.91500 13.45800 31.40900
C  -0.13700 13.04400 32.50900
H  -2.23000 20.48800 29.43600
H  -1.90800 20.77500 22.93800
H  -0.51800 14.73900 22.91300
H  -2.06300 16.23800 31.16300
H  -1.26700 19.06900 31.05500
H  -4.18800 18.22700 30.52800
H  -3.37100 19.45700 31.54800
H  -3.50700 17.69400 32.05900
H  0.85300 17.00100 30.85700
H  0.10900 15.69500 31.76600
H  -0.50200 18.33900 32.82200
H  1.15000 17.94000 32.83500
H  -2.74500 22.59800 28.92500
H  -4.14600 22.64500 27.95100
H  -2.85700 23.78400 27.67100
H  -2.86400 25.22100 24.47600
H  -2.08600 24.87400 25.89800
H  -3.87900 24.46100 25.66300
H  0.14500 19.14100 21.43800
H  -0.89500 16.55500 21.24500
H  -1.88500 19.96400 20.56900
H  -2.86500 18.58000 21.10000
H  -1.67700 18.38000 19.85800
H  1.58300 16.11000 22.28700
H  1.79000 17.64200 21.46600
H  2.25000 15.85800 19.74400
H  0.79800 16.64200 19.30500
H  0.72300 15.05300 20.11300
H  0.14400 12.22700 23.94500
H  -1.70000 12.53200 24.01000
H  -1.01400 11.55700 25.20400
H  -2.16000 13.65900 29.58100
H  0.31100 13.77400 33.18300
H  0.63700 12.31900 32.25600
H  -0.78900 12.46800 33.16500
Mg -10.89800 15.98300 41.45800
C  -7.39900 15.78000 41.05000
C  -10.74400 19.19000 40.33100
C  -14.14800 15.82500 41.12900
C  -10.86600 12.51500 42.38500
N  -9.24800 17.26100 40.58900
C  -7.86100 17.02600 40.65100
C  -7.09300 18.25200 40.20200
C  -8.17500 19.37900 40.59100
C  -9.46100 18.59500 40.50400
C  -7.91900 20.06900 41.93900
C  -6.64000 18.13300 38.70600
C  -5.09900 18.09200 38.50300
H  -4.67800 18.65500 37.19000
N  -12.24000 17.29100 40.86000
C  -11.96000 18.60500 40.45000
C  -13.22100 19.24100 40.03900
C  -14.25300 18.34400 40.41100
C  -13.58600 17.09000 40.78900
C  -13.43200 20.63300 39.44000
C  -15.72800 18.68300 40.34700
O  -16.12100 19.71000 39.84200
C  -16.74500 17.68500 40.93700
N  -12.35000 14.39300 41.66200
C  -13.63000 14.60800 41.50600
C  -14.56400 13.39700 41.88600
C  -13.47700 12.32300 42.23000
C  -12.12800 13.11200 42.18200
C  -15.64400 13.71700 42.89900
C  -13.50700 11.05300 41.27000
C  -12.62900 11.20700 39.94400
N  -9.46900 14.45800 41.64600
C  -9.58000 13.15600 42.08900
C  -8.24000 12.50400 42.11800
C  -7.36200 13.55200 41.79400
C  -8.15400 14.70600 41.49200
C  -7.95000 11.04400 42.60500
C  -5.93800 13.93400 41.67900
O  -4.93000 13.30700 41.82900
C  -5.96100 15.36400 41.14200
C  -5.29000 16.10600 42.20300
O  -5.73800 16.22300 43.33000
O  -4.00500 16.43000 41.79000
C  -3.27300 17.32900 42.70800
H  -10.67900 20.26300 40.13400
H  -15.23500 15.74600 41.05800
H  -10.96700 11.53200 42.84900
H  -6.17000 18.15900 40.77400
H  -8.22300 20.17100 39.84300
H  -7.37900 19.42000 42.62900
H  -8.87000 20.43900 42.32200
H  -7.28700 20.94800 41.81100
H  -7.18200 18.96200 38.25100
H  -7.04500 17.18900 38.34200
H  -4.78300 17.05300 38.41100
H  -4.60800 18.57000 39.35000
H  -14.13100 20.54400 38.60900
H  -12.54200 21.07800 38.99500
H  -13.95300 21.32800 40.09800
H  -17.65800 18.26600 41.06600
H  -16.46900 17.47700 41.97100
H  -16.99600 16.83800 40.29900
H  -15.02400 13.12000 40.93700
H  -13.66100 12.08600 43.27800
H  -15.82100 14.79200 42.88600
H  -15.18800 13.62800 43.88500
H  -16.52200 13.07800 42.80400
H  -14.46400 10.75000 40.84700
H  -13.08900 10.24700 41.87300
H  -11.61200 10.99200 40.27100
H  -12.61800 12.21300 39.52400
H  -12.97100 10.54100 39.15300
H  -6.90800 10.76500 42.44900
H  -8.45100 10.30600 41.97800
H  -8.22500 10.87700 43.64600
H  -5.52400 15.41000 40.14400
H  -3.68500 18.33700 42.75400
H  -2.29000 17.60200 42.32400
H  -3.14800 17.04200 43.75200

