158

Mg 42.10900 41.25000 26.89500
C  41.55900 43.57500 29.46000
C  43.20600 39.09100 29.27700
C  42.91000 39.16500 24.48400
C  41.22500 43.67100 24.54500
N  42.30200 41.35300 29.04800
C  41.88800 42.29100 29.89800
C  42.02600 41.92000 31.38500
C  42.60800 40.46400 31.34500
C  42.73000 40.30300 29.81800
C  43.85800 40.22100 32.18900
C  40.59900 41.90200 32.01500
C  40.49800 42.78100 33.27300
H  39.66600 42.02800 34.36500
N  43.05000 39.45700 26.90600
C  43.31700 38.59100 27.96500
C  43.73800 37.33300 27.54100
C  43.65000 37.27900 26.13700
C  43.15100 38.64200 25.76400
C  44.25300 36.22600 28.46900
C  43.97000 36.19800 25.16100
O  43.84100 36.30400 23.94100
C  44.42600 34.79700 25.68200
N  42.31600 41.44900 24.77900
C  42.48000 40.36400 23.98800
C  42.13900 40.56600 22.49300
C  41.44500 41.99800 22.57100
C  41.72200 42.43700 24.03900
C  43.38100 40.66800 21.58100
C  39.87600 42.07700 22.25800
C  38.89300 40.96100 22.55800
N  41.57400 43.29800 26.89600
C  41.17900 44.12000 25.85900
C  40.71200 45.38600 26.45500
C  40.89500 45.18900 27.78800
C  41.32400 43.92900 28.08900
C  40.26600 46.61100 25.80800
C  40.73900 45.90500 29.11500
O  40.42300 47.01200 29.45800
C  41.11400 44.83500 30.17700
C  42.20100 45.36700 31.06700
O  43.41200 45.29100 30.77700
O  41.62200 45.85000 32.18100
C  42.62600 46.39300 33.17200
H  43.38700 38.31100 30.02000
H  43.19900 38.48400 23.68000
H  40.68400 44.24600 23.79100
H  42.79700 42.55000 31.82800
H  41.78700 39.78600 31.58000
H  43.75400 39.14600 32.33600
H  43.86300 40.79600 33.11500
H  44.71900 40.59500 31.63500
H  40.30000 40.91800 32.37700
H  39.83600 42.03500 31.24800
H  39.97300 43.70800 33.04400
H  41.48600 43.11800 33.58500
H  44.39400 36.65500 29.46100
H  45.20700 35.96700 28.01000
H  43.50400 35.43700 28.41400
H  43.49800 34.59800 26.21800
H  45.34200 34.99300 26.23900
H  44.52800 34.14600 24.81300
H  41.42600 39.88500 22.02900
H  41.90700 42.68300 21.86100
H  44.27900 40.78200 22.18900
H  43.38100 41.55200 20.94200
H  43.38900 39.76800 20.96600
H  39.78000 42.42700 21.23000
H  39.44300 42.91000 22.81100
H  39.35900 40.34500 23.32700
H  38.68900 40.35000 21.67900
H  38.01700 41.40800 23.02800
H  39.98100 47.23300 26.65600
H  39.49500 46.31600 25.09600
H  41.08200 47.07200 25.25100
H  40.30900 44.68500 30.89700
H  42.91900 45.50500 33.73300
H  41.97900 47.01200 33.79300
H  43.48900 46.93200 32.77900
Mg -2.02100 34.81800 27.12000
C  -3.81100 33.48800 29.83900
C  -0.27500 36.84100 29.18300
C  -1.35300 36.83500 24.51200
C  -3.92200 32.72900 24.95600
N  -1.96500 34.98300 29.25900
C  -2.84800 34.44100 30.22100
C  -2.49100 34.97600 31.63200
C  -1.33600 35.98300 31.40300
C  -1.13100 35.91800 29.86800
C  -1.62400 37.46200 31.91900
C  -2.23400 33.93900 32.69000
C  -2.99500 34.16400 33.96300
H  -2.34100 33.83400 35.30600
N  -0.72400 36.43600 26.77400
C  -0.04000 37.05600 27.77000
C  0.69200 38.19300 27.25200
C  0.32600 38.23200 25.88300
C  -0.62000 37.13600 25.64200
C  1.55800 39.12300 28.06400
C  0.83000 39.18100 24.77400
O  0.57200 39.02700 23.61800
C  1.68400 40.31600 25.11700
N  -2.58200 34.77500 25.07900
C  -2.07600 35.68100 24.18400
C  -2.55100 35.34200 22.70100
C  -2.82700 33.79800 22.86800
C  -3.12400 33.74600 24.39100
C  -3.88500 36.17800 22.37400
C  -1.71300 32.90800 22.43900
C  -1.50500 32.36800 20.96700
N  -3.58200 33.39300 27.33500
C  -4.21300 32.66100 26.33300
C  -5.11400 31.70600 26.95000
C  -5.03400 31.96900 28.38700
C  -4.08800 33.03000 28.53300
C  -5.86100 30.57700 26.17800
C  -5.49500 31.62300 29.67400
O  -6.32400 30.81100 30.09000
C  -4.79500 32.62000 30.61300
C  -5.79500 33.43500 31.34500
O  -6.17100 34.53500 31.04700
O  -6.22300 32.75900 32.44400
C  -7.20800 33.39800 33.28000
H  0.22800 37.54900 29.84600
H  -1.07000 37.41200 23.62800
H  -4.39300 32.03800 24.25400
H  -3.39400 35.55100 31.83700
H  -0.43500 35.64900 31.91800
H  -1.80500 38.20300 31.14000
H  -0.81500 37.94300 32.46700
H  -2.53000 37.40200 32.52200
H  -1.19700 33.69600 32.92400
H  -2.59000 32.99800 32.27200
H  -3.87400 33.52600 33.86500
H  -3.37800 35.17600 34.09200
H  1.13700 40.10900 27.86600
H  2.58700 39.24100 27.72400
H  1.40700 39.01700 29.13900
H  2.52700 40.05800 25.75800
H  1.01800 41.08100 25.51600
H  2.11200 40.66500 24.17700
H  -1.82700 35.57200 21.92000
H  -3.66500 33.47500 22.25000
H  -3.67000 36.79500 21.50100
H  -4.14600 36.94900 23.09900
H  -4.77300 35.56300 22.22700
H  -1.86800 32.00800 23.03300
H  -0.73300 33.31300 22.69300
H  -1.89800 31.35200 20.92400
H  -0.44500 32.35700 20.71300
H  -2.01400 32.98400 20.22600
H  -6.86900 30.54100 26.59000
H  -5.44200 29.57800 26.30400
H  -5.82200 30.77100 25.10600
H  -4.19100 32.05500 31.32200
H  -8.19900 33.25300 32.84800
H  -7.09700 34.48200 33.25800
H  -7.23600 32.96600 34.28100

