158

Mg 42.64700 41.70000 26.64800
C  41.60400 44.09400 29.03700
C  43.56900 39.75300 29.34300
C  43.32400 39.45800 24.44300
C  41.66000 44.01000 24.17400
N  42.49100 41.86800 28.93600
C  42.08300 42.94000 29.70000
C  42.13600 42.66100 31.26400
C  42.92000 41.30600 31.22800
C  42.99000 40.93000 29.77900
C  44.44400 41.27400 31.86500
C  40.70300 42.52500 31.95000
C  40.18700 43.44800 33.10200
H  39.96900 42.81100 34.46700
N  43.45800 39.94400 26.83300
C  43.76500 39.25200 28.01100
C  44.35900 38.01200 27.67500
C  44.37000 37.88000 26.29000
C  43.75400 39.11800 25.79000
C  44.71600 36.90000 28.77800
C  44.91500 36.74900 25.42200
O  44.79400 36.74900 24.23200
C  45.61800 35.55500 26.00000
N  42.54800 41.75300 24.58600
C  42.80500 40.62500 23.86200
C  42.57900 40.90200 22.36200
C  41.94700 42.32300 22.24600
C  42.01600 42.73600 23.74200
C  43.76000 40.59900 21.38600
C  40.54100 42.38000 21.50300
C  40.43400 43.48900 20.41200
N  41.91000 43.65000 26.58200
C  41.56600 44.51100 25.45800
C  40.93600 45.76000 25.96100
C  40.91100 45.56800 27.30500
C  41.57000 44.30600 27.65200
C  40.13700 46.81900 25.18500
C  40.56300 46.16200 28.60000
O  39.96500 47.19000 28.77300
C  41.09300 45.23800 29.86300
C  42.16500 45.97600 30.63300
O  43.27900 46.10200 30.31100
O  41.61100 46.44800 31.73600
C  42.44500 46.89400 32.86600
H  43.84600 39.06400 30.14300
H  43.63000 38.81300 23.61700
H  41.32100 44.59900 23.32000
H  42.61200 43.48600 31.79500
H  42.33400 40.55300 31.75400
H  44.28400 40.73700 32.80000
H  44.76800 42.29900 32.04300
H  45.10700 40.69200 31.22400
H  40.76600 41.60200 32.52600
H  39.92600 42.39300 31.19700
H  39.23100 43.94000 32.92500
H  40.93600 44.23600 33.18400
H  44.33400 36.97400 29.79700
H  45.78800 36.72000 28.84400
H  44.17700 36.08300 28.30000
H  46.04100 35.00700 25.15800
H  44.82600 34.94200 26.43100
H  46.43500 35.96500 26.59400
H  41.81300 40.17500 22.09000
H  42.68400 42.86200 21.65100
H  43.42800 39.94100 20.58200
H  44.54700 40.10400 21.95500
H  44.18300 41.53100 21.01000
H  39.81600 42.64600 22.27200
H  40.12800 41.44600 21.12200
H  41.42300 43.91000 20.23000
H  39.82700 44.29300 20.82800
H  39.95100 43.03100 19.54900
H  40.70500 47.74500 25.27100
H  39.23400 46.97600 25.77500
H  39.97800 46.49200 24.15800
H  40.28500 44.96200 30.54100
H  42.36000 47.95800 33.08900
H  43.50300 46.70200 32.68800
H  42.14100 46.32000 33.74100
Mg 16.87800 52.02800 25.25900
C  18.73900 50.94600 27.99800
C  14.31600 52.91600 27.44600
C  15.33900 53.06500 22.53900
C  19.35000 50.52900 23.09300
N  16.52800 51.83100 27.51600
C  17.50300 51.51200 28.41000
C  17.01900 51.75100 29.78800
C  15.51300 52.30900 29.60600
C  15.41300 52.32400 28.10200
C  14.41200 51.31500 30.29700
C  17.88600 52.81400 30.52900
C  17.48600 53.36900 31.96700
H  16.47000 52.62500 32.86300
N  15.08500 52.89700 25.05600
C  14.17700 53.20600 26.06600
C  13.00000 53.67400 25.36500
C  13.35900 53.78200 23.98000
C  14.68500 53.21900 23.79600
C  11.68700 53.97400 26.07600
C  12.48600 54.27600 22.85300
O  12.85000 54.55300 21.72300
C  11.00300 54.56200 23.03500
N  17.36300 51.97200 23.10800
C  16.53000 52.44500 22.21800
C  17.08800 52.40700 20.78900
C  18.42500 51.75900 21.01700
C  18.43300 51.39100 22.51700
C  16.15200 51.72200 19.84100
C  19.53600 52.78700 20.70600
C  20.85600 52.19800 20.27700
N  18.63600 50.90300 25.44100
C  19.47900 50.31000 24.53800
C  20.58100 49.70800 25.24800
C  20.37600 49.91700 26.54800
C  19.13400 50.59800 26.64500
C  21.82700 49.04600 24.68300
C  20.94300 49.79100 27.90900
O  21.99300 49.33900 28.32000
C  19.91000 50.45900 28.89200
C  19.37700 49.60000 29.96800
O  18.68500 48.69000 29.71600
O  19.98400 49.88900 31.12400
C  19.38600 49.24100 32.34600
H  13.46900 53.35700 27.97500
H  14.80800 53.44400 21.66300
H  20.20400 50.27600 22.46200
H  17.00700 50.83400 30.37600
H  15.37900 53.30200 30.03400
H  13.70400 50.80700 29.64100
H  13.85700 51.91900 31.01400
H  14.85600 50.54000 30.92100
H  18.08000 53.64500 29.85100
H  18.85400 52.33600 30.67900
H  17.01500 54.34400 31.83400
H  18.35100 53.51000 32.61500
H  11.99200 54.36400 27.04700
H  11.10600 53.05600 26.16800
H  11.13800 54.82700 25.67700
H  10.96500 55.36200 23.77400
H  10.43300 53.67900 23.32600
H  10.65700 54.89700 22.05700
H  17.09300 53.45700 20.49900
H  18.56600 50.93400 20.31900
H  15.79600 50.88600 20.44300
H  16.65000 51.47700 18.90300
H  15.18200 52.21700 19.80300
H  19.72000 53.29300 21.65400
H  19.24800 53.50300 19.93600
H  21.21300 52.62400 19.33900
H  20.77200 51.11200 20.32600
H  21.58800 52.52800 21.01400
H  22.04000 49.23900 23.63200
H  21.55100 47.99600 24.59200
H  22.71700 49.12700 25.30800
H  20.26200 51.38100 29.35600
H  18.99900 48.23500 32.18500
H  18.45400 49.76800 32.55100
H  20.15800 49.21400 33.11500

