158

Mg 47.45000 45.69200 43.18100
C  44.25400 44.36100 42.78800
C  48.76700 42.42900 43.28700
C  50.51500 46.95100 43.22900
C  46.13600 48.97900 42.73000
N  46.67800 43.69000 42.94600
C  45.25800 43.37800 42.90800
C  45.00900 41.73400 42.99200
C  46.48900 41.21300 43.26200
C  47.38000 42.55000 43.19500
C  46.73300 40.23500 44.41100
C  44.21300 40.89900 41.84200
C  44.60700 41.38700 40.42400
H  44.94000 40.35800 39.34100
N  49.38200 44.79000 43.16400
C  49.65900 43.44600 43.28000
C  51.06600 43.29100 43.13300
C  51.65900 44.61000 43.25400
C  50.54000 45.54900 43.27600
C  51.79800 42.00300 43.05300
C  53.18700 44.93300 43.36000
O  54.03600 44.02500 43.36300
C  53.66100 46.31500 43.58300
N  48.16900 47.62900 43.05300
C  49.46500 47.87000 43.17000
C  49.80700 49.38600 42.92300
C  48.47900 49.96900 42.45800
C  47.51600 48.75400 42.76000
C  50.37300 49.90600 44.28100
C  48.38800 50.58900 40.98700
C  48.52900 52.09000 40.95300
N  45.51300 46.55000 42.77000
C  45.15500 47.93000 42.71200
C  43.66300 47.96000 42.53100
C  43.27200 46.53700 42.47700
C  44.42000 45.79700 42.75100
C  42.76300 49.10700 42.36400
C  42.22800 45.57500 42.18700
O  41.09600 45.74000 41.74600
C  42.81600 44.20500 42.45700
C  42.07100 43.47500 43.48400
O  41.41900 42.46100 43.24700
O  42.30200 43.88000 44.75100
C  41.84200 42.90800 45.78100
H  49.21900 41.44300 43.41400
H  51.47300 47.47200 43.17000
H  45.77900 49.97600 42.46200
H  44.38200 41.53600 43.86200
H  46.92400 40.80300 42.35100
H  47.15600 40.89700 45.16700
H  47.38500 39.40900 44.12600
H  45.72500 39.96100 44.72000
H  43.15400 41.10100 42.00300
H  44.26100 39.82100 42.00100
H  45.43000 42.09900 40.47800
H  43.68900 41.80600 40.01400
H  52.08400 41.71800 44.06500
H  52.58800 42.05700 42.30400
H  51.15400 41.20000 42.69300
H  53.34900 46.88300 42.70600
H  54.74800 46.36000 43.64800
H  53.23700 46.68800 44.51500
H  50.58500 49.55100 42.17700
H  48.26700 50.65400 43.27900
H  51.16800 49.19000 44.48800
H  49.70400 49.91500 45.14100
H  50.89700 50.82400 44.01700
H  47.45500 50.34400 40.48000
H  49.15400 49.99900 40.48200
H  48.11400 52.27100 39.96200
H  49.59200 52.32800 40.98900
H  47.96100 52.48800 41.79300
H  41.99000 48.94800 43.11600
H  42.24700 49.11100 41.40400
H  43.30100 50.05400 42.31700
H  42.85300 43.63700 41.52800
H  40.77000 42.71500 45.73500
H  42.17400 43.38500 46.70300
H  42.30900 41.94600 45.57000
Mg -1.61000 34.52400 26.68100
C  -3.41200 32.95300 29.20700
C  -0.16500 36.46600 29.07900
C  -0.05900 36.13300 24.30000
C  -3.49500 32.74600 24.31100
N  -1.86000 34.71900 28.83800
C  -2.57300 33.93300 29.73300
C  -2.27400 34.26800 31.20700
C  -1.26800 35.45500 31.04800
C  -1.11400 35.57700 29.54400
C  -1.68200 36.79800 31.77700
C  -1.60700 33.02000 31.92100
C  -2.35600 32.51300 33.15300
H  -1.53100 32.28000 34.42400
N  -0.10900 35.97700 26.66500
C  0.32200 36.70300 27.76500
C  1.30300 37.76600 27.38900
C  1.42200 37.59900 25.96700
C  0.47200 36.53400 25.53500
C  1.88600 38.77100 28.42700
C  2.29500 38.37400 25.03400
O  2.33000 38.18400 23.80300
C  3.22200 39.48500 25.64500
N  -1.72500 34.51400 24.68900
C  -1.00700 35.22500 23.84700
C  -1.33100 34.95100 22.35300
C  -2.15500 33.63400 22.49500
C  -2.47200 33.59000 23.94000
C  -2.07300 36.03100 21.59200
C  -1.38500 32.36000 21.96800
C  -0.04100 32.07300 22.67800
N  -3.22800 33.16600 26.72800
C  -3.84900 32.51600 25.67100
C  -4.69000 31.53000 26.27300
C  -4.63200 31.73500 27.62900
C  -3.65000 32.66800 27.86000
C  -5.45100 30.43700 25.62500
C  -5.08700 31.20700 28.93900
O  -5.90500 30.35600 29.13600
C  -4.26400 32.02200 30.04700
C  -5.35100 32.79000 30.77500
O  -6.04500 33.67600 30.35000
O  -5.41000 32.25800 32.11000
C  -6.44600 32.86400 32.96700
H  0.24800 37.03300 29.91600
H  0.40700 36.60000 23.42900
H  -3.90300 32.16200 23.48400
H  -3.16200 34.66900 31.69500
H  -0.27700 35.24500 31.44900
H  -2.55500 36.69800 32.42100
H  -1.91000 37.43300 30.92100
H  -0.78300 37.19400 32.24900
H  -0.63200 33.38400 32.24600
H  -1.41500 32.21700 31.20900
H  -2.80400 31.53200 32.99200
H  -3.18400 33.19700 33.33700
H  1.65800 39.81000 28.18800
H  2.97200 38.68000 28.42300
H  1.58700 38.61300 29.46300
H  3.87400 39.83900 24.84600
H  3.76600 39.03700 26.47600
H  2.60300 40.31000 25.99700
H  -0.36100 34.76700 21.89200
H  -3.08500 33.73500 21.93500
H  -2.90700 35.78800 20.93300
H  -1.31100 36.39400 20.90300
H  -2.27400 36.84200 22.29100
H  -1.27000 32.60700 20.91200
H  -1.99600 31.46200 22.05900
H  0.79600 32.33900 22.03200
H  -0.07100 31.01100 22.91900
H  0.03100 32.59500 23.63200
H  -6.49200 30.64900 25.86800
H  -5.41500 29.47900 26.14400
H  -5.17500 30.41300 24.57000
H  -3.82500 31.26500 30.69700
H  -7.24800 32.12700 32.99900
H  -6.88000 33.79700 32.60700
H  -6.04500 32.87000 33.98000

