158

Mg 1.11800 42.45200 26.27700
C  2.97600 42.17900 29.23200
C  -1.63400 41.62600 28.13700
C  -0.54200 42.02200 23.45500
C  4.08300 42.96900 24.63500
N  0.68300 42.04500 28.50700
C  1.60200 42.15200 29.46700
C  0.95500 42.39000 30.78900
C  -0.57500 42.09000 30.43800
C  -0.53300 41.86100 28.95300
C  -1.27600 40.97500 31.18500
C  1.33000 43.77500 31.32200
C  1.83700 43.75700 32.77500
H  1.51800 42.51100 33.65400
N  -0.76800 41.78900 25.89200
C  -1.78800 41.46500 26.73200
C  -2.87100 40.82100 26.03100
C  -2.49900 40.84000 24.63100
C  -1.25800 41.57400 24.55700
C  -4.05300 40.14200 26.76400
C  -3.19700 40.22000 23.42800
O  -2.77300 40.35500 22.26300
C  -4.40400 39.36800 23.64700
N  1.68400 42.51600 24.33600
C  0.73600 42.46700 23.34000
C  1.41700 42.82900 21.92600
C  2.88400 43.18800 22.38400
C  2.90400 42.89800 23.86600
C  1.43400 41.59600 20.92000
C  3.26800 44.69300 22.03200
C  2.34300 45.76400 22.59100
N  3.10000 42.52700 26.69700
C  4.18900 42.87200 25.96700
C  5.42000 42.91600 26.79200
C  4.98100 42.68100 28.06600
C  3.58000 42.36700 27.94600
C  6.84400 43.19700 26.36500
C  5.31200 42.57200 29.42300
O  6.36900 42.72200 30.00900
C  4.09200 42.27300 30.21500
C  4.28900 41.01300 31.14400
O  3.85600 39.89500 30.88700
O  4.86700 41.45700 32.33000
C  5.31800 40.36300 33.19300
H  -2.56500 41.35900 28.64000
H  -1.02700 41.97400 22.47700
H  4.93600 43.17200 23.98500
H  1.38600 41.61400 31.42100
H  -1.11700 43.02000 30.61100
H  -1.46500 40.14300 30.50700
H  -2.20200 41.24300 31.69300
H  -0.58700 40.60600 31.94600
H  0.49600 44.45600 31.15100
H  2.13600 44.12500 30.67700
H  1.33200 44.56100 33.30900
H  2.87200 44.09800 32.76500
H  -3.90700 39.14500 27.18000
H  -4.95700 40.14100 26.15500
H  -4.37000 40.77200 27.59500
H  -4.78800 38.94300 22.72000
H  -5.16300 39.99100 24.12200
H  -4.17400 38.53600 24.31200
H  0.89200 43.64700 21.43100
H  3.59300 42.49200 21.93500
H  1.14500 40.74900 21.54300
H  2.42900 41.51500 20.48500
H  0.62800 41.72100 20.19700
H  3.21700 44.78800 20.94800
H  4.31400 44.84600 22.29800
H  1.97700 46.30300 21.71800
H  2.93000 46.39300 23.26000
H  1.54100 45.31600 23.17800
H  7.51700 42.33900 26.38600
H  7.23600 43.81700 27.17100
H  6.79400 43.81400 25.46900
H  4.05000 43.15100 30.85900
H  5.14500 40.66100 34.22700
H  6.39700 40.21300 33.23600
H  4.89300 39.38300 32.97400
Mg -2.47700 34.68100 25.94600
C  -4.29200 32.94500 28.56900
C  -0.86100 36.44200 28.47200
C  -0.86300 36.28700 23.62800
C  -4.35300 32.84700 23.63500
N  -2.63600 34.73700 28.26600
C  -3.34800 33.89200 29.06300
C  -3.02000 34.11400 30.57500
C  -2.05400 35.37100 30.49400
C  -1.76800 35.53900 28.98200
C  -2.60100 36.75600 31.13600
C  -2.38300 32.89100 31.18300
C  -2.90700 32.59000 32.57000
H  -1.92600 32.41400 33.77700
N  -1.03200 36.19000 26.00300
C  -0.53800 36.81300 27.10600
C  0.44300 37.74900 26.65500
C  0.61900 37.56100 25.27500
C  -0.43700 36.62900 24.89500
C  1.06200 38.74400 27.60000
C  1.55100 38.22700 24.32700
O  1.55500 38.04300 23.14000
C  2.76300 38.99000 24.87100
N  -2.65300 34.58000 23.86200
C  -1.83900 35.39700 23.11400
C  -2.16600 35.22200 21.55500
C  -3.19100 34.05100 21.63200
C  -3.40200 33.75600 23.10600
C  -2.62200 36.57300 20.92700
C  -2.81100 32.87900 20.68100
C  -1.78100 31.92100 21.23600
N  -4.09000 33.28400 26.04500
C  -4.65800 32.54600 24.96600
C  -5.59200 31.59200 25.49700
C  -5.49900 31.75600 26.86800
C  -4.50900 32.68600 27.22100
C  -6.38100 30.70300 24.59100
C  -6.01900 31.35400 28.17800
O  -6.95800 30.68600 28.47700
C  -5.18500 31.97100 29.27900
C  -6.12700 32.64600 30.14200
O  -6.67500 33.74300 29.98900
O  -6.42700 31.91300 31.29400
C  -7.13900 32.49900 32.39100
H  -0.33300 36.93900 29.28900
H  -0.29400 36.66800 22.77800
H  -4.79800 32.23700 22.84600
H  -3.95200 34.48500 31.00300
H  -1.10500 35.12300 30.97000
H  -3.68300 36.88400 31.15900
H  -2.31100 37.65400 30.59100
H  -2.20300 36.98500 32.12500
H  -1.30300 33.03900 31.19000
H  -2.43700 32.00100 30.55600
H  -3.43600 31.64700 32.42900
H  -3.64000 33.28800 32.97400
H  0.65600 38.75500 28.61100
H  1.02900 39.78200 27.26800
H  2.07800 38.34900 27.59700
H  3.61000 38.92700 24.18800
H  3.05500 38.26600 25.63100
H  2.35300 39.83900 25.41700
H  -1.16300 34.98000 21.20200
H  -4.14900 34.29400 21.17100
H  -3.69800 36.65600 20.77100
H  -2.08400 36.61900 19.98000
H  -2.20200 37.42000 21.46800
H  -2.32600 33.28400 19.79300
H  -3.66300 32.31800 20.29700
H  -1.42700 32.40400 22.14600
H  -0.94900 31.82100 20.53900
H  -2.34600 31.01500 21.45700
H  -5.89600 30.39100 23.66600
H  -7.29800 31.24700 24.36400
H  -6.47600 29.75300 25.11700
H  -4.67900 31.19600 29.85400
H  -7.81800 33.22000 31.93600
H  -6.46900 33.15100 32.95200
H  -7.55700 31.80000 33.11600

