158

Mg 25.35800 1.48300 30.19900
C  27.62500 1.60200 32.80000
C  22.85000 1.47800 32.40700
C  23.36800 1.25700 27.61100
C  28.22500 1.04800 28.04600
N  25.23700 1.56000 32.34900
C  26.30500 1.72200 33.18200
C  25.86900 1.73300 34.64600
C  24.34700 1.30600 34.49200
C  24.13200 1.54400 33.02800
C  23.99600 -0.08000 35.00700
C  26.16200 3.03700 35.36200
C  27.18800 2.90700 36.53700
H  26.96800 3.76500 37.79300
N  23.38600 1.38700 30.04100
C  22.53100 1.36900 31.05900
C  21.19000 1.24600 30.50900
C  21.28500 1.12900 29.08700
C  22.74400 1.24800 28.84000
C  19.88300 1.21900 31.40700
C  20.21700 0.95600 28.06600
O  20.44300 0.72400 26.85700
C  18.81500 1.23500 28.43100
N  25.79500 1.24400 28.14700
C  24.72800 1.22300 27.25700
C  25.23700 1.43200 25.83500
C  26.79700 1.66300 26.00100
C  26.97500 1.27800 27.46600
C  24.85400 0.19100 24.93800
C  27.31300 3.07700 25.52000
C  26.93900 4.33800 26.28500
N  27.47000 1.20600 30.37000
C  28.50600 0.96000 29.42300
C  29.78100 0.71900 30.02900
C  29.43500 0.92700 31.41300
C  28.07900 1.28000 31.52400
C  31.13000 0.52600 29.46300
C  30.04200 0.92100 32.73700
O  31.21300 0.73700 33.08300
C  28.87100 1.33000 33.66200
C  28.71300 0.18800 34.72400
O  28.06500 -0.84100 34.61400
O  29.56200 0.56000 35.78900
C  29.85500 -0.53300 36.66400
H  22.12900 1.36800 33.22000
H  22.76000 1.28200 26.70400
H  29.04600 0.88100 27.34600
H  26.34300 0.97100 35.26400
H  23.66400 1.96300 35.03000
H  24.82600 -0.71600 34.69900
H  23.04400 -0.32900 34.53800
H  23.80700 -0.20400 36.07400
H  25.28800 3.47700 35.84300
H  26.47800 3.77900 34.62900
H  28.08500 3.29600 36.05600
H  27.33900 1.90200 36.93100
H  19.43300 2.18100 31.16100
H  20.10500 1.21900 32.47400
H  19.18100 0.40400 31.22800
H  18.32200 1.45200 27.48400
H  18.87300 2.07300 29.12600
H  18.32200 0.34400 28.82000
H  24.75800 2.35200 25.50000
H  27.39700 0.94400 25.44300
H  25.64900 -0.55500 24.90500
H  24.61600 0.53500 23.93100
H  23.93100 -0.28000 25.27500
H  26.99400 3.07500 24.47800
H  28.39700 2.96100 25.51100
H  26.85600 4.10600 27.34700
H  26.01300 4.74700 25.88100
H  27.72200 5.08500 26.15700
H  31.21600 1.23600 28.64100
H  31.18500 -0.52900 29.19400
H  31.80800 0.81400 30.26700
H  29.20600 2.28100 34.07600
H  29.77100 -1.48000 36.13100
H  29.33500 -0.29900 37.59300
H  30.92100 -0.39200 36.84200
Mg 44.00500 4.69700 47.38600
C  42.09500 7.57400 47.36700
C  41.13800 2.74500 47.17900
C  45.96100 1.89700 46.66900
C  46.85800 6.60400 47.46700
N  41.85000 5.18700 47.07500
C  41.33000 6.39900 47.32400
C  39.77900 6.30500 47.58600
C  39.54500 4.73700 47.68500
C  40.89700 4.14700 47.33000
C  38.86200 4.37900 49.06300
C  38.94400 7.00900 46.46600
C  39.23000 6.58300 45.01400
H  39.11300 7.63000 43.92900
N  43.57600 2.60000 46.98000
C  42.31100 2.05100 47.05800
C  42.40100 0.61500 46.81200
C  43.77200 0.39000 46.48200
C  44.51400 1.65300 46.64200
C  41.19200 -0.39500 47.03700
C  44.44400 -1.00600 45.98400
O  43.72200 -2.00100 45.90900
C  45.91900 -1.19300 45.48500
N  46.10400 4.25400 47.03400
C  46.69500 3.05600 46.86500
C  48.23100 3.05200 46.93600
C  48.42100 4.58500 47.25700
C  47.02300 5.23400 47.24900
C  48.93700 1.97900 47.75700
C  49.36300 5.24300 46.23200
C  50.83100 5.42400 46.65600
N  44.48600 6.68200 47.40200
C  45.65800 7.35100 47.44900
C  45.37600 8.76700 47.46700
C  44.04200 8.87800 47.47700
C  43.51800 7.60800 47.36600
C  46.40500 9.84300 47.40900
C  42.96700 9.84500 47.34800
O  42.99400 11.05800 47.13000
C  41.62500 8.94200 47.32800
C  40.89100 9.29400 48.53100
O  40.95400 8.70700 49.58200
O  40.14900 10.45700 48.33900
C  39.40400 10.95700 49.47500
H  40.20300 2.18200 47.21200
H  46.66400 1.11300 46.38000
H  47.77100 7.18500 47.61300
H  39.59500 6.77900 48.55000
H  38.90100 4.36900 46.88700
H  38.55900 5.27800 49.60000
H  39.39900 3.72100 49.74600
H  37.91900 3.92700 48.75500
H  38.90200 8.09800 46.46200
H  37.91600 6.75400 46.72400
H  38.60600 5.72200 44.77200
H  40.25100 6.21300 44.91800
H  40.21500 0.06200 47.19100
H  41.49300 -0.90800 47.95100
H  41.12100 -0.90000 46.07400
H  46.68300 -1.18300 46.26200
H  46.09500 -0.35500 44.80900
H  46.04600 -2.14100 44.96200
H  48.49200 2.93200 45.88400
H  48.83200 4.57500 48.26700
H  48.25200 1.29200 48.25300
H  49.47500 2.52500 48.53300
H  49.53300 1.32400 47.12300
H  48.98300 6.25700 46.11400
H  49.40200 4.77600 45.24800
H  51.11800 5.03400 47.63300
H  50.83800 6.49500 46.85800
H  51.52000 5.17100 45.85000
H  47.43100 9.48700 47.31500
H  46.33600 10.50000 48.27600
H  46.24400 10.39600 46.48300
H  40.95000 9.22600 46.52100
H  38.57700 11.61700 49.21200
H  40.04700 11.34100 50.26700
H  38.82600 10.11000 49.84400

