158

Mg 17.09700 53.14900 25.91600
C  19.10100 51.61100 28.34900
C  14.88100 54.11500 28.47900
C  15.09500 54.32200 23.60900
C  19.31900 51.86100 23.55100
N  17.03500 52.83300 28.16300
C  18.06700 52.32100 28.93700
C  17.83200 52.64700 30.40900
C  16.33300 53.18400 30.40800
C  16.05500 53.44500 28.91200
C  15.24400 52.15400 30.98400
C  18.89900 53.50100 31.00700
C  18.82900 53.53500 32.51300
H  17.95300 52.59900 33.32800
N  15.27700 54.12700 25.93300
C  14.47600 54.32400 27.06500
C  13.32600 55.04500 26.60800
C  13.38700 55.14500 25.19400
C  14.63000 54.52800 24.87300
C  12.31900 55.57700 27.57500
C  12.48000 55.87500 24.23100
O  12.69400 55.92300 23.01000
C  11.20600 56.59600 24.75200
N  17.20000 53.11000 23.84800
C  16.19800 53.63100 23.11800
C  16.46900 53.39000 21.58100
C  18.02500 52.96200 21.63000
C  18.20400 52.59700 23.09500
C  15.58000 52.41100 20.86400
C  18.99600 54.11200 21.14700
C  20.33300 53.59600 20.45900
N  18.75000 51.84800 25.88200
C  19.59100 51.46000 24.82600
C  20.76500 50.67200 25.27200
C  20.52700 50.65300 26.64500
C  19.34900 51.40700 26.96800
C  21.82500 50.10000 24.45600
C  21.16900 50.15800 27.89100
O  22.21700 49.51900 28.09500
C  20.23700 50.88300 29.00000
C  19.87700 49.71600 29.82100
O  19.25600 48.76300 29.41700
O  20.28700 49.89400 31.13100
C  19.73200 48.82300 32.02400
H  14.12600 54.31400 29.24200
H  14.39000 54.44600 22.78500
H  20.01900 51.58500 22.76000
H  17.81300 51.70400 30.95400
H  16.31500 54.12700 30.95300
H  14.97300 52.46600 31.99300
H  15.69700 51.17100 31.11500
H  14.33300 52.12300 30.38700
H  18.82500 54.55200 30.72600
H  19.92800 53.33100 30.69000
H  18.75900 54.57200 32.84200
H  19.81500 53.25200 32.88200
H  11.33300 55.28200 27.21600
H  12.51300 56.64600 27.65800
H  12.29700 55.18300 28.59100
H  10.86100 57.39400 24.09400
H  11.40000 57.25200 25.60100
H  10.33200 55.94600 24.74500
H  16.27800 54.34400 21.09000
H  18.42600 52.03900 21.21100
H  15.05300 51.75800 21.56000
H  16.22900 51.82500 20.21300
H  14.83000 52.94100 20.27600
H  19.24100 54.72600 22.01400
H  18.38200 54.71100 20.47600
H  20.14500 53.92500 19.43800
H  20.39400 52.50900 20.52600
H  21.12800 54.15000 20.95900
H  21.57200 50.07000 23.39600
H  21.88900 49.12300 24.93500
H  22.76700 50.64400 24.52600
H  20.84800 51.60500 29.54200
H  19.99100 47.81700 31.69200
H  18.65400 48.85800 32.17900
H  20.22300 48.75900 32.99500
Mg -11.34400 36.93100 41.73200
C  -9.05200 34.67300 40.47400
C  -9.54100 39.49700 40.32700
C  -14.11000 38.98600 41.88300
C  -13.25700 34.27100 42.80800
N  -9.63700 37.04300 40.42200
C  -8.80100 36.00500 40.13800
C  -7.53700 36.46400 39.36500
C  -7.54800 38.00900 39.54200
C  -8.98100 38.20500 40.13100
C  -6.38900 38.76100 40.28000
C  -7.41100 35.92600 37.92800
C  -6.12500 35.18500 37.49800
H  -5.32800 35.70200 36.31200
N  -11.73500 39.00300 41.29300
C  -10.78400 39.91200 40.87000
C  -11.27900 41.22800 40.92800
C  -12.65000 41.11000 41.36800
C  -12.88000 39.63500 41.57000
C  -10.64700 42.44600 40.24800
C  -13.67000 42.23900 41.44000
O  -13.23600 43.39300 41.33600
C  -15.12000 42.07600 41.63000
N  -13.37600 36.56600 42.14100
C  -14.37100 37.63100 42.11900
C  -15.69600 37.19600 42.73800
C  -15.45100 35.68100 43.10700
C  -13.96600 35.49600 42.71700
C  -16.18600 38.12800 43.94000
C  -16.46400 34.69300 42.44000
C  -17.45200 33.92300 43.38700
N  -11.26800 34.88600 41.58200
C  -12.05500 33.97000 42.21100
C  -11.40000 32.65200 42.15800
C  -10.22400 32.90300 41.44700
C  -10.16400 34.28300 41.16400
C  -11.89700 31.35300 42.80200
C  -9.05600 32.30100 40.89800
O  -8.75800 31.11000 40.77600
C  -8.24300 33.41700 40.26200
C  -6.95000 33.32800 41.01200
O  -5.86500 33.10600 40.48300
O  -7.06000 33.76300 42.28900
C  -5.77300 33.63300 43.00100
H  -8.97700 40.37500 40.00500
H  -15.03500 39.56700 41.89600
H  -13.74400 33.41400 43.28000
H  -6.70000 36.08700 39.95300
H  -7.42800 38.40800 38.53500
H  -5.99200 39.44400 39.52900
H  -5.69700 37.99400 40.62700
H  -6.79700 39.37900 41.08000
H  -7.43500 36.74300 37.20700
H  -8.29100 35.28700 37.85200
H  -6.32600 34.12800 37.32600
H  -5.41900 35.23500 38.32800
H  -11.02500 42.51700 39.22800
H  -9.55900 42.39800 40.29000
H  -10.89900 43.41000 40.69200
H  -15.12200 41.59300 42.60700
H  -15.55400 41.35700 40.93500
H  -15.66100 43.02300 41.65200
H  -16.40700 37.37300 41.93100
H  -15.50200 35.61700 44.19300
H  -16.50500 37.43500 44.71900
H  -17.08100 38.64200 43.58800
H  -15.40400 38.81200 44.27000
H  -15.93200 33.93300 41.86800
H  -17.14600 35.25100 41.79900
H  -18.43700 34.31500 43.13200
H  -17.30400 34.16000 44.44000
H  -17.32000 32.85000 43.25300
H  -11.23800 30.52700 42.53100
H  -12.88700 31.12900 42.40400
H  -11.96600 31.29800 43.88900
H  -8.02500 33.19900 39.21700
H  -6.07000 33.80800 44.03500
H  -5.02300 34.28700 42.55700
H  -5.38800 32.61400 42.96900

