158

Mg 23.37200 -6.00200 46.88500
C  25.65000 -3.86800 45.29800
C  20.91900 -4.66400 44.87400
C  21.59800 -8.75500 47.28200
C  26.11900 -7.45900 48.50100
N  23.36100 -4.68500 45.05800
C  24.38700 -3.82500 44.72600
C  23.94900 -2.81900 43.69500
C  22.35400 -2.80400 43.88600
C  22.19000 -4.13200 44.62800
C  21.74900 -1.58500 44.60100
C  24.39200 -3.22600 42.24800
C  24.83300 -2.09800 41.41400
H  24.94000 -2.31000 39.93400
N  21.48200 -6.61800 46.28700
C  20.60800 -5.87200 45.47900
C  19.39400 -6.56900 45.31200
C  19.63200 -7.88400 45.88000
C  20.94200 -7.81800 46.49800
C  18.22400 -6.13900 44.49300
C  18.61700 -8.98000 45.83400
O  17.56600 -8.79000 45.25500
C  18.81800 -10.27800 46.50300
N  23.83500 -7.81700 47.75900
C  22.88200 -8.73900 47.88100
C  23.36900 -10.02200 48.66300
C  24.79400 -9.56700 49.10500
C  24.90900 -8.22000 48.42600
C  22.41200 -10.66700 49.75100
C  26.00900 -10.48600 48.96100
C  26.94400 -10.60000 50.13400
N  25.47700 -5.66000 47.04600
C  26.45600 -6.29800 47.82400
C  27.71500 -5.65200 47.70000
C  27.46100 -4.65100 46.74600
C  26.09600 -4.79000 46.31100
C  28.90700 -6.01500 48.40000
C  27.99700 -3.53200 45.97300
O  29.13000 -3.06900 45.92000
C  26.87700 -3.08900 45.01500
C  26.86800 -1.61900 45.15500
O  27.07000 -0.82100 44.27200
O  26.75400 -1.28700 46.51000
C  27.26300 -0.00200 46.88400
H  20.04300 -4.20800 44.40800
H  21.03400 -9.69000 47.30500
H  26.96300 -7.84200 49.07800
H  24.38000 -1.82300 43.80300
H  21.97200 -2.77600 42.86500
H  22.54300 -0.92800 44.95500
H  21.20900 -1.89100 45.49700
H  21.11700 -1.05500 43.88900
H  23.53000 -3.67200 41.75200
H  25.15900 -3.99200 42.36500
H  25.81100 -1.73000 41.72400
H  24.21300 -1.21900 41.59000
H  18.46000 -5.31000 43.82700
H  17.40600 -5.91800 45.17900
H  17.79400 -6.84700 43.78500
H  18.66000 -10.24400 47.58100
H  19.73900 -10.68200 46.08200
H  18.06200 -10.98100 46.15200
H  23.43300 -10.76200 47.86500
H  24.68200 -9.28900 50.15300
H  22.51400 -11.73800 49.57700
H  21.38800 -10.29800 49.69600
H  22.78500 -10.47800 50.75800
H  26.58000 -10.22200 48.07100
H  25.55300 -11.46500 48.80900
H  26.84900 -9.74600 50.80400
H  27.97200 -10.58900 49.77200
H  26.77700 -11.53900 50.66300
H  29.65200 -5.22300 48.31500
H  29.36700 -6.86700 47.90000
H  28.65100 -6.25400 49.43200
H  27.17700 -3.25600 43.98100
H  26.50300 0.77800 46.89800
H  28.11500 0.35500 46.30500
H  27.71800 0.08000 47.87100
Mg 26.92600 50.36300 27.50200
C  24.84600 51.76900 29.80400
C  29.38500 49.80000 29.93900
C  29.13500 49.31400 25.13600
C  24.73200 51.49300 24.92700
N  27.09600 50.79200 29.59000
C  25.98900 51.18400 30.36300
C  26.26900 50.93100 31.78500
C  27.74100 50.58900 31.79900
C  28.13700 50.33200 30.34400
C  28.55800 51.70800 32.43000
C  25.37700 49.86700 32.52900
C  24.28200 50.45200 33.53300
H  24.27400 49.70700 34.92000
N  28.95900 49.66100 27.54900
C  29.72100 49.38800 28.62200
C  31.02000 48.79000 28.23200
C  31.00000 48.81900 26.85200
C  29.72500 49.30800 26.41300
C  32.11900 48.38900 29.21600
C  32.01900 48.39800 25.88600
O  31.97800 48.87400 24.75700
C  33.26300 47.51700 26.38500
N  26.97100 50.48200 25.34100
C  27.97300 49.85500 24.57500
C  27.43900 49.60800 23.11600
C  26.06300 50.31000 23.12500
C  25.88300 50.80000 24.54100
C  28.34400 50.05500 21.99200
C  24.88700 49.22200 22.82600
C  23.68300 49.70400 21.96400
N  25.14400 51.50600 27.25800
C  24.26300 51.77400 26.23000
C  23.07000 52.53700 26.76200
C  23.27600 52.56500 28.14500
C  24.52300 51.90900 28.39800
C  22.02900 53.18000 25.90800
C  22.70400 53.04400 29.36200
O  21.72000 53.69300 29.61300
C  23.62500 52.44500 30.50800
C  23.92300 53.47900 31.54700
O  24.86000 54.20800 31.48200
O  22.98500 53.45200 32.56700
C  23.23400 54.43000 33.62900
H  30.10000 49.49900 30.70700
H  29.81400 48.84700 24.42000
H  23.93500 51.74300 24.22400
H  26.05900 51.91900 32.19600
H  27.85400 49.67500 32.38200
H  29.45700 51.92300 31.85200
H  29.00200 51.27300 33.32500
H  28.16100 52.66200 32.77600
H  25.84100 49.06600 33.10300
H  24.93100 49.41900 31.64100
H  23.32900 50.35200 33.01300
H  24.42800 51.52800 33.62600
H  32.96900 48.83600 28.70000
H  32.19700 47.30500 29.30900
H  32.04300 48.67100 30.26600
H  33.46400 46.82800 25.56500
H  33.02000 46.96600 27.29300
H  34.21600 48.00100 26.60100
H  27.28400 48.54600 22.92700
H  26.09000 51.18400 22.47400
H  28.52200 49.15700 21.40000
H  29.35500 50.42700 22.15700
H  27.75600 50.74200 21.38200
H  24.40100 48.74600 23.67800
H  25.34000 48.39600 22.27700
H  23.79000 49.34600 20.94000
H  23.74200 50.78400 21.82600
H  22.68000 49.63400 22.38400
H  21.08700 52.81600 26.31900
H  22.24700 52.91900 24.87300
H  22.10800 54.22700 26.20300
H  23.14700 51.57500 30.95800
H  23.19400 55.50500 33.45200
H  24.26500 54.24100 33.92600
H  22.58200 54.22900 34.47900

