158

Mg 9.04200 4.24300 27.93500
C  10.23200 2.41300 30.55000
C  7.09100 6.19000 29.99200
C  7.92300 6.00700 25.14200
C  10.46000 1.82200 25.74800
N  8.67100 4.29200 30.04700
C  9.37100 3.49800 30.94400
C  8.93400 3.94100 32.42300
C  7.80000 5.03200 32.21300
C  7.84700 5.17400 30.63600
C  6.38900 4.58100 32.72000
C  10.16300 4.41600 33.29300
C  9.83500 5.08800 34.70900
H  10.28200 4.37900 36.00300
N  7.65700 5.93000 27.63700
C  7.05900 6.64200 28.58200
C  6.33300 7.74500 28.02200
C  6.51700 7.70500 26.63200
C  7.43800 6.55100 26.37400
C  5.58800 8.72100 28.83100
C  5.94800 8.65100 25.61700
O  6.24400 8.62600 24.44000
C  4.93500 9.70000 25.95100
N  9.02700 3.88200 25.82100
C  8.61400 4.74200 24.89700
C  9.05700 4.35600 23.47200
C  9.57400 2.99600 23.69800
C  9.73000 2.87300 25.22500
C  7.91300 4.40500 22.45600
C  10.79600 2.61500 22.83100
C  10.65100 1.36600 21.93900
N  10.05800 2.51200 28.05400
C  10.65700 1.68300 27.10700
C  11.45900 0.66100 27.71900
C  11.46400 0.99300 29.08300
C  10.54800 2.08100 29.24400
C  12.17600 -0.55900 26.99600
C  11.94500 0.55500 30.38100
O  12.70100 -0.30400 30.68400
C  11.20500 1.49500 31.36900
C  10.51100 0.73600 32.46000
O  9.42000 0.13500 32.40800
O  11.27700 0.81600 33.56600
C  10.60300 0.33200 34.73600
H  6.53400 6.63900 30.81800
H  7.70500 6.71800 24.34200
H  10.87000 1.13000 25.01000
H  8.41100 3.07100 32.82200
H  7.99100 6.04600 32.56300
H  6.41900 3.55000 33.07100
H  5.65900 4.68300 31.91700
H  6.05000 5.25400 33.50900
H  10.69900 5.03900 32.57700
H  10.81900 3.55000 33.37700
H  8.79300 5.39500 34.79200
H  10.29500 6.07600 34.75500
H  5.74400 9.75200 28.51400
H  5.85900 8.70000 29.88700
H  4.54300 8.42800 28.73600
H  4.57600 10.05900 24.98600
H  5.44900 10.48200 26.51100
H  4.16800 9.24500 26.57700
H  9.94400 4.95900 23.28000
H  8.73800 2.36700 23.39100
H  7.17300 5.18600 22.63200
H  7.45700 3.47800 22.10900
H  8.39500 4.73100 21.53400
H  11.64200 2.48700 23.50600
H  10.93900 3.45900 22.15700
H  11.34700 0.56200 22.17900
H  10.62200 1.63400 20.88300
H  9.68900 0.87800 22.09900
H  12.95500 -1.03300 27.59300
H  12.47700 -0.16600 26.02500
H  11.38500 -1.30100 26.88100
H  11.99700 2.12800 31.77100
H  9.74100 0.87300 35.12600
H  11.22900 0.48000 35.61500
H  10.34800 -0.72700 34.71600
Mg 55.87700 25.16100 45.31200
C  52.84400 26.55000 44.14100
C  54.50700 22.02000 44.62900
C  58.88300 23.88000 45.82600
C  57.00000 28.31400 46.18600
N  53.96500 24.49800 44.35500
C  52.86700 25.15500 44.06400
C  51.73700 24.25800 43.63900
C  52.13500 22.88700 44.29600
C  53.61800 23.12400 44.51900
C  51.30500 22.56200 45.66900
C  51.37100 24.26400 42.18700
C  49.84700 24.11400 42.00500
H  49.45100 22.95600 41.07400
N  56.63900 23.16100 45.15200
C  55.91300 22.03300 44.91300
C  56.71400 20.88100 45.06800
C  58.00600 21.40200 45.37500
C  57.89500 22.89900 45.53300
C  56.25000 19.53100 45.00600
C  59.24000 20.54800 45.58200
O  59.16700 19.34200 45.44800
C  60.61800 21.06200 45.88900
N  57.74000 26.03700 45.61500
C  58.80100 25.26000 45.84500
C  59.91000 26.07300 46.60800
C  59.30000 27.46600 46.55200
C  57.92400 27.29400 46.09500
C  60.24000 25.52300 48.04400
C  60.16300 28.52600 45.76800
C  59.65300 29.14900 44.39000
N  55.16100 27.17500 45.12000
C  55.68300 28.28900 45.71800
C  54.64700 29.36000 45.65100
C  53.53200 28.75200 44.95900
C  53.87200 27.41200 44.63300
C  54.85100 30.67100 46.34800
C  52.13300 28.86100 44.47700
O  51.43700 29.85500 44.50700
C  51.66700 27.49000 43.77100
C  51.40600 27.82800 42.32900
O  52.26400 27.89500 41.45500
O  50.03600 27.93400 42.09900
C  49.71000 28.11000 40.73300
H  54.05200 21.03600 44.49400
H  59.90100 23.50900 45.96700
H  57.32700 29.25600 46.63100
H  50.90300 24.63100 44.23300
H  51.96300 22.03100 43.64300
H  50.88000 23.48300 46.06800
H  52.12300 22.41400 46.37500
H  50.62900 21.71100 45.59200
H  51.74800 23.37300 41.68700
H  51.73000 25.13700 41.64100
H  49.30800 25.03900 41.80200
H  49.42300 23.72900 42.93300
H  55.17500 19.35300 44.96200
H  56.53800 19.08200 45.95700
H  56.83200 19.16000 44.16200
H  60.73700 21.86000 45.15600
H  61.33100 20.24400 45.78500
H  60.62000 21.43400 46.91300
H  60.80700 25.94200 46.00500
H  59.23200 27.80400 47.58600
H  61.21700 25.06300 48.19100
H  59.47800 24.77300 48.25600
H  60.23200 26.24200 48.86400
H  61.16500 28.16700 45.53100
H  60.31900 29.34700 46.46800
H  60.50600 28.82000 43.79700
H  59.41800 30.21400 44.38800
H  58.79400 28.61400 43.98600
H  54.89300 30.41600 47.40700
H  54.00200 31.34800 46.25200
H  55.70000 31.16000 45.87200
H  50.74900 27.29200 44.32400
H  50.43500 28.52900 40.03500
H  48.77500 28.67100 40.71200
H  49.35400 27.19800 40.25400

