158

Mg 46.59700 24.73200 28.02900
C  47.39900 27.16500 30.51100
C  45.85400 22.53300 30.44500
C  46.32900 22.32700 25.50800
C  47.68700 26.84400 25.61800
N  46.67600 24.80700 30.24900
C  46.82600 25.99900 31.01600
C  46.54800 25.73400 32.53700
C  45.94900 24.30800 32.39700
C  46.16100 23.80100 30.98200
C  46.47800 23.16600 33.29700
C  45.52500 26.71100 33.19500
C  45.81000 27.08300 34.63800
H  44.69300 27.04200 35.62400
N  46.09000 22.75100 28.06100
C  45.78400 21.98700 29.12400
C  45.53200 20.63900 28.72900
C  45.84600 20.50600 27.34000
C  46.14600 21.88900 26.89700
C  45.05000 19.55700 29.68900
C  45.92900 19.27500 26.44900
O  46.23500 19.21500 25.26800
C  45.77700 17.92800 27.13800
N  46.95500 24.56500 25.81400
C  46.57600 23.57200 24.98700
C  46.79700 23.92600 23.48000
C  46.98000 25.46200 23.63300
C  47.27100 25.62200 25.11200
C  47.95300 23.19700 22.86500
C  45.83500 26.31400 23.00700
C  44.33700 25.95900 23.42200
N  47.39500 26.57200 27.97000
C  47.76100 27.39300 26.93000
C  48.29100 28.63900 27.31900
C  48.14400 28.59300 28.73400
C  47.54900 27.32200 29.11400
C  48.77900 29.69000 26.45400
C  48.45700 29.27900 29.93800
O  48.93100 30.41000 30.10700
C  47.80400 28.50400 31.09200
C  48.85600 28.34900 32.16600
O  49.87100 27.64300 32.08200
O  48.44600 29.07700 33.29800
C  49.29600 28.86900 34.47600
H  45.36800 21.83100 31.12500
H  46.17100 21.50500 24.80800
H  47.82400 27.66700 24.91300
H  47.51800 25.67400 33.03000
H  44.86500 24.25200 32.49200
H  46.66400 23.51600 34.31300
H  47.21800 22.50700 32.84300
H  45.62700 22.50400 33.45300
H  44.48200 26.43500 33.04400
H  45.60100 27.67100 32.68300
H  46.29300 28.05000 34.49600
H  46.53500 26.43200 35.12700
H  44.25700 18.87000 29.39600
H  44.67400 20.07300 30.57200
H  45.92200 19.00100 30.03500
H  46.54900 17.92000 27.90700
H  46.15300 17.19700 26.42100
H  44.73400 17.84000 27.44400
H  45.91200 23.62000 22.92200
H  47.91400 25.78000 23.16900
H  48.09500 23.66900 21.89300
H  47.71000 22.14600 22.70900
H  48.77000 23.38000 23.56400
H  45.83600 26.22400 21.92100
H  46.03200 27.35100 23.27800
H  43.68400 25.74100 22.57700
H  43.93100 26.78500 24.00500
H  44.29100 25.09200 24.08200
H  48.14800 30.55300 26.67000
H  48.81100 29.60100 25.36800
H  49.81900 29.85000 26.74000
H  46.96300 29.04700 31.52500
H  48.99200 27.98500 35.03800
H  49.23000 29.74600 35.12100
H  50.37000 28.75200 34.33200
Mg 0.09900 44.09900 25.56900
C  1.89200 43.48400 28.45900
C  -2.63600 42.55100 27.06600
C  -1.59200 44.30700 22.69100
C  3.06700 44.90400 24.04900
N  -0.34100 43.21600 27.43000
C  0.50100 43.27700 28.55400
C  -0.17700 42.91900 29.95700
C  -1.49700 42.24100 29.34500
C  -1.48900 42.57200 27.81900
C  -1.69600 40.72800 29.64100
C  -0.51000 44.21600 30.71400
C  -0.94000 44.05400 32.16300
H  -1.02300 42.59400 32.74100
N  -1.87200 43.69000 24.99900
C  -2.82500 43.02100 25.73900
C  -4.11400 42.95500 24.95000
C  -3.82300 43.56100 23.72000
C  -2.39000 43.86500 23.75200
C  -5.38700 42.38500 25.42600
C  -4.73800 43.89300 22.48700
O  -4.27600 44.25900 21.39000
C  -6.16500 43.45800 22.54600
N  0.64400 44.48400 23.66400
C  -0.18800 44.54900 22.63300
C  0.43500 45.08600 21.41100
C  1.86800 45.53200 21.89700
C  1.89400 44.95000 23.35000
C  0.49800 44.02700 20.28300
C  2.32200 46.99500 21.74000
C  1.38700 48.00000 22.36500
N  2.10700 44.10600 26.09800
C  3.14000 44.62900 25.41600
C  4.29900 44.61900 26.28000
C  3.91800 44.16600 27.50700
C  2.52100 43.85600 27.30400
C  5.75600 45.08000 25.88200
C  4.26500 43.75600 28.94600
O  5.28100 43.80400 29.57800
C  2.90800 43.35800 29.47400
C  2.97000 42.11900 30.23100
O  2.81200 40.99200 29.84700
O  3.26000 42.43700 31.49300
C  3.42300 41.39600 32.51300
H  -3.49800 42.07500 27.53800
H  -1.96900 44.50900 21.68600
H  3.98100 45.29900 23.59900
H  0.35500 42.16900 30.54200
H  -2.45100 42.67800 29.64200
H  -1.55100 40.17700 28.71200
H  -2.71800 40.69400 30.01900
H  -0.96500 40.36200 30.36200
H  -1.26000 44.72700 30.11000
H  0.41300 44.77500 30.55900
H  -1.94000 44.48300 32.22600
H  -0.34400 44.71700 32.79100
H  -6.15600 43.15500 25.36400
H  -5.32600 42.24300 26.50500
H  -5.82500 41.58200 24.83400
H  -6.61400 43.81300 21.61800
H  -6.69900 43.92800 23.37200
H  -6.21100 42.37000 22.58200
H  -0.24000 45.91400 21.19400
H  2.49200 44.95900 21.21100
H  1.39000 44.12500 19.66300
H  -0.35500 44.27600 19.65100
H  0.45500 42.99900 20.64000
H  2.34500 47.16700 20.66400
H  3.27500 47.15500 22.24400
H  1.86900 48.34700 23.27900
H  0.40700 47.58700 22.60500
H  1.20700 48.82300 21.67400
H  5.71300 45.35000 24.82700
H  6.41400 44.22400 26.03400
H  6.17800 45.89800 26.46500
H  2.72200 44.18300 30.16100
H  3.31200 40.41000 32.06200
H  2.63900 41.48100 33.26500
H  4.33100 41.59200 33.08300

