158

Mg 43.67800 5.36900 46.95800
C  41.81500 8.15200 45.90100
C  40.93800 3.34100 46.55000
C  45.73300 2.70800 47.28100
C  46.55800 7.46000 46.74900
N  41.61800 5.66300 46.14000
C  41.06900 6.96500 45.98400
C  39.58000 6.75500 45.65900
C  39.22900 5.32800 46.15300
C  40.65100 4.70900 46.27500
C  38.26400 5.21500 47.38800
C  39.15500 7.00600 44.21200
C  38.26900 8.15200 43.89200
H  38.72400 9.11100 42.66900
N  43.38300 3.22500 46.97700
C  42.12500 2.63000 46.82900
C  42.41900 1.23500 46.81300
C  43.77400 1.01400 47.07200
C  44.38900 2.32100 47.10600
C  41.40700 0.15300 46.64800
C  44.46900 -0.39300 47.09300
O  43.78400 -1.45100 47.00800
C  45.89000 -0.41600 47.22400
N  45.87300 5.11400 46.77100
C  46.43700 3.90400 47.10300
C  47.98100 3.92300 47.17700
C  48.24100 5.47400 47.19600
C  46.85700 6.16100 46.86500
C  48.65400 3.22400 48.38100
C  49.31200 6.00300 46.15600
C  50.07700 7.18900 46.77300
N  44.13200 7.32600 46.55700
C  45.30800 8.04700 46.56200
C  45.04200 9.42100 46.24100
C  43.65900 9.48700 46.04200
C  43.17200 8.20800 46.15900
C  45.96200 10.56500 46.30800
C  42.52200 10.32100 45.67300
O  42.55500 11.52600 45.48000
C  41.18200 9.51700 45.77900
C  40.40000 10.02100 46.89400
O  40.11400 9.39700 47.90300
O  39.80700 11.16700 46.61800
C  38.88100 11.61400 47.55100
H  40.04400 2.71400 46.51700
H  46.48000 1.92900 47.44400
H  47.46100 8.06900 46.66400
H  39.06700 7.45300 46.32100
H  38.89000 4.63300 45.38500
H  38.06500 6.19000 47.83400
H  38.85300 4.75800 48.18400
H  37.40600 4.57600 47.18000
H  38.60200 6.09900 43.96800
H  40.05200 7.13600 43.60800
H  38.14800 8.80600 44.75500
H  37.24600 7.83700 43.68300
H  41.51400 -0.53500 47.48600
H  41.54500 -0.34500 45.68800
H  40.43400 0.64500 46.64100
H  46.36800 0.13800 46.41600
H  46.25900 -1.43800 47.14400
H  46.08600 0.07400 48.17800
H  48.40600 3.46700 46.28300
H  48.37900 5.93100 48.17600
H  48.86100 2.18200 48.13800
H  47.92000 3.21500 49.18700
H  49.60800 3.65900 48.67700
H  48.75900 6.33500 45.27800
H  49.97200 5.16200 45.94300
H  50.20800 8.04500 46.11100
H  51.07400 6.85000 47.05200
H  49.71000 7.62100 47.70400
H  46.93800 10.22000 46.65000
H  45.66800 11.23700 47.11500
H  46.25300 11.00800 45.35600
H  40.68600 9.66300 44.81900
H  38.71200 12.67600 47.37500
H  39.11700 11.64700 48.61400
H  38.00600 10.96500 47.49800
Mg 10.13600 48.59200 26.88400
C  8.43100 48.05400 29.98000
C  12.83100 49.81000 28.59800
C  11.59000 48.98400 24.01300
C  7.20800 47.74300 25.19200
N  10.48000 48.94400 29.09300
C  9.67300 48.67600 30.16600
C  10.36800 48.97500 31.45600
C  11.57200 49.97900 30.93900
C  11.67300 49.56100 29.44300
C  11.24300 51.50400 31.10000
C  10.94900 47.67700 32.21600
C  10.16300 47.39700 33.56100
H  10.82700 48.19000 34.73700
N  11.93700 49.20600 26.36200
C  12.92300 49.69700 27.23900
C  14.07900 49.96200 26.48600
C  13.79800 49.64800 25.13300
C  12.38500 49.24000 25.13700
C  15.39300 50.56600 27.09200
C  14.73700 49.61800 23.96200
O  14.41600 49.23700 22.81200
C  16.23300 49.73000 24.18800
N  9.37900 48.64900 24.86900
C  10.24400 48.68000 23.84000
C  9.60300 48.39600 22.48000
C  8.17100 47.92100 22.91000
C  8.25500 48.09800 24.41400
C  9.57800 49.45200 21.45900
C  7.92500 46.42600 22.66000
C  8.09300 46.08300 21.19000
N  8.19300 48.14800 27.41300
C  7.11500 47.75100 26.57700
C  5.99700 47.46400 27.41200
C  6.44800 47.51800 28.75700
C  7.83200 47.87300 28.69900
C  4.63100 47.27900 26.91500
C  6.07700 47.35700 30.11400
O  5.01200 46.97700 30.54200
C  7.37300 47.64300 30.95900
C  7.61900 46.33200 31.68200
O  8.30700 45.40400 31.25900
O  6.96400 46.32900 32.93700
C  6.94400 45.04900 33.58600
H  13.74200 50.10700 29.12100
H  12.00700 49.01000 23.00400
H  6.28500 47.46200 24.68200
H  9.65700 49.45600 32.12800
H  12.46100 49.72200 31.51600
H  12.17000 52.04600 31.28900
H  10.48800 51.63100 31.87600
H  10.84500 51.90000 30.16600
H  11.97000 47.75000 32.58900
H  11.00600 46.78300 31.59500
H  10.07700 46.32500 33.73700
H  9.17300 47.81500 33.37700
H  15.69000 51.42700 26.49300
H  16.17800 49.81000 27.06300
H  15.27300 50.97500 28.09500
H  16.50600 50.71400 24.56800
H  16.72400 49.67900 23.21600
H  16.52900 48.88600 24.81100
H  10.27200 47.65200 22.04900
H  7.34700 48.53600 22.54700
H  8.64000 49.98100 21.28800
H  10.09900 49.09100 20.57300
H  10.08900 50.30600 21.90500
H  6.90700 46.20800 22.98000
H  8.55700 45.82000 23.31000
H  7.27100 45.61500 20.64900
H  9.00800 45.49400 21.13400
H  8.42800 46.94700 20.61600
H  4.14100 48.20700 26.62100
H  4.05300 46.78400 27.69500
H  4.67500 46.49600 26.15800
H  7.20800 48.45300 31.66900
H  7.89300 44.53100 33.45200
H  6.08200 44.52400 33.17300
H  6.76700 45.09400 34.66100

