158

Mg 1.53700 -2.04800 44.31000
C  4.85300 -1.30700 43.88100
C  0.77100 0.83800 42.76400
C  -1.73200 -3.11600 44.30100
C  2.62600 -5.16900 45.60100
N  2.70000 -0.55000 43.44300
C  4.00000 -0.36400 43.41800
C  4.43400 0.91300 42.62100
C  3.06000 1.68600 42.58700
C  2.13600 0.58500 42.91900
C  2.87600 2.92500 43.49500
C  5.07900 0.55700 41.30500
C  6.31900 1.30000 40.89700
H  6.23200 2.18700 39.71100
N  -0.21200 -1.23700 43.75600
C  -0.28700 0.01800 43.12200
C  -1.68200 0.33400 42.89000
C  -2.43900 -0.82000 43.20100
C  -1.44000 -1.77800 43.78300
C  -2.10700 1.69100 42.42400
C  -3.99900 -1.04700 43.02000
O  -4.71100 -0.18000 42.55300
C  -4.80100 -2.30600 43.30900
N  0.60500 -3.90300 44.73800
C  -0.82600 -4.04200 44.69800
C  -1.21300 -5.46600 45.19100
C  0.18600 -6.09500 45.56900
C  1.19900 -4.92800 45.32300
C  -2.32900 -5.43600 46.27900
C  0.61600 -7.34800 44.64600
C  0.72700 -8.72600 45.32100
N  3.38300 -3.05800 44.73900
C  3.65700 -4.27700 45.27100
C  5.06600 -4.40100 45.58000
C  5.62800 -3.22500 45.03300
C  4.52900 -2.50900 44.50900
C  5.69700 -5.52200 46.40300
C  6.87900 -2.57500 44.73400
O  8.09800 -2.84800 44.99600
C  6.40300 -1.29600 43.94400
C  6.78400 -0.07700 44.74300
O  6.46400 0.18900 45.89700
O  7.57300 0.73600 43.99800
C  7.86900 2.03100 44.50600
H  0.49300 1.74200 42.21900
H  -2.74400 -3.48800 44.47000
H  2.79800 -6.03900 46.23800
H  5.08000 1.53600 43.24000
H  2.91200 2.01100 41.55700
H  2.16200 2.74400 44.29900
H  2.60100 3.71600 42.79700
H  3.86200 3.16300 43.89400
H  4.37700 0.51800 40.47200
H  5.40000 -0.46400 41.51100
H  7.12800 0.57500 40.98900
H  6.45400 2.03700 41.68700
H  -2.32400 1.60700 41.35900
H  -1.35700 2.44600 42.66100
H  -3.10500 1.97300 42.75900
H  -4.23600 -3.11600 42.84600
H  -5.76400 -2.21500 42.80800
H  -4.84300 -2.27900 44.39800
H  -1.57600 -5.97400 44.29800
H  0.25200 -6.40000 46.61400
H  -2.01300 -5.95800 47.18200
H  -3.17100 -5.98000 45.85000
H  -2.69700 -4.44000 46.52500
H  1.63300 -7.27500 44.26100
H  0.02100 -7.62800 43.77600
H  1.23800 -9.40700 44.64000
H  -0.29600 -9.05900 45.49500
H  1.30800 -8.61000 46.23600
H  5.22500 -6.35300 45.88000
H  5.31100 -5.56800 47.42100
H  6.76300 -5.51200 46.17700
H  6.75500 -1.25700 42.91300
H  8.18000 2.66600 43.67600
H  8.69100 2.05100 45.22200
H  7.00400 2.59600 44.85200
Mg -0.74900 34.11000 26.52700
C  -2.58200 32.50500 29.06500
C  0.75600 36.13600 28.93200
C  0.29500 36.12600 24.06800
C  -2.75500 32.35300 24.23500
N  -0.95100 34.33000 28.80100
C  -1.69800 33.48400 29.55900
C  -1.45500 33.87500 31.02200
C  -0.44100 35.15500 30.95600
C  -0.16200 35.24100 29.49100
C  -1.04400 36.41500 31.52900
C  -0.90300 32.62300 31.74500
C  -1.74700 32.14500 33.00900
H  -1.02300 32.03800 34.38900
N  0.41800 35.79600 26.44700
C  1.07500 36.46000 27.57000
C  2.05900 37.42600 27.06900
C  1.86300 37.48200 25.64900
C  0.82600 36.45800 25.35300
C  3.00700 38.08400 28.02800
C  2.50700 38.38700 24.56100
O  2.25700 38.34200 23.37100
C  3.54700 39.21100 25.05500
N  -1.19300 34.19500 24.46000
C  -0.62600 35.14000 23.65300
C  -0.94500 35.00500 22.18800
C  -1.70700 33.62300 22.19900
C  -1.85300 33.30400 23.71300
C  -1.72700 36.15500 21.57900
C  -1.04800 32.45200 21.47900
C  0.06500 31.62800 22.21100
N  -2.23500 32.57300 26.57500
C  -2.90400 31.95900 25.54600
C  -3.84900 31.00000 26.13600
C  -3.79300 31.19600 27.49900
C  -2.77800 32.15900 27.67000
C  -4.70900 30.07400 25.39000
C  -4.27400 30.83800 28.79900
O  -5.21900 30.13000 29.07800
C  -3.55000 31.72100 29.90100
C  -4.59300 32.54700 30.61500
O  -5.04100 33.61000 30.23100
O  -4.94500 31.80700 31.77100
C  -5.86700 32.53900 32.63800
H  1.33100 36.64500 29.70800
H  0.71500 36.74100 23.27000
H  -3.36100 31.80200 23.51300
H  -2.42500 34.30500 31.27000
H  0.49500 34.95700 31.47800
H  -1.63600 36.96500 30.79900
H  -0.25200 37.06200 31.90600
H  -1.57300 36.08400 32.42300
H  0.01700 32.91700 32.25200
H  -0.77100 31.81400 31.02600
H  -2.02200 31.12300 32.74700
H  -2.73300 32.60900 33.02800
H  3.34300 37.38700 28.79600
H  2.50100 38.89600 28.55100
H  3.95100 38.41200 27.59300
H  3.30500 39.93600 25.83100
H  3.90100 39.65400 24.12400
H  4.32600 38.51500 25.37000
H  0.02300 35.00100 21.68700
H  -2.70600 33.67700 21.76600
H  -1.50300 37.04400 22.17000
H  -2.79800 35.97500 21.48700
H  -1.39100 36.45200 20.58600
H  -0.62700 32.91100 20.58400
H  -1.91600 31.84700 21.21500
H  0.29200 32.05000 23.19000
H  0.87900 31.68800 21.48900
H  -0.26900 30.60900 22.40700
H  -5.34500 29.46200 26.03000
H  -4.11800 29.30200 24.89600
H  -5.31800 30.64900 24.69300
H  -3.02700 30.96600 30.48800
H  -6.52200 33.23300 32.11100
H  -5.29100 33.04000 33.41500
H  -6.50000 31.84000 33.18400

