158

Mg 6.35100 54.80100 41.09900
C  5.55500 51.29100 40.92800
C  9.61700 53.96800 40.21700
C  7.01400 58.02500 41.00900
C  2.90300 55.33800 41.46400
N  7.40700 52.84000 40.40500
C  6.89200 51.58300 40.46800
C  7.85400 50.58700 39.89800
C  9.19600 51.36000 39.91700
C  8.74500 52.83600 40.22900
C  10.21500 51.00200 40.99500
C  7.49400 49.96400 38.47700
C  7.77500 50.79000 37.20200
H  6.89000 50.44200 36.00600
N  8.08700 55.81800 40.72300
C  9.31300 55.33000 40.42800
C  10.28300 56.45100 40.34200
C  9.53700 57.61100 40.58300
C  8.18200 57.18400 40.86800
C  11.72200 56.22400 39.99500
C  10.10000 58.99800 40.56700
O  11.28600 59.15900 40.40000
C  9.34400 60.30000 40.75400
N  5.06600 56.46800 41.18300
C  5.61200 57.70000 41.15400
C  4.60200 58.80400 41.38900
C  3.22300 57.94500 41.56600
C  3.70400 56.49100 41.40400
C  4.94800 59.76800 42.59700
C  2.07600 58.41000 40.54800
C  0.80300 59.00100 41.12300
N  4.53800 53.61800 41.25400
C  3.25800 53.96900 41.53800
C  2.44900 52.74100 41.94400
C  3.34500 51.78900 41.74400
C  4.60000 52.27800 41.27500
C  1.05100 52.70500 42.53900
C  3.47300 50.37500 41.94900
O  2.74500 49.52300 42.42900
C  4.79400 49.99000 41.31200
C  4.44000 49.26700 40.10600
O  3.76100 49.73000 39.16300
O  4.72300 47.92400 40.27900
C  4.44800 47.05100 39.08800
H  10.65600 53.80000 39.92700
H  7.21900 59.09400 40.92300
H  1.88300 55.58900 41.76200
H  7.81200 49.70500 40.53700
H  9.75100 51.23400 38.98700
H  10.41700 51.80500 41.70400
H  11.11300 50.74300 40.43600
H  9.78500 50.12400 41.47700
H  6.45700 49.64200 38.56800
H  8.02300 49.02200 38.33300
H  8.85700 50.75500 37.07200
H  7.60900 51.84500 37.42000
H  12.31400 57.13500 40.07800
H  11.74600 55.90800 38.95200
H  12.11400 55.46600 40.67300
H  8.73300 60.62800 39.91300
H  10.08900 61.09600 40.75600
H  8.81200 60.24000 41.70300
H  4.52400 59.45800 40.52000
H  2.74600 58.05800 42.54000
H  4.94300 60.83400 42.37100
H  5.88900 59.52300 43.08900
H  4.24500 59.50400 43.38600
H  1.71100 57.58200 39.94100
H  2.47000 59.20400 39.91300
H  0.98200 59.19500 42.18100
H  -0.06600 58.35400 41.00000
H  0.57700 59.94400 40.62600
H  1.17100 52.17000 43.48100
H  0.29900 52.12000 42.01000
H  0.61400 53.68200 42.74700
H  5.46800 49.42500 41.95600
H  5.22000 46.28600 39.00600
H  4.29400 47.52700 38.11900
H  3.51600 46.53600 39.32100
Mg 0.90900 43.59300 26.00700
C  2.99100 43.94900 28.87100
C  -1.55600 42.72000 28.21200
C  -0.94000 42.96500 23.31800
C  3.73500 44.24700 24.02000
N  0.81400 43.28700 28.27200
C  1.66700 43.69900 29.21900
C  1.03200 43.78800 30.68100
C  -0.39400 43.21000 30.46200
C  -0.37000 43.05200 28.88000
C  -0.85700 41.96800 31.24400
C  1.00400 45.26900 31.34700
C  0.97000 45.33500 32.83500
H  0.71600 43.96000 33.52800
N  -0.99200 42.93500 25.77000
C  -1.86900 42.68300 26.74900
C  -3.14100 42.48000 26.22200
C  -2.94700 42.46400 24.80200
C  -1.59900 42.75800 24.55800
C  -4.37200 42.20900 27.00300
C  -4.02000 41.93800 23.83300
O  -3.73400 41.85900 22.59700
C  -5.42400 41.65100 24.18800
N  1.46700 43.36900 24.03700
C  0.40600 43.10900 23.15100
C  0.96900 43.19200 21.69900
C  2.36100 43.89100 21.94000
C  2.54700 43.82200 23.40300
C  1.15800 41.86900 21.04700
C  2.56900 45.31700 21.32900
C  2.51600 46.60200 22.21400
N  2.94500 44.14400 26.33000
C  3.96500 44.31100 25.39100
C  5.27400 44.45800 26.09300
C  4.93200 44.29000 27.43800
C  3.50700 44.13900 27.57400
C  6.58700 44.65300 25.34600
C  5.37900 44.09800 28.78100
O  6.53500 44.13800 29.12700
C  4.22300 43.98400 29.77200
C  4.31300 42.76800 30.52900
O  4.17600 41.64000 30.12500
O  4.58700 43.05800 31.82100
C  4.60600 42.04800 32.85200
H  -2.41100 42.56400 28.87400
H  -1.54100 42.98700 22.40600
H  4.52900 44.44400 23.29600
H  1.64800 43.15900 31.32300
H  -1.02900 44.03700 30.78000
H  -1.68000 42.36100 31.84100
H  -0.07000 41.53500 31.86300
H  -1.20700 41.08300 30.71400
H  0.19500 45.77700 30.82100
H  1.85200 45.80500 30.92100
H  0.20300 46.04600 33.14400
H  1.95800 45.72300 33.08200
H  -5.23900 42.84100 26.81000
H  -4.08500 42.51200 28.01000
H  -4.57900 41.14100 26.92900
H  -5.44700 40.81700 24.89000
H  -5.85100 41.34600 23.23300
H  -5.90200 42.57800 24.50300
H  0.33800 43.80200 21.05200
H  3.16400 43.28700 21.51800
H  2.05500 41.55100 20.51600
H  0.32500 41.76300 20.35200
H  0.84000 41.01000 21.63900
H  1.74600 45.53400 20.64800
H  3.49700 45.28500 20.75800
H  1.96900 46.43700 23.14200
H  1.91900 47.43300 21.83800
H  3.52500 46.94600 22.44400
H  7.41700 44.20100 25.88900
H  6.77900 45.69900 25.10600
H  6.62700 44.16400 24.37300
H  4.24000 44.92600 30.32100
H  4.58300 42.48200 33.85200
H  5.50900 41.43900 32.85200
H  3.73000 41.43800 32.63200

