158

Mg 35.01700 3.44300 29.81000
C  32.97000 4.64400 32.28300
C  37.67200 3.21900 31.96800
C  37.11400 2.80800 27.13100
C  32.44200 4.09300 27.50600
N  35.21900 3.80200 31.92400
C  34.20600 4.27400 32.77300
C  34.72700 4.15100 34.19000
C  36.32400 3.99000 34.07200
C  36.44500 3.69200 32.54400
C  37.18800 5.17800 34.57600
C  34.05800 2.98600 34.94200
C  33.72700 3.14300 36.48000
H  34.53500 4.12400 37.29700
N  37.07900 2.96800 29.56700
C  38.00700 2.81100 30.63800
C  39.30600 2.39800 30.08600
C  39.12700 2.43300 28.70100
C  37.69500 2.75600 28.36500
C  40.49600 2.18900 31.00200
C  40.30000 2.16400 27.65500
O  40.14700 2.26000 26.49300
C  41.72100 1.86200 28.00700
N  34.85800 3.48300 27.74100
C  35.82400 3.14300 26.80400
C  35.40900 3.11900 25.36800
C  33.88000 3.13200 25.57000
C  33.67900 3.57100 27.01800
C  36.03400 4.25300 24.45600
C  33.17200 1.78400 25.32700
C  31.89200 1.75400 24.45200
N  33.06000 4.35900 29.81400
C  32.11900 4.42600 28.87200
C  30.86200 4.85100 29.43400
C  31.15000 4.85600 30.74100
C  32.49800 4.61900 30.98800
C  29.61000 5.14200 28.68700
C  30.56000 5.11600 32.05000
O  29.40400 5.42400 32.41900
C  31.65800 4.75000 33.08600
C  31.55800 5.92100 34.09400
O  31.84400 7.12500 33.91600
O  31.21100 5.32300 35.23700
C  30.79800 6.23400 36.30800
H  38.45700 3.26800 32.72400
H  37.73000 2.61900 26.24900
H  31.58300 3.93700 26.85000
H  34.37500 5.07300 34.65400
H  36.68300 3.08900 34.57100
H  37.78100 5.52000 33.72700
H  37.94800 4.81100 35.26600
H  36.56800 6.02000 34.88100
H  34.60800 2.04600 34.92200
H  33.15300 2.74300 34.38600
H  33.84400 2.11700 36.83000
H  32.69700 3.40800 36.71500
H  41.17900 3.01800 30.81700
H  40.94600 1.20900 30.84400
H  40.07200 2.18200 32.00600
H  42.28600 1.62800 27.10500
H  41.72400 0.92200 28.56000
H  42.14600 2.67700 28.59200
H  35.87100 2.20400 24.99600
H  33.38500 3.82800 24.89200
H  36.85200 4.76000 24.96800
H  35.27400 5.02100 24.31500
H  36.35000 3.70200 23.57000
H  32.88900 1.36500 26.29300
H  33.80100 1.00200 24.90200
H  31.48100 0.76000 24.62800
H  32.16500 1.93200 23.41200
H  31.18800 2.40000 24.97600
H  29.87100 5.57600 27.72200
H  29.14900 5.94900 29.25700
H  28.86000 4.35900 28.79300
H  31.47700 3.83400 33.64900
H  30.33400 5.62800 37.08600
H  30.04500 6.97800 36.04700
H  31.68500 6.62300 36.80700
Mg 48.66500 35.56100 28.45200
C  46.92000 33.65700 30.68600
C  48.87900 38.16000 30.87500
C  49.86500 37.66900 26.10100
C  47.86000 33.29600 25.91600
N  47.96000 35.87100 30.43700
C  47.40100 34.87300 31.16700
C  47.64300 35.19500 32.64600
C  47.65000 36.78600 32.63000
C  48.21200 37.00500 31.21200
C  46.26600 37.52000 32.71600
C  48.94700 34.58100 33.20500
C  49.31900 34.69400 34.70300
H  48.32100 35.32300 35.74200
N  49.40800 37.50300 28.46800
C  49.43200 38.33900 29.55800
C  50.17200 39.63500 29.16400
C  50.56900 39.43500 27.78800
C  49.97000 38.11100 27.42300
C  50.53100 40.76700 30.08000
C  51.22600 40.44600 26.80600
O  51.53400 40.24900 25.60300
C  51.45500 41.90200 27.24400
N  48.80200 35.51600 26.32500
C  49.37900 36.48900 25.59400
C  49.34600 36.12800 24.14600
C  48.93400 34.62300 24.10500
C  48.51000 34.45900 25.54100
C  48.42700 37.09300 23.35000
C  50.20800 33.75300 23.76500
C  50.71000 33.79800 22.30800
N  47.66100 33.81800 28.25400
C  47.52500 32.93500 27.24600
C  46.90600 31.69300 27.70700
C  46.62200 31.88500 29.10600
C  47.07000 33.23500 29.32100
C  46.51300 30.50200 26.83100
C  46.03900 31.34200 30.32500
O  45.38400 30.29600 30.56900
C  46.09800 32.54400 31.27300
C  46.46200 32.12700 32.61000
O  47.21500 31.23900 32.86900
O  45.70200 32.81400 33.49200
C  45.71200 32.34000 34.92700
H  49.13700 38.91100 31.62400
H  50.21000 38.32400 25.29800
H  47.72100 32.55100 25.13000
H  46.77000 34.85300 33.20200
H  48.24600 37.21600 33.43500
H  46.14600 38.15400 31.83800
H  46.17100 38.04500 33.66600
H  45.41700 36.85800 32.88800
H  49.75900 34.99800 32.60800
H  49.08600 33.53400 32.93700
H  50.27400 35.17600 34.91100
H  49.43400 33.70600 35.14800
H  50.13200 41.76600 29.90300
H  51.60400 40.82800 30.26000
H  50.14700 40.68500 31.09700
H  52.02600 42.44500 26.49000
H  52.13300 41.86200 28.09700
H  50.53700 42.39800 27.56000
H  50.38500 36.17100 23.81900
H  48.17300 34.26400 23.41100
H  47.76300 37.66000 24.00300
H  47.80400 36.52700 22.65800
H  49.09800 37.73400 22.78000
H  49.92700 32.73000 24.01300
H  50.94900 34.10100 24.48400
H  50.45600 34.67000 21.70500
H  50.29500 32.97000 21.73400
H  51.77800 33.59000 22.23600
H  45.82700 30.75700 26.02300
H  46.23200 29.66500 27.46900
H  47.49400 30.25900 26.42200
H  45.04700 32.83100 31.31400
H  45.51300 33.18000 35.59300
H  46.68200 31.90600 35.17000
H  44.92400 31.63900 35.20100

