158

Mg 7.58700 2.55600 27.08700
C  8.86800 1.20800 30.01700
C  5.47800 4.51000 28.99700
C  6.07300 3.63100 24.21300
C  8.97200 -0.13200 25.34600
N  7.06300 2.70900 29.28700
C  7.88300 2.16700 30.24800
C  7.48200 2.76900 31.60800
C  6.22800 3.71000 31.30700
C  6.28300 3.67000 29.77800
C  4.89000 3.06300 31.69700
C  8.64800 3.52400 32.23500
C  8.38500 3.96100 33.67200
H  9.41200 3.58000 34.79100
N  6.05900 3.93700 26.62400
C  5.30300 4.55700 27.55400
C  4.33300 5.44900 26.87900
C  4.61700 5.38200 25.52100
C  5.61700 4.26200 25.38900
C  3.39600 6.35300 27.63000
C  4.18400 6.21200 24.36500
O  4.43100 5.96500 23.19600
C  3.20400 7.37000 24.63900
N  7.46300 1.86300 25.13500
C  6.92000 2.57100 24.14600
C  7.10200 1.86300 22.83800
C  8.22900 0.72500 23.09700
C  8.17800 0.80800 24.64500
C  5.89200 1.32200 22.03400
C  9.59600 1.16500 22.44600
C  10.46400 2.09000 23.27700
N  8.68300 0.86900 27.48800
C  9.23900 -0.05000 26.71900
C  10.26900 -0.75500 27.43300
C  10.08000 -0.27500 28.75100
C  9.13200 0.71000 28.71800
C  11.24900 -1.77500 26.99600
C  10.51800 -0.54400 30.07600
O  11.30000 -1.37300 30.51700
C  9.82100 0.46400 30.95100
C  9.19000 -0.08400 32.14800
O  8.21700 -0.82200 32.25300
O  9.97800 0.26200 33.23800
C  9.43300 -0.06400 34.56800
H  4.96900 5.29100 29.56500
H  5.74100 3.94200 23.22100
H  9.50300 -0.92000 24.80800
H  7.26400 1.95700 32.30100
H  6.55500 4.65800 31.73500
H  4.44800 3.57400 32.55200
H  4.96200 1.99200 31.89200
H  4.14300 2.94400 30.91200
H  8.68900 4.50600 31.76400
H  9.57100 2.94600 32.17500
H  7.38500 3.68700 34.00800
H  8.42200 5.04800 33.74500
H  3.91800 7.30400 27.73700
H  3.31000 5.95600 28.64100
H  2.48300 6.43500 27.04000
H  2.22800 6.93300 24.84800
H  3.25900 8.02400 23.76900
H  3.52500 7.95300 25.50200
H  7.63700 2.52500 22.15600
H  7.89300 -0.25800 22.76400
H  5.06800 1.23700 22.74300
H  5.98200 0.33500 21.58000
H  5.75400 2.11600 21.30000
H  9.38300 1.64400 21.49000
H  10.03000 0.18600 22.24400
H  10.08800 2.23500 24.29000
H  10.57900 3.13400 22.98500
H  11.44100 1.61000 23.33600
H  11.08700 -1.76200 25.91800
H  10.88800 -2.73800 27.35700
H  12.30100 -1.53400 27.15200
H  10.47800 1.26400 31.29100
H  9.35300 -1.14600 34.67800
H  8.41100 0.30000 34.66700
H  10.05300 0.26000 35.40400
Mg 26.98900 49.66500 26.16700
C  25.16200 50.80800 28.86900
C  29.34000 48.47200 28.37400
C  29.25900 49.42800 23.62900
C  24.80400 51.28900 23.97500
N  27.05600 49.50200 28.37200
C  26.26700 50.08100 29.25800
C  26.70600 49.90000 30.73000
C  28.18100 49.32200 30.47000
C  28.14400 48.93900 28.95600
C  29.34700 50.24400 31.00100
C  25.85300 48.83300 31.54200
C  25.36700 49.27500 32.91400
H  26.44200 49.76200 33.97500
N  28.96600 48.93800 26.01600
C  29.77200 48.45000 27.03900
C  31.06200 48.05600 26.54800
C  31.16300 48.47500 25.18400
C  29.71200 48.92700 24.85300
C  32.10000 47.43900 27.49600
C  32.31400 48.53800 24.18900
O  32.33000 49.07400 23.04000
C  33.65200 47.96700 24.66000
N  27.10000 50.38500 24.11700
C  28.08700 50.04200 23.27500
C  27.75600 50.48500 21.80200
C  26.30700 50.99400 21.91700
C  26.03100 50.93700 23.43200
C  28.72000 51.45600 21.09400
C  25.26300 50.28900 21.00200
C  24.39200 51.15400 19.99800
N  25.15700 50.57400 26.33900
C  24.40600 51.23800 25.36200
C  23.26600 51.87600 26.05000
C  23.56700 51.67800 27.45300
C  24.69600 50.92400 27.54500
C  22.16600 52.69600 25.45100
C  23.07300 51.91200 28.75300
O  22.00000 52.44000 29.06400
C  24.04000 51.35100 29.74900
C  24.35200 52.49900 30.67600
O  25.21800 53.34500 30.52100
O  23.48900 52.51500 31.73600
C  23.73100 53.39900 32.84100
H  30.03200 48.02500 29.09000
H  30.03300 49.22500 22.88600
H  24.12100 51.80300 23.29500
H  26.66000 50.90300 31.15300
H  28.39500 48.39800 31.00500
H  28.92400 50.85700 31.79700
H  29.63500 50.88100 30.16500
H  30.27300 49.75100 31.29500
H  26.20500 47.80200 31.50900
H  25.00000 48.81600 30.86300
H  24.81400 48.49400 33.43600
H  24.70200 50.13400 32.83300
H  31.77600 47.24600 28.51900
H  33.03000 47.99000 27.63900
H  32.47000 46.55200 26.98100
H  34.47100 48.10700 23.95500
H  33.50800 46.88900 24.72100
H  33.90700 48.38400 25.63500
H  27.72100 49.60700 21.15800
H  26.24500 52.03500 21.59800
H  29.58700 51.73200 21.69400
H  28.29800 52.42800 20.84000
H  29.09800 51.01300 20.17300
H  24.68200 49.65600 21.67300
H  25.77000 49.59300 20.33400
H  24.30600 50.69800 19.01100
H  24.79800 52.16000 19.89800
H  23.38100 51.21600 20.40000
H  21.26200 52.79400 26.05200
H  21.84700 52.07200 24.61600
H  22.59600 53.60900 25.03800
H  23.58200 50.52900 30.29800
H  24.63400 53.06300 33.35200
H  22.87500 53.43000 33.51600
H  23.88000 54.43400 32.53300

