158

Mg 35.36900 0.61300 29.45700
C  33.10200 1.83200 31.89000
C  37.82600 0.44700 31.77400
C  37.45000 -0.02900 26.89300
C  32.80100 1.31000 27.07100
N  35.45900 1.25500 31.52600
C  34.41400 1.45500 32.34900
C  34.95600 1.52700 33.82800
C  36.49400 1.51300 33.60900
C  36.62600 1.01900 32.18300
C  37.14800 2.83300 33.89900
C  34.48200 0.30400 34.75400
C  34.18300 0.66400 36.23100
H  34.87600 1.96200 36.81900
N  37.43000 0.15000 29.33600
C  38.25200 0.04800 30.40800
C  39.56000 -0.27600 29.96900
C  39.44400 -0.42200 28.50900
C  38.06600 -0.12600 28.15600
C  40.73500 -0.47700 30.88700
C  40.48900 -0.67600 27.52700
O  40.22600 -0.70600 26.33500
C  41.92400 -1.20700 28.05900
N  35.20900 0.79200 27.27700
C  36.19100 0.36200 26.48200
C  35.77100 0.32600 25.02500
C  34.23900 0.57100 25.09300
C  34.09000 0.93300 26.61000
C  36.62000 1.26800 24.15300
C  33.31200 -0.62200 24.71500
C  32.12300 -0.43100 23.71700
N  33.33800 1.28400 29.46600
C  32.44900 1.50800 28.45700
C  31.21600 2.09600 28.91300
C  31.34000 2.17000 30.33200
C  32.69200 1.70900 30.61000
C  30.09200 2.53000 28.06500
C  30.75100 2.49700 31.56300
O  29.64700 2.88100 31.77600
C  31.83000 2.20900 32.65800
C  31.98000 3.40900 33.50800
O  32.68700 4.43500 33.30400
O  31.10700 3.24500 34.54000
C  30.81700 4.33400 35.49400
H  38.65400 0.37800 32.48300
H  37.97400 -0.44400 26.03000
H  31.97800 1.38600 26.35700
H  34.62900 2.45500 34.29800
H  36.94100 0.76600 34.26500
H  37.64400 3.14500 32.98000
H  37.96000 2.88200 34.62500
H  36.40700 3.57900 34.18500
H  35.22100 -0.49200 34.84100
H  33.57500 -0.03500 34.25200
H  34.41300 -0.22400 36.82100
H  33.10600 0.76400 36.36400
H  40.99100 -1.53400 30.80700
H  40.36600 -0.28700 31.89500
H  41.57300 0.16600 30.61800
H  42.63300 -1.61300 27.33700
H  41.71700 -2.01000 28.76600
H  42.50400 -0.46300 28.60500
H  36.01500 -0.58500 24.47700
H  34.01200 1.33800 24.35200
H  36.00100 1.80200 23.43200
H  37.35600 0.66700 23.61900
H  37.04800 2.03400 24.79900
H  33.01300 -1.09200 25.65200
H  34.02600 -1.28100 24.22200
H  31.86600 0.61300 23.53800
H  31.19500 -0.76800 24.17800
H  32.32800 -0.92900 22.77000
H  29.60000 3.43500 28.42100
H  29.43500 1.67100 27.93000
H  30.42900 2.83700 27.07500
H  31.50000 1.40800 33.32000
H  29.81600 4.35400 35.92600
H  30.97000 5.33200 35.08500
H  31.48800 4.14600 36.33200
Mg 0.07000 43.29600 26.67000
C  2.21700 42.69800 29.39100
C  -2.62700 41.96100 28.48200
C  -1.80400 43.64400 23.91800
C  2.93800 44.14800 24.85800
N  -0.15800 42.41800 28.71000
C  0.84500 42.53000 29.66700
C  0.22000 42.23000 31.02600
C  -1.21200 41.75800 30.59500
C  -1.35000 42.04100 29.15800
C  -1.61800 40.29900 30.74600
C  0.26100 43.24400 32.15500
C  0.61600 42.76600 33.58200
H  0.00800 41.50300 34.12200
N  -1.96800 42.88200 26.29400
C  -2.88100 42.30300 27.11500
C  -4.18400 42.21300 26.47200
C  -3.98300 42.76300 25.14500
C  -2.51800 43.09000 25.08100
C  -5.44100 41.73400 27.09000
C  -4.94200 42.99500 24.01800
O  -4.56500 43.44500 22.93100
C  -6.52600 42.79700 24.23400
N  0.48600 43.84700 24.73900
C  -0.47700 43.99300 23.79900
C  0.01900 44.85000 22.58500
C  1.46100 45.13400 23.03700
C  1.70800 44.24300 24.28300
C  -0.10500 44.19800 21.23200
C  1.69600 46.63700 23.42900
C  1.45400 47.67500 22.39400
N  2.17300 43.41800 27.01400
C  3.18800 43.67800 26.17500
C  4.44300 43.50000 26.83900
C  4.10100 43.11600 28.17200
C  2.75800 43.01100 28.14400
C  5.79400 43.76000 26.32500
C  4.68400 42.77000 29.45700
O  5.88000 42.66100 29.77000
C  3.47100 42.70500 30.36200
C  3.51300 41.49200 31.28400
O  3.18400 40.32600 31.06000
O  3.96300 41.87200 32.52700
C  4.19200 40.84700 33.56000
H  -3.52500 41.63900 29.01400
H  -2.34000 43.85000 22.99000
H  3.85900 44.48100 24.37500
H  0.67700 41.33400 31.44600
H  -1.95500 42.44900 30.99300
H  -0.89100 39.78500 31.37500
H  -1.72100 39.73300 29.82000
H  -2.58500 40.24700 31.24700
H  -0.72800 43.66800 32.32900
H  0.92900 44.06900 31.90700
H  0.55500 43.55700 34.33000
H  1.67100 42.57600 33.38400
H  -6.01000 41.07200 26.43800
H  -6.08700 42.54900 27.41600
H  -5.24000 41.09500 27.95000
H  -6.96100 43.20000 25.14800
H  -6.70200 41.73300 24.07600
H  -7.05500 43.36500 23.46800
H  -0.52500 45.79300 22.54700
H  2.16800 44.92700 22.23400
H  0.90500 44.13800 20.82500
H  -0.64500 44.75500 20.46600
H  -0.50200 43.18500 21.17300
H  2.73200 46.67000 23.76700
H  1.16100 46.98300 24.31400
H  1.05300 47.13100 21.53900
H  2.40300 48.13300 22.11700
H  0.66100 48.37200 22.66800
H  5.77900 43.95100 25.25200
H  6.53000 42.96800 26.46500
H  6.13800 44.63600 26.87400
H  3.32700 43.60800 30.95700
H  5.18600 41.03200 33.96600
H  4.21700 39.78500 33.31400
H  3.51800 41.02500 34.39800

