158

Mg 16.37200 51.58100 25.71900
C  18.41700 50.88400 28.41700
C  13.69000 51.53600 28.03200
C  14.21200 51.70000 23.10100
C  18.99500 50.89100 23.59600
N  16.15900 51.28200 27.85800
C  17.14300 51.19200 28.75800
C  16.67900 51.48200 30.19800
C  15.11300 51.19600 30.10300
C  14.98500 51.38100 28.56200
C  14.68600 49.72100 30.45000
C  16.95800 52.94200 30.47600
C  16.89100 53.29400 31.98200
H  16.17700 52.31800 32.94500
N  14.27200 51.69800 25.58000
C  13.34500 51.59800 26.63300
C  12.04300 51.66900 26.09800
C  12.12300 51.70200 24.67600
C  13.58500 51.70500 24.37000
C  10.80800 51.82600 26.87700
C  10.99800 51.64900 23.66100
O  11.23000 51.76500 22.50000
C  9.46700 51.63100 23.99800
N  16.55400 51.31800 23.60200
C  15.53700 51.44800 22.72600
C  16.07800 51.44600 21.22600
C  17.56700 50.84600 21.53300
C  17.76500 51.11700 23.00700
C  15.33200 50.65300 20.13400
C  18.68800 51.34200 20.61400
C  19.03200 52.88100 20.68100
N  18.38800 51.11200 25.89400
C  19.32200 50.88500 24.95700
C  20.57700 50.41900 25.59900
C  20.32600 50.50900 26.99300
C  18.94300 50.84900 27.09800
C  21.78900 49.99700 24.89600
C  20.85000 50.30100 28.27100
O  21.97900 49.90500 28.53900
C  19.64500 50.58500 29.25300
C  19.42700 49.32100 30.05700
O  19.25700 48.19800 29.60600
O  19.46400 49.63700 31.36900
C  19.02600 48.70400 32.36400
H  12.84300 51.51700 28.72000
H  13.61700 51.75800 22.18700
H  19.75400 50.45100 22.94600
H  17.22000 50.79100 30.84400
H  14.52000 51.87000 30.72100
H  15.57100 49.08700 30.50000
H  14.17600 49.28400 29.59100
H  13.98200 49.63400 31.27700
H  16.23000 53.61200 30.01800
H  17.96300 53.14000 30.10200
H  16.45900 54.27700 32.17000
H  17.95500 53.38700 32.19900
H  10.46200 50.79500 26.80300
H  10.15600 52.53100 26.36200
H  11.00400 52.07800 27.91900
H  9.22300 51.16600 24.95300
H  9.01100 51.05700 23.19000
H  9.04600 52.63300 24.07600
H  16.07600 52.50000 20.94700
H  17.46600 49.77300 21.37100
H  14.56700 50.08600 20.66500
H  16.08200 49.97400 19.72900
H  14.96500 51.20000 19.26500
H  18.43500 51.07300 19.58800
H  19.59700 50.77700 20.81900
H  20.08700 52.86000 20.95300
H  18.51600 53.39600 21.49200
H  18.99100 53.35700 19.70100
H  21.90200 50.78600 24.15200
H  21.69600 49.04500 24.37300
H  22.65200 49.76100 25.51800
H  19.78200 51.48200 29.85700
H  18.85500 49.19000 33.32400
H  19.86600 48.01000 32.32500
H  18.12200 48.20100 32.02000
Mg 0.45200 43.16900 25.25700
C  2.88000 42.29500 27.65500
C  -1.86400 43.27600 27.81300
C  -1.90500 43.38800 22.97900
C  2.79900 42.48600 22.70100
N  0.53500 42.70600 27.43300
C  1.62700 42.40900 28.23700
C  1.19800 42.30800 29.70800
C  -0.37800 42.29000 29.59700
C  -0.65900 42.76000 28.19400
C  -0.97900 40.89900 29.72600
C  1.63400 43.54400 30.57800
C  1.41300 43.44900 32.06300
H  1.18800 42.12600 32.66700
N  -1.60300 43.52600 25.37300
C  -2.35900 43.56700 26.49400
C  -3.76100 43.99900 26.15300
C  -3.82300 43.92700 24.73400
C  -2.47100 43.56800 24.26100
C  -4.73500 44.49600 27.18300
C  -5.00700 44.09100 23.89200
O  -4.93800 43.75000 22.71500
C  -6.26100 44.31900 24.50000
N  0.49500 43.01800 23.10600
C  -0.64100 43.22400 22.43800
C  -0.37200 43.11100 20.93700
C  1.19300 42.94700 20.80300
C  1.59100 42.94600 22.26000
C  -1.12500 41.95100 20.23000
C  1.86200 44.13200 20.03300
C  2.18000 45.45400 20.76600
N  2.40500 42.62900 25.15200
C  3.23000 42.42600 24.04000
C  4.56200 42.33400 24.49500
C  4.48300 42.20700 25.89500
C  3.11200 42.40800 26.23100
C  5.80300 42.23500 23.76600
C  5.28100 42.01200 27.12000
O  6.45500 41.89000 27.29300
C  4.25000 42.09200 28.29300
C  4.41200 40.95400 29.23700
O  4.06100 39.82200 28.94100
O  5.01500 41.23500 30.37000
C  5.02900 40.14800 31.47100
H  -2.60800 43.51200 28.57600
H  -2.60600 43.37000 22.14100
H  3.54300 42.20400 21.95300
H  1.63600 41.42500 30.17400
H  -0.84700 42.97400 30.30400
H  -0.22900 40.15700 29.99800
H  -1.48500 40.59800 28.80900
H  -1.67900 40.88900 30.56200
H  0.97900 44.36700 30.29000
H  2.66600 43.81700 30.35800
H  0.53000 44.02500 32.34000
H  2.23500 43.89600 32.62300
H  -4.27900 44.47000 28.17200
H  -5.62400 43.87300 27.28300
H  -5.17000 45.45400 26.89900
H  -7.04800 44.32300 23.74500
H  -6.23200 45.18100 25.16700
H  -6.36000 43.44500 25.14400
H  -0.65800 44.04900 20.46000
H  1.49700 42.08700 20.20500
H  -0.49700 41.13000 19.88500
H  -1.64800 42.21900 19.31100
H  -1.74100 41.52200 21.02000
H  1.19100 44.34600 19.20100
H  2.71600 43.73900 19.48100
H  2.15700 45.34400 21.85000
H  1.46900 46.24900 20.54100
H  3.14800 45.82900 20.43400
H  5.82300 42.74600 22.80300
H  5.93600 41.16700 23.59300
H  6.63200 42.58200 24.38200
H  4.43700 43.03800 28.80100
H  4.11500 39.55400 31.48400
H  5.17500 40.63400 32.43600
H  5.89900 39.52200 31.27300

