158

Mg -1.67600 17.76500 27.94000
C  -2.00100 15.62700 30.64300
C  -2.19900 20.44600 30.05900
C  -1.26900 19.89000 25.34700
C  -1.47000 15.03900 25.82200
N  -2.10100 17.96200 30.08500
C  -2.15600 16.94200 30.98700
C  -2.52800 17.41800 32.42500
C  -2.57100 18.97900 32.18500
C  -2.37800 19.15100 30.62400
C  -3.84600 19.66400 32.76900
C  -1.57300 17.01100 33.65800
C  -1.53800 17.82700 34.99300
H  -0.39000 17.40800 35.99000
N  -1.77000 19.86100 27.63600
C  -1.91700 20.78300 28.72300
C  -1.84300 22.09600 28.19400
C  -1.75000 21.98800 26.78400
C  -1.57600 20.54300 26.51800
C  -2.09800 23.36400 29.01500
C  -1.81800 23.10000 25.70500
O  -1.64000 22.87900 24.47500
C  -2.13800 24.51600 26.19600
N  -1.42500 17.48800 25.87000
C  -1.33900 18.51300 24.97100
C  -1.20200 17.96600 23.53300
C  -0.98600 16.39800 23.75100
C  -1.30100 16.26100 25.21800
C  -2.46400 18.41900 22.70500
C  0.27800 15.72200 23.29900
C  1.49500 15.85100 24.22500
N  -1.83200 15.77500 28.14300
C  -1.68300 14.77600 27.17900
C  -1.66900 13.58900 27.86300
C  -1.74200 13.81800 29.22100
C  -1.88400 15.20100 29.33000
C  -1.42500 12.27600 27.24800
C  -1.78900 13.19100 30.55200
O  -1.72400 11.97900 30.91200
C  -2.00400 14.37200 31.52100
C  -0.80200 14.30200 32.45600
O  0.27800 14.75100 32.25400
O  -1.29100 13.58900 33.57600
C  -0.23800 13.08700 34.54100
H  -2.46900 21.21300 30.78800
H  -1.00700 20.45700 24.45100
H  -1.27600 14.18900 25.16500
H  -3.52900 17.06200 32.67000
H  -1.69400 19.34300 32.71900
H  -3.72800 20.63700 33.24700
H  -4.43800 18.97900 33.37500
H  -4.47100 19.84200 31.89400
H  -0.58200 16.92900 33.21000
H  -1.76400 16.03600 34.10700
H  -2.40400 17.42300 35.51600
H  -1.76900 18.89200 35.01200
H  -2.33800 23.08800 30.04100
H  -2.92300 23.89500 28.54000
H  -1.20200 23.98400 28.99400
H  -3.18500 24.47300 26.49400
H  -2.13400 25.22800 25.37100
H  -1.36600 24.88300 26.87300
H  -0.35300 18.33800 22.96100
H  -1.71900 15.83900 23.16900
H  -2.94800 19.27900 23.16900
H  -3.17100 17.58900 22.70200
H  -2.07000 18.64800 21.71500
H  0.49000 15.98300 22.26200
H  -0.00800 14.68100 23.15100
H  1.38900 16.21200 25.24800
H  1.98200 16.62400 23.63200
H  2.15800 14.99100 24.12300
H  -0.73400 12.31600 26.40500
H  -2.41700 12.02300 26.87400
H  -1.01500 11.53700 27.93600
H  -2.98000 14.33500 32.00400
H  -0.24800 11.99800 34.51500
H  -0.49300 13.37900 35.56000
H  0.71700 13.57100 34.33600
Mg 2.62700 -0.63700 44.85600
C  5.99800 0.04600 43.88200
C  1.67600 2.27200 43.02000
C  -0.49300 -1.89300 44.63300
C  3.81000 -3.87000 45.96600
N  3.68500 0.93100 43.51300
C  5.08700 1.11700 43.41100
C  5.46100 2.43400 42.75700
C  4.06900 3.19100 42.62300
C  3.04700 2.07500 43.17200
C  3.94200 4.51000 43.47100
C  6.02100 2.11000 41.37200
C  7.20200 3.04900 40.91000
H  6.86600 4.06100 39.70500
N  0.80500 0.17100 44.09400
C  0.65900 1.39400 43.44500
C  -0.75200 1.63000 43.35800
C  -1.41800 0.48800 43.83500
C  -0.35200 -0.53400 44.22100
C  -1.31900 2.83300 42.73100
C  -2.92900 0.29300 43.90400
O  -3.70500 1.22200 43.57000
C  -3.55500 -0.95800 44.59000
N  1.74400 -2.68600 45.06600
C  0.41100 -2.82000 45.11200
C  0.03600 -4.23000 45.56100
C  1.39600 -4.71500 46.18200
C  2.45500 -3.78700 45.66200
C  -1.24700 -4.36600 46.44200
C  1.60500 -6.23700 45.76400
C  1.87500 -7.15600 46.94000
N  4.48700 -1.70500 45.12100
C  4.78000 -2.92200 45.57700
C  6.23900 -3.13200 45.49300
C  6.79500 -1.97800 44.92900
C  5.68600 -1.14300 44.60900
C  6.87100 -4.37600 46.00800
C  7.97400 -1.30600 44.48200
O  9.15800 -1.56600 44.67000
C  7.54600 0.04600 43.81900
C  8.26400 1.16600 44.59100
O  7.98600 1.50800 45.73900
O  9.15300 1.89200 43.88300
C  9.68600 3.13900 44.54500
H  1.48700 3.26700 42.61200
H  -1.51500 -2.27200 44.69500
H  4.22400 -4.77000 46.42500
H  6.17200 3.03700 43.32200
H  3.82000 3.55200 41.62500
H  4.89900 4.60800 43.98300
H  3.14700 4.55000 44.21600
H  3.74300 5.39000 42.85900
H  5.42200 2.10300 40.46100
H  6.35600 1.07300 41.38000
H  8.10200 2.50100 40.63100
H  7.49300 3.66100 41.76500
H  -1.38000 2.77200 41.64400
H  -0.77000 3.65400 43.19100
H  -2.34400 3.10200 42.98500
H  -4.62300 -0.79000 44.72900
H  -3.05400 -1.13500 45.54200
H  -3.34700 -1.82000 43.95700
H  -0.16600 -4.80500 44.65700
H  1.43600 -4.64700 47.26900
H  -1.42600 -3.41800 46.95000
H  -1.05300 -5.06900 47.25200
H  -2.16500 -4.64900 45.92800
H  2.52200 -6.32800 45.18200
H  0.80500 -6.64700 45.14700
H  2.95700 -7.29100 46.95700
H  1.37700 -8.12500 46.91000
H  1.64300 -6.62000 47.86000
H  6.89900 -4.33000 47.09600
H  7.92100 -4.22800 45.75800
H  6.25900 -5.24700 45.77300
H  8.09900 -0.03600 42.88300
H  9.47800 3.89400 43.78700
H  10.76400 3.10100 44.70600
H  9.20500 3.50800 45.45000

