158

Mg 1.06700 8.25200 27.04400
C  1.53000 10.28100 29.78200
C  1.23200 5.54400 29.03600
C  0.90200 6.33900 24.22200
C  1.37500 11.03600 24.98100
N  1.49700 7.96700 29.22200
C  1.37700 8.96100 30.14300
C  1.19200 8.36900 31.58900
C  1.07500 6.86600 31.27300
C  1.27800 6.74800 29.75400
C  2.10900 6.04700 32.08700
C  0.02400 9.04800 32.43300
C  -0.52200 8.21200 33.59800
H  0.46000 7.94200 34.67900
N  1.03300 6.17100 26.72300
C  1.07000 5.23200 27.66500
C  0.73400 3.91300 27.11400
C  0.69300 4.13500 25.69500
C  0.86400 5.63000 25.51200
C  0.60900 2.59200 28.02800
C  0.34000 3.15900 24.58300
O  0.51600 3.45100 23.37100
C  -0.07900 1.67100 24.90100
N  1.09200 8.63500 24.97100
C  1.02600 7.68300 24.05000
C  0.90600 8.30500 22.61400
C  0.73000 9.78900 22.92700
C  1.07700 9.83300 24.42400
C  2.11800 7.96700 21.68400
C  -0.75200 10.29700 22.77100
C  -0.87500 11.54300 21.84000
N  1.55600 10.26200 27.32100
C  1.63800 11.22100 26.39600
C  1.94600 12.53400 27.13900
C  1.85300 12.18400 28.46700
C  1.60800 10.83300 28.51500
C  2.21900 13.81700 26.57400
C  2.02800 12.68400 29.73100
O  2.33400 13.81900 30.11700
C  1.71900 11.49800 30.66700
C  2.79000 11.25600 31.74300
O  3.85500 10.59700 31.65100
O  2.39700 11.86600 32.90700
C  3.38600 11.93600 33.94600
H  1.05000 4.77400 29.78800
H  0.89600 5.75400 23.30000
H  1.38100 11.98000 24.43300
H  2.11400 8.67000 32.08600
H  0.06900 6.46900 31.40500
H  2.90900 6.67000 32.48800
H  2.62900 5.33300 31.44800
H  1.56500 5.48600 32.84600
H  -0.67400 9.26600 31.62500
H  0.26600 10.02500 32.85200
H  -1.00300 7.31300 33.21300
H  -1.27600 8.76000 34.16400
H  0.51000 1.61800 27.54900
H  -0.34000 2.75600 28.53800
H  1.47400 2.53600 28.68900
H  -1.04200 1.71700 25.40900
H  0.73100 1.19100 25.44900
H  -0.14700 1.08700 23.98300
H  -0.02800 7.84800 22.28600
H  1.43000 10.44500 22.41000
H  1.91200 7.00800 21.20800
H  3.02300 7.89000 22.28600
H  2.31100 8.66400 20.86800
H  -1.02800 10.71800 23.73800
H  -1.47200 9.55500 22.42600
H  0.07200 11.60100 21.30400
H  -1.19400 12.38600 22.45300
H  -1.63300 11.37200 21.07500
H  2.34900 13.79800 25.49200
H  3.13700 14.08000 27.09800
H  1.58200 14.63800 26.90500
H  0.84400 11.79600 31.24500
H  4.42300 11.72200 33.69000
H  3.09800 11.11800 34.60600
H  3.28300 12.86500 34.50700
Mg 49.38100 34.59000 27.22000
C  47.42600 33.81600 29.98100
C  50.00900 37.56600 28.70100
C  51.16100 35.64300 24.37200
C  48.24100 31.95500 25.49400
N  48.82200 35.45300 29.27800
C  48.05600 35.00000 30.27600
C  47.82900 35.98400 31.39500
C  48.49000 37.26300 30.81300
C  49.13900 36.75400 29.50100
C  47.63000 38.56400 30.62900
C  48.48500 35.54300 32.75100
C  47.43500 35.38300 33.86000
H  47.30800 36.64000 34.77400
N  50.52200 36.29400 26.67900
C  50.69200 37.37900 27.46600
C  51.55600 38.28300 26.81200
C  51.95000 37.79100 25.55300
C  51.23100 36.49100 25.50900
C  51.88600 39.61800 27.39900
C  52.78900 38.47100 24.49200
O  53.03400 37.94700 23.42100
C  53.40100 39.76800 24.74300
N  49.57800 33.99900 25.21400
C  50.46800 34.49300 24.25900
C  50.40000 33.67700 22.95300
C  49.62800 32.41700 23.40200
C  49.09200 32.78800 24.76900
C  49.81700 34.55500 21.79400
C  50.40500 31.06400 23.37900
C  50.38900 30.29400 22.02600
N  48.15300 33.11800 27.61300
C  47.85300 32.03400 26.86900
C  47.04800 31.09900 27.61200
C  46.73100 31.87800 28.73300
C  47.52500 33.06300 28.77800
C  46.57500 29.75200 27.17800
C  45.88100 31.92700 29.92500
O  45.04700 31.11600 30.33900
C  46.19600 33.17800 30.72300
C  46.68200 32.65600 31.95000
O  47.83300 32.31100 32.16300
O  45.59800 32.43200 32.83000
C  45.86700 31.98000 34.20600
H  50.14500 38.58500 29.06700
H  51.81300 35.78300 23.50800
H  47.88200 31.04900 25.00300
H  46.74800 36.08600 31.49000
H  49.38100 37.46000 31.40900
H  48.30700 39.37500 30.89700
H  46.73500 38.52200 31.25000
H  47.19900 38.46700 29.63200
H  49.07200 36.33100 33.22400
H  49.11100 34.65900 32.63700
H  47.75700 34.62500 34.57400
H  46.46100 35.10000 33.46100
H  52.81800 39.65300 27.96400
H  51.08400 39.89800 28.08200
H  51.84000 40.46800 26.71800
H  54.17600 39.78400 25.50900
H  52.59900 40.50200 24.82500
H  53.89600 40.04000 23.81000
H  51.42300 33.42900 22.67200
H  48.73800 32.38200 22.77400
H  49.53200 35.54800 22.14200
H  48.89400 34.10900 21.42300
H  50.57500 34.59700 21.01200
H  50.04900 30.36300 24.13400
H  51.44600 31.27500 23.62300
H  49.89600 29.32400 22.08800
H  51.39400 30.25500 21.60600
H  49.84100 30.86500 21.27600
H  46.71000 29.11200 28.05000
H  47.33200 29.43900 26.45900
H  45.50500 29.70900 26.97400
H  45.33300 33.83300 30.84200
H  45.20000 31.12700 34.33200
H  45.56000 32.72900 34.93500
H  46.90800 31.68500 34.34500

