158

Mg -1.27100 17.32800 25.94800
C  -1.65300 15.19600 28.60400
C  -2.34900 19.95100 27.95300
C  -1.18300 19.45300 23.22700
C  -0.81400 14.43700 23.78800
N  -1.85600 17.59500 28.13100
C  -1.89300 16.52200 29.01000
C  -2.52800 17.03300 30.33400
C  -3.20000 18.35000 29.81600
C  -2.37000 18.72300 28.62000
C  -4.76900 18.34500 29.48000
C  -1.51000 17.27400 31.48000
C  -2.14100 17.14700 32.86400
H  -1.25300 16.41400 33.92000
N  -1.63000 19.32900 25.62800
C  -2.00300 20.24600 26.59500
C  -1.93800 21.58400 26.11100
C  -1.49000 21.47100 24.78900
C  -1.44500 20.03600 24.45300
C  -2.14000 22.82500 26.89900
C  -1.16200 22.56100 23.81000
O  -0.89500 22.41600 22.62800
C  -1.04900 23.99100 24.25300
N  -1.07600 16.97000 23.75500
C  -1.04600 18.04700 22.90400
C  -0.78500 17.48700 21.45800
C  -0.41400 15.96800 21.73300
C  -0.87400 15.71000 23.16100
C  -2.03500 17.71200 20.56800
C  1.04200 15.51600 21.48100
C  2.20400 16.53900 21.78800
N  -1.37300 15.23300 26.09000
C  -1.04700 14.22900 25.17800
C  -1.13100 12.95000 25.95100
C  -1.40300 13.26700 27.25500
C  -1.42500 14.69200 27.30000
C  -1.09800 11.58200 25.40800
C  -1.60800 12.69900 28.52400
O  -1.47700 11.58500 28.85000
C  -1.90500 13.92700 29.44600
C  -1.18600 13.77300 30.76700
O  0.00400 13.89300 30.91400
O  -2.08400 13.42800 31.82000
C  -1.48300 13.01700 33.10600
H  -2.76900 20.74800 28.57100
H  -0.98800 20.02200 22.31600
H  -0.60900 13.50800 23.25100
H  -3.29300 16.31400 30.62700
H  -2.90700 19.18600 30.45100
H  -5.11000 17.41700 29.93800
H  -5.13100 18.53000 28.46800
H  -5.25300 19.22900 29.89600
H  -0.94300 18.19600 31.35300
H  -0.72400 16.53200 31.33800
H  -3.04500 16.55100 32.74100
H  -2.48000 18.10000 33.27100
H  -2.68000 22.50300 27.79000
H  -2.77500 23.57600 26.42900
H  -1.29900 23.49600 27.07700
H  -0.45400 24.09400 25.15900
H  -2.09800 24.23500 24.41900
H  -0.58900 24.64900 23.51600
H  0.00000 18.08400 20.99500
H  -1.07200 15.48700 21.00900
H  -1.78100 17.37800 19.56200
H  -2.33900 18.75900 20.58400
H  -2.82300 17.08500 20.98500
H  1.11300 15.27200 20.42100
H  1.19700 14.52900 21.91700
H  2.71900 16.77100 20.85600
H  2.96300 16.11600 22.44600
H  1.73900 17.46400 22.12900
H  -0.71800 11.04900 26.27900
H  -0.43800 11.54100 24.54100
H  -2.08200 11.23800 25.08800
H  -2.95700 13.95600 29.73000
H  -1.80300 13.60100 33.96900
H  -0.40000 12.89600 33.13000
H  -1.78100 11.97600 33.22800
Mg 25.50700 -0.04700 29.04200
C  27.48900 -0.36200 31.88200
C  22.75300 0.42300 30.88900
C  23.73200 0.09900 26.03400
C  28.36200 -0.84800 27.01600
N  25.18100 -0.17700 31.05800
C  26.14000 -0.01000 32.09300
C  25.53300 0.21300 33.47100
C  23.97800 0.40800 33.14500
C  23.95400 0.13900 31.62000
C  22.98500 -0.48800 33.97700
C  26.23700 1.44500 34.10100
C  26.98600 1.15300 35.44200
H  26.56500 1.97900 36.60700
N  23.59700 0.18300 28.58200
C  22.60000 0.41700 29.48000
C  21.36700 0.69500 28.83200
C  21.60900 0.63900 27.41200
C  22.99200 0.28400 27.29400
C  20.17300 1.04200 29.67100
C  20.57200 0.81700 26.26400
O  20.89400 0.48100 25.12100
C  19.17800 1.21700 26.53200
N  25.97700 -0.50100 26.84100
C  25.08800 -0.20900 25.88500
C  25.75800 -0.13900 24.51500
C  27.26700 -0.43400 24.76200
C  27.21600 -0.59800 26.32600
C  24.99300 -0.97400 23.38000
C  28.22100 0.62200 24.11800
C  28.56300 1.77200 25.01600
N  27.50700 -0.63500 29.33800
C  28.53400 -0.92400 28.42600
C  29.71400 -1.27500 29.23500
C  29.32500 -1.05400 30.56000
C  28.00600 -0.63900 30.57600
C  31.01400 -1.72900 28.67500
C  29.81600 -1.00600 31.90400
O  30.93800 -1.23100 32.27700
C  28.64300 -0.52000 32.79700
C  28.44800 -1.45200 33.91000
O  27.57000 -2.27000 34.01400
O  29.45000 -1.28200 34.85300
C  29.38000 -2.05200 36.14900
H  21.98000 0.73300 31.59600
H  23.22700 0.29800 25.08600
H  29.19700 -1.13800 26.37400
H  25.55000 -0.68800 34.08400
H  23.73200 1.44100 33.38700
H  22.49300 -1.18300 33.29700
H  22.23800 0.21500 34.34700
H  23.36800 -0.94400 34.89000
H  25.39700 2.06800 34.41000
H  26.92400 1.90900 33.39300
H  28.05600 1.35900 35.43100
H  26.75200 0.11900 35.69500
H  20.07600 0.57900 30.65300
H  19.26500 0.64600 29.21700
H  20.06100 2.10600 29.87900
H  18.93300 2.16200 27.01600
H  18.70400 0.38000 27.04300
H  18.70100 1.36900 25.56400
H  25.78100 0.86600 24.09300
H  27.61500 -1.45000 24.57300
H  24.57100 -1.84900 23.87400
H  25.59000 -1.15000 22.48500
H  24.17900 -0.32900 23.04600
H  27.81900 1.00500 23.18000
H  29.16600 0.09400 23.98800
H  27.83300 1.95600 25.80400
H  28.68700 2.68100 24.42800
H  29.52800 1.55900 25.47700
H  30.82600 -2.75100 28.34600
H  31.89400 -1.86000 29.30500
H  31.43200 -1.09000 27.89700
H  29.05700 0.41700 33.17100
H  29.96100 -1.58100 36.94200
H  29.70000 -3.08100 35.98100
H  28.33600 -2.10000 36.45600

