158

Mg 35.17400 1.49200 29.50000
C  33.16300 3.00500 31.89900
C  37.78200 1.92900 31.55300
C  37.09800 0.81700 26.82100
C  32.48300 1.90500 27.19400
N  35.50400 2.42400 31.46800
C  34.47100 2.75800 32.30500
C  35.01700 2.78900 33.73800
C  36.53600 2.54800 33.60800
C  36.63000 2.24200 32.12100
C  37.38800 3.68200 34.05700
C  34.34100 1.77100 34.67400
C  33.87800 2.26500 36.06400
H  34.73000 3.13500 36.88800
N  37.23300 1.22300 29.28100
C  38.14900 1.47600 30.24200
C  39.47300 1.05000 29.72400
C  39.23300 0.83000 28.33900
C  37.78900 0.95800 28.08500
C  40.72800 1.00300 30.59900
C  40.26500 0.41300 27.23800
O  39.96400 0.25000 26.03900
C  41.73400 0.25400 27.52600
N  34.76200 1.22300 27.27300
C  35.70700 0.87500 26.44400
C  35.16400 0.54900 24.95400
C  33.64800 0.76600 25.06900
C  33.53200 1.19900 26.63000
C  35.85200 1.39200 23.82200
C  32.74000 -0.42000 24.78600
C  32.86000 -1.09800 23.43300
N  33.18800 2.13000 29.49000
C  32.31400 2.32500 28.50400
C  31.18200 3.08700 29.06300
C  31.43800 3.19600 30.42500
C  32.69600 2.69100 30.61900
C  30.00500 3.49300 28.30600
C  30.81700 3.65500 31.65900
O  29.72100 4.12200 31.80300
C  31.92100 3.33400 32.72400
C  32.06900 4.54000 33.59100
O  32.64900 5.54600 33.28800
O  31.30500 4.35700 34.71800
C  31.03500 5.60500 35.52800
H  38.60100 1.96100 32.27400
H  37.71500 0.34000 26.05500
H  31.77600 1.96000 26.36400
H  34.75000 3.78300 34.09800
H  36.91100 1.59600 33.98300
H  37.65000 4.23300 33.15400
H  38.19600 3.22800 34.63000
H  37.00300 4.28400 34.88000
H  34.97100 0.88800 34.78100
H  33.42800 1.39300 34.21500
H  33.77900 1.42700 36.75400
H  32.84400 2.60500 35.99800
H  41.38400 1.86600 30.47800
H  41.19500 0.02300 30.49700
H  40.43000 1.05400 31.64600
H  42.21200 -0.02500 26.58800
H  41.82700 -0.47200 28.33400
H  42.04800 1.20400 27.95800
H  35.34000 -0.48300 24.65100
H  33.38800 1.66600 24.51100
H  36.75700 0.85600 23.53800
H  36.17600 2.31600 24.30100
H  35.18300 1.63600 22.99700
H  31.76600 -0.05500 25.11200
H  33.04800 -1.14000 25.54500
H  31.93800 -1.54600 23.06100
H  33.50500 -1.97700 23.45200
H  33.24200 -0.43000 22.66200
H  30.37600 3.96600 27.39700
H  29.48700 4.29700 28.82800
H  29.32200 2.66700 28.10800
H  31.56500 2.42700 33.21200
H  31.19900 6.51100 34.94600
H  31.77600 5.70900 36.32000
H  30.08700 5.62500 36.06600
Mg 16.89000 52.18200 26.48800
C  18.77600 50.65600 29.17100
C  14.55400 52.97000 28.88500
C  15.14600 53.51900 24.14600
C  19.07500 50.63900 24.26000
N  16.72500 51.88200 28.82200
C  17.66200 51.29300 29.71200
C  17.23400 51.51100 31.17500
C  15.77700 52.08100 30.98000
C  15.65400 52.33400 29.49700
C  14.61600 51.17900 31.58600
C  18.17300 52.52400 31.86700
C  17.84700 52.96600 33.39400
H  16.69200 52.22300 34.11400
N  15.08200 53.10700 26.52500
C  14.26700 53.35700 27.56700
C  13.08900 54.17500 27.15700
C  13.27100 54.29300 25.72200
C  14.55600 53.64400 25.41500
C  12.00700 54.82200 28.10800
C  12.39000 55.09700 24.74100
O  12.66600 55.22100 23.57400
C  11.08000 55.80600 25.16400
N  17.01200 52.04100 24.48100
C  16.21000 52.80400 23.68800
C  16.51900 52.57100 22.17600
C  17.84900 51.82900 22.20600
C  18.04800 51.47100 23.75400
C  15.44700 51.77100 21.39500
C  19.02900 52.64000 21.63100
C  19.55500 53.81700 22.45900
N  18.57000 50.90400 26.65400
C  19.34900 50.30500 25.65200
C  20.39400 49.49100 26.22300
C  20.19300 49.62900 27.58200
C  19.06900 50.44700 27.82200
C  21.39900 48.66200 25.54200
C  20.71400 49.28400 28.84900
O  21.71300 48.68500 29.09900
C  19.81200 49.90900 29.92000
C  19.24600 48.84700 30.87500
O  18.64900 47.79100 30.60800
O  19.77000 49.12300 32.12300
C  19.33700 48.24900 33.25700
H  13.74800 53.23800 29.57100
H  14.68500 54.00500 23.28300
H  19.81700 50.34900 23.51400
H  17.19200 50.49600 31.57200
H  15.70300 53.06300 31.44700
H  15.01100 50.29300 32.08300
H  14.04200 50.80100 30.74000
H  13.98500 51.71800 32.29200
H  18.00200 53.44500 31.30900
H  19.16300 52.08900 31.73100
H  17.60800 54.02300 33.27300
H  18.77100 52.77800 33.93900
H  11.94200 55.89100 27.90400
H  12.17200 54.68100 29.17600
H  11.09700 54.26800 27.88000
H  10.62300 55.22200 25.96200
H  10.49500 55.80500 24.24400
H  11.14100 56.86300 25.42100
H  16.59800 53.57100 21.75000
H  17.76600 50.85400 21.72700
H  14.50000 52.30700 21.46500
H  15.29900 50.79400 21.85500
H  15.76700 51.45200 20.40300
H  18.88600 52.90500 20.58300
H  19.86500 51.94200 21.64800
H  19.68900 54.65900 21.77900
H  20.28300 53.55600 23.22800
H  18.72200 54.11700 23.09400
H  21.57500 49.07300 24.54800
H  20.94400 47.67500 25.46100
H  22.32500 48.51600 26.09800
H  20.40000 50.64800 30.46400
H  20.27900 48.00300 33.74600
H  18.89800 47.31400 32.91100
H  18.64100 48.67100 33.98300

