158

Mg 9.30000 2.63600 28.45700
C  10.43000 1.24500 31.28400
C  7.66700 5.15700 30.39000
C  8.15300 4.19600 25.68400
C  10.74200 0.18400 26.48000
N  8.99400 3.08200 30.58800
C  9.59500 2.33300 31.57700
C  9.40700 2.98400 32.94100
C  8.36400 4.16300 32.71100
C  8.28600 4.14100 31.15500
C  6.97800 3.94600 33.52200
C  10.84700 3.54300 33.48700
C  11.28900 3.11700 34.92900
H  10.19400 3.02600 36.09100
N  8.00900 4.30100 28.10900
C  7.48700 5.25300 29.00800
C  6.71400 6.27700 28.30800
C  6.88200 6.02100 26.89800
C  7.71700 4.74700 26.85900
C  5.91100 7.35000 29.10800
C  6.30800 6.91700 25.75500
O  6.45300 6.65300 24.52900
C  5.68500 8.21000 26.08900
N  9.16900 2.02800 26.37000
C  8.77000 2.95300 25.43400
C  8.94000 2.47300 24.00300
C  9.96000 1.32500 24.21700
C  9.94100 1.13400 25.76800
C  7.46600 2.10900 23.58200
C  11.38900 1.56600 23.81000
C  12.13800 0.57800 22.91000
N  10.29100 1.05800 28.80000
C  10.90000 0.14900 27.87000
C  11.60500 -0.85000 28.67700
C  11.48300 -0.46300 30.05800
C  10.68800 0.68700 29.95600
C  12.27800 -2.01200 28.07500
C  11.80200 -0.74200 31.45300
O  12.45700 -1.63900 31.99100
C  11.06000 0.31700 32.29800
C  10.09100 -0.34500 33.16500
O  9.07300 -0.92700 32.84800
O  10.61300 -0.36400 34.51700
C  9.68400 -0.96800 35.50500
H  7.05300 5.88400 30.92500
H  7.99000 4.73400 24.74700
H  11.29600 -0.55900 25.90100
H  9.04100 2.23300 33.64100
H  8.77100 5.13900 32.97500
H  6.89800 4.65300 34.34800
H  6.95900 2.94100 33.94300
H  6.15400 4.19300 32.85400
H  10.96200 4.62000 33.36100
H  11.61200 3.17700 32.80200
H  11.94100 3.89500 35.32500
H  11.92300 2.23100 34.95600
H  6.39300 8.31400 29.27500
H  5.64700 6.96700 30.09400
H  4.94700 7.48600 28.61800
H  6.34400 8.90800 26.60500
H  4.81600 8.04500 26.72500
H  5.42600 8.78700 25.20100
H  9.31100 3.21200 23.29400
H  9.53600 0.43500 23.75300
H  7.49300 1.06000 23.28700
H  7.21900 2.65400 22.67100
H  6.71900 2.26100 24.36200
H  12.14600 1.61900 24.59200
H  11.31800 2.46100 23.19200
H  13.06300 0.23800 23.37500
H  12.42200 1.09200 21.99200
H  11.55700 -0.33400 22.77300
H  13.24700 -1.71400 27.67500
H  11.65800 -2.59500 27.39400
H  12.44000 -2.68800 28.91400
H  11.88300 0.77500 32.84700
H  9.38500 -1.96800 35.18900
H  8.88000 -0.25400 35.68100
H  10.21900 -1.11100 36.44400
Mg 46.16700 24.99500 28.77400
C  47.11200 27.44100 31.28800
C  45.18100 22.89000 31.19500
C  46.08900 22.64400 26.46200
C  47.38900 27.28000 26.39800
N  46.25500 25.16300 30.99300
C  46.51900 26.25400 31.80900
C  45.92800 26.02400 33.23200
C  45.71000 24.41400 33.22400
C  45.68700 24.11700 31.69100
C  46.66700 23.35500 33.88400
C  44.65800 26.83700 33.57500
C  44.87900 27.92400 34.69500
H  43.93500 27.89000 35.88600
N  45.68200 23.09300 28.80200
C  45.15600 22.40200 29.88000
C  44.75200 21.11100 29.43100
C  45.03000 20.97200 28.04800
C  45.68900 22.24900 27.76300
C  44.23800 20.07600 30.52800
C  44.69700 19.85700 27.06500
O  45.08100 19.86400 25.86500
C  43.96900 18.62400 27.49300
N  46.47200 25.02900 26.68400
C  46.49700 23.88800 26.00000
C  46.96700 24.10700 24.51600
C  46.89100 25.68700 24.43100
C  46.88000 26.06200 25.91500
C  48.29500 23.47400 24.13000
C  45.64600 26.25500 23.68200
C  44.27100 25.91800 24.29600
N  47.11700 26.97100 28.75900
C  47.47400 27.76700 27.68800
C  48.08000 29.05300 28.20500
C  47.92000 28.97400 29.61200
C  47.34800 27.67200 29.91500
C  48.68500 30.08300 27.31300
C  48.09800 29.60900 30.90100
O  48.43700 30.76800 31.06700
C  47.59000 28.66600 31.98900
C  48.65600 28.31700 32.89000
O  49.48500 27.39900 32.65600
O  48.59000 29.02100 34.07400
C  49.62400 28.76100 35.04900
H  44.76600 22.17400 31.90700
H  46.12200 22.00100 25.58000
H  47.74400 28.06000 25.72200
H  46.68800 26.30600 33.96000
H  44.75800 24.15500 33.68800
H  46.98600 22.61500 33.14900
H  46.11600 22.80600 34.64700
H  47.55700 23.73800 34.38500
H  43.75900 26.28900 33.85500
H  44.39100 27.35900 32.65600
H  44.66700 28.85700 34.17200
H  45.90700 27.97800 35.05300
H  43.16500 20.08100 30.72300
H  44.80800 20.23900 31.44200
H  44.54300 19.09700 30.16000
H  43.30700 18.86900 28.32300
H  44.65700 17.81500 27.73900
H  43.37200 18.31000 26.63700
H  46.16600 23.69500 23.90300
H  47.79900 26.06400 23.96000
H  48.38000 22.58800 24.75800
H  49.08800 24.21100 24.25600
H  48.17600 23.11600 23.10700
H  45.69800 25.92500 22.64400
H  45.65900 27.33400 23.53100
H  43.63400 25.39300 23.58400
H  43.67600 26.80500 24.51500
H  44.26000 25.28600 25.18500
H  48.84700 29.70300 26.30400
H  49.59800 30.53700 27.69800
H  48.05100 30.96700 27.24400
H  46.74800 29.07500 32.54700
H  50.63400 28.58400 34.68100
H  49.37400 27.85500 35.60000
H  49.68500 29.62700 35.70900

