158

Mg 47.59800 16.49300 28.77900
C  45.45200 16.28300 31.67000
C  49.81500 18.26400 30.86900
C  49.31200 17.49700 26.07200
C  45.11300 15.06800 26.90500
N  47.50900 17.29000 30.99500
C  46.62100 17.02700 31.98900
C  47.15800 17.46300 33.33500
C  48.45200 18.22000 32.93300
C  48.62100 17.83900 31.49500
C  48.37300 19.74400 33.17700
C  47.43300 16.31400 34.30300
C  46.87700 16.45400 35.70700
H  46.78900 17.83100 36.32900
N  49.40600 17.59500 28.50600
C  50.16600 18.21300 29.48800
C  51.45100 18.62600 28.97700
C  51.33900 18.45300 27.53100
C  49.96200 17.82000 27.30600
C  52.63500 19.13500 29.74000
C  52.36500 18.75000 26.43200
O  52.27800 18.53600 25.24400
C  53.63300 19.32800 26.99400
N  47.41200 16.06500 26.83400
C  48.09000 16.80700 25.88700
C  47.50200 16.55000 24.50700
C  46.33400 15.61100 24.73400
C  46.22600 15.60900 26.25700
C  47.41700 17.80500 23.58700
C  46.45100 14.16500 24.06600
C  47.17700 13.12300 25.01200
N  45.77000 15.64500 29.21700
C  44.90100 15.08000 28.32000
C  43.75800 14.69900 29.06600
C  44.03600 15.02000 30.42800
C  45.19000 15.71400 30.44000
C  42.42500 14.22700 28.48600
C  43.31800 15.04300 31.71800
O  42.25000 14.60300 32.15400
C  44.39700 15.79400 32.62400
C  43.69400 16.87200 33.26100
O  43.75500 18.00300 32.83400
O  42.88700 16.39600 34.28300
C  42.02400 17.35000 34.99800
H  50.52400 18.69300 31.57900
H  49.92800 17.87000 25.25100
H  44.27600 14.78900 26.26200
H  46.40600 18.16100 33.70400
H  49.31600 17.88700 33.50800
H  49.27800 20.22600 33.54700
H  47.69400 20.06800 33.96600
H  48.06800 20.24600 32.25900
H  48.47300 15.98900 34.31100
H  46.90200 15.46300 33.87500
H  47.38900 15.72800 36.33900
H  45.84600 16.10800 35.62600
H  53.57800 18.59000 29.70200
H  52.38700 18.96700 30.78800
H  52.71400 20.22000 29.81200
H  53.43400 20.20600 27.60700
H  54.26100 19.58800 26.14100
H  54.18900 18.54300 27.50600
H  48.22300 15.88900 24.02600
H  45.43000 16.08300 24.35000
H  47.99500 17.71000 22.66800
H  47.74900 18.75500 24.00400
H  46.38100 17.91100 23.26400
H  47.14600 14.20300 23.22700
H  45.52100 13.72500 23.70700
H  46.48800 12.62800 25.69600
H  47.90800 13.63100 25.64200
H  47.68800 12.46300 24.31000
H  42.32800 13.16500 28.26500
H  42.24100 14.86800 27.62400
H  41.63700 14.45300 29.20500
H  44.82800 15.15500 33.39500
H  41.91800 16.84400 35.95800
H  41.04900 17.64000 34.60500
H  42.61400 18.25400 35.15100
Mg -2.26200 34.62400 26.80500
C  -3.57900 32.81600 29.53100
C  -1.07100 36.90700 28.94600
C  -1.44500 36.42000 24.05000
C  -3.77800 32.29800 24.73000
N  -2.35400 34.80400 29.00400
C  -2.83000 33.92800 29.92700
C  -2.40000 34.27500 31.35600
C  -1.67900 35.63700 31.12400
C  -1.66800 35.82900 29.59900
C  -2.33400 36.83600 31.89900
C  -1.59300 33.15800 32.03000
C  -2.19600 32.46200 33.26900
H  -1.16200 32.33000 34.43800
N  -1.37900 36.39000 26.56400
C  -0.95500 37.21300 27.56000
C  -0.24200 38.35700 27.00800
C  -0.01800 38.03700 25.61100
C  -0.97700 36.88900 25.38400
C  0.34400 39.43800 27.73200
C  0.80600 38.63700 24.61000
O  0.83700 38.20500 23.43400
C  1.63500 39.88100 24.92800
N  -2.71700 34.48500 24.64400
C  -2.25500 35.37200 23.72300
C  -2.55400 35.04900 22.31600
C  -2.88500 33.48600 22.55000
C  -3.11800 33.35900 24.06800
C  -3.69600 35.90800 21.81700
C  -1.78900 32.49300 21.91600
C  -0.54800 32.17800 22.68500
N  -3.47200 32.94600 27.03300
C  -3.99000 32.11800 26.08200
C  -4.83200 31.04000 26.74600
C  -4.61900 31.27000 28.06300
C  -3.82300 32.39500 28.23300
C  -5.56200 30.03200 25.96900
C  -5.02900 30.77000 29.39500
O  -5.74400 29.87700 29.72600
C  -4.29800 31.77300 30.40200
C  -5.43400 32.37500 31.17200
O  -6.24800 33.14600 30.72300
O  -5.39100 31.83700 32.44700
C  -6.57700 32.01900 33.28300
H  -0.66800 37.68200 29.60100
H  -1.07700 36.98700 23.19300
H  -4.25800 31.61700 24.02300
H  -3.33400 34.30300 31.91600
H  -0.63100 35.72200 31.41300
H  -2.87500 37.40800 31.14500
H  -1.55000 37.41700 32.38400
H  -3.05000 36.58000 32.68000
H  -0.60600 33.53000 32.30700
H  -1.43400 32.40100 31.26100
H  -2.35500 31.40800 33.04100
H  -3.17600 32.82700 33.57700
H  1.43300 39.41000 27.78400
H  -0.04900 39.40200 28.74800
H  0.09800 40.39500 27.27300
H  2.22900 39.85200 25.84100
H  0.92600 40.70700 24.87100
H  2.26600 39.94400 24.04100
H  -1.64900 35.14500 21.71600
H  -3.82000 33.20700 22.06500
H  -4.61600 35.42400 21.49100
H  -3.30000 36.63100 21.10400
H  -4.19800 36.43100 22.63100
H  -1.34900 32.91800 21.01300
H  -2.26300 31.55800 21.61700
H  -0.67300 32.56000 23.69800
H  0.40300 32.55700 22.30900
H  -0.45200 31.09200 22.66900
H  -6.51400 30.49700 25.71600
H  -5.70000 29.26200 26.72800
H  -4.90100 29.77300 25.14300
H  -3.66400 31.37500 31.19500
H  -6.81800 31.05200 33.72300
H  -7.38200 32.30800 32.60700
H  -6.35500 32.80400 34.00700

