158

Mg 54.43100 24.78400 45.06800
C  51.48800 26.52700 43.99000
C  52.80400 21.80600 44.06600
C  57.36800 23.17700 45.09100
C  55.90400 27.75900 45.66500
N  52.28400 24.26300 44.20100
C  51.35300 25.08600 43.78500
C  50.23200 24.32900 43.12000
C  50.48100 22.86900 43.58000
C  51.97500 22.94900 43.95000
C  49.68600 22.53300 44.80600
C  50.03000 24.52400 41.57300
C  48.61600 24.91300 41.13600
H  48.24800 24.64000 39.69300
N  54.99600 22.78100 44.85700
C  54.16600 21.75200 44.38400
C  54.96700 20.54900 44.14900
C  56.26900 20.87800 44.56100
C  56.25800 22.27900 44.91700
C  54.38300 19.28900 43.51200
C  57.36800 19.85700 44.60100
O  57.09900 18.66700 44.36200
C  58.76100 20.15900 45.02800
N  56.38400 25.37700 45.30300
C  57.50800 24.52800 45.29500
C  58.81600 25.28800 45.53300
C  58.28500 26.73100 45.79300
C  56.75400 26.59900 45.49100
C  59.73700 24.72700 46.63500
C  59.03700 27.80600 44.96900
C  59.47500 29.09400 45.61800
N  53.85000 26.74400 44.96600
C  54.49900 27.84600 45.46100
C  53.63000 28.95800 45.49600
C  52.46400 28.55100 44.84200
C  52.63200 27.13700 44.57100
C  54.06200 30.28700 46.12700
C  51.09300 28.91300 44.41800
O  50.45000 29.94800 44.56400
C  50.45500 27.64700 43.74100
C  50.32400 27.94800 42.26500
O  51.22200 28.19800 41.46200
O  48.94600 28.22800 42.01400
C  48.69400 28.99400 40.76600
H  52.33500 20.83600 43.88800
H  58.39900 22.82800 45.00800
H  56.33400 28.73700 45.88900
H  49.33500 24.67400 43.63500
H  50.38900 22.13200 42.78200
H  50.24600 21.72300 45.27300
H  48.66300 22.25100 44.55500
H  49.80400 23.36000 45.50600
H  50.38300 23.62100 41.07400
H  50.77900 25.25200 41.26000
H  48.48500 25.98100 41.31000
H  47.84500 24.45900 41.75800
H  54.60100 19.34500 42.44500
H  53.29600 19.23100 43.56600
H  54.67000 18.35800 44.00000
H  59.30800 19.22600 45.16700
H  58.68000 20.70800 45.96600
H  59.22500 20.66200 44.17900
H  59.30000 25.22100 44.55900
H  58.27500 26.93300 46.86400
H  59.32100 23.89200 47.19800
H  60.05000 25.50000 47.33700
H  60.62800 24.40500 46.09700
H  58.47600 28.09700 44.08100
H  59.95500 27.37000 44.57500
H  58.78100 29.87000 45.29500
H  60.49800 29.31200 45.31100
H  59.42200 28.98200 46.70100
H  54.64100 29.94200 46.98300
H  53.21000 30.94400 46.30000
H  54.74900 30.86500 45.50800
H  49.48200 27.41300 44.17200
H  49.24300 28.65300 39.88900
H  49.00000 30.03000 40.91200
H  47.62700 29.07000 40.55500
Mg 30.49800 57.60400 39.68600
C  27.68600 55.51100 38.59800
C  32.54100 54.82600 38.52000
C  32.92300 59.54800 39.55100
C  28.25200 60.23500 39.98500
N  30.09200 55.39200 38.46500
C  28.88200 54.83100 38.35500
C  29.00300 53.33100 38.04500
C  30.58900 53.12900 38.01800
C  31.13700 54.52700 38.35900
C  31.11900 52.01000 39.00600
C  28.33100 52.98600 36.57900
C  28.66500 53.71300 35.24300
H  27.63800 54.59400 34.46900
N  32.53300 57.21100 39.28300
C  33.14800 56.11400 38.74800
C  34.58100 56.43200 38.66300
C  34.71700 57.78600 38.91100
C  33.37300 58.23300 39.30700
C  35.55500 55.41000 38.41400
C  35.95600 58.59500 38.70400
O  36.96700 58.09900 38.16100
C  36.09000 60.06600 39.09000
N  30.55400 59.59200 39.64100
C  31.77300 60.22900 39.73900
C  31.67400 61.76100 39.78400
C  30.12700 61.99800 39.95300
C  29.57500 60.55000 39.85000
C  32.50500 62.54000 40.80600
C  29.45800 62.81100 38.73800
C  29.11800 64.24200 38.97900
N  28.36600 57.84200 39.45000
C  27.65500 59.02900 39.72800
C  26.31200 58.70700 39.58700
C  26.22200 57.40200 39.16800
C  27.52700 56.86300 39.08400
C  25.16200 59.71700 39.87500
C  25.36200 56.31600 38.85500
O  24.14500 56.31100 38.87100
C  26.21900 55.07200 38.45300
C  25.89600 53.99400 39.36100
O  26.27800 53.97300 40.50500
O  24.93700 53.17200 38.89900
C  24.11400 52.22300 39.76400
H  33.16200 53.94300 38.35500
H  33.64500 60.35600 39.41500
H  27.58000 61.07700 40.16500
H  28.37100 52.68600 38.65500
H  30.94100 52.87700 37.01800
H  31.41000 52.50500 39.93300
H  31.90300 51.39800 38.56000
H  30.27200 51.33800 39.14900
H  27.26200 53.17900 36.67300
H  28.47900 51.94800 36.28300
H  28.97000 53.00900 34.46900
H  29.54400 54.30400 35.50200
H  36.04100 55.52400 37.44500
H  35.20400 54.37800 38.41700
H  36.22800 55.42700 39.27100
H  37.07300 60.53000 39.01300
H  35.62900 60.32600 40.04300
H  35.50200 60.67900 38.40700
H  31.89300 62.14500 38.78700
H  29.81600 62.40900 40.91400
H  31.93600 63.17500 41.48600
H  33.25400 63.09500 40.24100
H  33.01100 61.83600 41.46600
H  28.50200 62.37500 38.44800
H  30.14900 62.81000 37.89600
H  29.08800 64.70200 37.99100
H  29.99900 64.66500 39.46100
H  28.13400 64.39600 39.42200
H  25.32300 60.53600 39.17500
H  25.23400 60.07100 40.90400
H  24.22400 59.16300 39.91700
H  25.78100 54.98700 37.45900
H  23.29500 51.78700 39.19200
H  23.71700 52.82500 40.58100
H  24.68300 51.42100 40.23400

