158

Mg 6.40000 54.79600 40.20700
C  5.21400 51.47100 39.61300
C  9.53100 53.66700 39.61500
C  7.36000 58.06200 39.80100
C  3.11300 55.75700 40.57100
N  7.25100 52.85400 39.50000
C  6.59400 51.60900 39.34400
C  7.62900 50.53200 39.03500
C  8.91600 51.22400 39.55200
C  8.59000 52.64600 39.53300
C  9.54000 50.83200 40.87700
C  7.75800 50.24700 37.45800
C  6.85100 51.07000 36.53400
H  6.28200 50.48800 35.30800
N  8.24100 55.72600 39.90500
C  9.43900 55.07900 39.68300
C  10.48300 56.00900 39.50900
C  9.89100 57.33800 39.46600
C  8.40000 57.08400 39.69600
C  11.94300 55.71100 39.39900
C  10.60500 58.63700 39.20700
O  11.77300 58.56800 38.88800
C  10.07900 59.93700 39.46600
N  5.37200 56.68800 40.13900
C  6.01400 57.88400 40.18000
C  5.01700 59.04500 40.29700
C  3.71400 58.28000 40.59000
C  4.03500 56.82200 40.31100
C  5.48100 60.18500 41.30000
C  2.53200 58.67500 39.67200
C  1.13200 58.60300 40.36000
N  4.59600 53.86400 40.05600
C  3.34600 54.40300 40.37300
C  2.39800 53.40300 40.33700
C  3.08100 52.12800 40.14200
C  4.39800 52.51500 39.93500
C  0.88400 53.58200 40.29100
C  2.92000 50.73000 39.89700
O  1.91900 50.06100 39.74700
C  4.34400 50.24600 39.65600
C  4.46100 49.32600 38.52600
O  4.04900 49.59100 37.41400
O  4.95700 48.12900 38.94000
C  5.16400 47.04800 37.94500
H  10.55100 53.27600 39.59600
H  7.66800 59.08500 39.57700
H  2.12900 56.00400 40.97600
H  7.29700 49.70200 39.66000
H  9.74200 51.02900 38.86800
H  9.54300 51.69300 41.54500
H  10.59000 50.58500 40.72500
H  8.95700 50.03800 41.34400
H  7.45300 49.21400 37.29300
H  8.75700 50.39200 37.04700
H  7.55500 51.89500 36.42700
H  5.94100 51.52200 36.92800
H  12.20200 55.70700 38.34100
H  12.18700 54.73500 39.81900
H  12.59400 56.38500 39.95600
H  10.87900 60.67600 39.49400
H  9.71700 60.05600 40.48800
H  9.25900 60.15700 38.78200
H  4.94800 59.57500 39.34700
H  3.42300 58.37500 41.63600
H  4.59000 60.34100 41.90900
H  5.86100 61.03300 40.73200
H  6.27800 59.84200 41.95900
H  2.51100 57.98200 38.83100
H  2.70600 59.68100 39.29000
H  0.51100 59.42400 40.00100
H  1.15200 58.67600 41.44700
H  0.62000 57.68700 40.06800
H  0.61700 53.75000 39.24800
H  0.64500 54.44100 40.91700
H  0.40600 52.66900 40.64800
H  4.64800 49.70600 40.55200
H  4.42000 46.25400 38.00700
H  6.17700 46.68600 38.11800
H  5.11200 47.52300 36.96500
Mg -5.04900 25.00900 26.81100
C  -3.68400 26.84400 29.30400
C  -6.74600 23.01100 29.08000
C  -6.26200 23.06300 24.22800
C  -2.87000 26.39700 24.57600
N  -4.94700 24.74100 28.88800
C  -4.53500 25.77300 29.73800
C  -4.96800 25.41200 31.15800
C  -5.55000 23.98000 31.06400
C  -5.82300 23.93700 29.58400
C  -4.60800 22.85700 31.46500
C  -6.02600 26.36000 31.70700
C  -6.16800 26.38200 33.25900
H  -5.43300 25.36700 34.13300
N  -6.42200 23.31000 26.66400
C  -7.06400 22.74200 27.75000
C  -8.06500 21.83600 27.19100
C  -7.86200 21.76200 25.78600
C  -6.88300 22.78200 25.48400
C  -9.11100 21.03900 28.00500
C  -8.49800 20.82300 24.70600
O  -8.23100 20.99000 23.50000
C  -9.42400 19.77900 25.08300
N  -4.54900 24.68100 24.69900
C  -5.22200 23.86200 23.84700
C  -4.69500 23.95100 22.38700
C  -3.64600 25.16600 22.46800
C  -3.65600 25.43000 23.99400
C  -4.11400 22.60500 22.04700
C  -3.81500 26.47300 21.59000
C  -3.12200 26.44100 20.20000
N  -3.63000 26.44300 26.84900
C  -2.81500 26.94100 25.86000
C  -2.04200 28.01700 26.39900
C  -2.32100 27.99300 27.81400
C  -3.27600 27.01300 27.98400
C  -1.19700 29.04800 25.59400
C  -2.02500 28.63800 29.04400
O  -1.30000 29.57200 29.34000
C  -2.96800 27.93100 30.09700
C  -2.11300 27.49600 31.17500
O  -1.39300 26.50300 31.12700
O  -2.42500 28.07900 32.31700
C  -1.97200 27.60200 33.63500
H  -7.47400 22.50800 29.72100
H  -6.66000 22.55600 23.34600
H  -2.18300 26.92800 23.91400
H  -4.09500 25.41200 31.81000
H  -6.42700 23.83500 31.69500
H  -4.80100 22.05800 30.74900
H  -4.95000 22.49200 32.43300
H  -3.55600 23.13400 31.40400
H  -7.00600 26.08000 31.32300
H  -5.69300 27.33500 31.35300
H  -7.22800 26.32300 33.50800
H  -5.77100 27.34300 33.58600
H  -8.90000 19.97000 27.96800
H  -10.07900 21.37800 27.63700
H  -9.11600 21.28800 29.06600
H  -9.00700 18.92400 25.61700
H  -9.75400 19.47200 24.09100
H  -10.27000 20.18400 25.63900
H  -5.38300 24.16200 21.56800
H  -2.65800 24.73800 22.29700
H  -4.85600 22.14900 21.39000
H  -3.86100 21.97900 22.90200
H  -3.32300 22.83500 21.33300
H  -3.46100 27.34800 22.13600
H  -4.85400 26.59500 21.28300
H  -2.36200 25.66200 20.26100
H  -2.61000 27.38500 20.01200
H  -3.90200 26.31300 19.44900
H  -1.77300 29.92300 25.29400
H  -0.80800 28.50200 24.73500
H  -0.33800 29.44100 26.13800
H  -3.75200 28.56100 30.51800
H  -2.81000 27.50300 34.32400
H  -1.10300 28.11900 34.04300
H  -1.68700 26.55000 33.63200

