158

Mg -2.54000 17.46300 27.54200
C  -3.06700 15.22200 30.17600
C  -2.97200 20.10300 29.74500
C  -2.26900 19.43900 25.07200
C  -2.70800 14.73900 25.39700
N  -2.89100 17.62600 29.77900
C  -3.10600 16.58200 30.67100
C  -3.37100 17.14700 32.10500
C  -3.47200 18.70400 31.86500
C  -3.08900 18.83600 30.36100
C  -4.77800 19.40200 32.17400
C  -2.37500 16.55900 33.13500
C  -1.98900 17.42300 34.38900
H  -1.74900 16.68700 35.63900
N  -2.32000 19.47500 27.44400
C  -2.50100 20.42200 28.48100
C  -2.21400 21.70100 27.92600
C  -2.09700 21.59800 26.51700
C  -2.17200 20.17300 26.28400
C  -2.29900 22.88800 28.87700
C  -1.96300 22.71200 25.46700
O  -1.64300 22.44800 24.31700
C  -2.02800 24.18500 25.86000
N  -2.68800 17.14200 25.52700
C  -2.49900 18.09800 24.71100
C  -2.50600 17.62800 23.21000
C  -2.41600 16.06700 23.32600
C  -2.62700 15.98200 24.82900
C  -3.67000 18.13600 22.35100
C  -1.13600 15.29100 22.84800
C  0.17000 15.67100 23.58900
N  -2.92400 15.40700 27.67000
C  -2.94700 14.41200 26.72700
C  -3.03300 13.06500 27.34700
C  -3.07600 13.40000 28.73500
C  -3.01500 14.79500 28.83700
C  -3.02900 11.71900 26.79300
C  -3.29700 12.79600 30.07900
O  -3.55600 11.69800 30.37400
C  -3.24400 14.00200 31.11500
C  -2.02500 13.55200 31.89100
O  -0.88600 13.95600 31.65400
O  -2.36500 12.78900 32.99400
C  -1.22500 12.55800 33.91700
H  -3.12000 20.90700 30.46900
H  -2.08700 20.08200 24.20800
H  -2.58700 13.90900 24.69800
H  -4.29700 16.73900 32.51000
H  -2.65500 19.11600 32.45800
H  -5.03200 20.16700 31.44000
H  -4.70200 19.79100 33.18900
H  -5.63000 18.72300 32.21000
H  -1.45500 16.25100 32.63800
H  -2.85000 15.67300 33.55600
H  -2.91800 17.99000 34.46100
H  -1.06200 17.97300 34.22700
H  -1.65600 23.61200 28.37700
H  -1.79400 22.64100 29.81000
H  -3.25500 23.35000 29.12300
H  -2.26000 24.85400 25.03000
H  -1.08700 24.48700 26.31900
H  -2.73800 24.28200 26.68100
H  -1.54200 17.97700 22.84100
H  -3.27600 15.56200 22.88600
H  -4.16100 18.99400 22.81000
H  -4.40700 17.39900 22.03200
H  -3.20100 18.55600 21.46100
H  -1.03500 15.45800 21.77600
H  -1.29200 14.21400 22.91600
H  0.74800 16.33800 22.95000
H  0.76300 14.78600 23.82400
H  -0.05300 16.20800 24.51100
H  -2.81200 11.08800 27.65500
H  -2.35300 11.55000 25.95500
H  -4.03800 11.49100 26.45000
H  -4.20100 13.82600 31.60700
H  -1.46000 11.68800 34.53000
H  -0.93000 13.36000 34.59400
H  -0.28100 12.14900 33.55700
Mg -0.41900 7.28300 27.27200
C  0.57700 9.36400 29.99000
C  -0.40100 4.64500 29.33100
C  -0.62900 5.31000 24.55400
C  0.28600 10.08200 25.24400
N  0.16500 7.05000 29.37700
C  0.27500 8.03700 30.31900
C  0.07400 7.44200 31.75800
C  0.09600 5.91200 31.49500
C  -0.01900 5.82500 29.96200
C  1.31600 5.13100 32.11500
C  -1.18800 8.10500 32.37600
C  -1.10700 8.50000 33.83600
H  -0.21800 7.64100 34.80700
N  -0.62700 5.25000 27.06100
C  -0.62500 4.32300 28.00500
C  -1.04800 3.02300 27.50900
C  -1.17800 3.22300 26.04800
C  -0.73300 4.61300 25.84300
C  -1.44900 1.79100 28.36300
C  -1.52700 2.26700 25.03600
O  -1.49100 2.55900 23.82000
C  -1.98100 0.96800 25.44900
N  -0.49400 7.65600 25.12400
C  -0.52200 6.68900 24.22100
C  -0.49900 7.23100 22.77500
C  -0.37100 8.80600 23.09500
C  -0.15300 8.86900 24.59100
C  0.49200 6.70400 21.73300
C  -1.68600 9.57400 22.68600
C  -1.69700 11.11900 22.79300
N  0.20400 9.34900 27.49900
C  0.47200 10.34800 26.61200
C  0.74200 11.62200 27.25800
C  0.79500 11.21800 28.58700
C  0.52700 9.82200 28.69300
C  0.84100 12.93100 26.55800
C  1.12500 11.77800 29.94500
O  1.55200 12.88800 30.23400
C  0.84100 10.57700 30.91000
C  2.03000 10.39700 31.81900
O  3.02000 9.90400 31.35400
O  1.90900 11.00400 33.03100
C  3.03300 10.73200 33.92700
H  -0.44100 3.76300 29.97300
H  -0.88000 4.73300 23.66200
H  0.49100 10.93900 24.59900
H  0.96700 7.62200 32.35600
H  -0.75400 5.37700 31.92100
H  0.89400 4.19700 32.48600
H  1.76000 5.72200 32.91500
H  2.09500 4.84200 31.40900
H  -1.99000 7.36900 32.31700
H  -1.42600 9.03700 31.86400
H  -2.12100 8.42000 34.22900
H  -0.85500 9.56000 33.88600
H  -2.52800 1.66600 28.27600
H  -1.35700 1.91700 29.44200
H  -0.99600 0.87300 27.99000
H  -1.21500 0.31800 25.87100
H  -2.27400 0.58000 24.47400
H  -2.87200 0.99000 26.07800
H  -1.44800 6.98400 22.29900
H  0.46200 9.34600 22.64400
H  0.95200 7.58800 21.29100
H  0.01700 6.03700 21.01300
H  1.29000 6.15800 22.23600
H  -2.48100 9.40800 23.41300
H  -1.99800 9.22100 21.70300
H  -2.14200 11.51100 23.70700
H  -2.22100 11.49200 21.91300
H  -0.68100 11.43600 22.55600
H  0.23900 12.97800 25.65100
H  1.84700 13.25500 26.29000
H  0.37200 13.67200 27.20700
H  -0.00800 10.94900 31.48300
H  3.37500 11.65700 34.39200
H  3.87000 10.19900 33.47600
H  2.63000 10.07000 34.69400

