158

Mg 8.01600 1.77400 27.90600
C  9.76600 0.73700 30.75100
C  6.23000 3.78500 30.11300
C  6.31700 2.76400 25.32400
C  9.88000 -0.51000 26.04900
N  8.00600 2.12600 30.21300
C  8.88700 1.70600 31.19800
C  8.57300 2.29100 32.54100
C  7.27500 3.03000 32.25200
C  7.12100 2.98300 30.73900
C  5.96400 2.65000 33.12900
C  9.80400 3.24900 32.98600
C  10.67700 2.77900 34.20800
H  10.95300 3.68000 35.38600
N  6.38900 3.05200 27.69700
C  5.89200 3.86800 28.68800
C  4.90700 4.72300 28.19600
C  4.97400 4.58000 26.73500
C  5.96100 3.44800 26.53400
C  3.94500 5.62400 28.99200
C  4.14500 5.18100 25.64200
O  4.03400 4.79400 24.47800
C  3.36800 6.41500 26.03000
N  7.98800 1.15300 25.98700
C  7.28400 1.83000 25.06900
C  7.43500 1.19500 23.71000
C  8.68900 0.18500 23.82300
C  8.89000 0.30400 25.36100
C  6.21200 0.34200 23.14900
C  9.92600 0.78600 23.14100
C  10.17100 0.16500 21.70400
N  9.61800 0.40100 28.25600
C  10.18100 -0.51500 27.43500
C  11.15700 -1.33400 28.14700
C  11.05900 -0.87600 29.40700
C  10.06900 0.18900 29.43700
C  12.10400 -2.30900 27.57300
C  11.53600 -1.06400 30.71900
O  12.38500 -1.86500 31.11100
C  10.85800 0.02300 31.60000
C  10.31400 -0.68800 32.78800
O  9.28100 -1.31200 32.79600
O  11.28200 -0.62600 33.80500
C  10.91100 -1.21000 35.09600
H  5.70000 4.43800 30.81000
H  5.84400 3.04000 24.37900
H  10.32100 -1.26600 25.39600
H  8.36500 1.60300 33.36100
H  7.43500 4.10000 32.38200
H  6.14000 1.69300 33.62000
H  5.05400 2.75700 32.53800
H  5.84400 3.43300 33.87700
H  9.66900 4.32800 33.05900
H  10.53600 3.09200 32.19400
H  11.63600 2.36200 33.90100
H  10.16900 1.90300 34.61100
H  4.31100 6.63200 28.79600
H  3.90600 5.37400 30.05200
H  2.96200 5.45500 28.55200
H  2.36300 6.12100 26.33400
H  3.19100 7.15700 25.25100
H  3.89700 6.92100 26.83900
H  7.66100 1.98900 22.99900
H  8.51500 -0.83800 23.48900
H  5.37900 0.19000 23.83600
H  6.54100 -0.57900 22.66700
H  5.74300 1.03000 22.44500
H  10.87500 0.64300 23.65900
H  9.77200 1.86500 23.14600
H  9.62700 -0.75100 21.47500
H  11.24100 -0.00800 21.58500
H  9.91700 0.96000 21.00200
H  12.25400 -2.21500 26.49800
H  11.68900 -3.30600 27.72200
H  13.08900 -2.24900 28.03400
H  11.52200 0.77600 32.02300
H  10.50800 -0.41700 35.72600
H  11.77300 -1.60700 35.63200
H  10.12100 -1.93200 34.88600
Mg 54.05700 24.59900 44.40800
C  51.46800 26.98500 44.02100
C  51.68800 22.20500 43.53100
C  56.56100 22.61100 43.54300
C  56.31100 27.30800 45.04000
N  51.87100 24.65100 43.73400
C  51.02700 25.70700 43.78500
C  49.62800 25.21100 43.38000
C  49.67800 23.77700 43.87300
C  51.15900 23.54400 43.69500
C  49.03100 23.57400 45.22300
C  49.29600 25.32300 41.80100
C  50.48000 25.51100 40.81000
H  51.22000 24.31300 40.47000
N  54.14200 22.61600 43.67800
C  53.06800 21.81700 43.43100
C  53.54600 20.47900 43.14300
C  54.95400 20.60200 43.09000
C  55.29900 21.97600 43.43100
C  52.60800 19.33700 42.75900
C  55.89500 19.45900 42.81500
O  55.46600 18.35900 42.50600
C  57.41900 19.58800 43.11200
N  56.10200 24.84100 44.51400
C  56.95000 23.82600 44.11300
C  58.36900 24.24900 44.38200
C  58.30400 25.77900 44.53600
C  56.80900 26.01300 44.75000
C  59.10500 23.44500 45.44600
C  58.80900 26.63100 43.44500
C  58.09800 26.53800 42.03300
N  53.89700 26.68200 44.69600
C  54.93100 27.67300 45.04400
C  54.34500 28.92600 45.14100
C  52.98500 28.67400 44.73400
C  52.77800 27.35200 44.41900
C  55.06000 30.14700 45.61700
C  51.76000 29.29800 44.51400
O  51.48600 30.46600 44.48200
C  50.71900 28.31200 43.90900
C  50.29700 28.73100 42.49400
O  51.07700 29.01400 41.60200
O  48.99900 28.66500 42.32900
C  48.47000 29.02600 41.03900
H  50.93000 21.42200 43.46600
H  57.53300 22.16600 43.31600
H  57.06100 28.09800 45.12200
H  48.88100 25.85000 43.85000
H  49.22600 23.11000 43.13900
H  48.20200 22.86700 45.23700
H  48.52800 24.48900 45.53300
H  49.77700 23.27100 45.95800
H  48.65400 26.18700 41.62800
H  48.68800 24.45900 41.53300
H  51.07500 26.34400 41.18200
H  50.13600 25.95500 39.87600
H  53.25500 18.45900 42.74400
H  52.13800 19.55800 41.80100
H  51.78200 19.21200 43.45900
H  57.98000 20.08800 42.32200
H  57.84600 18.58900 43.20600
H  57.68700 20.16300 43.99800
H  58.94900 23.93700 43.51300
H  58.77400 26.02500 45.48800
H  59.68200 22.66100 44.95800
H  58.37700 22.89700 46.04500
H  59.75000 24.06200 46.07200
H  59.83800 26.27700 43.38300
H  58.78500 27.69200 43.69500
H  57.79800 27.55600 41.78600
H  57.22800 25.88300 42.07000
H  58.66000 26.05000 41.23700
H  55.02400 30.16700 46.70600
H  54.44500 31.01200 45.36900
H  56.06100 30.15600 45.18600
H  49.86800 28.49600 44.56500
H  47.58900 29.66700 41.01900
H  48.22700 28.23400 40.33100
H  49.05000 29.79100 40.52200

