158

Mg -2.07000 17.09800 26.96700
C  -2.64200 14.93900 29.46300
C  -2.84100 19.73500 29.08300
C  -1.60300 19.21500 24.47800
C  -2.01300 14.41200 24.73200
N  -2.80900 17.32600 29.01300
C  -2.68000 16.29100 29.89700
C  -2.99100 16.79000 31.36100
C  -3.26200 18.26200 31.17000
C  -2.91500 18.48600 29.65500
C  -4.56100 18.91600 31.66700
C  -1.91200 16.40600 32.47300
C  -1.90200 17.17700 33.79200
H  -2.08100 16.41900 35.11900
N  -2.01000 19.17700 26.85900
C  -2.43400 20.11900 27.78400
C  -2.31300 21.44300 27.26800
C  -1.72900 21.31300 25.99800
C  -1.74000 19.86300 25.73400
C  -2.81700 22.62200 27.97900
C  -1.15100 22.38200 25.04800
O  -0.81400 22.16600 23.94000
C  -1.00200 23.77600 25.51800
N  -1.75900 16.86900 24.95100
C  -1.62000 17.90500 24.06400
C  -1.51300 17.43000 22.60500
C  -1.52300 15.86900 22.74400
C  -1.73700 15.68700 24.24300
C  -2.59800 18.06100 21.74000
C  -0.24800 15.10900 22.25600
C  1.03200 15.22800 23.14000
N  -2.24500 15.02500 27.00900
C  -2.23200 14.02300 26.04800
C  -2.49600 12.74000 26.67700
C  -2.74500 13.03400 27.98900
C  -2.55600 14.40200 28.12200
C  -2.72900 11.52300 25.93000
C  -3.11300 12.51200 29.33100
O  -3.19600 11.32400 29.65200
C  -3.02000 13.71800 30.30000
C  -2.02100 13.36600 31.31800
O  -0.83300 13.63000 31.31800
O  -2.72600 12.72600 32.40900
C  -1.87700 12.43000 33.57900
H  -3.08500 20.57100 29.74200
H  -1.40600 19.89500 23.64700
H  -1.95200 13.61200 23.99100
H  -3.89000 16.22200 31.60100
H  -2.46700 18.90400 31.55200
H  -5.22700 18.08800 31.91100
H  -5.04100 19.58100 30.94900
H  -4.43100 19.63100 32.47900
H  -0.91300 16.35800 32.03900
H  -2.20900 15.37200 32.64400
H  -2.64800 17.97200 33.79400
H  -0.94700 17.70200 33.75200
H  -1.94600 23.19700 28.29400
H  -3.51300 22.34900 28.77300
H  -3.35000 23.17100 27.20300
H  -0.36100 24.04500 26.35800
H  -2.01100 24.16700 25.65000
H  -0.66000 24.39400 24.68800
H  -0.56900 17.81200 22.21600
H  -2.44800 15.49400 22.30700
H  -2.45600 17.52500 20.80200
H  -2.28400 19.08900 21.55500
H  -3.62100 18.01300 22.11300
H  -0.06000 15.52600 21.26700
H  -0.46200 14.04100 22.23300
H  1.38100 14.19900 23.23200
H  0.73900 15.60800 24.11800
H  1.75900 15.92200 22.71800
H  -2.39200 11.64800 24.90100
H  -3.78200 11.27900 25.78700
H  -2.12600 10.75500 26.41500
H  -4.00700 13.98700 30.67600
H  -1.35100 11.49700 33.37800
H  -2.53500 12.09300 34.38000
H  -1.21300 13.24700 33.86200
Mg 7.81300 3.38400 28.12900
C  8.93900 1.67600 31.00500
C  5.66600 5.18500 30.24400
C  6.53500 4.72400 25.30700
C  9.51900 1.00200 26.15700
N  7.21300 3.31800 30.38000
C  8.00500 2.62900 31.31900
C  7.54800 3.08800 32.80800
C  6.33500 4.06300 32.45100
C  6.36300 4.19200 30.95800
C  4.96400 3.76500 32.99400
C  8.71100 3.71900 33.68900
C  8.35800 4.48000 35.04500
H  8.99500 4.14300 36.32200
N  6.36800 4.74500 27.80800
C  5.65900 5.45600 28.82700
C  4.88400 6.47000 28.15600
C  5.07800 6.30900 26.72100
C  6.02200 5.25500 26.54400
C  3.99000 7.50600 28.91700
C  4.34200 7.08400 25.60400
O  4.31600 6.70000 24.43300
C  3.58800 8.27800 25.96000
N  7.98500 2.90900 26.02200
C  7.42800 3.71100 25.06300
C  7.64200 3.07300 23.69300
C  8.93300 2.19700 23.91200
C  8.77500 1.96000 25.44700
C  6.45400 2.20600 23.14200
C  10.18200 2.87500 23.49400
C  10.99400 3.70500 24.49200
N  9.00500 1.76700 28.49600
C  9.63900 0.88000 27.57200
C  10.48100 0.01400 28.30000
C  10.26600 0.29400 29.65000
C  9.31900 1.35600 29.70300
C  11.31800 -1.09500 27.71400
C  10.53600 -0.17300 30.97800
O  11.33400 -1.02000 31.34800
C  9.75400 0.76000 31.94700
C  9.08600 -0.06200 32.98100
O  8.14100 -0.84700 32.79400
O  9.58300 0.23500 34.26200
C  8.78800 -0.27000 35.36500
H  4.96500 5.78400 30.82900
H  6.12300 5.23300 24.43300
H  10.10000 0.25500 25.61300
H  7.16800 2.15400 33.22100
H  6.59500 5.07600 32.75900
H  4.21800 3.71600 32.20100
H  4.65400 4.53700 33.69800
H  5.08400 2.82000 33.52400
H  9.29700 4.40500 33.07700
H  9.34400 2.89400 34.01500
H  7.28800 4.59400 35.21300
H  8.58600 5.53300 34.87800
H  2.92200 7.35200 28.76800
H  4.47100 8.33800 28.40300
H  4.04800 7.52700 30.00600
H  2.71600 8.23700 26.61300
H  3.14900 8.75300 25.08200
H  4.37000 8.90900 26.38000
H  7.71000 3.90400 22.99200
H  8.84600 1.17300 23.55000
H  5.55300 2.31500 23.74600
H  6.76500 1.17300 22.98300
H  6.17900 2.60400 22.16500
H  9.96100 3.66400 22.77600
H  10.81000 2.25800 22.85100
H  12.03400 3.40600 24.36400
H  10.89200 3.49200 25.55600
H  10.82700 4.77400 24.36000
H  10.88300 -1.47300 26.78900
H  11.02500 -1.86200 28.43100
H  12.36500 -0.83200 27.56600
H  10.40900 1.41000 32.52700
H  8.69300 0.62600 35.97700
H  9.34100 -1.04600 35.89500
H  7.77500 -0.59700 35.13100

