158

Mg 25.80900 1.13700 28.79900
C  27.84900 1.10900 31.70200
C  23.16100 1.51300 30.68500
C  24.05400 1.08700 26.02700
C  28.72300 0.35500 26.96200
N  25.56500 1.29100 30.97800
C  26.47200 1.29500 31.92900
C  25.85000 1.57200 33.31600
C  24.33100 1.51800 33.02500
C  24.33900 1.42800 31.48200
C  23.58900 0.29100 33.64900
C  26.15900 2.92500 34.05500
C  26.95400 2.79700 35.35400
H  26.58800 3.85500 36.42600
N  23.85600 1.26000 28.43800
C  22.87500 1.48800 29.33100
C  21.65100 1.65300 28.55700
C  21.92200 1.55100 27.16900
C  23.35300 1.29600 27.17200
C  20.33800 1.82400 29.23500
C  21.01700 1.66100 26.04000
O  21.38300 1.51300 24.85700
C  19.52300 2.03000 26.25300
N  26.38100 0.66200 26.79500
C  25.43600 0.86600 25.80000
C  26.04300 0.79400 24.39500
C  27.62700 0.60500 24.67100
C  27.60600 0.57500 26.25400
C  25.32900 -0.25300 23.54700
C  28.58300 1.76000 24.12500
C  29.49400 1.42700 22.89500
N  27.79500 0.67400 29.22600
C  28.84500 0.39300 28.34300
C  30.12300 0.27100 29.15300
C  29.73500 0.51600 30.44800
C  28.32500 0.76300 30.42900
C  31.44800 -0.04700 28.52800
C  30.33600 0.75700 31.77900
O  31.47500 0.69500 32.20000
C  29.09900 1.18900 32.65700
C  29.05400 0.26500 33.82600
O  28.50700 -0.84000 33.81500
O  29.68100 0.90100 34.87800
C  29.77300 0.21100 36.12800
H  22.33700 1.83700 31.32400
H  23.56500 1.32600 25.08000
H  29.53100 0.06100 26.29000
H  26.03500 0.72000 33.97100
H  23.85400 2.44000 33.35800
H  22.72000 0.74400 34.12500
H  24.16600 -0.27900 34.37800
H  23.17600 -0.40600 32.92000
H  25.26400 3.46400 34.36400
H  26.79600 3.45500 33.34600
H  28.01600 2.88500 35.12500
H  26.75500 1.84700 35.84900
H  19.87100 2.79200 29.05700
H  20.50700 1.76900 30.31100
H  19.56000 1.09500 29.00900
H  19.46900 2.88200 26.92900
H  19.08300 1.09800 26.60800
H  18.92800 2.24700 25.36600
H  25.86600 1.77400 23.95100
H  28.07400 -0.26700 24.19500
H  24.51400 -0.71600 24.10300
H  26.02400 -1.04700 23.27700
H  24.94500 0.10100 22.59000
H  29.31700 2.11000 24.85000
H  27.89400 2.57500 23.90700
H  29.26500 2.18000 22.14200
H  29.32000 0.39600 22.58500
H  30.54800 1.52200 23.15500
H  31.40500 -0.01900 27.43900
H  31.70400 -1.03300 28.91600
H  32.11100 0.73600 28.89700
H  29.21200 2.23800 32.93100
H  28.86700 0.48100 36.67100
H  30.68400 0.52600 36.63500
H  29.84700 -0.87500 36.07800
Mg 41.22200 8.82700 29.94200
C  43.35700 10.16600 32.50600
C  39.00700 8.02000 32.47600
C  39.27600 7.47400 27.68200
C  43.95200 8.97500 27.74600
N  41.29100 9.07100 32.24900
C  42.12800 9.81200 33.05100
C  41.51600 10.06600 34.41000
C  40.24600 9.13200 34.39400
C  40.11600 8.76600 32.93700
C  40.41000 7.90900 35.30800
C  41.39800 11.55900 34.86500
C  42.48000 12.08600 35.84700
H  42.00900 12.88700 37.09600
N  39.45100 7.89900 30.07700
C  38.62100 7.71000 31.15000
C  37.33900 7.10300 30.70900
C  37.38500 6.98300 29.32500
C  38.73200 7.48100 28.93500
C  36.31900 6.46700 31.62000
C  36.29500 6.46000 28.36000
O  36.59200 6.25100 27.21700
C  34.90400 6.21100 28.90700
N  41.59400 8.17800 28.08200
C  40.59700 7.71000 27.25400
C  40.96600 7.69600 25.77700
C  42.36200 8.40700 25.86000
C  42.65400 8.60900 27.30900
C  40.96600 6.28100 25.07300
C  42.53700 9.70100 25.03400
C  41.59400 10.81900 25.43400
N  43.18700 9.48600 30.02200
C  44.21600 9.46000 29.09400
C  45.38300 10.14300 29.62300
C  45.07100 10.52000 30.90800
C  43.74100 9.97600 31.13500
C  46.69000 10.25400 29.04900
C  45.58900 11.19800 32.11300
O  46.60800 11.81600 32.34400
C  44.43100 11.06600 33.18400
C  45.01200 10.42200 34.34200
O  45.08300 9.26300 34.57500
O  45.50400 11.41700 35.16900
C  46.75000 10.97800 35.87400
H  38.33100 7.81500 33.30800
H  38.58100 7.23100 26.87600
H  44.79600 9.17700 27.08300
H  42.25400 9.63400 35.08500
H  39.35600 9.68600 34.69400
H  40.49700 7.04100 34.65500
H  39.43800 7.77100 35.78000
H  41.19800 8.18600 36.00800
H  40.38700 11.62200 35.26800
H  41.49700 12.18500 33.97800
H  43.05400 12.71400 35.16500
H  43.14100 11.24300 36.04900
H  36.50100 6.79300 32.64400
H  36.36000 5.37800 31.57700
H  35.34100 6.89000 31.39200
H  34.38700 7.10600 29.25400
H  34.99300 5.41900 29.65000
H  34.30500 5.74600 28.12400
H  40.16800 8.34400 25.41300
H  43.17300 7.73800 25.57100
H  40.36800 6.42300 24.17200
H  40.59200 5.49800 25.73200
H  41.97800 6.01900 24.76500
H  42.34900 9.47000 23.98500
H  43.56000 10.06000 25.14600
H  42.11200 11.73300 25.72500
H  40.87700 10.57800 26.21900
H  41.04700 11.11700 24.54000
H  46.77700 9.68700 28.12300
H  47.43500 9.87500 29.74900
H  46.91200 11.30800 28.88400
H  44.09400 12.07800 33.41100
H  47.36000 10.40900 35.17300
H  46.59200 10.42400 36.79900
H  47.31500 11.86400 36.16500

