158

Mg 24.46000 -4.86500 45.37800
C  27.04800 -2.66300 43.93500
C  22.19300 -3.33600 43.25200
C  22.52900 -7.48300 45.88900
C  27.08300 -6.23500 47.41300
N  24.65800 -3.16100 43.78400
C  25.76600 -2.37900 43.39500
C  25.36000 -1.30500 42.45500
C  23.80000 -1.52300 42.39100
C  23.48500 -2.77000 43.21500
C  22.91300 -0.31700 42.91000
C  25.95900 -1.33600 40.96900
C  26.00600 0.00900 40.13800
H  25.20300 -0.06100 38.80300
N  22.54300 -5.35100 44.62700
C  21.75900 -4.55800 43.81100
C  20.62200 -5.34400 43.57800
C  20.69200 -6.55900 44.26800
C  21.97000 -6.56000 44.95400
C  19.49400 -4.92800 42.63700
C  19.58600 -7.68400 44.21700
O  18.61300 -7.57800 43.46100
C  19.72600 -8.94100 45.06000
N  24.69900 -6.47000 46.63400
C  23.72700 -7.44700 46.63500
C  24.14500 -8.57700 47.61200
C  25.40600 -7.99200 48.30700
C  25.79300 -6.85800 47.39500
C  23.08300 -9.11700 48.57500
C  26.52000 -8.96900 48.58400
C  26.97600 -9.21600 50.04900
N  26.56700 -4.54700 45.68100
C  27.53500 -5.19000 46.55100
C  28.81800 -4.53300 46.44700
C  28.58700 -3.51900 45.48500
C  27.27500 -3.62400 44.95000
C  30.10500 -4.86700 47.25900
C  29.30800 -2.45700 44.81000
O  30.42400 -2.08800 45.03600
C  28.30700 -1.87300 43.77400
C  28.15600 -0.44400 44.02300
O  28.06600 0.03000 45.14800
O  28.13500 0.22400 42.85700
C  28.10600 1.69200 42.98900
H  21.44700 -2.81900 42.64500
H  22.00100 -8.43800 45.90000
H  27.83500 -6.62100 48.10400
H  25.50400 -0.36600 42.98900
H  23.53100 -1.59500 41.33700
H  23.55000 0.53700 43.13800
H  22.48200 -0.67200 43.84700
H  22.15100 -0.06400 42.17200
H  25.40500 -2.09800 40.42100
H  26.99500 -1.67300 40.96700
H  27.03400 0.31000 39.93800
H  25.69900 0.86900 40.73200
H  19.49100 -5.47500 41.69400
H  19.55800 -3.84800 42.50300
H  18.55400 -5.16000 43.13700
H  19.73900 -8.79600 46.14100
H  20.58400 -9.48400 44.66300
H  18.84600 -9.55200 44.86400
H  24.53200 -9.39900 47.00900
H  25.13800 -7.44500 49.21100
H  22.19200 -8.50600 48.42800
H  23.33500 -9.07200 49.63400
H  22.81800 -10.16100 48.41000
H  27.46300 -8.73000 48.09300
H  26.33900 -10.00400 48.29300
H  26.40500 -10.01700 50.51900
H  26.90900 -8.25600 50.56100
H  28.02800 -9.49800 50.06000
H  30.73600 -3.97800 47.25700
H  30.59900 -5.72000 46.79400
H  29.67700 -5.08000 48.23900
H  28.70700 -2.03300 42.77300
H  29.09400 2.15200 43.02300
H  27.60900 2.06800 43.88300
H  27.64900 2.04600 42.06500
Mg 55.81600 24.94900 44.52600
C  53.25200 26.83800 43.09200
C  54.67900 22.08800 42.88000
C  58.72900 23.45000 45.24200
C  57.16600 27.90900 45.82000
N  54.20400 24.50500 43.06800
C  53.24300 25.45100 42.61400
C  52.30100 24.75500 41.60700
C  52.61900 23.24200 41.90000
C  53.89800 23.24100 42.62600
C  51.52600 22.50900 42.82900
C  52.60100 25.20500 40.12500
C  51.52900 24.84300 39.11200
H  51.94300 24.02900 37.85700
N  56.54300 23.01400 44.25700
C  55.84100 21.94400 43.67000
C  56.69000 20.76600 43.85200
C  57.81200 21.19900 44.57700
C  57.77800 22.63100 44.67600
C  56.24600 19.32800 43.45300
C  58.92300 20.31600 45.18900
O  58.88700 19.09400 45.02300
C  60.03500 20.80500 45.93300
N  57.76100 25.62500 45.30500
C  58.77500 24.74600 45.53400
C  59.91600 25.39000 46.32500
C  59.45100 26.88900 46.32100
C  58.02800 26.82800 45.79500
C  60.24800 24.73200 47.61600
C  60.36200 27.87000 45.44100
C  60.60000 29.19200 46.11000
N  55.37700 27.04000 44.53000
C  55.88400 28.06700 45.23400
C  55.00700 29.19400 45.11500
C  53.99200 28.81900 44.25200
C  54.28100 27.50000 43.88100
C  55.23700 30.45900 45.88600
C  52.76700 29.24200 43.68500
O  52.20300 30.31900 43.89700
C  52.15300 27.96500 42.94100
C  51.96800 28.34000 41.56200
O  52.73200 29.04600 40.94900
O  50.80300 27.79200 40.98300
C  50.34900 28.27600 39.68700
H  54.23100 21.21300 42.40500
H  59.74800 23.08100 45.37900
H  57.61000 28.75200 46.35300
H  51.26100 24.92000 41.88900
H  52.69800 22.60700 41.01700
H  50.64400 23.14500 42.76200
H  51.81200 22.49700 43.88100
H  51.41100 21.45500 42.57600
H  53.54200 24.74600 39.82500
H  52.69800 26.27000 39.91600
H  51.15300 25.79800 38.74600
H  50.66400 24.33800 39.54100
H  57.09300 18.77700 43.04400
H  55.57600 19.51600 42.61400
H  55.93200 18.73300 44.31000
H  60.32100 20.06900 46.68400
H  59.76100 21.63300 46.58600
H  60.83800 21.13600 45.27400
H  60.85000 25.37300 45.76400
H  59.38800 27.28600 47.33400
H  60.67200 25.48500 48.28100
H  61.07000 24.04600 47.41500
H  59.33000 24.31500 48.02900
H  59.74600 28.18500 44.59900
H  61.24700 27.37700 45.03800
H  61.67700 29.30800 46.22500
H  60.08600 29.31000 47.06400
H  60.13400 29.96700 45.50100
H  55.86100 30.18800 46.73700
H  54.29500 30.95000 46.13000
H  55.77000 31.07900 45.16500
H  51.13400 27.75900 43.26800
H  51.12800 28.52000 38.96500
H  49.64400 29.06600 39.94500
H  49.78300 27.45900 39.24000

