158

Mg 8.23900 3.10500 26.96400
C  9.79700 1.62400 29.79000
C  6.85000 5.35700 29.12700
C  6.93100 4.52100 24.28300
C  9.62800 0.51600 24.90000
N  8.32400 3.46600 29.30800
C  9.02400 2.70700 30.18600
C  8.93300 3.36300 31.61300
C  7.76300 4.40700 31.38100
C  7.53500 4.39100 29.84600
C  6.46000 4.06900 32.22800
C  10.24800 3.87600 32.20700
C  10.04100 4.76800 33.48400
H  10.28900 3.90700 34.76500
N  7.03000 4.72700 26.76000
C  6.56900 5.53800 27.76000
C  5.93100 6.68400 27.12700
C  5.95900 6.44500 25.69300
C  6.68300 5.17800 25.53800
C  5.49200 7.91400 27.89000
C  5.51600 7.35400 24.56000
O  5.63000 7.12000 23.36000
C  4.92000 8.77100 24.90900
N  8.11000 2.43200 24.89700
C  7.62200 3.33700 23.99200
C  7.70000 2.76200 22.50400
C  8.74600 1.58500 22.65800
C  8.89200 1.50800 24.20900
C  6.21900 2.46000 21.91100
C  10.10300 1.86300 21.94200
C  10.50300 0.85400 20.73300
N  9.43700 1.41900 27.25000
C  9.91000 0.45400 26.32400
C  10.70500 -0.51300 27.04900
C  10.65800 -0.13100 28.40400
C  9.87700 1.03200 28.45200
C  11.49200 -1.66200 26.50600
C  11.18000 -0.40900 29.68700
O  11.90500 -1.28500 30.07900
C  10.65600 0.73400 30.68800
C  9.94500 0.06600 31.88400
O  8.79900 -0.33000 31.89600
O  10.75100 0.01700 33.08700
C  10.13600 -0.54600 34.34200
H  6.44700 6.10100 29.81700
H  6.70200 5.04100 23.35100
H  9.96400 -0.33200 24.29900
H  8.68800 2.56800 32.31800
H  8.01700 5.42600 31.67500
H  5.82500 3.55100 31.51000
H  5.87600 4.94600 32.50900
H  6.69000 3.44300 33.09100
H  10.89600 4.31900 31.45100
H  10.74000 2.97600 32.57500
H  9.02000 5.14100 33.56500
H  10.90800 5.40700 33.31200
H  6.09200 8.81500 27.75900
H  5.39300 7.65000 28.94300
H  4.44500 8.09000 27.64400
H  5.51800 9.26200 25.67700
H  3.92900 8.68000 25.35300
H  4.83800 9.49800 24.10100
H  8.17600 3.60000 21.99600
H  8.40000 0.70400 22.11700
H  5.49100 2.74600 22.67000
H  6.11800 1.39400 21.70700
H  6.03500 2.94400 20.95200
H  10.92700 1.78800 22.65200
H  10.20000 2.89200 21.59300
H  10.56600 1.53000 19.88000
H  9.71600 0.12200 20.55000
H  11.46500 0.36500 20.88700
H  11.74400 -1.61200 25.44600
H  10.87700 -2.54600 26.67100
H  12.40200 -1.78000 27.09400
H  11.39500 1.38400 31.15600
H  9.35800 -1.29900 34.21900
H  9.74800 0.28500 34.93000
H  10.98900 -0.86200 34.94200
Mg 25.98900 51.14100 26.91800
C  23.88600 52.03500 29.58700
C  28.17000 49.97700 29.32900
C  28.09100 50.53000 24.48800
C  23.72800 52.59600 24.66700
N  26.06600 51.02800 29.27200
C  25.04000 51.46800 30.11600
C  25.41200 51.15000 31.61000
C  26.97100 50.89700 31.49200
C  27.06600 50.50600 29.98100
C  27.89800 52.15100 31.89800
C  24.66500 49.91300 32.20600
C  23.85700 50.16800 33.48600
H  24.61300 50.91800 34.66300
N  27.89400 50.39600 26.91200
C  28.57200 49.83100 28.01400
C  29.85700 49.25100 27.49200
C  29.90500 49.64000 26.12800
C  28.50400 50.13400 25.78600
C  30.95200 48.74900 28.40500
C  31.06500 49.37900 25.16700
O  31.08900 49.82600 23.98100
C  32.37200 48.78600 25.70200
N  25.95900 51.60500 24.79400
C  26.97200 51.27000 24.06200
C  26.77700 51.63000 22.58000
C  25.26900 52.31300 22.61600
C  24.92200 52.17700 24.08200
C  27.90800 52.66300 22.10600
C  24.22700 51.72700 21.56500
C  23.50400 50.44100 21.92600
N  24.27500 52.22400 27.09700
C  23.44100 52.65100 26.04100
C  22.19200 53.22600 26.62200
C  22.33700 53.00800 28.01200
C  23.61400 52.36600 28.23100
C  21.01500 53.81600 25.83800
C  21.65400 53.03100 29.28500
O  20.54700 53.50900 29.51000
C  22.67800 52.50900 30.38600
C  22.90100 53.68800 31.26400
O  23.55500 54.67200 30.99000
O  22.23000 53.47600 32.44800
C  22.56000 54.43400 33.48400
H  28.87900 49.46800 29.98500
H  28.74300 50.30600 23.64100
H  23.08900 52.97700 23.86700
H  25.29200 52.08000 32.16500
H  27.19500 50.01800 32.09500
H  27.49400 53.04100 32.38200
H  28.22100 52.48600 30.91200
H  28.73600 51.78700 32.49100
H  25.30200 49.03200 32.28400
H  23.92100 49.77400 31.42100
H  23.44000 49.23900 33.87600
H  23.02100 50.77700 33.14300
H  31.31000 47.75300 28.14500
H  30.58600 48.63800 29.42500
H  31.62700 49.60200 28.47800
H  33.05200 48.71300 24.85300
H  32.25300 47.82000 26.19200
H  32.72700 49.57500 26.36500
H  26.78200 50.68300 22.04200
H  25.32800 53.38500 22.43200
H  28.50400 52.34300 21.25100
H  28.68300 52.77100 22.86500
H  27.43500 53.62100 21.89300
H  24.74200 51.53900 20.62300
H  23.57000 52.57000 21.35300
H  23.67700 49.84900 21.02700
H  22.42400 50.58200 21.91800
H  23.85500 49.94100 22.82800
H  21.41000 54.66600 25.28200
H  20.35400 54.26300 26.58100
H  20.52300 53.01300 25.29000
H  22.10200 51.70600 30.84600
H  22.42300 55.48000 33.21000
H  23.63500 54.32400 33.62900
H  22.07100 54.16100 34.41900

