158

Mg 47.34200 34.42300 27.34800
C  46.08100 32.57600 30.18800
C  47.29400 37.12000 29.22200
C  47.95500 35.96300 24.53700
C  46.82100 31.44300 25.48000
N  46.76800 34.77000 29.45000
C  46.40900 33.90900 30.48000
C  46.59800 34.60600 31.87100
C  46.62900 36.08300 31.44600
C  46.91000 35.99100 29.91400
C  45.37500 36.87400 31.77600
C  47.94700 34.08500 32.47800
C  47.94600 33.99800 34.06000
H  47.15200 35.06000 34.81200
N  47.59100 36.30500 27.00900
C  47.67000 37.26200 27.90200
C  48.01400 38.50100 27.22300
C  48.21300 38.14700 25.80500
C  47.87100 36.70700 25.69800
C  48.06400 39.85600 27.97400
C  48.59100 38.99900 24.61200
O  48.81700 38.62200 23.49300
C  48.86700 40.48100 24.91100
N  47.45900 33.76100 25.20200
C  47.75800 34.65800 24.30300
C  48.25000 33.93300 22.97200
C  47.78600 32.43700 23.25600
C  47.34700 32.46800 24.69200
C  47.56800 34.54300 21.70100
C  48.93900 31.33900 23.20600
C  48.45400 29.87700 22.99500
N  46.65400 32.37100 27.66400
C  46.43100 31.35600 26.82000
C  45.89000 30.19300 27.51400
C  45.71200 30.60100 28.87200
C  46.10900 31.94400 28.85400
C  45.61400 28.86400 26.93400
C  45.32900 30.21200 30.21400
O  44.98500 29.08500 30.60000
C  45.43900 31.56400 31.08100
C  45.91600 31.34500 32.38600
O  47.08100 31.06400 32.80400
O  44.87800 31.45200 33.26200
C  45.13900 31.17300 34.66700
H  47.32500 37.98100 29.89200
H  48.26100 36.35900 23.56600
H  46.70900 30.45500 25.02900
H  45.70300 34.29900 32.41200
H  47.42500 36.57300 32.00700
H  45.22200 36.66500 32.83500
H  44.65000 36.43000 31.09400
H  45.79800 37.85800 31.57400
H  48.71700 34.81400 32.22500
H  48.25100 33.12100 32.07100
H  48.97700 34.11000 34.39400
H  47.58900 33.02300 34.39200
H  47.76300 40.68900 27.34000
H  49.08200 40.11500 28.26400
H  47.42000 39.93400 28.85100
H  49.51200 40.60600 25.78100
H  47.91000 40.98200 25.05500
H  49.35900 40.87500 24.02200
H  49.32300 34.08100 22.84900
H  46.95900 32.15600 22.60300
H  47.64200 35.62900 21.64300
H  46.49800 34.33900 21.65300
H  48.04900 34.24300 20.77000
H  49.30800 31.23800 24.22600
H  49.83700 31.58300 22.63800
H  48.85400 29.43800 22.08000
H  47.40200 30.06200 22.78000
H  48.59200 29.27200 23.89100
H  46.23100 28.67100 26.05600
H  44.58300 28.76300 26.59400
H  45.77100 28.05200 27.64300
H  44.42000 31.93400 31.19100
H  45.06800 32.18500 35.06600
H  46.00500 30.56900 34.93800
H  44.22300 30.70800 35.03200
Mg 41.77600 41.45900 26.18800
C  40.92800 43.72300 28.73000
C  42.71700 39.13500 28.65800
C  43.06800 39.59700 23.73500
C  41.08800 43.98200 23.75300
N  41.89100 41.48300 28.44700
C  41.36000 42.45600 29.25000
C  41.56600 42.05900 30.77400
C  42.18300 40.59900 30.71500
C  42.30100 40.36300 29.19300
C  43.43300 40.21700 31.68400
C  40.22700 42.02000 31.48300
C  40.17800 41.48700 32.92400
H  40.38000 42.38700 34.14000
N  42.60700 39.62500 26.14700
C  42.97700 38.81100 27.26800
C  43.41200 37.48800 26.74100
C  43.68200 37.70700 25.33500
C  43.11400 39.01700 24.98500
C  43.52200 36.23200 27.53900
C  44.21700 36.75800 24.36400
O  44.69500 37.12200 23.27900
C  44.53600 35.31200 24.68800
N  41.98100 41.66900 24.01500
C  42.48300 40.72800 23.20700
C  42.40600 41.09700 21.75200
C  41.56600 42.40100 21.78200
C  41.48300 42.66500 23.25900
C  43.74000 41.34200 21.05500
C  40.20100 42.18600 21.16400
C  39.23800 41.21900 21.95800
N  41.22000 43.42200 26.14400
C  41.03900 44.34300 25.11600
C  40.64800 45.62600 25.66900
C  40.53000 45.42100 27.04000
C  40.92100 44.06400 27.31000
C  40.56100 46.89400 24.92100
C  40.26000 46.03100 28.32900
O  39.98200 47.17600 28.56700
C  40.43100 44.97600 29.41600
C  41.44600 45.43800 30.34600
O  42.63400 45.49700 30.05800
O  41.01500 45.68800 31.67400
C  42.01000 46.22900 32.56200
H  43.02500 38.40200 29.40700
H  43.38000 38.92600 22.93200
H  40.71200 44.77400 23.10200
H  42.26800 42.77500 31.20200
H  41.37800 39.92900 31.01700
H  43.13200 39.86200 32.66900
H  44.21400 40.97700 31.64900
H  43.93400 39.33900 31.27600
H  39.42500 41.43400 31.03300
H  39.86900 42.99600 31.81000
H  40.88200 40.65700 32.96900
H  39.17800 41.12100 33.15600
H  43.24000 36.51300 28.55400
H  44.55200 35.88100 27.60700
H  42.90800 35.44000 27.11300
H  45.42500 35.33100 25.31800
H  44.76200 34.71100 23.80700
H  43.74200 34.83900 25.26700
H  41.80900 40.35900 21.21700
H  42.06200 43.21400 21.25200
H  43.95800 40.32000 20.74400
H  44.35500 41.64900 21.90100
H  43.58500 41.83700 20.09600
H  40.41800 41.71600 20.20500
H  39.77000 43.16600 20.95900
H  38.47000 41.79000 22.47900
H  39.74800 40.60600 22.70200
H  38.79800 40.58000 21.19200
H  40.87200 47.76700 25.49400
H  39.52600 47.03200 24.60800
H  41.29100 46.81500 24.11500
H  39.52800 44.70300 29.96300
H  41.51600 47.02300 33.12200
H  42.91000 46.59500 32.06900
H  42.33600 45.50000 33.30400

