158

Mg 7.41700 2.76200 28.21500
C  8.80300 1.47100 31.32600
C  5.47300 4.83400 30.21600
C  5.94200 3.68100 25.48700
C  9.15600 0.22000 26.61900
N  7.13100 3.01600 30.49000
C  7.86800 2.50600 31.48800
C  7.60800 3.20400 32.82700
C  6.38200 4.10000 32.50900
C  6.33400 4.01100 30.95000
C  5.11800 3.83300 33.40900
C  8.84900 4.00400 33.32900
C  8.67600 4.75200 34.69500
H  9.53100 4.18400 35.80300
N  5.88600 4.11900 27.89900
C  5.24800 4.93900 28.83100
C  4.47100 5.87300 28.05900
C  4.56500 5.61300 26.64400
C  5.41500 4.42100 26.63700
C  3.64900 7.05000 28.69500
C  4.03600 6.38200 25.42700
O  4.22100 6.00200 24.25400
C  3.12600 7.56100 25.56700
N  7.57400 2.14700 26.38900
C  6.86400 2.64700 25.35300
C  7.31600 2.12100 24.01100
C  8.49400 1.18100 24.38100
C  8.37800 1.18800 25.92100
C  6.18000 1.40200 23.29500
C  9.86200 1.71400 23.81900
C  10.94800 2.43400 24.69300
N  8.60800 1.08700 28.83000
C  9.24600 0.07900 28.03000
C  9.92000 -0.91000 28.83400
C  9.78500 -0.36200 30.07000
C  8.96600 0.80000 30.08200
C  10.74600 -2.06200 28.33800
C  10.35200 -0.43400 31.36800
O  11.20100 -1.16500 31.81400
C  9.60900 0.61200 32.26700
C  8.68900 -0.16600 33.18900
O  7.64500 -0.76500 32.79500
O  9.08400 -0.07200 34.47100
C  8.46900 -1.00000 35.42800
H  4.89600 5.46600 30.89400
H  5.52900 4.01300 24.53200
H  9.75900 -0.47700 26.03400
H  7.34300 2.45100 33.56900
H  6.78800 5.04100 32.88100
H  4.89300 4.72900 33.98600
H  5.28400 3.00100 34.09300
H  4.29700 3.56200 32.74500
H  9.28900 4.65300 32.57100
H  9.72200 3.36500 33.45800
H  7.62900 4.67300 34.98700
H  8.92800 5.79700 34.51000
H  2.62600 6.68200 28.60800
H  3.59900 8.05600 28.27800
H  3.79300 7.21900 29.76200
H  3.46700 8.42800 25.00100
H  2.76600 7.85400 26.55300
H  2.22100 7.21600 25.06700
H  7.50900 3.00600 23.40500
H  8.36200 0.10900 24.23300
H  5.28000 1.25100 23.89100
H  6.43400 0.42200 22.89100
H  5.92800 1.97400 22.40200
H  9.57200 2.28100 22.93500
H  10.29300 0.78800 23.43700
H  10.56600 2.75400 25.66300
H  11.21900 3.33700 24.14600
H  11.82500 1.80400 24.84300
H  10.70400 -1.95200 27.25500
H  10.24100 -3.00400 28.54900
H  11.73300 -1.99400 28.79600
H  10.31600 1.27700 32.76500
H  9.17200 -1.73600 35.81900
H  7.63700 -1.58400 35.03500
H  7.97700 -0.39200 36.18700
Mg 54.35600 24.54700 44.66500
C  51.84000 26.91700 43.99400
C  52.13600 22.05100 43.49400
C  56.87600 22.41700 44.53700
C  56.59800 27.18300 45.18100
N  52.27400 24.57800 43.78900
C  51.50900 25.62000 43.62600
C  50.17600 25.15000 42.92800
C  50.11100 23.60000 43.22100
C  51.58000 23.37400 43.56700
C  49.12400 22.97600 44.18400
C  50.28400 25.45100 41.42100
C  48.86500 25.41200 40.73500
H  48.77000 24.38800 39.63700
N  54.48300 22.47600 44.06900
C  53.48000 21.62400 43.71700
C  54.01400 20.27000 43.59900
C  55.35000 20.36700 44.06200
C  55.64200 21.79300 44.22900
C  53.24700 19.10300 43.09100
C  56.28300 19.12900 44.17600
O  55.75800 18.01100 44.01000
C  57.84000 19.15200 44.43000
N  56.44300 24.80300 44.74000
C  57.28300 23.75700 44.77700
C  58.73700 24.08500 45.12200
C  58.63600 25.61900 45.18600
C  57.11800 25.94400 45.01900
C  59.19800 23.37200 46.38800
C  59.58800 26.32200 44.17200
C  60.14400 27.63700 44.75700
N  54.27400 26.62800 44.79100
C  55.22300 27.53800 45.07200
C  54.55400 28.80300 45.34800
C  53.24900 28.60000 44.82300
C  53.09100 27.21500 44.59500
C  55.18300 30.02600 45.81000
C  52.06300 29.27900 44.54000
O  51.73500 30.48900 44.69900
C  51.09000 28.16500 44.00000
C  50.76800 28.60100 42.64100
O  51.51300 28.70400 41.65900
O  49.50700 28.81000 42.51200
C  48.97700 29.39600 41.30400
H  51.40800 21.29700 43.18800
H  57.61800 21.62600 44.41600
H  57.13200 28.09300 45.46200
H  49.30200 25.57900 43.41800
H  50.02700 22.98000 42.32800
H  49.00500 21.92400 43.92700
H  48.16700 23.39000 43.86800
H  49.42700 23.24300 45.19600
H  51.03200 24.79400 40.97800
H  50.74700 26.41700 41.22200
H  48.68600 26.43800 40.41200
H  48.09400 25.19300 41.47400
H  52.19800 19.25900 42.83900
H  53.22700 18.28200 43.80700
H  53.68000 18.68400 42.18300
H  58.40800 19.64900 43.64300
H  58.20900 18.12900 44.50200
H  58.06600 19.52900 45.42700
H  59.32000 23.73800 44.26800
H  59.00400 25.99400 46.14200
H  59.11400 23.99800 47.27600
H  60.21500 22.98200 46.34700
H  58.58200 22.48500 46.53900
H  58.97100 26.43200 43.28000
H  60.47900 25.71700 44.00800
H  59.83000 28.55200 44.25400
H  61.23300 27.64600 44.70700
H  59.84900 27.74400 45.80100
H  54.91100 30.84500 45.14400
H  56.25700 29.85400 45.88200
H  54.72800 30.18300 46.78700
H  50.21800 28.10100 44.65100
H  48.71700 28.61500 40.59000
H  49.61300 30.19100 40.91500
H  48.05900 29.94200 41.52000

