158

Mg 17.29100 -1.42500 27.93300
C  16.24900 0.81400 30.49100
C  19.32900 -2.89900 30.18400
C  18.52800 -3.13400 25.40900
C  15.47700 0.60700 25.69900
N  17.81600 -0.95700 30.05300
C  17.11200 -0.19800 30.91200
C  17.65100 -0.25700 32.34500
C  18.67700 -1.44200 32.24100
C  18.69800 -1.77700 30.71000
C  20.09300 -1.14800 32.72100
C  16.53800 -0.57900 33.44000
C  16.68600 0.15600 34.81400
H  18.05100 0.59100 35.26300
N  18.80400 -2.80700 27.85000
C  19.44200 -3.37400 28.90800
C  20.26800 -4.46400 28.39600
C  20.01700 -4.58900 26.96600
C  19.11400 -3.45100 26.65400
C  21.25100 -5.19900 29.30600
C  20.61100 -5.53600 25.90600
O  20.54600 -5.47900 24.71300
C  21.51100 -6.74200 26.36900
N  17.10800 -1.17400 25.84100
C  17.62800 -2.14700 25.02900
C  17.35800 -1.80700 23.54000
C  16.41900 -0.56900 23.67500
C  16.27400 -0.37100 25.19200
C  18.63700 -1.35400 22.78200
C  15.03700 -0.72600 23.05400
C  14.00000 -1.60500 23.75100
N  15.99500 0.28200 28.03100
C  15.24000 0.94300 27.06100
C  14.49500 2.00800 27.64200
C  14.84100 2.03200 29.05600
C  15.77400 0.96900 29.17500
C  13.62400 3.07300 26.90400
C  14.68900 2.70100 30.30600
O  14.01600 3.69000 30.63600
C  15.59500 1.95500 31.29300
C  16.41300 2.99900 32.03900
O  17.52900 3.39800 31.72700
O  15.64700 3.47600 33.06500
C  16.31600 4.51500 33.90300
H  19.92200 -3.43100 30.93100
H  18.88100 -3.69300 24.54000
H  14.96100 1.27700 25.00900
H  18.12700 0.68100 32.63500
H  18.16300 -2.19400 32.84000
H  20.44400 -1.85900 33.46900
H  20.07300 -0.12000 33.08100
H  20.83000 -1.13800 31.91800
H  16.32700 -1.61300 33.71400
H  15.56300 -0.16600 33.18300
H  16.20400 -0.44000 35.59000
H  16.07900 1.06100 34.77500
H  20.74800 -5.93400 29.93500
H  21.59800 -4.56300 30.12100
H  22.14100 -5.65400 28.87200
H  20.88900 -7.17100 27.15400
H  22.45600 -6.34100 26.73500
H  21.61800 -7.51900 25.61200
H  16.92500 -2.63000 22.97300
H  16.83000 0.37000 23.30200
H  18.77300 -0.27400 22.73400
H  18.60600 -1.79200 21.78400
H  19.53900 -1.76700 23.23500
H  15.07300 -1.02200 22.00600
H  14.60500 0.26400 22.90800
H  13.30800 -0.94700 24.27700
H  14.36800 -2.38000 24.42300
H  13.38100 -2.05200 22.97400
H  12.55700 2.86300 26.96100
H  13.86500 3.10200 25.84100
H  13.72800 3.99100 27.48300
H  14.90700 1.53700 32.02800
H  16.89000 5.31400 33.43400
H  17.01200 4.06300 34.60900
H  15.56900 5.06500 34.47400
Mg 49.39500 45.03600 43.50600
C  45.96100 45.80600 42.72400
C  48.86800 41.91900 42.23300
C  52.55200 44.87100 43.17300
C  49.60900 48.58600 44.33400
N  47.58300 44.04100 42.62200
C  46.23200 44.43200 42.50600
C  45.32300 43.31900 41.87400
C  46.32700 42.09300 41.96200
C  47.72000 42.72000 42.29200
C  45.91900 41.06700 43.03700
C  44.83200 43.63700 40.43700
C  45.89600 44.25400 39.49900
H  45.43900 44.19900 38.00300
N  50.56100 43.52900 42.84300
C  50.21200 42.27700 42.41000
C  51.46600 41.49900 42.29200
C  52.55700 42.41100 42.37100
C  51.88400 43.66700 42.86100
C  51.47600 40.13500 41.83000
C  54.00700 42.14300 42.09800
O  54.41900 41.07700 41.61200
C  55.09100 43.14400 42.38400
N  50.83200 46.55300 43.66100
C  52.10800 46.15700 43.56300
C  53.08300 47.30300 43.77200
C  52.16500 48.42100 44.42800
C  50.81300 47.90400 44.05200
C  54.30600 47.04300 44.64300
C  52.53800 49.80000 43.84800
C  53.34900 50.77000 44.77300
N  48.08500 46.82700 43.72000
C  48.34100 48.14700 44.00000
C  47.19200 48.95300 43.84700
C  46.24300 48.09400 43.33800
C  46.83800 46.79700 43.28000
C  47.10400 50.39700 44.11200
C  44.89400 48.09600 42.79800
O  44.02000 48.92200 42.63200
C  44.63800 46.62900 42.42100
C  43.47100 46.13700 43.18300
O  42.41200 45.86400 42.62900
O  43.64400 45.96700 44.50900
C  42.36400 45.61200 45.27000
H  48.67400 40.85200 42.10900
H  53.63400 44.96400 43.05500
H  49.72600 49.57100 44.79000
H  44.36000 43.24000 42.37700
H  46.36600 41.62100 40.98000
H  45.11700 41.46900 43.65500
H  46.75100 40.93500 43.72900
H  45.73800 40.11100 42.54400
H  43.98200 44.29200 40.62700
H  44.38000 42.74700 39.99900
H  46.77900 43.62700 39.62500
H  45.97200 45.31300 39.74400
H  51.65600 40.07600 40.75700
H  50.49400 39.70600 42.02900
H  52.24600 39.59700 42.38300
H  54.85500 43.93000 41.66700
H  56.05800 42.74100 42.08400
H  55.07900 43.56100 43.39100
H  53.41600 47.57600 42.77100
H  52.27100 48.38000 45.51200
H  54.13800 45.99500 44.89200
H  54.30800 47.62400 45.56500
H  55.22800 47.01400 44.06200
H  51.69500 50.45600 43.63300
H  53.03800 49.67300 42.88800
H  52.83500 51.72800 44.83900
H  54.37300 51.01100 44.48500
H  53.69300 50.42500 45.74800
H  46.08000 50.76700 44.17500
H  47.46000 50.86100 43.19300
H  47.57900 50.69900 45.04500
H  44.40600 46.42500 41.37600
H  42.10200 44.62400 44.89300
H  41.60800 46.31500 44.91800
H  42.45200 45.54900 46.35400

