158

Mg 47.25400 15.27000 28.15900
C  45.09100 15.15700 30.84700
C  49.49600 17.07800 30.12000
C  49.01100 15.90900 25.34700
C  45.01500 13.40600 26.34800
N  47.19800 16.13400 30.23900
C  46.28300 15.78100 31.25200
C  46.74500 16.31100 32.66100
C  48.10000 17.07700 32.28500
C  48.27400 16.81200 30.79300
C  48.19300 18.64200 32.58100
C  46.90000 15.08900 33.59800
C  46.16900 15.16900 34.96500
H  45.96700 16.65700 35.43600
N  49.00100 16.29900 27.77300
C  49.83000 16.95300 28.72200
C  50.97900 17.27100 28.04600
C  50.85300 17.09400 26.67900
C  49.58800 16.41000 26.51400
C  52.06500 17.92200 28.71700
C  51.76900 17.47900 25.47000
O  51.46000 17.36000 24.29800
C  53.09000 18.10900 25.84800
N  47.13700 14.54500 26.15000
C  47.93100 15.04900 25.18800
C  47.52000 14.61200 23.71900
C  46.29300 13.73800 24.11300
C  46.08700 13.93800 25.61900
C  47.22200 15.79400 22.80100
C  46.30100 12.22100 23.72800
C  47.27600 11.50300 24.61900
N  45.45600 14.56300 28.46600
C  44.66400 13.73600 27.63000
C  43.39900 13.43200 28.22200
C  43.53300 13.99900 29.53500
C  44.85100 14.60700 29.60300
C  42.30400 12.59600 27.77500
C  42.84600 14.11300 30.82400
O  41.79000 13.58900 31.20200
C  43.85800 14.81700 31.76000
C  43.25000 16.08900 32.22600
O  43.41600 17.18100 31.66600
O  42.50000 15.97300 33.39600
C  41.88500 17.24000 33.67900
H  50.24200 17.58400 30.73800
H  49.45700 16.13700 24.37600
H  44.30600 12.78700 25.79400
H  45.96900 16.98400 33.02700
H  48.99100 16.66300 32.75600
H  49.18800 18.77300 33.00500
H  47.42100 18.89400 33.30800
H  48.07400 19.19100 31.64700
H  47.89100 14.93000 34.02300
H  46.51900 14.21800 33.06600
H  46.74800 14.74100 35.78400
H  45.21800 14.63700 34.99300
H  52.23000 18.96100 28.43200
H  53.01500 17.43100 28.50800
H  51.94600 17.97900 29.79900
H  53.64600 18.28800 24.92700
H  53.59600 17.30500 26.38100
H  53.00000 19.05600 26.38100
H  48.36800 14.04400 23.33400
H  45.46100 14.19800 23.58100
H  48.14900 16.11200 22.32300
H  46.85200 16.67500 23.32500
H  46.46200 15.54900 22.06000
H  46.49500 12.19900 22.65600
H  45.34200 11.71200 23.82400
H  48.03600 12.16300 25.03700
H  47.84800 10.77000 24.04900
H  46.66700 10.86800 25.26300
H  42.02800 12.74900 26.73200
H  41.41100 12.84600 28.34800
H  42.61900 11.56800 27.95700
H  43.95000 14.27900 32.70400
H  41.03500 17.16400 34.35700
H  41.53900 17.88400 32.87100
H  42.58900 17.84200 34.25400
Mg 27.15300 50.01400 26.11000
C  24.95800 51.36300 28.47500
C  29.28100 49.19300 28.54400
C  29.34300 49.26000 23.65500
C  24.91900 51.30500 23.63600
N  27.26400 50.44100 28.25000
C  26.13600 50.83600 28.99200
C  26.30500 50.43500 30.51100
C  27.78700 49.91700 30.49700
C  28.10300 49.74500 29.02400
C  28.90500 50.67800 31.29700
C  25.25400 49.26100 30.91600
C  24.31000 49.67100 32.06000
H  24.32300 48.84800 33.37400
N  29.06400 49.37100 26.10300
C  29.81300 49.01600 27.23400
C  31.11200 48.47900 26.80700
C  31.19600 48.69200 25.41700
C  29.81100 49.17500 25.01000
C  32.12500 47.99400 27.75700
C  32.30400 48.50000 24.46200
O  32.29900 48.92900 23.30200
C  33.57300 47.83000 25.04300
N  27.20800 50.44400 23.94900
C  28.14300 49.82400 23.17700
C  27.90100 49.98000 21.67900
C  26.42300 50.34300 21.68500
C  26.16900 50.79300 23.17700
C  28.75200 50.91300 20.85200
C  25.33300 49.26000 21.12800
C  24.59900 48.42700 22.19700
N  25.29500 51.07200 26.00200
C  24.54600 51.56200 24.94400
C  23.39300 52.34300 25.44400
C  23.48500 52.17500 26.82500
C  24.66100 51.44700 27.08700
C  22.45400 53.18600 24.66000
C  22.90500 52.56900 28.11600
O  21.92300 53.31000 28.34700
C  23.81200 51.91000 29.24200
C  24.27700 53.03400 30.05700
O  25.17500 53.92600 29.77500
O  23.43900 53.13700 31.13600
C  23.86400 54.18800 32.10700
H  29.90400 48.65300 29.26000
H  30.00800 48.98400 22.83400
H  24.29900 51.61900 22.79400
H  26.13800 51.23100 31.23700
H  27.85500 48.90400 30.89400
H  28.59600 51.69500 31.53700
H  29.78500 50.89100 30.69000
H  29.12700 50.04800 32.15900
H  25.85700 48.40700 31.22600
H  24.78000 48.77800 30.06200
H  23.32200 49.52000 31.62500
H  24.26900 50.75600 32.15800
H  33.04000 48.55500 27.56900
H  32.16300 46.91800 27.58300
H  31.78100 48.16100 28.77800
H  34.06500 48.57000 25.67400
H  34.28400 47.59200 24.25200
H  33.34400 46.93500 25.62100
H  28.00800 48.95800 21.31500
H  26.21900 51.21300 21.06100
H  28.25100 51.82700 20.53500
H  29.31100 50.49600 20.01300
H  29.51400 51.11600 21.60500
H  25.85500 48.56500 20.47000
H  24.62700 49.81600 20.51000
H  25.00400 48.36700 23.20700
H  24.58400 47.37800 21.90200
H  23.54500 48.70400 22.23100
H  22.45700 54.23300 24.96100
H  21.45400 52.78700 24.83600
H  22.66600 53.15700 23.59200
H  23.36400 51.11200 29.83200
H  24.89800 54.06400 32.43100
H  23.25500 54.21200 33.01000
H  23.70700 55.13200 31.58500

