158

Mg 40.47800 41.69400 27.07800
C  39.67700 44.09100 29.61600
C  41.31500 39.48700 29.60100
C  41.40700 39.64300 24.64400
C  40.10600 44.43900 24.85400
N  40.47500 41.79200 29.37600
C  40.06300 42.86200 30.16200
C  40.03100 42.42900 31.66400
C  40.61300 40.94500 31.63200
C  40.82900 40.68400 30.13200
C  41.85800 40.64400 32.53000
C  38.60400 42.61500 32.32800
C  38.33100 41.74100 33.55200
H  37.61100 42.46400 34.59000
N  41.27000 39.79500 27.10300
C  41.51000 39.03300 28.24000
C  42.04300 37.72400 27.77900
C  42.09400 37.75300 26.34500
C  41.59600 39.08300 25.95200
C  42.36000 36.57000 28.82000
C  42.54700 36.71600 25.34600
O  42.81000 36.95400 24.16200
C  42.88200 35.33300 25.89000
N  40.77000 42.01200 25.02800
C  41.14300 40.99000 24.22300
C  41.29100 41.44600 22.79000
C  40.80200 42.88900 22.85200
C  40.47800 43.17100 24.33900
C  42.76100 41.31700 22.21100
C  39.71800 43.14100 21.79300
C  38.31500 43.36900 22.36900
N  40.04800 43.80300 27.16200
C  39.96200 44.74000 26.16700
C  39.50100 46.02100 26.69100
C  39.36900 45.82100 28.06200
C  39.80000 44.46200 28.26500
C  39.14800 47.34200 26.06200
C  38.95900 46.39600 29.33200
O  38.60800 47.50000 29.52800
C  39.17100 45.32500 30.40700
C  40.09400 45.87100 31.46900
O  41.31200 45.89400 31.35700
O  39.37900 46.33800 32.53700
C  40.18300 46.85500 33.62900
H  41.41000 38.81300 30.45500
H  41.53300 38.94200 23.81600
H  39.82600 45.14400 24.06900
H  40.67600 43.09800 32.23500
H  39.85200 40.22200 31.92800
H  41.73000 39.68800 33.03900
H  42.00200 41.42600 33.27500
H  42.71500 40.49200 31.87300
H  37.76800 42.36300 31.67600
H  38.64400 43.66100 32.63200
H  39.22600 41.35000 34.03700
H  37.71300 40.86600 33.34700
H  41.63000 35.76100 28.79700
H  42.23600 36.80400 29.87700
H  43.37000 36.20300 28.63700
H  41.96000 35.09400 26.42000
H  43.79900 35.34200 26.48000
H  43.03200 34.66000 25.04500
H  40.69400 40.89800 22.06000
H  41.60200 43.59300 22.62500
H  43.21600 40.52700 22.80900
H  43.36300 42.21300 22.35900
H  42.77100 40.97900 21.17400
H  39.78700 42.36700 21.02900
H  40.07100 44.04900 21.30300
H  37.86200 44.32700 22.11300
H  38.16800 43.15200 23.42700
H  37.76500 42.62600 21.79000
H  38.94900 48.08100 26.83800
H  38.27900 47.23100 25.41300
H  39.91400 47.82200 25.45400
H  38.21700 45.12000 30.89300
H  40.90200 47.59700 33.28000
H  40.79200 46.13100 34.16900
H  39.56100 47.41000 34.33100
Mg -8.98900 19.04800 42.66600
C  -5.62200 18.70900 42.85700
C  -8.60900 22.39800 41.89700
C  -12.40600 19.32200 42.25500
C  -9.28300 15.55500 42.54600
N  -7.30000 20.34800 42.39300
C  -5.99400 20.01900 42.51800
C  -5.06600 21.20600 42.25000
C  -6.09300 22.34700 42.11700
C  -7.45200 21.65800 42.16100
C  -5.95500 23.54400 43.14500
C  -4.21600 20.89100 40.98200
C  -4.78700 20.06200 39.74700
H  -4.33400 20.51700 38.35300
N  -10.38100 20.66600 42.05500
C  -9.97600 21.96600 41.86000
C  -11.16700 22.76500 41.66800
C  -12.33600 21.89400 41.91400
C  -11.72000 20.53400 42.06200
C  -11.17200 24.16600 41.13300
C  -13.72800 22.36800 41.84900
O  -13.96100 23.55100 41.61600
C  -14.99700 21.44400 41.96600
N  -10.59800 17.63100 42.15900
C  -11.88700 18.00800 42.27700
C  -12.84900 16.79500 42.37000
C  -11.87400 15.55500 42.10700
C  -10.47000 16.23700 42.24500
C  -13.54600 16.74000 43.71000
C  -12.10000 14.79800 40.69900
C  -12.19700 13.29200 40.73000
N  -7.76900 17.46700 42.74400
C  -7.95600 16.09300 42.74800
C  -6.81100 15.37300 43.02300
C  -5.80200 16.40400 43.05100
C  -6.46000 17.61500 42.82900
C  -6.70500 13.90800 43.07500
C  -4.40700 16.67800 43.28600
O  -3.45900 15.92600 43.61300
C  -4.22200 18.16200 43.19300
C  -3.70400 18.80800 44.38000
O  -2.68500 19.53600 44.40300
O  -4.48900 18.31000 45.43100
C  -4.01000 18.67500 46.84100
H  -8.53100 23.48600 41.84000
H  -13.49600 19.38500 42.27400
H  -9.34400 14.48000 42.72700
H  -4.43100 21.20800 43.13700
H  -6.04000 22.91500 41.18700
H  -5.85600 24.46900 42.57600
H  -5.06100 23.44000 43.76000
H  -6.82600 23.55100 43.80100
H  -3.26000 20.43700 41.24100
H  -3.85700 21.83600 40.57500
H  -5.87000 20.13600 39.65900
H  -4.62900 18.98500 39.81000
H  -11.76100 24.20600 40.21700
H  -10.11500 24.39400 40.99700
H  -11.59800 24.77100 41.93300
H  -14.98000 20.90800 42.91500
H  -14.96600 20.60400 41.27200
H  -15.85600 22.09500 41.80100
H  -13.61100 16.96100 41.60900
H  -11.90400 14.75300 42.84400
H  -14.56400 16.37700 43.56700
H  -13.59500 17.70700 44.21100
H  -13.01300 16.17300 44.47300
H  -11.25100 15.07800 40.07600
H  -12.98900 15.10300 40.14600
H  -12.98700 12.86200 40.11500
H  -12.14800 12.83800 41.72000
H  -11.39800 12.90100 40.10000
H  -5.72400 13.56800 42.74300
H  -7.33400 13.50100 42.28400
H  -6.97000 13.36900 43.98500
H  -3.54100 18.46800 42.39900
H  -2.96700 18.97300 46.73300
H  -4.04300 17.80500 47.49600
H  -4.48200 19.59600 47.18400

