158

Mg 1.68500 8.10300 27.91200
C  2.35500 10.57100 30.46400
C  1.58500 5.76700 30.27000
C  1.15900 5.99600 25.42200
C  2.21100 10.74400 25.60300
N  2.01500 8.17400 30.12600
C  2.04400 9.26800 30.94200
C  1.64600 8.87500 32.43100
C  1.83200 7.30300 32.31500
C  1.72900 7.03900 30.83200
C  3.07000 6.79200 32.90700
C  0.15400 9.28000 32.87600
C  -0.14500 9.50000 34.28000
H  0.97800 9.11100 35.29500
N  1.54500 6.15900 27.85400
C  1.60700 5.32100 28.92600
C  1.58100 3.96100 28.51700
C  1.29300 3.98500 27.09900
C  1.34400 5.40600 26.72800
C  1.84700 2.78100 29.38900
C  1.06100 2.83200 26.11800
O  1.10300 3.05300 24.92700
C  1.05800 1.41200 26.62200
N  1.57500 8.37800 25.85300
C  1.38300 7.32900 25.00800
C  1.22900 7.79100 23.55500
C  1.67800 9.35000 23.60200
C  1.87900 9.49300 25.13400
C  2.03100 7.00600 22.51700
C  0.73900 10.23600 22.80700
C  -0.77900 10.24800 23.36900
N  2.19600 10.29000 27.94500
C  2.38500 11.16400 26.98200
C  2.72200 12.49700 27.56800
C  2.64100 12.30800 28.93500
C  2.39000 10.94500 29.10800
C  2.87900 13.69400 26.83100
C  2.75800 12.96000 30.25600
O  3.08600 14.08800 30.57000
C  2.48100 11.79500 31.28900
C  3.39900 11.67400 32.39300
O  4.61200 11.38400 32.35100
O  2.64700 12.02900 33.50000
C  3.41800 12.11800 34.70900
H  1.50000 5.03000 31.07100
H  0.87900 5.33200 24.60100
H  2.48700 11.45600 24.82200
H  2.43200 9.31600 33.04300
H  0.96900 6.79100 32.74000
H  3.72600 7.55900 33.32000
H  3.64800 6.17600 32.21800
H  2.74800 6.08200 33.66900
H  -0.40300 8.42500 32.49500
H  -0.15400 10.17200 32.33100
H  -0.99800 8.86700 34.52400
H  -0.42200 10.54200 34.44200
H  2.56600 2.20700 28.80500
H  0.97400 2.13300 29.46300
H  2.32100 3.00700 30.34400
H  0.48600 0.85200 25.88200
H  0.45600 1.45500 27.52900
H  2.11700 1.20300 26.77900
H  0.18300 7.59300 23.32000
H  2.69800 9.50700 23.25300
H  2.43800 6.10100 22.96700
H  2.77300 7.61100 21.99500
H  1.39500 6.65400 21.70500
H  0.74000 9.88300 21.77600
H  1.06000 11.27500 22.73000
H  -1.45100 9.89200 22.58800
H  -0.99900 11.25600 23.72000
H  -0.86600 9.59100 24.23500
H  2.10700 13.70800 26.06200
H  3.90100 13.66800 26.45400
H  2.62700 14.58500 27.40700
H  1.47600 11.90100 31.69700
H  2.86000 12.38100 35.60800
H  4.20100 12.86300 34.56900
H  3.89300 11.14700 34.84900
Mg 53.41100 24.01800 45.87300
C  50.86000 26.02900 44.49400
C  51.92500 21.26700 44.47300
C  56.42100 22.43900 46.18100
C  54.76700 27.00100 47.07100
N  51.66800 23.70900 44.64700
C  50.77900 24.62500 44.31400
C  49.49300 23.99200 43.69900
C  49.72300 22.45400 44.13100
C  51.18500 22.43500 44.47100
C  48.83000 22.01900 45.43200
C  49.45200 24.16900 42.15300
C  48.02400 24.17100 41.54500
H  47.84500 24.15500 40.04000
N  54.03600 22.09900 45.52500
C  53.25300 21.13800 44.87800
C  53.97800 19.84500 44.81300
C  55.33600 20.21100 45.27700
C  55.33600 21.61100 45.59900
C  53.54300 18.57200 44.13800
C  56.61700 19.25700 45.17500
O  56.44700 18.07900 44.88800
C  58.07800 19.57200 45.55500
N  55.40200 24.76100 46.26200
C  56.40200 23.78700 46.57300
C  57.66900 24.46900 47.28100
C  57.09100 25.90300 47.54600
C  55.65300 25.87700 47.00500
C  58.26900 23.67700 48.49800
C  57.86300 27.16400 47.10700
C  58.03700 28.29500 48.09400
N  52.95700 26.15000 45.81900
C  53.51700 27.20300 46.51800
C  52.73600 28.41100 46.27900
C  51.68800 28.00900 45.47000
C  51.87200 26.63500 45.24700
C  53.07300 29.72100 46.95100
C  50.41400 28.41100 44.87200
O  49.94900 29.50200 44.81700
C  49.79300 27.12700 44.22800
C  49.60700 27.46400 42.81200
O  50.42800 27.71400 41.92400
O  48.22400 27.44400 42.55900
C  47.84900 27.90200 41.17800
H  51.47400 20.34800 44.09300
H  57.39000 21.96500 46.35200
H  55.21300 27.86600 47.56600
H  48.56400 24.43400 44.06000
H  49.57400 21.77100 43.29500
H  48.10000 21.40200 44.90800
H  48.43100 22.97000 45.78500
H  49.32000 21.41700 46.19700
H  49.95400 23.28900 41.75100
H  49.91700 25.10500 41.84300
H  47.57400 25.06200 41.98200
H  47.42700 23.33200 41.90100
H  53.69600 17.74900 44.83700
H  54.13900 18.38500 43.24500
H  52.50100 18.39600 43.87400
H  58.34300 20.28800 44.77700
H  58.70100 18.70300 45.34100
H  58.24000 19.83000 46.60100
H  58.45000 24.43900 46.52200
H  56.92300 26.01000 48.61800
H  59.33900 23.54600 48.34200
H  57.84300 22.68000 48.61000
H  58.00500 24.26400 49.37900
H  57.41100 27.42600 46.15100
H  58.86500 26.91900 46.75500
H  57.53600 29.16600 47.67100
H  59.07800 28.47900 48.35900
H  57.46200 28.19800 49.01600
H  52.67900 29.65900 47.96500
H  52.69200 30.58100 46.40000
H  54.14800 29.90200 46.94200
H  48.87300 26.79900 44.71200
H  47.70200 28.96800 41.00400
H  46.88300 27.41000 41.07000
H  48.46400 27.42100 40.41800

