158

Mg 45.28900 5.03500 48.12300
C  43.40000 7.90100 47.31600
C  42.65400 3.13200 47.02100
C  47.41400 2.32000 48.02300
C  48.13200 7.11400 48.23900
N  43.23100 5.52200 47.30000
C  42.63600 6.78200 47.15600
C  41.14300 6.59800 46.86100
C  40.91400 5.02100 46.97100
C  42.39000 4.47900 47.00500
C  39.95700 4.44700 48.04300
C  40.51800 7.25300 45.57800
C  41.35800 7.14500 44.29300
H  41.44400 8.37400 43.29400
N  44.95400 2.98200 47.77800
C  43.84200 2.40900 47.28400
C  44.03300 1.02100 47.22400
C  45.37900 0.73000 47.58400
C  45.99900 1.98800 47.81900
C  42.96800 0.05700 46.82900
C  45.99400 -0.70000 47.66100
O  45.44000 -1.71100 47.28200
C  47.38300 -0.91300 48.23900
N  47.47700 4.74100 47.92900
C  48.04900 3.54400 48.19500
C  49.41300 3.62300 48.77400
C  49.73100 5.10000 48.65900
C  48.33100 5.71700 48.35200
C  49.59700 3.03700 50.16000
C  50.62400 5.47200 47.44400
C  52.12300 5.21500 47.60600
N  45.73300 7.10300 48.01900
C  46.92500 7.78300 48.05500
C  46.67400 9.25100 47.78500
C  45.25700 9.33500 47.56800
C  44.74100 8.00400 47.72700
C  47.62900 10.40600 47.67500
C  44.19000 10.22600 47.24200
O  44.18000 11.44300 47.09100
C  42.95200 9.37000 47.10200
C  41.97200 9.77000 48.06600
O  41.79600 9.29100 49.16200
O  41.13900 10.70700 47.46900
C  40.01300 11.13500 48.32900
H  41.77700 2.59800 46.64900
H  48.06000 1.46800 48.24600
H  48.99400 7.78400 48.25800
H  40.61900 7.04800 47.70300
H  40.45800 4.63500 46.05900
H  39.39600 5.18000 48.62300
H  40.54000 3.93300 48.80700
H  39.31400 3.64600 47.67800
H  40.20100 8.26500 45.82900
H  39.65800 6.63200 45.32700
H  40.94000 6.38100 43.63800
H  42.35300 6.73100 44.45900
H  43.33400 -0.41500 45.91800
H  42.04000 0.59000 46.62100
H  42.76200 -0.71200 47.57400
H  48.17200 -0.54700 47.58200
H  47.47400 -1.95700 48.53700
H  47.47200 -0.46300 49.22800
H  50.00500 3.04000 48.06900
H  50.18700 5.50700 49.56100
H  49.88400 1.98800 50.09800
H  48.73300 3.11700 50.82100
H  50.47000 3.44300 50.67100
H  50.42900 6.47600 47.06900
H  50.31200 4.82000 46.62800
H  52.76100 6.03100 47.26400
H  52.48400 4.40100 46.97700
H  52.38300 5.05000 48.65100
H  48.58700 10.20000 47.19700
H  47.85400 10.81900 48.65900
H  47.19700 11.22100 47.09500
H  42.52100 9.44100 46.10300
H  39.75400 10.37900 49.07000
H  39.15900 11.45100 47.72900
H  40.35600 12.01200 48.87800
Mg 16.70700 52.73600 26.80000
C  18.82500 50.87700 28.76500
C  14.58200 53.06300 29.48000
C  14.57700 54.22000 24.76800
C  18.49400 51.59100 23.93200
N  16.74600 52.13000 29.00400
C  17.78400 51.39300 29.57400
C  17.60300 51.30500 31.08200
C  16.08000 51.66400 31.18600
C  15.69000 52.28400 29.84500
C  15.10600 50.51200 31.59200
C  18.55300 52.29100 31.79900
C  18.96500 52.01100 33.24900
H  17.96000 51.43800 34.18900
N  14.96700 53.75000 27.11900
C  14.23500 53.73800 28.28600
C  12.96700 54.45500 28.09100
C  12.88400 54.70000 26.65100
C  14.17300 54.31300 26.14300
C  12.09800 54.66700 29.12400
C  11.70400 55.17900 25.80800
O  11.87400 55.48000 24.58900
C  10.27600 55.48500 26.38400
N  16.49900 52.79000 24.63500
C  15.56900 53.59900 24.12700
C  15.73200 53.78200 22.61700
C  17.03700 53.00600 22.30700
C  17.42400 52.47500 23.72300
C  14.47800 53.48500 21.79600
C  18.15400 53.86200 21.62600
C  18.58100 55.08000 22.45000
N  18.27600 51.47200 26.37600
C  18.97400 51.20300 25.19500
C  20.07700 50.26900 25.50700
C  20.11600 50.17700 26.93600
C  18.95600 50.90000 27.38100
C  20.95200 49.77500 24.43200
C  20.78300 49.62500 28.10600
O  21.90800 49.07800 28.12800
C  20.03200 50.15700 29.38500
C  19.65900 49.06000 30.27000
O  18.88500 48.17500 29.93100
O  20.18100 49.27000 31.51300
C  19.84700 48.34600 32.62500
H  13.79100 53.11100 30.23200
H  13.99800 54.77600 24.02800
H  19.06900 51.30800 23.04800
H  17.72900 50.26300 31.37600
H  15.88800 52.47100 31.89200
H  14.19700 50.66800 31.01200
H  14.90900 50.47700 32.66400
H  15.58100 49.55300 31.38700
H  18.01100 53.23700 31.80900
H  19.38000 52.35400 31.09100
H  19.40500 52.92300 33.65300
H  19.73100 51.25200 33.09300
H  12.71700 54.96600 29.97000
H  11.65700 53.70800 29.39600
H  11.33100 55.42700 28.97400
H  9.88300 54.51400 26.68200
H  9.65100 55.89600 25.59100
H  10.36200 56.12400 27.26300
H  15.97000 54.83300 22.45600
H  16.86300 52.08200 21.75500
H  14.61400 52.87300 20.90400
H  14.03100 54.43800 21.51500
H  13.86200 52.91700 22.49400
H  17.69800 54.21500 20.70200
H  19.11100 53.43400 21.32700
H  19.59800 55.03500 22.84000
H  18.05800 55.18800 23.40000
H  18.45500 55.99500 21.87100
H  21.73300 49.14200 24.85300
H  21.45700 50.64800 24.02000
H  20.36600 49.33400 23.62500
H  20.64000 50.77100 30.04800
H  19.41900 47.41200 32.26000
H  19.14000 48.88100 33.25800
H  20.73300 48.09500 33.20800

