158

Mg 36.15400 49.40400 25.30800
C  36.58600 47.91500 28.52900
C  34.72600 52.18500 26.96600
C  35.56900 50.86200 22.23000
C  37.39300 46.62100 23.80300
N  35.68900 49.97600 27.47800
C  36.08900 49.24700 28.58300
C  35.74800 50.01500 29.84600
C  35.20100 51.32900 29.39800
C  35.08500 51.15200 27.80900
C  33.94700 51.81100 30.17000
C  36.87300 50.08100 30.96900
C  36.52000 49.79700 32.39500
H  35.09400 49.48500 32.87100
N  35.30200 51.31500 24.68900
C  34.80200 52.29600 25.55000
C  34.31700 53.43000 24.74400
C  34.58100 53.04500 23.38500
C  35.19900 51.69100 23.41700
C  33.74100 54.60100 25.38700
C  34.25400 53.81600 22.18900
O  34.41300 53.30100 21.08900
C  33.83100 55.22700 22.27800
N  36.30400 48.79000 23.35500
C  36.13900 49.55200 22.22000
C  36.41000 48.78200 20.91100
C  37.07100 47.48500 21.44800
C  36.91000 47.66400 22.99200
C  35.18500 48.55700 20.04100
C  38.57800 47.43500 21.04100
C  39.69900 48.17100 21.86300
N  36.81100 47.63800 25.95400
C  37.35200 46.58200 25.18500
C  37.71300 45.53700 26.09500
C  37.41400 45.94900 27.41100
C  36.88300 47.28400 27.24900
C  38.32200 44.20400 25.66400
C  37.47500 45.58900 28.77900
O  37.88300 44.57200 29.25100
C  36.85100 46.81400 29.55900
C  35.64800 46.23500 30.24200
O  34.52800 46.16300 29.78600
O  35.90200 45.64300 31.52400
C  34.80800 45.19200 32.41300
H  34.31900 53.00500 27.56000
H  35.35300 51.22700 21.22300
H  37.92700 45.82700 23.27700
H  34.92000 49.39700 30.19600
H  35.91700 52.13100 29.57100
H  33.37200 51.05600 30.70500
H  33.24500 52.30700 29.50000
H  34.14700 52.52100 30.97400
H  37.41700 51.01400 30.82000
H  37.50200 49.21800 30.75000
H  36.86500 50.71200 32.87500
H  37.18500 49.08300 32.88100
H  32.74400 54.71300 24.96100
H  34.25400 55.44700 24.92800
H  33.74900 54.68200 26.47400
H  34.66000 55.76600 22.73600
H  32.92600 55.33300 22.87500
H  33.77900 55.54400 21.23600
H  37.13800 49.40000 20.38600
H  36.62200 46.54400 21.13000
H  34.24100 48.88900 20.47300
H  35.04900 47.47900 19.96300
H  35.33600 49.02600 19.06800
H  38.54600 47.71100 19.98700
H  38.93900 46.40800 20.97800
H  40.18400 48.77800 21.09800
H  40.36100 47.45000 22.34200
H  39.33100 48.77300 22.69400
H  38.56600 44.13700 24.60400
H  37.63800 43.36800 25.81500
H  39.21900 44.04700 26.26400
H  37.60500 47.12700 30.28000
H  34.75700 44.10300 32.42200
H  33.82800 45.61400 32.18900
H  35.04400 45.44700 33.44600
Mg -12.10800 38.03600 42.00100
C  -10.22100 35.16300 40.97300
C  -9.93600 40.00700 40.42200
C  -14.22400 40.49900 42.70000
C  -14.50300 35.66900 43.25100
N  -10.35700 37.59500 40.74500
C  -9.64200 36.40100 40.60300
C  -8.27400 36.58700 39.97100
C  -8.10100 38.16800 40.18600
C  -9.59900 38.62300 40.39500
C  -7.15200 38.63400 41.31800
C  -8.16300 35.99000 38.62300
C  -6.94400 35.04800 38.38700
H  -5.85400 35.68200 37.43300
N  -12.15200 40.02800 41.58100
C  -11.10200 40.66100 40.92400
C  -11.42800 42.11300 40.98300
C  -12.70400 42.24300 41.57200
C  -13.09500 40.93700 41.93600
C  -10.50700 43.19800 40.35900
C  -13.39200 43.64400 41.87600
O  -12.76700 44.64800 41.63700
C  -14.65700 43.65200 42.56300
N  -14.16400 38.08300 42.65800
C  -14.77800 39.26200 43.00600
C  -15.98900 38.98900 43.93600
C  -16.20300 37.42100 43.72900
C  -14.82900 37.03200 43.20900
C  -15.70500 39.44500 45.31200
C  -17.51500 37.00100 42.90300
C  -18.80100 36.65500 43.75900
N  -12.33800 35.83400 42.22400
C  -13.43200 35.06400 42.62200
C  -13.13100 33.63200 42.51000
C  -11.87000 33.67400 41.85000
C  -11.47000 34.97600 41.65800
C  -13.90600 32.48000 42.97700
C  -10.82700 32.82600 41.26800
O  -10.88200 31.59100 41.19600
C  -9.74000 33.76300 40.68100
C  -8.46100 33.44400 41.40600
O  -7.57100 32.73600 40.94900
O  -8.35200 34.08800 42.57800
C  -6.93600 34.11200 43.15200
H  -9.14500 40.64300 40.01800
H  -14.99200 41.20700 43.01900
H  -15.32800 35.04300 43.59600
H  -7.55500 36.17200 40.67700
H  -7.64100 38.47100 39.24500
H  -6.66200 37.80700 41.83300
H  -7.68100 39.13400 42.12900
H  -6.42300 39.35900 40.95500
H  -7.98700 36.87100 38.00600
H  -9.10800 35.54700 38.30700
H  -7.38900 34.13300 37.99500
H  -6.54300 34.80000 39.37000
H  -11.14800 43.82600 39.74000
H  -9.65700 42.80400 39.80200
H  -10.04300 43.81800 41.12600
H  -15.13800 44.63000 42.53700
H  -14.30100 43.33000 43.54200
H  -15.37600 42.97300 42.10400
H  -16.85100 39.55700 43.58600
H  -16.19700 36.85900 44.66300
H  -16.18700 40.39400 45.54600
H  -14.63900 39.66000 45.39500
H  -16.03100 38.66000 45.99400
H  -17.21300 36.15100 42.29100
H  -17.76400 37.80600 42.21200
H  -19.08900 35.66900 43.39300
H  -19.59400 37.39200 43.63400
H  -18.57700 36.69400 44.82500
H  -14.32000 31.92700 42.13400
H  -14.68600 32.60900 43.72800
H  -13.30600 31.69700 43.44100
H  -9.64900 33.51100 39.62400
H  -6.27600 34.73400 42.54800
H  -6.51300 33.11000 43.21900
H  -6.83900 34.59500 44.12400

