158

Mg 35.54000 2.80800 29.90600
C  33.23200 3.81100 32.28100
C  37.92100 2.68500 32.40100
C  37.84200 2.16000 27.61600
C  33.08900 3.12300 27.50800
N  35.55800 3.29900 32.02400
C  34.54700 3.65100 32.82100
C  34.97300 3.75600 34.31900
C  36.48900 3.57500 34.24500
C  36.64900 3.13800 32.78500
C  37.16100 4.97800 34.49200
C  34.32500 2.49600 35.09500
C  34.19800 2.66700 36.62600
H  34.85300 3.89400 37.24700
N  37.67200 2.41700 29.96200
C  38.42000 2.25400 31.11600
C  39.75200 1.81400 30.78500
C  39.75000 1.71900 29.31400
C  38.40400 2.10400 28.92100
C  40.84900 1.51600 31.80100
C  40.89300 1.34700 28.38100
O  40.78500 1.51000 27.13100
C  42.11100 0.71000 28.87700
N  35.49300 2.90300 27.75900
C  36.56400 2.48100 27.01300
C  36.18700 2.50300 25.50900
C  34.60200 2.32300 25.61700
C  34.39300 2.85200 27.08100
C  36.65400 3.90600 24.88300
C  34.11600 0.79200 25.34600
C  33.67000 -0.12600 26.50500
N  33.54900 3.44500 29.81500
C  32.61200 3.43900 28.82000
C  31.34800 3.76800 29.35500
C  31.57600 3.98000 30.69100
C  32.88400 3.65700 30.90700
C  30.10300 3.92000 28.69400
C  30.92300 4.26200 31.96100
O  29.81600 4.58800 32.20000
C  31.96200 4.14800 33.09500
C  32.04900 5.50700 33.64200
O  32.24900 6.54900 32.97200
O  31.84700 5.51300 34.97200
C  32.06100 6.78400 35.64100
H  38.75900 2.71100 33.10000
H  38.52700 1.68100 26.91300
H  32.40800 3.10300 26.65500
H  34.64100 4.69800 34.75400
H  36.87900 2.88100 34.98900
H  36.57700 5.68100 35.08500
H  37.56400 5.42800 33.58500
H  37.99300 4.85700 35.18600
H  34.94700 1.63800 34.83700
H  33.30700 2.37400 34.72400
H  34.63400 1.79700 37.11700
H  33.12400 2.67900 36.80800
H  41.04800 0.45900 31.98100
H  40.52900 1.97800 32.73400
H  41.75400 2.04400 31.50100
H  42.76100 1.45400 29.33800
H  42.65600 0.35100 28.00300
H  41.93900 -0.15000 29.52400
H  36.74100 1.72400 24.98500
H  34.14500 3.03900 24.93300
H  37.34700 3.86500 24.04300
H  37.24200 4.35900 25.68000
H  35.76400 4.45600 24.57600
H  34.78600 0.29800 24.64200
H  33.20200 0.93600 24.77100
H  33.61700 0.47500 27.41200
H  34.41100 -0.92300 26.56000
H  32.60800 -0.35000 26.40000
H  29.36300 3.85500 29.49200
H  30.11000 3.11700 27.95700
H  29.98300 4.94400 28.33900
H  31.68600 3.33700 33.76900
H  32.86100 7.34800 35.16300
H  32.36500 6.52600 36.65600
H  31.11500 7.32600 35.63700
Mg -12.21000 16.26400 41.77400
C  -9.09100 14.55100 41.37700
C  -10.68500 18.94100 40.39300
C  -15.25900 17.58400 41.25200
C  -13.67200 13.25800 42.84900
N  -10.14500 16.60300 40.95200
C  -9.07000 15.84800 40.82800
C  -7.87500 16.53900 40.22900
C  -8.35300 18.05700 40.18700
C  -9.84800 17.86600 40.46400
C  -7.67200 18.95900 41.30000
C  -7.35800 15.82900 38.90500
C  -5.90800 15.39600 38.79000
H  -4.93100 16.32400 37.99700
N  -12.88200 18.01500 41.10700
C  -12.08600 18.99900 40.63500
C  -12.86600 20.21700 40.43100
C  -14.22900 19.84100 40.56700
C  -14.16100 18.41900 40.93600
C  -12.37800 21.55000 39.94800
C  -15.38200 20.77800 40.13200
O  -15.16400 21.87700 39.66200
C  -16.82300 20.13700 39.94100
N  -14.22500 15.50600 42.00700
C  -15.31500 16.30600 41.74000
C  -16.55100 15.54700 42.04400
C  -16.03700 14.41300 42.97200
C  -14.54900 14.37700 42.60900
C  -17.70300 16.32700 42.75600
C  -16.72800 13.04400 42.59800
C  -16.87800 12.05300 43.77200
N  -11.57100 14.29500 41.95500
C  -12.26200 13.20100 42.55800
C  -11.37100 12.03600 42.79000
C  -10.07400 12.53700 42.35800
C  -10.27600 13.89400 41.88700
C  -11.81600 10.64400 43.14000
C  -8.61500 12.30200 42.23900
O  -7.94400 11.35300 42.53200
C  -7.96000 13.58600 41.51500
C  -6.86200 14.05400 42.39000
O  -6.98900 14.88800 43.26200
O  -5.67400 13.57700 41.95400
C  -4.50700 14.41500 42.29700
H  -10.21100 19.78800 39.89200
H  -16.23700 18.06800 41.29000
H  -14.18100 12.40600 43.30400
H  -7.01100 16.47000 40.89100
H  -8.20600 18.41800 39.16900
H  -7.96700 18.82900 42.34100
H  -7.85500 20.00600 41.06000
H  -6.58600 18.90900 41.22000
H  -7.51200 16.40900 37.99400
H  -8.02200 14.99500 38.68000
H  -5.89500 14.36400 38.43700
H  -5.66800 15.21800 39.83900
H  -12.95800 22.34800 40.41300
H  -12.46300 21.60300 38.86300
H  -11.34000 21.64600 40.26500
H  -16.65700 19.16800 39.46900
H  -17.24300 20.76800 39.15800
H  -17.34400 20.10900 40.89800
H  -16.88400 15.21200 41.06200
H  -16.19500 14.63900 44.02700
H  -17.38200 17.35500 42.92500
H  -18.09100 15.84400 43.65300
H  -18.47300 16.49800 42.00400
H  -16.18200 12.47100 41.84800
H  -17.72100 13.13500 42.15700
H  -17.90100 11.67800 43.79300
H  -16.67500 12.46100 44.76200
H  -16.22400 11.21200 43.53900
H  -12.26200 10.67000 44.13500
H  -10.91700 10.02800 43.12200
H  -12.49600 10.28100 42.37000
H  -7.60000 13.28800 40.53100
H  -4.15900 14.12600 43.28900
H  -4.54800 15.49200 42.13200
H  -3.75600 14.14000 41.55600

