158

Mg 23.34900 -4.91800 45.61600
C  25.42800 -2.31700 44.24700
C  20.94000 -3.74600 43.51000
C  21.67100 -7.75100 46.26700
C  26.29900 -6.25800 47.01900
N  23.27000 -3.22800 43.96900
C  24.17300 -2.34300 43.65400
C  23.62300 -1.31400 42.63900
C  22.05000 -1.61700 42.77000
C  22.05400 -2.95300 43.47800
C  21.31600 -0.52000 43.58200
C  24.26800 -1.58000 41.20800
C  24.88800 -0.44100 40.38900
H  25.66800 -0.88700 39.18700
N  21.47000 -5.60200 45.06000
C  20.67900 -5.03300 44.15100
C  19.43900 -5.69400 44.16200
C  19.53600 -6.79500 45.05200
C  20.97400 -6.77800 45.47500
C  18.33400 -5.31600 43.17000
C  18.44100 -7.79500 45.22200
O  17.32500 -7.64000 44.72100
C  18.60500 -9.00400 46.03800
N  23.91900 -6.74800 46.48700
C  23.03900 -7.78100 46.65600
C  23.69300 -8.90600 47.40000
C  25.17800 -8.49400 47.61000
C  25.17000 -7.01500 47.05000
C  22.98800 -9.38000 48.71300
C  26.16300 -9.46400 46.89300
C  27.25600 -9.98300 47.81300
N  25.30300 -4.30600 45.83800
C  26.43400 -4.92400 46.51600
C  27.55600 -4.11100 46.39000
C  27.18300 -3.03900 45.58400
C  25.86600 -3.27100 45.12900
C  28.84200 -4.35600 47.02600
C  27.68300 -1.83000 45.00100
O  28.76300 -1.25200 45.12400
C  26.63300 -1.35800 44.03400
C  26.47100 0.15400 44.24700
O  25.86000 0.63000 45.18700
O  27.22900 0.91400 43.37400
C  27.32000 2.38300 43.68900
H  20.07500 -3.33500 42.98600
H  21.18400 -8.67600 46.58500
H  27.18700 -6.70600 47.46900
H  23.87000 -0.28900 42.91600
H  21.46200 -1.58300 41.85300
H  22.03700 -0.12300 44.29700
H  20.43000 -0.85800 44.11900
H  21.04100 0.23300 42.84300
H  23.54200 -2.06600 40.55700
H  25.05300 -2.32100 41.35900
H  25.46000 0.15800 41.09700
H  24.07200 0.08500 39.89300
H  18.59900 -4.54000 42.45100
H  17.54900 -4.98300 43.84900
H  17.97600 -6.22400 42.68500
H  19.05200 -8.81500 47.01400
H  19.29800 -9.62000 45.46400
H  17.71100 -9.62300 46.12100
H  23.64900 -9.83900 46.83800
H  25.36200 -8.49200 48.68500
H  22.14100 -8.74500 48.97200
H  23.53100 -9.03800 49.59400
H  22.87700 -10.45900 48.82200
H  26.74600 -8.88400 46.17700
H  25.61500 -10.28000 46.42300
H  27.26600 -11.07300 47.83600
H  27.03800 -9.63400 48.82300
H  28.21900 -9.60400 47.47000
H  29.17200 -5.34900 46.72100
H  28.75200 -4.39600 48.11200
H  29.52400 -3.58100 46.67800
H  26.97700 -1.47200 43.00600
H  26.92800 2.96700 42.85600
H  28.39700 2.55000 43.71300
H  26.92900 2.62100 44.67800
Mg 48.16700 25.58400 28.47300
C  49.03300 27.53000 31.28700
C  47.38500 23.05400 30.62400
C  47.66200 23.58600 25.83600
C  49.76900 27.89500 26.53100
N  47.96200 25.36100 30.65900
C  48.42000 26.30000 31.60400
C  48.09400 25.84300 33.02300
C  47.85800 24.31000 32.90300
C  47.70000 24.19600 31.30500
C  48.95200 23.43800 33.69200
C  46.93700 26.65900 33.65700
C  47.11400 27.15000 35.09400
H  45.81900 27.32600 35.95400
N  47.24000 23.72900 28.26900
C  47.06200 22.83700 29.27200
C  46.52600 21.62400 28.67300
C  46.54800 21.73900 27.20500
C  47.14400 23.07000 27.05600
C  46.09500 20.49000 29.48000
C  46.11400 20.86500 26.10100
O  46.26400 21.18600 24.91100
C  45.31400 19.57300 26.45600
N  48.71700 25.77200 26.47100
C  48.28700 24.83500 25.51900
C  48.76300 25.25000 24.12900
C  49.34800 26.69200 24.36100
C  49.27400 26.80100 25.86600
C  49.77400 24.30700 23.50700
C  48.47500 27.80100 23.60400
C  49.24200 28.92400 22.84200
N  49.17600 27.35300 28.75900
C  49.76600 28.23300 27.85900
C  50.41000 29.44000 28.55900
C  50.04300 29.18800 29.90000
C  49.36000 27.93600 29.97000
C  50.95900 30.62400 27.87800
C  50.17600 29.70700 31.19700
O  50.85700 30.67300 31.58500
C  49.57200 28.60500 32.17800
C  50.57400 28.28800 33.26300
O  51.18000 27.23700 33.22700
O  50.65300 29.25800 34.22800
C  51.37700 28.99100 35.47100
H  47.32100 22.19900 31.30000
H  47.75700 22.83800 25.04700
H  50.31100 28.55800 25.85400
H  48.95400 26.15000 33.61800
H  46.91500 23.94400 33.31000
H  49.65000 22.88800 33.06100
H  48.36600 22.78000 34.33300
H  49.64900 24.05700 34.25700
H  46.08300 25.98300 33.69900
H  46.64800 27.53900 33.08200
H  47.74600 28.02800 35.22700
H  47.85500 26.47400 35.51900
H  46.54400 20.49900 30.47300
H  46.48900 19.57000 29.04800
H  45.00800 20.43700 29.52700
H  45.92800 18.89100 27.04400
H  45.00000 18.95300 25.61600
H  44.38000 19.84200 26.94800
H  47.86600 25.35100 23.52000
H  50.40400 26.69600 24.09000
H  49.23300 24.00700 22.61000
H  50.03500 23.46800 24.15200
H  50.67500 24.82400 23.17600
H  47.87800 28.30100 24.36700
H  47.75900 27.45000 22.86000
H  50.12000 28.61200 22.27600
H  49.49600 29.72700 23.53500
H  48.51600 29.30600 22.12500
H  50.85900 30.62600 26.79200
H  51.99700 30.56700 28.20600
H  50.40700 31.48700 28.25000
H  48.73300 29.10200 32.66600
H  52.07800 29.76700 35.77600
H  52.06400 28.14600 35.52000
H  50.61700 28.88100 36.24400

