158

Mg 47.68300 25.11000 28.47900
C  48.68000 27.30700 31.20800
C  46.49900 22.92700 30.90700
C  47.33600 23.03000 26.10700
C  49.13900 27.52800 26.25600
N  47.60700 25.12300 30.78100
C  48.05500 26.11000 31.60500
C  47.64600 25.80000 33.10300
C  47.16700 24.27500 32.98500
C  47.15900 24.03000 31.45800
C  48.06900 23.32500 33.70800
C  46.64100 26.78800 33.70400
C  47.05200 27.56900 34.98200
H  45.97700 27.84500 35.97800
N  46.88400 23.29300 28.49000
C  46.44900 22.58200 29.55500
C  45.84100 21.41000 28.98600
C  46.03600 21.37000 27.56400
C  46.87400 22.56100 27.36500
C  45.06500 20.35500 29.84700
C  45.49300 20.45400 26.45600
O  45.62000 20.60000 25.27000
C  44.58300 19.28400 26.95500
N  48.05500 25.35000 26.46200
C  47.85100 24.26000 25.68800
C  48.40500 24.40400 24.24200
C  48.82800 25.93900 24.22700
C  48.70000 26.35400 25.72800
C  49.64300 23.45900 23.96400
C  47.95200 26.74800 23.29200
C  46.71100 27.44000 23.85500
N  48.71200 26.98600 28.61200
C  49.16800 27.86100 27.64800
C  49.83700 28.99800 28.22100
C  49.64300 28.81400 29.63100
C  48.92600 27.58700 29.81200
C  50.62000 30.15500 27.66500
C  49.96400 29.39300 30.92900
O  50.60500 30.37800 31.30900
C  49.22900 28.49100 31.94900
C  50.26900 28.09000 32.91500
O  51.20000 27.30500 32.68700
O  50.14100 28.71700 34.15600
C  51.17800 28.47100 35.12100
H  46.09000 22.19200 31.60300
H  47.34400 22.33900 25.26100
H  49.51800 28.22900 25.51000
H  48.53300 25.89100 33.72900
H  46.17400 24.12700 33.40900
H  48.79000 22.94300 32.98600
H  47.50900 22.47200 34.09100
H  48.55600 23.80500 34.55600
H  45.78600 26.19200 34.02100
H  46.37400 27.57800 33.00200
H  47.35900 28.57200 34.68800
H  47.88200 27.08800 35.50000
H  44.00500 20.38200 29.59600
H  45.21100 20.59100 30.90100
H  45.41400 19.32400 29.77500
H  44.84900 18.65900 27.80800
H  44.57200 18.62600 26.08700
H  43.56300 19.64700 27.08400
H  47.58600 24.03900 23.62200
H  49.87500 26.05100 23.94500
H  50.02900 23.07100 24.90600
H  50.49100 23.85600 23.40600
H  49.22100 22.56500 23.50400
H  47.67800 26.24500 22.36400
H  48.58100 27.53500 22.87600
H  46.61300 27.60700 24.92800
H  45.78600 26.96700 23.52500
H  46.64700 28.49800 23.60200
H  50.84300 30.01100 26.60800
H  51.55400 30.12100 28.22600
H  50.20400 31.13200 27.91100
H  48.42500 29.06400 32.41200
H  50.93800 27.49500 35.54500
H  51.12700 29.34500 35.76900
H  52.15800 28.42200 34.64600
Mg 50.63000 48.04300 43.70000
C  47.49100 49.03700 42.41900
C  50.41900 45.12700 41.88900
C  53.83000 47.40600 44.24600
C  51.02400 51.31300 45.03600
N  49.11400 47.14200 42.42700
C  47.93000 47.73300 41.94300
C  47.12800 46.71600 41.08600
C  48.10100 45.42600 41.05300
C  49.28600 45.93500 41.85100
C  47.47000 44.09300 41.58900
C  46.59000 47.23800 39.65000
C  45.06700 47.23200 39.46400
H  44.59200 46.60300 38.14600
N  51.85600 46.25800 43.46400
C  51.61400 45.26300 42.62100
C  52.73900 44.44000 42.51700
C  53.70000 45.00100 43.38000
C  53.18900 46.30000 43.72000
C  52.76600 43.17200 41.62300
C  55.04400 44.43600 43.71700
O  55.27700 43.27700 43.29600
C  56.10900 45.13700 44.56600
N  52.23100 49.29700 44.45200
C  53.50000 48.73600 44.63900
C  54.35800 49.67400 45.46900
C  53.48800 51.01000 45.66500
C  52.19000 50.56200 45.01200
C  55.04800 49.12200 46.85400
C  54.00700 52.24800 44.95100
C  54.29100 53.48200 45.85800
N  49.43700 49.77800 43.85200
C  49.77000 51.02000 44.47600
C  48.64700 51.89800 44.27300
C  47.74700 51.19200 43.50900
C  48.29400 49.88400 43.21400
C  48.49500 53.30200 44.68100
C  46.39100 51.16700 42.92000
O  45.51500 52.01500 42.90400
C  46.18800 49.80000 42.25300
C  45.02700 49.04700 42.75700
O  45.07600 48.26600 43.68500
O  43.91100 49.16600 41.94500
C  42.74700 48.37000 42.25300
H  50.26300 44.32000 41.17100
H  54.90500 47.21300 44.26900
H  50.94700 52.32800 45.43100
H  46.36700 46.50600 41.83800
H  48.50200 45.26600 40.05200
H  47.56500 43.34600 40.80000
H  46.41600 44.28600 41.79300
H  47.93100 43.70100 42.49500
H  46.97700 46.58900 38.86400
H  46.93200 48.27100 39.58900
H  44.82900 48.29500 39.45000
H  44.59000 46.65800 40.25900
H  53.80300 42.92200 41.39800
H  52.23200 43.40000 40.70100
H  52.25200 42.38400 42.17400
H  56.47600 45.97100 43.96900
H  56.89400 44.39400 44.71000
H  55.61200 45.51400 45.45900
H  55.20700 49.94500 44.84200
H  53.31000 51.13400 46.73300
H  56.13300 49.17400 46.94100
H  54.71500 48.08700 46.93600
H  54.64900 49.63600 47.72800
H  53.39500 52.62800 44.13300
H  55.00900 52.05400 44.57000
H  53.80700 53.29000 46.81600
H  53.83300 54.35100 45.38500
H  55.37300 53.48700 45.99100
H  48.55600 54.00900 43.85400
H  49.28300 53.52900 45.39900
H  47.57100 53.51500 45.21800
H  45.87600 49.92000 41.21500
H  42.46200 48.26500 43.30000
H  42.96100 47.40100 41.80300
H  41.94800 48.84100 41.67900

