158

Mg 24.68300 -5.32500 46.33500
C  26.73500 -2.78400 45.00000
C  22.20500 -4.43200 43.96800
C  22.98600 -8.03500 47.11200
C  27.52500 -6.65800 47.79800
N  24.60000 -3.87100 44.56800
C  25.54500 -2.90100 44.23400
C  25.07500 -1.94200 43.23600
C  23.59400 -2.52200 42.96100
C  23.40500 -3.61200 43.95100
C  22.36000 -1.49600 42.97400
C  26.01000 -1.94900 42.00500
C  26.07100 -0.61700 41.27700
H  25.53600 -0.45400 39.84600
N  22.78200 -5.92100 45.83800
C  21.96800 -5.46700 44.86400
C  20.78200 -6.21100 44.80000
C  21.02600 -7.34700 45.66400
C  22.32900 -7.12700 46.24400
C  19.54800 -5.86100 43.94200
C  20.03400 -8.41700 45.86400
O  18.99900 -8.43800 45.23200
C  20.09400 -9.53400 46.99800
N  25.18400 -7.00400 47.38500
C  24.25500 -8.01800 47.67000
C  24.89300 -9.24600 48.27600
C  26.40900 -8.81500 48.50300
C  26.43700 -7.43100 47.84800
C  24.19800 -9.70400 49.60600
C  27.53300 -9.89000 48.10800
C  28.53400 -10.38200 49.12400
N  26.67700 -4.82500 46.52400
C  27.72900 -5.40800 47.20200
C  28.90500 -4.65500 47.11500
C  28.55200 -3.59100 46.28800
C  27.20000 -3.71400 45.92200
C  30.11500 -4.79400 47.95400
C  29.09400 -2.35300 45.72100
O  30.23800 -1.95400 45.73800
C  27.91100 -1.78200 44.81800
C  27.63000 -0.40600 45.29500
O  26.93900 -0.11400 46.29500
O  28.10700 0.49800 44.41100
C  27.89800 1.91000 44.85400
H  21.33200 -4.14900 43.37700
H  22.40200 -8.95800 47.13800
H  28.37500 -7.16800 48.25700
H  24.97300 -0.90900 43.57000
H  23.58400 -3.00000 41.98200
H  21.57600 -1.85700 43.64000
H  21.98900 -1.42300 41.95200
H  22.65800 -0.46600 43.16900
H  25.55000 -2.64800 41.30600
H  27.02400 -2.25400 42.26500
H  27.11600 -0.31100 41.32800
H  25.51800 0.14300 41.82900
H  19.48300 -6.48700 43.05300
H  19.49300 -4.79200 43.73300
H  18.69800 -6.12800 44.56900
H  19.10900 -9.99500 47.07300
H  20.40500 -9.14100 47.96600
H  20.75600 -10.32100 46.63600
H  24.86200 -10.03200 47.52100
H  26.51000 -8.54100 49.55300
H  24.69500 -9.44800 50.54200
H  24.05500 -10.78100 49.52100
H  23.22600 -9.24200 49.78400
H  28.09700 -9.38000 47.32600
H  27.06400 -10.72400 47.58600
H  29.51600 -10.20300 48.68600
H  28.30700 -11.41900 49.37000
H  28.40400 -9.78900 50.02900
H  29.98400 -4.23600 48.88100
H  30.99700 -4.32700 47.51800
H  30.22700 -5.84800 48.20900
H  28.23100 -1.76800 43.77700
H  27.92700 2.01900 45.93800
H  26.96100 2.32100 44.47700
H  28.66600 2.50900 44.36600
Mg -12.46300 38.48800 41.30500
C  -10.35900 35.74600 40.35500
C  -10.17900 40.56600 39.68100
C  -14.69700 40.87800 41.32500
C  -14.81900 36.05600 42.31400
N  -10.42600 38.19700 40.31700
C  -9.73600 36.99700 40.07800
C  -8.47200 37.18700 39.34000
C  -8.31000 38.73000 39.27100
C  -9.73800 39.23600 39.81700
C  -7.15200 39.39600 40.03200
C  -8.42100 36.44400 37.95700
C  -7.22200 35.47900 37.74700
H  -6.29600 35.82800 36.52700
N  -12.47000 40.57200 40.75700
C  -11.42100 41.21100 40.05600
C  -11.75700 42.64900 39.99700
C  -13.07100 42.75300 40.37600
C  -13.49300 41.36600 40.89800
C  -10.86700 43.63500 39.22100
C  -13.93100 43.95200 40.22300
O  -13.36900 45.01800 39.87600
C  -15.34700 43.88200 40.31100
N  -14.37100 38.43500 41.72200
C  -15.15900 39.59600 41.59200
C  -16.64400 39.41100 42.02200
C  -16.69900 37.81400 42.26800
C  -15.23600 37.37700 42.13600
C  -17.15800 40.32800 43.11600
C  -17.68900 37.07500 41.35400
C  -18.84400 36.13400 41.97100
N  -12.66100 36.34700 41.31100
C  -13.55500 35.52500 41.95300
C  -13.08600 34.12600 41.87100
C  -11.88200 34.20000 41.19000
C  -11.59200 35.56000 40.94900
C  -13.71000 32.95600 42.56500
C  -10.78000 33.45100 40.76000
O  -10.71400 32.18800 40.80000
C  -9.73200 34.38400 40.23300
C  -8.50600 34.16600 41.03200
O  -7.62300 33.47900 40.61400
O  -8.43200 34.88600 42.19900
C  -7.13700 34.86600 42.84200
H  -9.54700 41.09200 38.96200
H  -15.41000 41.70200 41.40900
H  -15.44700 35.26400 42.72600
H  -7.65800 36.90400 40.00800
H  -8.29500 39.03000 38.22300
H  -6.49600 38.69600 40.55100
H  -7.63600 40.01700 40.78600
H  -6.60400 39.94500 39.26700
H  -8.43300 37.16500 37.14000
H  -9.30500 35.82900 37.78400
H  -7.49800 34.46600 37.45200
H  -6.56800 35.46800 38.61900
H  -10.61800 44.42300 39.93100
H  -11.35700 44.05600 38.34300
H  -9.89500 43.22400 38.94900
H  -15.48100 44.10400 41.37000
H  -15.84000 43.02000 39.86100
H  -15.76400 44.76600 39.82900
H  -17.11300 39.62100 41.06100
H  -16.87300 37.61100 43.32500
H  -16.51700 41.05900 43.60900
H  -17.51800 39.75100 43.96700
H  -18.12300 40.69900 42.77000
H  -17.02100 36.45400 40.75700
H  -18.14300 37.86800 40.76000
H  -19.80800 36.54100 41.66700
H  -18.75500 36.14800 43.05700
H  -18.64200 35.16100 41.52300
H  -14.61400 32.50300 42.15900
H  -14.00800 33.31500 43.55000
H  -12.96800 32.18300 42.76500
H  -9.63100 34.06800 39.19500
H  -6.40500 35.48600 42.32400
H  -6.83300 33.86300 43.14200
H  -7.35100 35.49400 43.70700

