158

Mg 25.43900 1.99300 29.99800
C  27.41500 1.55700 32.82500
C  22.55100 1.78800 32.03200
C  23.52200 1.92500 27.22100
C  28.29500 1.30300 27.90900
N  25.02500 1.78800 32.21200
C  26.05500 1.67400 33.11100
C  25.43400 1.68200 34.52900
C  23.86000 1.53000 34.31300
C  23.77700 1.70500 32.75500
C  23.23400 0.18100 34.80200
C  25.71500 2.99100 35.24700
C  26.37900 2.96300 36.65200
H  25.76700 3.79300 37.75600
N  23.33300 1.93500 29.67300
C  22.33600 1.91700 30.64700
C  21.07200 1.87600 29.93100
C  21.34400 1.76300 28.55100
C  22.76700 1.85300 28.43200
C  19.77500 1.68100 30.67400
C  20.37300 1.38500 27.41900
O  20.73900 1.21600 26.26300
C  18.94700 1.17400 27.66100
N  25.81700 1.74700 27.92000
C  24.87300 1.87800 26.99400
C  25.45600 2.10000 25.56900
C  26.92400 1.73700 25.75600
C  27.06100 1.62900 27.25900
C  24.75800 1.46100 24.31200
C  28.03700 2.68500 25.10700
C  27.88500 4.16100 25.51600
N  27.54200 1.68600 30.26200
C  28.49700 1.31600 29.36700
C  29.57200 0.86100 30.11100
C  29.26800 0.98500 31.43100
C  27.98300 1.53100 31.51700
C  30.87400 0.49000 29.59200
C  29.78800 0.80000 32.78700
O  30.89500 0.36800 33.21100
C  28.61500 1.29900 33.78600
C  28.34100 0.18400 34.78700
O  27.74600 -0.79600 34.43900
O  28.80000 0.63900 35.98800
C  28.78700 -0.40000 37.03100
H  21.64300 1.78300 32.63800
H  22.83900 2.10400 26.38900
H  29.06000 1.10100 27.15600
H  25.79100 0.78800 35.04000
H  23.24900 2.35800 34.67200
H  23.64500 -0.67000 34.26100
H  22.18600 0.17900 34.50300
H  23.26400 -0.08900 35.85800
H  24.76900 3.52600 35.33300
H  26.35800 3.67600 34.69500
H  27.39100 3.36900 36.66100
H  26.48800 1.95800 37.06000
H  19.22400 0.76500 30.46300
H  19.16200 2.52900 30.36900
H  19.90300 1.91400 31.73200
H  18.42900 1.98800 28.16900
H  18.91400 0.29200 28.30100
H  18.39200 0.92000 26.75800
H  25.39800 3.16800 25.35900
H  27.14100 0.82600 25.19900
H  23.70400 1.30600 24.54200
H  25.18800 0.48400 24.08900
H  24.74700 2.15600 23.47200
H  27.82700 2.62500 24.03900
H  29.06300 2.34500 25.25200
H  28.77500 4.67900 25.87300
H  27.05700 4.26800 26.21700
H  27.59300 4.64600 24.58400
H  31.22700 1.34700 29.01900
H  30.69200 -0.41000 29.00300
H  31.52500 0.25900 30.43500
H  28.84700 2.13600 34.44400
H  27.76500 -0.44700 37.40900
H  29.47900 -0.13100 37.82900
H  29.15400 -1.35100 36.64500
Mg -11.41500 37.47700 43.09000
C  -9.09400 35.04100 42.20300
C  -9.58800 39.78700 41.41100
C  -14.15800 39.52600 43.11800
C  -13.60900 34.77600 44.10400
N  -9.57800 37.37100 41.85000
C  -8.84100 36.26700 41.52800
C  -7.60700 36.51500 40.78500
C  -7.62700 38.10200 40.69400
C  -9.02100 38.48000 41.41200
C  -6.39400 38.78400 41.30400
C  -7.55400 35.83400 39.34300
C  -6.65200 34.70000 39.08400
H  -5.49000 34.94400 38.12600
N  -11.79200 39.40000 42.38900
C  -10.85000 40.24400 41.73800
C  -11.39000 41.59000 41.60300
C  -12.75700 41.49400 42.05800
C  -12.99000 40.13100 42.54900
C  -10.60900 42.76900 40.99900
C  -13.74100 42.63100 42.06300
O  -13.33300 43.69600 41.74100
C  -15.25100 42.47500 42.31900
N  -13.57100 37.11200 43.51500
C  -14.37800 38.22000 43.64800
C  -15.80700 37.86000 44.11100
C  -15.71800 36.29500 44.24200
C  -14.23400 35.98100 43.92300
C  -16.28800 38.61100 45.37400
C  -16.66000 35.43700 43.34900
C  -17.48700 34.38200 44.07900
N  -11.36000 35.41200 43.37800
C  -12.26500 34.42800 43.83900
C  -11.57100 33.13600 43.95900
C  -10.36700 33.34100 43.21600
C  -10.29400 34.69500 42.88800
C  -12.11200 31.80200 44.53100
C  -9.17000 32.69400 42.86800
O  -8.63800 31.62100 43.04700
C  -8.27700 33.76600 42.28900
C  -7.19100 33.97700 43.32600
O  -7.32900 34.38300 44.47100
O  -5.91600 33.84300 42.76900
C  -4.76100 34.33800 43.57200
H  -8.98000 40.59100 40.99000
H  -14.93300 40.22800 43.43500
H  -14.29600 33.95500 44.32400
H  -6.84400 36.29800 41.53300
H  -7.67200 38.46300 39.66700
H  -5.89300 39.30400 40.48800
H  -5.64200 38.09300 41.68400
H  -6.72100 39.59100 41.96000
H  -7.36100 36.66000 38.65900
H  -8.58300 35.58500 39.08700
H  -7.16400 33.77500 38.81800
H  -6.20900 34.46200 40.05100
H  -11.15200 43.20000 40.15800
H  -9.65300 42.47300 40.56800
H  -10.34000 43.46900 41.79000
H  -15.74000 43.41000 42.04400
H  -15.48200 42.18800 43.34500
H  -15.61000 41.74300 41.59600
H  -16.40400 38.21300 43.27000
H  -15.84000 36.02500 45.29100
H  -15.57600 39.34300 45.75600
H  -16.60900 38.18700 46.32500
H  -17.16400 39.22500 45.16500
H  -16.08700 34.79000 42.68500
H  -17.32200 36.05400 42.74200
H  -17.44300 33.40700 43.59400
H  -18.54300 34.64900 44.03800
H  -17.19500 34.34000 45.12800
H  -12.54000 31.13600 43.78100
H  -12.93100 32.01400 45.21900
H  -11.32000 31.21700 44.99900
H  -7.84800 33.40600 41.35300
H  -3.82500 34.46600 43.02900
H  -4.53600 33.53300 44.27200
H  -4.95300 35.28000 44.08500

