158

Mg 47.57100 15.37200 28.44000
C  45.22800 15.03800 31.22300
C  49.37000 17.49900 30.45600
C  49.34700 16.18100 25.67200
C  45.03800 13.88400 26.49500
N  47.15400 16.28700 30.53100
C  46.33700 15.86800 31.48800
C  46.84800 16.30100 32.81500
C  47.85100 17.44300 32.54300
C  48.15300 17.06400 31.12100
C  47.29400 18.89500 32.40900
C  47.50100 15.20000 33.66800
C  47.43400 15.36100 35.18700
H  48.73400 15.47600 35.96300
N  49.27000 16.43100 28.19900
C  49.86700 17.27300 29.12300
C  51.00900 17.88400 28.60200
C  51.03300 17.57500 27.24800
C  49.84000 16.70100 26.95200
C  51.93600 18.87900 29.36800
C  52.03300 18.05300 26.17900
O  51.92300 17.65000 25.03100
C  53.18900 18.98600 26.40900
N  47.23100 15.03600 26.38300
C  48.20200 15.44900 25.45000
C  47.85400 14.82000 24.12700
C  46.50000 14.08700 24.40500
C  46.25500 14.24400 25.87600
C  47.89900 15.82900 23.00500
C  46.26100 12.67100 23.85600
C  47.14600 11.54300 24.33600
N  45.61700 14.57300 28.75100
C  44.73400 13.95500 27.86400
C  43.54400 13.37300 28.55600
C  43.80200 13.70700 29.89300
C  44.99100 14.49500 29.96400
C  42.46500 12.56400 27.88600
C  43.27800 13.51000 31.18400
O  42.24400 12.98200 31.53700
C  44.26200 14.41100 32.19300
C  43.36300 15.38900 32.78700
O  42.46100 15.96600 32.20500
O  43.65200 15.43000 34.12900
C  42.69300 16.24100 34.95400
H  49.90900 18.04000 31.23700
H  49.91400 16.43100 24.77300
H  44.31600 13.33600 25.88700
H  46.06100 16.76500 33.40900
H  48.83400 17.43600 33.01500
H  47.48300 19.38400 31.45300
H  47.80000 19.46200 33.19100
H  46.22000 18.90600 32.59200
H  48.55000 15.18400 33.37500
H  47.06200 14.21800 33.48700
H  46.79300 14.53400 35.49400
H  46.91200 16.30600 35.33700
H  51.83700 19.86400 28.91300
H  52.91100 18.44000 29.15800
H  51.73700 18.93800 30.43800
H  53.84000 18.95800 25.53500
H  53.70900 18.56600 27.27100
H  52.86600 20.00300 26.62900
H  48.66600 14.10800 23.97700
H  45.65700 14.60600 23.94800
H  47.00900 15.69900 22.39000
H  48.73400 15.60800 22.34000
H  47.96000 16.83200 23.42700
H  46.50100 12.73000 22.79500
H  45.24800 12.30000 24.01500
H  46.46200 10.82000 24.78000
H  47.87700 11.89500 25.06500
H  47.61900 11.08000 23.47000
H  42.66300 12.03300 26.95500
H  41.69400 13.29600 27.64600
H  42.31800 11.83900 28.68600
H  44.71200 13.81400 32.98700
H  42.20700 17.07600 34.44900
H  43.40500 16.61300 35.69100
H  41.92000 15.62900 35.41800
Mg 45.93200 34.14200 28.00400
C  44.51200 32.06200 30.50000
C  45.67200 36.83400 30.12900
C  47.17900 36.18600 25.65300
C  45.95800 31.40000 25.87900
N  45.10900 34.38400 30.04900
C  44.84000 33.38400 30.92800
C  44.87600 33.90000 32.36400
C  44.88400 35.49500 32.17400
C  45.21400 35.58800 30.70600
C  43.65500 36.29000 32.63600
C  46.06600 33.25400 33.23900
C  46.96800 34.18300 33.97800
H  46.58000 34.67500 35.38000
N  46.32300 36.19800 27.93600
C  46.15200 37.09500 28.90800
C  46.66300 38.40700 28.53200
C  47.21200 38.31100 27.22600
C  46.89600 36.85600 26.87100
C  46.60200 39.55500 29.46400
C  47.91100 39.43700 26.28700
O  48.23300 39.25200 25.10100
C  48.07700 40.81600 26.86000
N  46.33600 33.90500 25.95000
C  46.89600 34.88800 25.24800
C  47.45800 34.30800 23.86500
C  47.12500 32.76300 23.98400
C  46.41900 32.66600 25.33700
C  46.87700 34.94000 22.62500
C  48.28100 31.80500 23.90100
C  48.28200 31.00000 22.64900
N  45.28600 32.17900 28.05000
C  45.44600 31.17300 27.16700
C  44.83500 29.94600 27.68600
C  44.54100 30.19300 29.01600
C  44.77500 31.59800 29.17600
C  44.66900 28.53200 26.96700
C  44.09800 29.59700 30.30600
O  43.92200 28.44600 30.63400
C  43.81900 30.84100 31.22500
C  44.14300 30.49500 32.63800
O  45.09200 29.83600 33.04300
O  43.15800 31.07700 33.41100
C  43.27700 30.89400 34.83800
H  45.81200 37.52800 30.96000
H  47.74100 36.82700 24.97100
H  45.86800 30.59200 25.14900
H  43.94200 33.62200 32.85100
H  45.74900 35.91600 32.68800
H  43.86500 36.85900 33.54200
H  42.78300 35.64800 32.76200
H  43.42800 37.11000 31.95500
H  46.66200 32.57100 32.63200
H  45.69400 32.64100 34.06000
H  47.51400 34.93800 33.41100
H  47.79800 33.50800 34.18700
H  47.59600 39.99400 29.38600
H  46.30500 39.26300 30.47100
H  45.84200 40.30600 29.24700
H  47.10400 41.27400 27.03600
H  48.77000 41.38800 26.24400
H  48.65800 40.79300 27.78200
H  48.54300 34.38000 23.93700
H  46.34300 32.48100 23.27900
H  47.32200 35.93000 22.52800
H  45.83400 35.17800 22.83100
H  47.05100 34.26600 21.78600
H  48.25700 31.12100 24.74900
H  49.18800 32.39300 24.04100
H  49.24700 30.58000 22.36300
H  47.87300 31.72100 21.94200
H  47.55300 30.19100 22.70200
H  45.43200 28.54800 26.18800
H  43.76600 28.33300 26.39000
H  44.93300 27.76900 27.69900
H  42.74400 31.00300 31.15000
H  43.51000 29.87600 35.15000
H  42.29400 30.99200 35.29700
H  43.97600 31.60400 35.27900

