158

Mg 8.28900 2.93400 28.30600
C  9.93500 1.52800 31.06800
C  6.38400 4.81100 30.57600
C  6.61700 4.47500 25.73700
C  9.89600 0.82600 26.18600
N  7.93100 2.87800 30.52000
C  8.88500 2.39000 31.42200
C  8.59100 2.86800 32.83000
C  7.34100 3.71400 32.68500
C  7.22600 3.80700 31.11400
C  6.00700 3.29200 33.40700
C  9.85400 3.53800 33.44000
C  9.60000 4.27200 34.74500
H  10.33700 3.73100 36.01300
N  6.70500 4.47900 28.18500
C  6.09600 5.10100 29.19900
C  5.15300 6.03200 28.71600
C  5.12200 5.93400 27.28200
C  6.21700 4.95500 27.00500
C  4.22600 6.76400 29.63700
C  4.19100 6.65900 26.37500
O  4.25500 6.43800 25.16600
C  3.19100 7.66300 26.87000
N  8.38800 2.81800 26.28200
C  7.49500 3.43900 25.38800
C  7.64200 2.88400 24.00100
C  8.88000 1.88200 24.07600
C  9.02700 1.75700 25.60500
C  6.38400 2.25700 23.38100
C  10.15000 2.28900 23.33400
C  10.25700 2.02400 21.81600
N  9.67400 1.44300 28.52900
C  10.24600 0.65700 27.53600
C  11.14200 -0.21500 28.16800
C  11.14100 0.12500 29.53000
C  10.22900 1.14100 29.70400
C  11.90800 -1.28100 27.51700
C  11.75100 -0.22200 30.87200
O  12.58600 -1.04600 31.14600
C  11.04100 0.78800 31.92000
C  10.50100 0.01400 33.09900
O  9.34800 -0.45500 33.13700
O  11.39700 0.13400 34.04900
C  10.91500 -0.38700 35.33600
H  5.96000 5.53500 31.27500
H  6.09200 4.82300 24.84500
H  10.41500 0.07700 25.58400
H  8.30800 1.99000 33.40900
H  7.41900 4.76100 32.97700
H  5.97300 2.22100 33.60700
H  5.13000 3.70500 32.90900
H  6.06800 3.83500 34.35100
H  10.46200 4.03900 32.68600
H  10.50600 2.72800 33.76700
H  8.55100 4.25200 35.04000
H  10.05700 5.25400 34.62300
H  4.06200 7.80600 29.36300
H  4.74700 6.78700 30.59400
H  3.30600 6.21200 29.83100
H  2.65800 8.06400 26.00800
H  3.75400 8.46500 27.34600
H  2.46800 7.08100 27.44200
H  7.99400 3.75700 23.45200
H  8.50800 0.88100 23.85200
H  5.84600 3.08500 22.92000
H  5.71400 1.81500 24.11900
H  6.73200 1.58700 22.59500
H  11.08300 1.92300 23.76400
H  10.27400 3.37100 23.39200
H  9.26000 1.73400 21.48400
H  10.91300 1.17300 21.63100
H  10.74800 2.82400 21.26300
H  11.46400 -2.27100 27.61600
H  12.89600 -1.23800 27.97600
H  12.14900 -1.00700 26.49000
H  11.61600 1.56400 32.42400
H  10.31800 0.31400 35.91900
H  11.72900 -0.58300 36.03500
H  10.33100 -1.30700 35.28900
Mg 1.71600 41.58200 25.24500
C  2.75100 41.62400 28.62900
C  -1.40100 40.49300 26.41700
C  1.00700 40.86600 22.09100
C  5.10500 42.34800 24.36400
N  0.82300 40.99500 27.28300
C  1.40000 41.21200 28.55500
C  0.32200 41.19100 29.61300
C  -0.87900 40.59700 28.85500
C  -0.47000 40.72100 27.38800
C  -1.27700 39.12300 29.38200
C  -0.03000 42.52400 30.36800
C  -0.21400 42.36100 31.85000
H  -1.51900 41.67700 32.32600
N  0.03100 40.82700 24.34100
C  -1.17500 40.54000 25.00700
C  -2.06700 40.00300 23.98500
C  -1.36600 40.05800 22.73500
C  -0.04200 40.62200 23.02200
C  -3.54500 39.44800 24.28300
C  -1.85800 39.48100 21.43500
O  -1.05900 39.19400 20.57600
C  -3.22500 39.05800 21.16900
N  2.92700 41.62800 23.60100
C  2.26000 41.44600 22.35500
C  3.13300 41.93200 21.15100
C  4.44100 42.53100 21.92700
C  4.14800 42.13300 23.37100
C  3.31900 40.94200 20.02800
C  4.47600 44.02300 21.76200
C  4.87300 44.45700 20.34800
N  3.58400 42.04700 26.22100
C  4.87300 42.29700 25.76300
C  5.70000 42.63600 26.89300
C  4.90800 42.44900 28.05200
C  3.60100 42.07000 27.57200
C  7.17400 42.93600 26.95400
C  4.91000 42.35800 29.53000
O  5.81700 42.56700 30.30900
C  3.55300 41.88500 29.97500
C  3.85000 40.63700 30.90300
O  4.20500 39.49500 30.53900
O  3.51500 41.01900 32.26100
C  3.64200 39.98200 33.21200
H  -2.42800 40.30400 26.73900
H  0.67900 40.78200 21.05300
H  6.09400 42.65000 24.01400
H  0.73500 40.45800 30.30700
H  -1.83100 41.12500 28.91500
H  -0.85700 38.86600 30.35400
H  -0.88300 38.36200 28.70700
H  -2.35300 38.97300 29.28900
H  -0.92900 42.95100 29.92300
H  0.71400 43.31200 30.25000
H  -0.11000 43.28400 32.42000
H  0.60200 41.72800 32.19800
H  -4.23600 39.66900 23.46900
H  -3.99500 39.77500 25.22000
H  -3.59400 38.36100 24.33700
H  -3.26600 38.34500 20.34500
H  -3.79500 39.96600 20.97000
H  -3.57400 38.43300 21.99000
H  2.42900 42.65100 20.73400
H  5.37700 42.08700 21.58900
H  3.16200 39.90400 20.32200
H  4.33200 40.86700 19.63300
H  2.57800 41.17500 19.26300
H  5.18100 44.52400 22.42500
H  3.49800 44.37700 22.08900
H  4.83700 43.60700 19.66600
H  5.89500 44.83100 20.40700
H  4.14200 45.18100 19.98800
H  7.73100 42.62200 26.07100
H  7.60100 42.55600 27.88200
H  7.25600 44.01200 27.10800
H  3.15700 42.77600 30.46200
H  4.57500 39.43900 33.06000
H  2.81300 39.29100 33.06200
H  3.48600 40.39500 34.20800

