158

Mg 8.92600 3.85700 27.94100
C  10.45500 2.34600 30.91600
C  7.14800 5.74600 30.03800
C  7.39500 5.11200 25.14900
C  10.41800 1.31400 26.04400
N  8.81700 3.98900 30.29500
C  9.43900 3.32900 31.27400
C  9.10800 3.93600 32.64800
C  7.96400 5.00000 32.29000
C  7.92900 4.88700 30.77900
C  6.56000 4.74000 33.00800
C  10.28100 4.57300 33.38100
C  10.38700 4.42200 34.91400
H  11.01600 5.61300 35.57800
N  7.40200 5.17300 27.62300
C  6.86500 5.96600 28.58400
C  6.04900 6.96500 28.06300
C  6.17000 6.83000 26.62600
C  7.05100 5.63400 26.38400
C  5.16500 7.86700 28.79900
C  5.47400 7.56900 25.53200
O  5.70300 7.37200 24.35800
C  4.60000 8.68500 25.87300
N  8.92800 3.35700 25.82200
C  8.23400 4.02200 24.86700
C  8.31200 3.28800 23.51500
C  9.41400 2.15500 23.78000
C  9.72300 2.36500 25.30000
C  7.00800 2.77200 22.93900
C  10.74800 2.15000 23.00100
C  11.22300 0.82800 22.35800
N  10.28200 2.33000 28.25600
C  10.71100 1.35100 27.38300
C  11.60000 0.45400 28.10900
C  11.59800 0.86000 29.41400
C  10.68800 1.95200 29.52900
C  12.38600 -0.69500 27.63400
C  12.20400 0.52100 30.72200
O  13.07800 -0.23200 31.04400
C  11.44900 1.49000 31.70300
C  10.78200 0.71500 32.77900
O  9.68300 0.21100 32.73800
O  11.62100 0.70200 33.79300
C  11.05100 0.27400 35.13000
H  6.63400 6.39600 30.74900
H  7.15300 5.59600 24.20100
H  10.98100 0.62700 25.41000
H  8.76300 3.08500 33.23500
H  8.16800 6.02400 32.60100
H  6.40700 3.69200 33.26900
H  5.75700 4.99200 32.31600
H  6.52200 5.32600 33.92600
H  10.16400 5.62900 33.14000
H  11.18200 4.23800 32.86600
H  10.96000 3.50900 35.07500
H  9.41500 4.25800 35.38000
H  5.25800 7.70700 29.87300
H  4.15200 7.71500 28.42700
H  5.43000 8.91300 28.64200
H  3.78600 8.16900 26.38200
H  4.09500 9.12600 25.01400
H  5.05100 9.41700 26.54200
H  8.63100 4.02000 22.77200
H  8.90400 1.19900 23.65600
H  7.03300 1.69900 22.74800
H  6.73000 3.30400 22.02900
H  6.12800 3.03100 23.52900
H  11.55400 2.29800 23.72000
H  10.77800 2.98400 22.30100
H  12.23100 0.61800 22.71500
H  11.36900 0.99900 21.29100
H  10.49900 0.09100 22.70700
H  12.65200 -0.68900 26.57700
H  11.77700 -1.59800 27.66200
H  13.32400 -0.76200 28.18600
H  12.28100 2.05700 32.12000
H  10.04900 0.70400 35.14300
H  11.51100 0.63900 36.04800
H  10.90700 -0.80600 35.16800
Mg 41.70100 40.69200 26.35100
C  40.95200 43.10300 28.89600
C  42.11400 38.33700 29.00100
C  42.68600 38.46600 24.14000
C  41.66800 43.16600 24.03300
N  41.42300 40.71000 28.77500
C  41.13300 41.78200 29.52500
C  40.97900 41.37200 30.98500
C  41.39200 39.81600 30.98000
C  41.69100 39.57300 29.49600
C  42.61200 39.41100 31.88200
C  39.54800 41.69000 31.41500
C  39.25700 42.74800 32.53700
H  38.49400 42.38500 33.89200
N  42.26900 38.66700 26.51800
C  42.48000 37.93300 27.66600
C  43.02800 36.63100 27.32500
C  43.20000 36.66000 25.91500
C  42.69800 37.95800 25.43500
C  43.34100 35.61400 28.29700
C  43.96300 35.65300 25.07500
O  44.10800 35.83000 23.85900
C  44.58300 34.33100 25.61700
N  42.21800 40.83100 24.40800
C  42.43700 39.74600 23.64800
C  42.45900 40.13600 22.02400
C  41.84800 41.51600 22.10900
C  41.97600 41.88400 23.55800
C  43.85400 39.94900 21.41800
C  40.39600 41.52300 21.55100
C  39.29200 40.80900 22.41200
N  41.29600 42.69200 26.39300
C  41.35700 43.59800 25.35400
C  41.14800 44.89600 25.84700
C  40.92100 44.71800 27.24800
C  41.04100 43.39300 27.51600
C  40.98300 46.19000 25.00000
C  40.54500 45.48300 28.43000
O  40.21700 46.67600 28.55500
C  40.59400 44.50100 29.55300
C  41.63200 45.07900 30.53800
O  42.75600 45.44000 30.25900
O  41.02900 45.17900 31.79500
C  41.82500 45.70800 32.85100
H  42.01800 37.65100 29.84500
H  43.00400 37.79100 23.34200
H  41.37200 43.85400 23.23900
H  41.59700 41.96400 31.66000
H  40.55300 39.13400 31.11300
H  43.42400 38.93800 31.33100
H  42.20000 38.69000 32.58800
H  42.95000 40.34400 32.33300
H  39.12600 40.76100 31.79900
H  38.92800 41.88300 30.54000
H  38.63100 43.55100 32.14700
H  40.22000 43.06800 32.93600
H  44.41400 35.47200 28.42600
H  42.84400 34.68900 28.00500
H  42.98800 35.96000 29.26900
H  44.88100 33.67400 24.80000
H  43.80000 33.87400 26.22200
H  45.44900 34.69600 26.17000
H  41.74800 39.52100 21.47200
H  42.37200 42.21300 21.45400
H  44.50600 39.99500 22.29000
H  44.12400 40.72100 20.69700
H  43.77800 39.08000 20.76500
H  40.41100 40.94300 20.62800
H  40.10200 42.54100 21.29500
H  39.49900 39.74800 22.55200
H  38.39900 40.94700 21.80300
H  39.08200 41.35400 23.33300
H  40.92400 47.11500 25.57300
H  40.07500 46.19300 24.39700
H  41.70000 46.23000 24.18000
H  39.61600 44.43900 30.03100
H  42.51300 46.47700 32.49900
H  42.40300 44.92900 33.34700
H  41.10700 46.20400 33.50400

