158

Mg 25.14800 1.44600 30.40800
C  27.27900 1.57500 33.42400
C  22.46800 1.55900 32.50600
C  23.27500 1.53500 27.70400
C  28.07000 1.18300 28.57700
N  24.97900 1.68800 32.73000
C  25.93500 1.75400 33.70100
C  25.27100 1.99900 35.03600
C  23.69100 1.92400 34.75100
C  23.69500 1.73100 33.24600
C  22.81900 1.00500 35.52900
C  25.82500 3.35300 35.72900
C  26.37100 3.12800 37.20000
H  25.90500 4.05900 38.30100
N  23.08900 1.57000 30.07100
C  22.12500 1.55900 31.09600
C  20.86900 1.72100 30.47900
C  21.05200 1.74700 29.06400
C  22.52800 1.65200 28.88100
C  19.54200 1.89500 31.16100
C  20.09000 1.81200 27.87800
O  20.48000 1.83300 26.70000
C  18.61100 1.72700 28.22200
N  25.63200 1.25100 28.48900
C  24.63600 1.49700 27.51700
C  25.25200 1.72100 26.10900
C  26.79400 1.43800 26.34700
C  26.88400 1.28400 27.87600
C  24.51600 0.84200 24.94100
C  27.73500 2.53400 25.71500
C  28.90200 1.95900 24.88700
N  27.29200 1.26900 30.84600
C  28.36700 1.15200 29.97300
C  29.53400 1.13000 30.73200
C  29.14900 1.28600 32.09300
C  27.77600 1.36200 32.09600
C  30.91600 1.08700 30.20200
C  29.72600 1.47800 33.46400
O  30.85700 1.61400 33.84700
C  28.47700 1.65300 34.40400
C  28.43000 0.53200 35.37000
O  27.98400 -0.56600 35.12200
O  28.93900 0.93100 36.54800
C  28.90700 0.17100 37.78700
H  21.66900 1.77500 33.21800
H  22.79400 1.47800 26.72500
H  28.93200 1.15000 27.90700
H  25.50700 1.10400 35.61200
H  23.26900 2.86300 35.10900
H  22.19300 0.35700 34.91600
H  22.14100 1.61400 36.12700
H  23.43700 0.38600 36.18100
H  25.04900 4.11800 35.69700
H  26.70500 3.82900 35.29800
H  27.39600 3.48100 37.08700
H  26.27900 2.05500 37.36800
H  19.04000 2.82900 30.90500
H  19.67100 2.08600 32.22600
H  18.83100 1.07200 31.08200
H  18.45700 0.81700 28.80200
H  17.96000 1.79200 27.35000
H  18.35200 2.58600 28.84000
H  25.09200 2.76300 25.83400
H  27.01500 0.46900 25.89900
H  23.88900 0.06300 25.37600
H  25.28600 0.32200 24.37100
H  23.94400 1.44600 24.23700
H  28.21400 3.15500 26.47200
H  27.11200 3.21500 25.13500
H  28.98500 0.87300 24.90200
H  29.85800 2.38200 25.19600
H  28.79800 2.20100 23.83000
H  31.48800 1.55700 31.00200
H  31.09500 1.59000 29.25100
H  31.13200 0.02200 30.12000
H  28.53800 2.62700 34.88900
H  28.05200 0.47300 38.39100
H  29.78500 0.21400 38.43100
H  28.90000 -0.88200 37.50500
Mg 37.09700 49.80900 25.05900
C  37.27900 47.95700 28.11400
C  35.49300 52.33700 26.94200
C  36.42800 51.50600 22.32300
C  38.36100 47.21200 23.43500
N  36.51100 50.14700 27.29500
C  36.85100 49.29800 28.29500
C  36.48600 49.91900 29.67300
C  35.67200 51.20300 29.32500
C  35.81200 51.24000 27.74100
C  34.17400 51.28400 29.76900
C  37.68500 50.13900 30.61700
C  37.54400 50.19000 32.13700
H  36.07600 50.03500 32.80400
N  36.23600 51.78800 24.67000
C  35.68100 52.69700 25.57600
C  35.24100 53.87500 24.93500
C  35.29800 53.56900 23.48300
C  36.00100 52.23800 23.40400
C  34.60900 55.06800 25.72400
C  34.91500 54.43500 22.25200
O  35.15300 54.14800 21.07500
C  34.35800 55.78300 22.52200
N  37.34500 49.41100 23.11100
C  37.08400 50.26800 22.13200
C  37.41500 49.62100 20.71800
C  38.11400 48.26200 21.11400
C  37.99200 48.30600 22.63700
C  36.17800 49.54700 19.83700
C  39.53300 48.30800 20.54200
C  40.53700 48.97800 21.55600
N  37.61600 47.95800 25.62600
C  38.22800 46.98700 24.79300
C  38.54700 45.77000 25.58100
C  38.14900 46.13300 26.90300
C  37.65100 47.43700 26.86400
C  39.08500 44.51800 25.01600
C  38.02700 45.66600 28.26100
O  38.27400 44.54900 28.68800
C  37.55500 46.84900 29.09700
C  36.24500 46.41200 29.81900
O  35.18300 46.24400 29.27300
O  36.49200 46.02200 31.09400
C  35.18200 45.62800 31.83600
H  35.10700 53.10600 27.61500
H  36.26300 51.93100 21.33100
H  38.79400 46.41200 22.83100
H  35.92600 49.07900 30.08200
H  36.17300 52.07800 29.74000
H  34.06900 52.07000 30.51700
H  33.98500 50.32900 30.25900
H  33.48400 51.42100 28.93600
H  38.10800 51.06800 30.23400
H  38.50100 49.45500 30.38700
H  37.97600 51.12300 32.50000
H  38.10100 49.33800 32.52700
H  34.44000 54.90400 26.78800
H  33.62500 55.23900 25.28700
H  35.12000 55.99700 25.47100
H  35.14000 56.45900 22.87000
H  33.63500 55.56000 23.30600
H  33.83200 56.34700 21.75100
H  38.21400 50.21100 20.26800
H  37.56600 47.41700 20.69900
H  35.31900 50.17800 20.06400
H  35.90000 48.50200 19.70200
H  36.46200 49.89800 18.84500
H  39.64000 48.77300 19.56200
H  39.81300 47.26700 20.37900
H  40.16200 49.94100 21.90200
H  41.50800 49.08500 21.07200
H  40.67700 48.14000 22.23800
H  38.29600 43.84600 24.67800
H  39.74100 44.05700 25.75500
H  39.64400 44.77600 24.11600
H  38.18500 47.20300 29.91300
H  34.47100 46.44100 31.69100
H  35.47300 45.38800 32.85900
H  34.89700 44.67400 31.39200

