158

Mg 24.16000 -4.70500 45.79100
C  26.09900 -2.39300 44.15000
C  21.49700 -3.79000 43.75700
C  22.54600 -7.36700 46.82100
C  27.09100 -5.94500 47.45900
N  23.86200 -3.23000 44.16600
C  24.77400 -2.36100 43.69700
C  24.10400 -1.29100 42.70400
C  22.59500 -1.63100 42.91500
C  22.61300 -2.96900 43.65200
C  21.82000 -0.54300 43.60700
C  24.70200 -1.54700 41.26000
C  25.08400 -0.27900 40.52600
H  24.69200 -0.09500 39.05100
N  22.27400 -5.46900 45.39000
C  21.34200 -4.95700 44.50700
C  20.15300 -5.73900 44.68300
C  20.32600 -6.81300 45.59100
C  21.74100 -6.61400 45.95900
C  18.93400 -5.24300 43.95400
C  19.32300 -7.87600 45.97100
O  18.16200 -7.96200 45.50300
C  19.61500 -8.81400 47.23000
N  24.81900 -6.55100 46.92100
C  23.83700 -7.38200 47.29700
C  24.41800 -8.52700 48.22000
C  25.88200 -8.02600 48.43300
C  25.96200 -6.73800 47.64500
C  23.41700 -8.93100 49.30600
C  26.98200 -9.03600 48.24800
C  27.53000 -9.26700 46.86100
N  26.18500 -4.26600 45.84000
C  27.23800 -4.81000 46.62400
C  28.40400 -4.04400 46.43100
C  28.04000 -3.13800 45.46700
C  26.66900 -3.26100 45.15800
C  29.75500 -4.27300 47.09700
C  28.47900 -2.07000 44.68100
O  29.59600 -1.57300 44.72100
C  27.27400 -1.52500 43.77400
C  27.07700 -0.07700 44.06200
O  26.33200 0.38800 44.94000
O  27.93400 0.67800 43.28000
C  27.83900 2.07700 43.46700
H  20.68100 -3.54800 43.07300
H  22.03000 -8.25900 47.18200
H  27.91200 -6.34500 48.05700
H  24.43400 -0.30600 43.03400
H  22.08800 -1.74700 41.95700
H  21.70000 -0.71700 44.67600
H  20.80100 -0.47700 43.22400
H  22.28600 0.43800 43.51000
H  23.96400 -2.01300 40.60700
H  25.48600 -2.30400 41.28900
H  26.15600 -0.16600 40.68400
H  24.77400 0.60000 41.09100
H  19.13000 -5.33400 42.88600
H  18.65500 -4.22200 44.21300
H  18.08700 -5.80800 44.34500
H  18.72000 -9.17500 47.73700
H  20.14400 -8.19000 47.95000
H  20.26800 -9.65400 46.99400
H  24.37000 -9.30600 47.46000
H  25.92800 -7.83300 49.50500
H  23.91600 -8.69700 50.24700
H  23.21200 -9.99000 49.14900
H  22.48900 -8.35900 49.28800
H  26.41200 -9.93300 48.49100
H  27.75300 -8.91700 49.00900
H  28.46300 -8.70500 46.89400
H  27.01100 -8.83000 46.00800
H  27.60900 -10.35400 46.85200
H  29.91700 -5.35000 47.07300
H  29.77500 -4.06600 48.16700
H  30.54100 -3.77200 46.53100
H  27.57400 -1.52300 42.72600
H  28.81600 2.48000 43.20100
H  27.57800 2.49900 44.43700
H  27.06100 2.41500 42.78200
Mg -11.56100 38.71900 40.68600
C  -9.26500 35.98000 40.15000
C  -9.31300 40.72800 39.17900
C  -13.74900 41.15300 41.02500
C  -13.81000 36.31800 41.81600
N  -9.55000 38.31000 39.72600
C  -8.92100 37.14300 39.52900
C  -7.58400 37.45600 38.66900
C  -7.57900 38.99500 38.51800
C  -8.83300 39.40200 39.26700
C  -6.21200 39.70100 38.87200
C  -7.67100 36.68500 37.23700
C  -6.53900 35.67300 36.97900
H  -5.47600 36.14700 36.06700
N  -11.53700 40.68200 40.18400
C  -10.54100 41.33200 39.57600
C  -10.90200 42.71000 39.38300
C  -12.23500 42.89600 39.82900
C  -12.59100 41.53600 40.36100
C  -9.92700 43.73300 38.89200
C  -12.95400 44.24000 39.85800
O  -12.39700 45.21100 39.47100
C  -14.33700 44.43500 40.35000
N  -13.48200 38.75500 41.26100
C  -14.14300 39.89500 41.42200
C  -15.59900 39.55600 41.99800
C  -15.61600 38.01100 42.16700
C  -14.21400 37.65200 41.73600
C  -16.11000 40.43500 43.17100
C  -16.60300 37.18200 41.31100
C  -17.49500 36.13400 42.10900
N  -11.49200 36.58400 41.15400
C  -12.57600 35.80000 41.56200
C  -12.07700 34.37700 41.62400
C  -10.75300 34.42100 41.15400
C  -10.50200 35.73500 40.78400
C  -12.88100 33.25500 42.13100
C  -9.63200 33.63800 40.78600
O  -9.49600 32.43100 40.83300
C  -8.56100 34.60000 40.24200
C  -7.27300 34.51800 41.11100
O  -6.62600 33.48400 41.22000
O  -6.89700 35.77500 41.51500
C  -5.82600 35.91800 42.49500
H  -8.65900 41.38900 38.60600
H  -14.44300 41.99000 41.12300
H  -14.55800 35.65000 42.24900
H  -6.71300 37.06500 39.19500
H  -7.71200 39.36300 37.50000
H  -5.81900 40.07400 37.92700
H  -5.57200 38.97700 39.37700
H  -6.54300 40.47900 39.56000
H  -7.64100 37.31900 36.35100
H  -8.59800 36.11600 37.17600
H  -6.94000 34.68900 36.73400
H  -6.01800 35.49400 37.92000
H  -10.39700 44.13900 37.99600
H  -8.89100 43.43700 38.72600
H  -10.02200 44.54200 39.61500
H  -14.78500 45.41500 40.18600
H  -14.42300 44.28600 41.42700
H  -15.00200 43.75100 39.82200
H  -16.24000 39.81500 41.15600
H  -15.77500 37.75400 43.21400
H  -15.31600 41.03900 43.60700
H  -16.54800 39.77900 43.92400
H  -16.80700 41.20800 42.84600
H  -16.12500 36.69200 40.46200
H  -17.27000 37.90600 40.84400
H  -17.69400 35.22200 41.54700
H  -18.36100 36.68900 42.47000
H  -16.97800 35.73300 42.98000
H  -12.41800 32.98800 43.08000
H  -12.73200 32.49100 41.36700
H  -13.93400 33.44800 42.33900
H  -8.35900 34.16600 39.26300
H  -6.25100 36.57700 43.25200
H  -4.91100 36.40100 42.15300
H  -5.74400 34.93200 42.95100

