158

Mg 45.98100 25.81300 27.78200
C  47.12800 28.11500 30.27600
C  45.32900 23.64700 30.17100
C  45.73300 23.51100 25.35300
C  47.55100 27.91100 25.38200
N  46.11000 25.96100 30.01900
C  46.42100 27.00200 30.77800
C  46.01300 26.75600 32.30400
C  45.52700 25.19300 32.25100
C  45.61100 24.92500 30.73400
C  46.41000 24.14400 33.03600
C  44.85700 27.65600 32.80300
C  45.28500 28.65000 33.89500
H  44.41600 28.77200 35.17100
N  45.39400 23.93100 27.82000
C  45.15400 23.17600 28.86900
C  44.57400 21.90600 28.51400
C  44.70200 21.84200 27.08600
C  45.26900 23.15700 26.67000
C  44.06100 20.86700 29.51500
C  44.18400 20.73800 26.15600
O  44.18400 20.85800 24.94500
C  43.74400 19.39400 26.71500
N  46.55800 25.80100 25.54900
C  46.33200 24.64000 24.80400
C  46.57300 24.99400 23.29200
C  47.10600 26.44700 23.34000
C  47.04200 26.76200 24.81500
C  47.45700 24.09200 22.56100
C  46.36200 27.46600 22.41400
C  47.33300 28.13400 21.40600
N  47.00700 27.72300 27.78000
C  47.57600 28.41500 26.74700
C  48.28200 29.51200 27.27800
C  48.14100 29.47400 28.65500
C  47.37200 28.32400 28.92600
C  49.13700 30.55200 26.50200
C  48.35200 30.16500 29.89700
O  48.90400 31.23500 30.13200
C  47.78000 29.24700 31.02500
C  48.85600 28.90800 31.95600
O  49.82300 28.17900 31.75800
O  48.61400 29.62400 33.11400
C  49.50700 29.30200 34.23400
H  45.32200 22.86300 30.93000
H  45.55800 22.80300 24.54000
H  48.07000 28.51700 24.63600
H  46.92500 26.91000 32.88100
H  44.49500 25.18900 32.60000
H  45.70600 23.73300 33.76000
H  47.22600 24.61200 33.58700
H  46.91700 23.40000 32.42200
H  44.08400 26.98300 33.17300
H  44.39700 28.21400 31.98700
H  45.30900 29.67600 33.52800
H  46.32200 28.45000 34.16200
H  44.71500 19.99500 29.54000
H  43.07500 20.53600 29.18800
H  43.88300 21.34300 30.47900
H  44.38400 19.03100 27.51800
H  43.79000 18.66400 25.90700
H  42.72500 19.42600 27.10200
H  45.55500 24.80900 22.94700
H  48.17000 26.31100 23.14800
H  48.18500 23.63200 23.23000
H  47.91300 24.66000 21.75000
H  46.89700 23.27900 22.09800
H  45.87900 28.16500 23.09800
H  45.57900 26.85900 21.95800
H  46.86800 28.15400 20.42000
H  48.24300 27.53800 21.47500
H  47.51800 29.19000 21.60100
H  48.79900 30.52000 25.46600
H  50.12600 30.09300 26.50200
H  49.12900 31.58100 26.86200
H  47.00200 29.81200 31.53800
H  50.54100 29.30100 33.88900
H  49.38800 28.35200 34.75600
H  49.43300 30.18100 34.87500
Mg -5.84800 24.63300 25.67300
C  -4.55800 25.78600 28.81300
C  -8.08200 22.70500 27.23700
C  -6.62300 23.26000 22.67900
C  -3.27800 26.60200 24.14600
N  -6.09600 24.21400 27.82000
C  -5.55400 24.81600 28.93400
C  -6.14400 24.18300 30.18900
C  -7.31300 23.31300 29.69100
C  -7.17400 23.38900 28.14000
C  -7.24300 21.86000 30.33200
C  -6.61100 25.26000 31.15500
C  -6.24700 25.23100 32.66000
H  -5.51600 24.01800 33.20700
N  -7.28800 23.24200 25.04400
C  -8.15400 22.62800 25.85800
C  -9.06900 21.81300 25.07100
C  -8.57100 21.86900 23.69200
C  -7.44800 22.79300 23.76700
C  -10.09600 20.92900 25.75200
C  -8.96100 21.14000 22.42300
O  -8.35300 21.16800 21.35000
C  -10.07900 20.18300 22.41600
N  -5.05900 24.84800 23.69700
C  -5.57600 24.19000 22.63300
C  -4.80200 24.55600 21.30400
C  -3.69700 25.51900 21.85900
C  -4.01000 25.66700 23.34200
C  -4.38600 23.25800 20.66600
C  -3.61800 26.88700 21.06500
C  -2.24800 27.11900 20.30100
N  -4.23700 25.96000 26.26000
C  -3.39000 26.75200 25.52000
C  -2.65700 27.56200 26.39400
C  -3.14400 27.26100 27.67700
C  -4.06200 26.24500 27.56400
C  -1.55000 28.44800 25.97900
C  -3.02700 27.66300 29.06200
O  -2.36200 28.55500 29.58800
C  -3.86400 26.67600 29.87000
C  -2.88000 25.90800 30.68400
O  -2.27200 24.90500 30.25500
O  -2.74300 26.33400 31.96400
C  -1.65900 25.83400 32.76100
H  -8.87400 22.13000 27.72200
H  -7.02600 22.92000 21.72200
H  -2.49600 27.22700 23.71000
H  -5.43100 23.57300 30.74300
H  -8.30800 23.72300 29.86200
H  -8.23400 21.53100 30.64400
H  -6.49000 21.79500 31.11700
H  -6.87100 21.19000 29.55700
H  -7.69800 25.28000 31.07000
H  -6.31900 26.20200 30.69100
H  -7.19800 25.42200 33.15600
H  -5.68000 26.12700 32.91500
H  -10.82500 20.62100 25.00200
H  -10.71200 21.34800 26.54800
H  -9.56800 20.06800 26.16000
H  -9.85800 19.44500 23.18700
H  -10.01800 19.63500 21.47500
H  -11.07000 20.62600 22.51600
H  -5.48200 25.15400 20.69600
H  -2.73200 25.01200 21.86600
H  -4.83600 22.32000 20.99100
H  -3.30400 23.22300 20.79300
H  -4.57400 23.33000 19.59500
H  -3.76900 27.73300 21.73400
H  -4.46200 26.90600 20.37500
H  -1.69600 26.19900 20.49200
H  -1.72000 28.02500 20.59900
H  -2.41300 27.19800 19.22600
H  -0.75100 27.85000 25.54200
H  -1.06500 28.86500 26.86200
H  -1.95700 29.20900 25.31400
H  -4.58100 27.31500 30.38400
H  -1.81700 24.81000 33.10100
H  -1.63700 26.52100 33.60700
H  -0.73600 25.77900 32.18500

