158

Mg 25.68000 1.65700 29.14600
C  27.63200 1.23400 32.17300
C  22.95000 1.76000 31.15100
C  24.00400 1.61200 26.37100
C  28.64100 0.86600 27.20600
N  25.30500 1.42800 31.42300
C  26.25700 1.37500 32.40700
C  25.64200 1.57400 33.79800
C  24.11000 1.71600 33.46000
C  24.08000 1.57300 31.93300
C  23.08200 0.94100 34.32900
C  26.24100 2.64600 34.76500
C  25.38200 3.18800 35.85400
H  26.05700 3.37900 37.21800
N  23.73000 1.58800 28.79400
C  22.72100 1.62800 29.76200
C  21.50400 1.66500 29.04000
C  21.79000 1.70700 27.62500
C  23.24700 1.56600 27.53800
C  20.15100 1.64600 29.71700
C  20.83600 1.84000 26.39600
O  21.25400 1.78100 25.25300
C  19.32800 1.94600 26.58100
N  26.27700 1.23300 27.04900
C  25.36200 1.42500 26.08300
C  25.98300 1.61100 24.68800
C  27.49700 1.18100 24.91500
C  27.49200 0.99400 26.46300
C  25.31700 0.72700 23.57200
C  28.44400 2.42400 24.45600
C  28.50300 2.73100 22.98300
N  27.70000 1.33900 29.55700
C  28.79700 1.02500 28.66200
C  29.95000 0.82100 29.48700
C  29.57300 0.87400 30.79400
C  28.17900 1.19500 30.83500
C  31.32800 0.55600 28.87700
C  30.03200 0.81700 32.19500
O  31.13400 0.65200 32.74000
C  28.83900 1.26600 33.08100
C  28.80200 0.38900 34.27100
O  28.49200 -0.78100 34.18600
O  29.23500 1.10300 35.38300
C  29.25500 0.34800 36.64000
H  22.06200 1.89200 31.77200
H  23.40200 1.83800 25.48800
H  29.47400 0.57100 26.56500
H  25.66900 0.59400 34.27600
H  23.91400 2.76600 33.67800
H  22.60000 1.63600 35.01600
H  23.42300 0.16500 35.01400
H  22.25100 0.59800 33.71300
H  26.74000 3.43000 34.19500
H  27.10200 2.17200 35.23700
H  24.51500 2.58200 36.11600
H  25.05700 4.18100 35.54400
H  19.59700 2.58500 29.70200
H  20.31100 1.40500 30.76800
H  19.51000 0.86200 29.31400
H  19.28100 2.51800 27.50800
H  19.01200 0.91000 26.70400
H  18.75900 2.43800 25.79200
H  25.84700 2.62400 24.30900
H  27.79900 0.27000 24.39800
H  24.50200 0.11600 23.95900
H  26.05400 0.08900 23.08500
H  24.92200 1.36500 22.78100
H  29.44400 2.20600 24.83300
H  28.09900 3.29000 25.02000
H  28.94700 3.69200 22.72300
H  27.56200 2.47800 22.49500
H  29.20600 2.12100 22.41400
H  31.26800 0.63000 27.79100
H  31.59300 -0.45400 29.19000
H  31.99400 1.30800 29.30100
H  28.93600 2.28300 33.46100
H  28.33200 0.49000 37.20200
H  29.95700 0.68100 37.40400
H  29.36400 -0.72100 36.46000
Mg -11.48700 16.18300 41.36300
C  -8.27600 14.75600 41.28100
C  -10.11000 18.83700 39.59400
C  -14.54400 17.38400 40.85700
C  -12.74300 13.13600 42.51100
N  -9.33400 16.80100 40.71100
C  -8.21800 16.09400 40.73800
C  -7.01000 16.71200 39.96800
C  -7.60600 18.09100 39.51900
C  -9.10400 17.88300 39.89800
C  -6.94800 19.42700 40.11400
C  -6.65900 15.74200 38.78100
C  -5.21800 15.13800 38.78300
H  -4.34900 15.45100 37.62800
N  -12.18700 17.93900 40.47800
C  -11.49300 18.84000 39.75700
C  -12.35800 19.86500 39.30100
C  -13.65800 19.59900 39.69600
C  -13.51800 18.24700 40.37300
C  -11.80800 21.00000 38.41100
C  -14.86900 20.53300 39.44300
O  -14.68000 21.61300 38.93900
C  -16.21100 20.07500 39.86100
N  -13.39600 15.42200 41.68400
C  -14.49800 16.14900 41.46200
C  -15.74800 15.31000 41.75400
C  -15.16200 13.89100 42.10200
C  -13.67800 14.17900 42.15900
C  -16.61800 15.94900 42.89700
C  -15.42800 12.80900 41.02800
C  -16.53600 11.76000 41.33100
N  -10.71300 14.30200 42.00400
C  -11.35300 13.17000 42.37800
C  -10.39500 12.11100 42.53800
C  -9.10900 12.73800 42.18200
C  -9.36700 14.02900 41.90000
C  -10.74000 10.74100 42.99800
C  -7.71500 12.50900 42.09000
O  -7.15300 11.40300 42.14000
C  -7.12500 13.89100 41.64400
C  -6.33100 14.40200 42.71500
O  -6.73800 14.43600 43.85200
O  -5.15500 14.94400 42.32300
C  -4.38600 15.80800 43.18800
H  -9.63800 19.67500 39.07600
H  -15.56300 17.76700 40.77700
H  -13.10600 12.14400 42.78900
H  -6.15600 16.74900 40.64400
H  -7.55000 18.12800 38.43200
H  -5.97300 19.11600 40.49100
H  -7.60300 19.85900 40.87100
H  -6.70400 20.15300 39.33900
H  -6.73900 16.23200 37.81100
H  -7.40100 14.94300 38.76300
H  -5.27700 14.05300 38.86700
H  -4.64100 15.55500 39.60800
H  -11.14800 20.52800 37.68300
H  -11.29800 21.65800 39.11400
H  -12.55200 21.64800 37.94900
H  -16.90400 20.81000 39.45100
H  -16.10700 20.09100 40.94600
H  -16.55700 19.10400 39.50500
H  -16.36500 15.26100 40.85700
H  -15.50800 13.56700 43.08300
H  -17.50600 16.51200 42.61000
H  -15.99300 16.59500 43.51400
H  -16.93200 15.13500 43.55000
H  -14.46200 12.40300 40.72800
H  -15.74000 13.32000 40.11700
H  -16.82400 11.91300 42.37200
H  -16.24200 10.72600 41.15000
H  -17.31000 11.93500 40.58400
H  -11.14000 10.87500 44.00300
H  -9.83700 10.15900 43.18200
H  -11.43300 10.26900 42.30100
H  -6.45200 13.66000 40.81800
H  -3.66000 15.28900 43.81300
H  -5.02800 16.43800 43.80400
H  -3.75500 16.50100 42.63200

