158

Mg 47.48300 16.80300 28.31300
C  45.25600 16.35700 31.06500
C  49.53600 18.52200 30.22700
C  49.25500 17.49500 25.54100
C  45.34200 14.85800 26.42200
N  47.27200 17.46300 30.39700
C  46.38100 17.08400 31.36500
C  46.91500 17.50800 32.77400
C  48.23400 18.27100 32.41100
C  48.41400 18.12200 30.94600
C  48.15000 19.81300 32.80500
C  47.03900 16.34100 33.85000
C  46.57300 16.53000 35.30500
H  46.23600 17.86900 35.86200
N  49.29300 17.77700 27.93900
C  49.97200 18.43700 28.86800
C  51.09700 19.06000 28.28600
C  51.09100 18.75100 26.87600
C  49.85300 17.99400 26.68900
C  52.09700 19.79900 29.14900
C  52.02600 19.07500 25.85900
O  51.93900 18.68000 24.71400
C  53.25400 19.89000 26.27500
N  47.27800 16.25200 26.28200
C  48.16000 16.60900 25.34900
C  47.68600 16.20900 23.99400
C  46.47800 15.28200 24.22500
C  46.39500 15.36000 25.74100
C  47.29000 17.42800 23.13100
C  46.66400 13.78000 23.70000
C  45.43700 12.99900 23.18700
N  45.67100 15.91900 28.55600
C  44.87400 15.21000 27.70100
C  43.60900 14.76100 28.30400
C  43.76200 15.25700 29.57600
C  44.95000 15.91300 29.70700
C  42.48000 13.92700 27.69900
C  43.07900 15.16800 30.84400
O  42.06900 14.58000 31.18100
C  44.09200 15.84700 31.89500
C  43.22700 16.80600 32.60700
O  42.78800 17.87100 32.19600
O  42.92300 16.32600 33.87200
C  42.04100 17.14100 34.76300
H  50.25100 18.96800 30.92200
H  49.70100 17.76500 24.58200
H  44.50600 14.31300 25.97700
H  46.17500 18.18200 33.20600
H  49.01000 17.71100 32.93300
H  48.65900 20.39800 32.03900
H  48.91400 19.94900 33.57000
H  47.17200 20.19400 33.09800
H  48.07800 16.05600 33.68400
H  46.41900 15.51700 33.49500
H  47.18400 16.07400 36.08400
H  45.68300 15.90200 35.30600
H  52.29000 19.26500 30.07900
H  51.78800 20.81800 29.38600
H  53.10400 19.66500 28.75400
H  53.57300 20.38300 25.35700
H  54.04400 19.29100 26.72700
H  52.90100 20.75400 26.83900
H  48.46500 15.63600 23.49200
H  45.54000 15.70800 23.86800
H  47.04100 18.29100 23.74700
H  46.43900 17.17800 22.49700
H  48.09700 17.54900 22.40800
H  47.04400 13.07900 24.44300
H  47.36000 13.78200 22.86100
H  45.66600 12.72300 22.15800
H  44.54100 13.61900 23.20700
H  45.24200 12.08600 23.75000
H  42.82400 13.40800 26.80500
H  41.61000 14.49600 27.37300
H  42.04700 13.26600 28.45000
H  44.54900 15.22600 32.66600
H  41.08400 16.69400 35.03300
H  41.88600 18.14000 34.35600
H  42.58300 17.24400 35.70200
Mg 27.10000 50.44000 26.60200
C  24.95100 51.31600 29.31100
C  29.48800 49.74200 28.92600
C  28.97300 49.41100 24.08700
C  24.74700 51.75400 24.33900
N  27.15900 50.48200 28.83500
C  26.18200 50.76100 29.72700
C  26.62400 50.42800 31.21100
C  28.15900 50.04400 31.04200
C  28.29400 50.16800 29.51500
C  29.14800 50.94700 31.90500
C  25.79300 49.41400 31.93700
C  24.95100 49.82800 33.15900
H  24.97500 48.89800 34.48800
N  28.88500 49.63300 26.55100
C  29.71800 49.40400 27.63500
C  30.97100 48.80900 27.12200
C  30.91200 48.75600 25.64400
C  29.56000 49.29300 25.34200
C  32.15300 48.36200 28.01100
C  32.06900 48.55200 24.59900
O  31.88100 48.78100 23.40200
C  33.50200 48.09000 25.15800
N  26.95900 50.75200 24.46000
C  27.83800 50.19100 23.64100
C  27.51900 50.52200 22.20400
C  26.03300 51.03300 22.32600
C  25.87000 51.22400 23.75300
C  28.54500 51.56500 21.53600
C  24.94800 50.04700 21.67600
C  23.86500 50.69700 20.72900
N  25.30700 51.25500 26.68600
C  24.49200 51.73700 25.71600
C  23.27500 52.36200 26.33500
C  23.46900 52.17600 27.69100
C  24.70800 51.48400 27.93100
C  22.20600 53.14700 25.57700
C  22.82100 52.46400 28.94700
O  21.78000 52.93900 29.31300
C  23.72700 51.79900 30.04000
C  24.10700 52.75200 31.10500
O  24.84400 53.69800 30.90100
O  23.37400 52.47700 32.24700
C  23.22500 53.54600 33.25300
H  30.17800 49.34000 29.67000
H  29.38700 48.77800 23.29800
H  24.08700 52.13800 23.55800
H  26.47500 51.37000 31.73800
H  28.26700 48.97700 31.23800
H  29.90300 50.33800 32.40300
H  28.56400 51.38100 32.71600
H  29.71700 51.62300 31.26700
H  26.34800 48.53000 32.25200
H  24.96900 49.21900 31.25100
H  23.93300 49.82800 32.77100
H  25.27300 50.84600 33.37900
H  31.84300 48.36200 29.05600
H  32.90900 49.14300 28.08800
H  32.48100 47.35300 27.76000
H  33.93200 48.88900 25.76200
H  34.17200 48.07600 24.29900
H  33.56300 47.09100 25.58700
H  27.43800 49.55000 21.71800
H  25.98100 52.00900 21.84400
H  29.54000 51.54100 21.98100
H  28.22200 52.60100 21.63000
H  28.62500 51.20700 20.50900
H  24.38400 49.62800 22.51000
H  25.30200 49.23900 21.03600
H  22.86100 50.45900 21.07900
H  23.98500 50.39900 19.68700
H  23.92700 51.78500 20.72600
H  21.74400 52.66900 24.71300
H  22.59800 54.14000 25.35700
H  21.32500 53.21500 26.21400
H  23.10800 51.01800 30.48200
H  23.33200 54.48700 32.71200
H  23.66100 53.41500 34.24300
H  22.15000 53.52200 33.43100

