158

Mg 17.42700 -1.41000 27.74100
C  16.36500 0.46200 30.41300
C  19.46600 -3.29100 29.96700
C  18.68300 -3.15800 25.15900
C  15.76000 0.57900 25.60000
N  17.78200 -1.46700 29.92700
C  17.15300 -0.61600 30.84200
C  17.61200 -0.91200 32.23800
C  18.69000 -2.03600 32.07500
C  18.67800 -2.25600 30.52000
C  20.16300 -1.65600 32.51000
C  16.42400 -1.17300 33.31800
C  16.56500 -0.43300 34.69700
H  17.75000 -0.82700 35.55900
N  18.73000 -3.06000 27.60100
C  19.45000 -3.71200 28.62100
C  20.00100 -4.98800 28.12200
C  19.81600 -4.91800 26.73500
C  19.03800 -3.68900 26.45900
C  20.64000 -6.12100 28.95600
C  20.37100 -5.79600 25.69700
O  20.28700 -5.61700 24.49800
C  21.10300 -7.09500 26.08600
N  17.32300 -1.18600 25.66900
C  17.92400 -2.04500 24.78500
C  17.73500 -1.63300 23.29600
C  16.60100 -0.55100 23.54300
C  16.56000 -0.37900 25.02500
C  19.07500 -1.07000 22.64500
C  15.25100 -0.78000 22.95400
C  14.62100 0.36500 22.12700
N  16.28100 0.23200 27.89900
C  15.63600 0.93800 26.93600
C  14.86100 2.03300 27.59200
C  15.13900 1.87200 29.02000
C  16.02100 0.81700 29.11700
C  13.98300 3.01100 26.97800
C  14.85600 2.40400 30.28200
O  14.18100 3.40200 30.60700
C  15.67500 1.51200 31.25000
C  16.69400 2.36300 31.82600
O  17.80700 2.54300 31.41900
O  16.23000 2.96500 32.94200
C  17.26500 3.60500 33.84400
H  20.05100 -3.94700 30.61500
H  19.00700 -3.80400 24.34100
H  15.31400 1.21000 24.82900
H  18.20600 -0.06900 32.59100
H  18.31200 -2.97700 32.47400
H  20.07800 -0.66600 32.95800
H  20.89900 -1.63500 31.70600
H  20.57200 -2.39800 33.19500
H  16.36200 -2.23400 33.56300
H  15.48100 -0.96400 32.81300
H  15.61100 -0.57500 35.20700
H  16.50100 0.62700 34.45300
H  20.08200 -7.03500 28.75200
H  20.69000 -5.90400 30.02300
H  21.65500 -6.19700 28.56600
H  22.04600 -6.83900 26.56900
H  21.44700 -7.70800 25.25300
H  20.49500 -7.66700 26.78700
H  17.22100 -2.36000 22.66800
H  16.99500 0.37900 23.13300
H  19.90200 -0.99700 23.35100
H  18.97200 -0.04000 22.30200
H  19.40300 -1.71800 21.83200
H  14.56200 -1.13400 23.72100
H  15.29600 -1.60100 22.23900
H  13.74400 0.82100 22.58500
H  14.32500 0.04500 21.12800
H  15.29900 1.20800 21.99200
H  14.54900 3.92200 26.78200
H  13.22500 3.21400 27.73500
H  13.49100 2.62400 26.08600
H  15.12700 1.13700 32.11400
H  16.94300 4.52300 34.33600
H  18.20600 3.90100 33.38100
H  17.41100 2.82200 34.58800
Mg 26.25800 0.25500 29.57500
C  28.30100 -0.01000 32.32600
C  23.60700 0.78000 31.67200
C  24.15400 -0.07000 26.95500
C  28.92100 -1.06400 27.65400
N  26.02400 0.47000 31.74000
C  26.96700 0.32400 32.70700
C  26.44200 0.48600 34.12000
C  24.89900 0.71300 33.85800
C  24.83500 0.64900 32.31300
C  23.87600 -0.11400 34.60900
C  26.98800 1.57200 35.06500
C  27.31600 1.19200 36.58500
H  27.10800 2.23500 37.62500
N  24.20800 0.48100 29.30500
C  23.31800 0.75800 30.30000
C  21.95600 0.73400 29.68600
C  22.09200 0.50800 28.26100
C  23.52800 0.26300 28.12500
C  20.74500 1.18700 30.43600
C  21.04500 0.60800 27.19300
O  21.31100 0.32100 26.05800
C  19.61700 1.01200 27.60300
N  26.47100 -0.60400 27.60700
C  25.47900 -0.43400 26.69700
C  25.99100 -0.82500 25.26200
C  27.50300 -1.11800 25.44900
C  27.64200 -0.94400 26.99400
C  25.19400 -2.09200 24.67600
C  28.39400 -0.08100 24.77300
C  28.99300 -0.53600 23.47200
N  28.25000 -0.41200 29.89800
C  29.20500 -0.88600 29.01500
C  30.49000 -1.02400 29.75700
C  30.16000 -0.68500 31.08000
C  28.80800 -0.37000 31.10000
C  31.79100 -1.52000 29.20700
C  30.67100 -0.51300 32.41900
O  31.77500 -0.64500 32.88600
C  29.46400 -0.08200 33.30200
C  29.37100 -1.25600 34.22600
O  28.82700 -2.29900 34.00400
O  30.03400 -0.93600 35.39400
C  30.02400 -1.97400 36.47300
H  22.79500 1.01800 32.36200
H  23.37800 -0.05600 26.18700
H  29.74900 -1.36300 27.00700
H  26.58200 -0.44100 34.67500
H  24.61800 1.72500 34.15100
H  23.92800 0.18300 35.65700
H  24.22500 -1.14400 34.52800
H  22.84800 0.00900 34.26900
H  26.33500 2.44300 35.02200
H  27.86400 2.08600 34.67000
H  28.39800 1.07100 36.61900
H  26.94000 0.21400 36.88600
H  20.48000 2.12700 29.95300
H  20.77500 1.45300 31.49300
H  19.90700 0.48900 30.42500
H  19.23100 0.11300 28.08400
H  18.98800 1.17200 26.72700
H  19.64400 1.94100 28.17100
H  25.81000 0.08800 24.69500
H  27.65200 -2.17400 25.22700
H  25.17500 -2.11100 23.58600
H  24.16400 -2.22600 25.00600
H  25.81800 -2.97500 24.81100
H  29.12700 0.38600 25.43000
H  27.76100 0.74600 24.45200
H  30.05500 -0.29400 23.50200
H  28.52500 0.08200 22.70500
H  28.93200 -1.55800 23.10100
H  31.89700 -2.59200 29.04500
H  32.52400 -1.15600 29.92700
H  31.99600 -0.98100 28.28100
H  29.71200 0.76100 33.94700
H  31.07400 -2.06100 36.74800
H  29.56800 -2.90400 36.13200
H  29.57700 -1.62700 37.40500

