158

Mg 0.68200 -0.57500 44.02100
C  4.12100 -0.44500 43.24300
C  0.23600 2.45800 42.31800
C  -2.50400 -1.25200 43.75800
C  1.33400 -3.84800 45.15500
N  1.96700 0.80000 43.02700
C  3.31900 0.70400 42.86000
C  3.87600 1.91100 42.02800
C  2.70000 2.94400 42.32000
C  1.55900 2.04500 42.62400
C  2.95300 4.10600 43.38600
C  4.10900 1.53400 40.50700
C  5.51900 1.85200 40.02500
H  5.59500 1.95200 38.46200
N  -0.92500 0.53600 43.31600
C  -0.93000 1.70900 42.58000
C  -2.27600 2.08400 42.29100
C  -3.12800 0.95500 42.59700
C  -2.11700 -0.00100 43.24100
C  -2.69700 3.33400 41.68600
C  -4.58900 0.86200 42.22100
O  -5.04200 1.68900 41.49300
C  -5.46800 -0.28600 42.55900
N  -0.48300 -2.43700 44.26000
C  -1.80500 -2.35700 44.21800
C  -2.37500 -3.67600 44.63200
C  -1.15300 -4.41500 45.39900
C  0.01900 -3.57200 44.84100
C  -3.66600 -3.57100 45.45000
C  -1.08300 -6.00100 44.93600
C  -0.75200 -6.92800 46.10300
N  2.37000 -1.89100 44.25800
C  2.47900 -3.11400 44.81300
C  3.83300 -3.54600 44.79200
C  4.54800 -2.51800 44.20600
C  3.61100 -1.54900 43.90200
C  4.42900 -4.95200 45.14000
C  5.86100 -2.10000 43.78900
O  7.00700 -2.55000 43.98500
C  5.60000 -0.64500 43.16100
C  6.36400 0.41500 43.80300
O  6.05200 1.03600 44.80400
O  7.53900 0.56700 43.21100
C  8.44400 1.64100 43.66900
H  0.09300 3.50800 42.05200
H  -3.56400 -1.47900 43.89100
H  1.52900 -4.81600 45.62200
H  4.73500 2.43900 42.44200
H  2.48200 3.47900 41.39600
H  3.22100 5.08000 42.97600
H  3.90100 3.85500 43.86100
H  2.18900 4.22900 44.15400
H  3.49600 2.10400 39.80900
H  3.91900 0.48300 40.28700
H  6.32000 1.21100 40.39400
H  5.83000 2.85800 40.30700
H  -2.87300 3.29900 40.61100
H  -1.97300 4.11700 41.91000
H  -3.57600 3.72700 42.19700
H  -6.47900 -0.05600 42.22300
H  -5.54800 -0.35400 43.64400
H  -5.13700 -1.23100 42.13000
H  -2.57600 -4.11500 43.65500
H  -1.17600 -4.28300 46.48100
H  -3.68300 -2.71000 46.11900
H  -3.81400 -4.44600 46.08400
H  -4.54500 -3.53000 44.80700
H  -0.18300 -6.14600 44.33900
H  -1.99800 -6.35100 44.45700
H  -1.64700 -7.40900 46.49700
H  -0.43800 -6.42400 47.01700
H  -0.05000 -7.71900 45.84000
H  3.52900 -5.56500 45.08700
H  4.77600 -5.03000 46.17000
H  5.33500 -5.17800 44.57800
H  5.84200 -0.67500 42.09900
H  7.87400 2.48400 44.06000
H  9.14400 1.89400 42.87300
H  9.02900 1.34800 44.54100
Mg 31.58600 58.64300 40.81700
C  28.92400 56.82100 39.55800
C  33.72500 56.09800 39.64100
C  34.14300 60.69700 41.18900
C  29.27000 61.48000 40.86000
N  31.33200 56.68200 39.72100
C  30.17700 56.15500 39.30300
C  30.35900 54.89400 38.52300
C  31.84800 54.55200 38.74900
C  32.35900 55.82200 39.42600
C  32.21800 53.21300 39.50300
C  29.93200 54.96600 37.01500
C  28.71700 54.08000 36.56500
H  27.60500 54.79900 35.63600
N  33.68200 58.30800 40.74000
C  34.41800 57.22900 40.21500
C  35.82100 57.44500 40.30200
C  35.98600 58.72700 40.84000
C  34.59400 59.31500 40.98900
C  36.85400 56.44100 39.90800
C  37.31800 59.36200 41.09900
O  38.39900 58.82400 40.85400
C  37.34100 60.67400 41.64700
N  31.66200 60.78100 41.20200
C  32.89600 61.37400 41.31200
C  32.74300 62.91500 41.31800
C  31.20800 63.18300 41.02300
C  30.67800 61.72400 40.99000
C  33.23600 63.73100 42.50500
C  30.90300 64.06300 39.81400
C  29.93000 65.17200 40.08100
N  29.48700 59.10000 40.45800
C  28.68000 60.21500 40.80100
C  27.27500 59.81000 40.65800
C  27.39900 58.47300 40.28800
C  28.70000 58.12100 40.06800
C  26.10700 60.72600 40.74800
C  26.59100 57.32100 39.86100
O  25.39400 57.13000 39.66000
C  27.54300 56.26600 39.46400
C  27.31400 55.06700 40.35500
O  27.61500 55.08800 41.53700
O  26.58200 53.99800 39.78600
C  26.03800 53.09900 40.76500
H  34.37800 55.32000 39.23800
H  34.95400 61.35500 41.50800
H  28.78900 62.44900 40.70900
H  29.82600 54.10000 39.04600
H  32.42300 54.65100 37.82900
H  32.97200 52.80500 38.82900
H  31.43500 52.48400 39.29300
H  32.57900 53.14300 40.53000
H  30.73400 54.75400 36.30700
H  29.52800 55.96000 36.82500
H  28.29700 53.59400 37.44600
H  29.01400 53.21300 35.97400
H  37.52900 56.74200 39.10800
H  36.40300 55.50600 39.57400
H  37.52800 56.28800 40.75100
H  36.81300 60.61400 42.59900
H  36.99700 61.42100 40.93200
H  38.35200 60.80000 42.03400
H  33.24500 63.28600 40.42400
H  30.70200 63.61000 41.88900
H  32.71900 63.38400 43.40000
H  33.00600 64.79500 42.44100
H  34.30300 63.52700 42.59900
H  30.33100 63.60100 39.01000
H  31.74600 64.55800 39.33100
H  30.30600 66.05700 39.56800
H  29.84300 65.23500 41.16600
H  28.99100 64.78200 39.69000
H  26.10100 61.36400 39.86400
H  26.17700 61.47200 41.53900
H  25.16800 60.18600 40.86700
H  27.38400 56.03000 38.41200
H  26.57700 52.18400 41.01100
H  25.20900 52.70400 40.17800
H  25.55700 53.55700 41.63000

