158

Mg 35.20900 3.00600 29.19000
C  33.26800 4.01200 32.06900
C  37.95700 3.14100 31.36700
C  37.31400 2.65700 26.65200
C  32.52300 3.68900 27.21500
N  35.54200 3.53100 31.48600
C  34.58100 3.84400 32.42400
C  35.13700 3.93400 33.79300
C  36.68200 3.91500 33.50700
C  36.76200 3.54200 31.97600
C  37.54600 5.19700 33.76700
C  34.76700 2.61600 34.60600
C  34.51500 2.82800 36.10100
H  35.38500 3.68700 37.05500
N  37.30200 2.69000 29.02600
C  38.19900 2.68200 30.07100
C  39.51700 2.21200 29.55200
C  39.41400 2.07300 28.17100
C  37.95800 2.43900 27.87900
C  40.66900 1.80700 30.39400
C  40.29900 1.64100 27.11500
O  39.98700 1.62600 25.88400
C  41.73500 1.26600 27.47500
N  34.97200 3.26600 27.30400
C  35.96200 3.01200 26.35000
C  35.48400 3.15200 24.97800
C  33.93000 3.18200 25.09100
C  33.78100 3.37200 26.65800
C  36.10700 4.28900 24.14500
C  33.20900 1.92600 24.43200
C  32.72900 0.87800 25.40400
N  33.30200 3.76800 29.54200
C  32.19600 3.87100 28.60300
C  30.97000 4.10400 29.29500
C  31.35800 4.18500 30.68200
C  32.78200 3.99500 30.74200
C  29.65200 4.26300 28.48300
C  30.84400 4.33300 32.01600
O  29.74200 4.67600 32.42000
C  32.06000 4.19800 33.00300
C  32.28400 5.39400 33.79600
O  32.54500 6.50600 33.34200
O  32.01400 4.99700 35.09200
C  32.13900 6.00400 36.11500
H  38.82200 3.11900 32.03300
H  37.82700 2.53100 25.69700
H  31.69300 3.57500 26.51500
H  34.89000 4.86600 34.30100
H  37.28600 3.12300 33.94900
H  38.47700 4.91600 34.26000
H  37.05100 5.99000 34.32800
H  37.75200 5.58900 32.77100
H  35.68600 2.03100 34.63600
H  33.96500 1.94800 34.29300
H  34.47200 1.83500 36.54900
H  33.54100 3.27200 36.30700
H  40.75100 0.72600 30.28500
H  40.49000 2.13400 31.41900
H  41.52600 2.35700 30.00400
H  42.34100 2.07100 27.89100
H  42.19800 0.92700 26.54800
H  41.74400 0.38700 28.11900
H  35.84900 2.23900 24.50800
H  33.52200 4.02400 24.53300
H  35.41400 5.11500 23.98500
H  36.47100 3.88100 23.20300
H  36.92200 4.67400 24.75800
H  33.85600 1.49300 23.66900
H  32.39300 2.39300 23.88100
H  32.58600 -0.01800 24.80100
H  31.72200 1.02600 25.79400
H  33.38600 0.75000 26.26500
H  29.50300 5.34200 28.54200
H  28.94000 3.73900 29.12100
H  29.65500 3.97400 27.43200
H  31.95800 3.31000 33.62700
H  32.68000 5.58700 36.96400
H  31.15000 6.30700 36.46000
H  32.59100 6.93000 35.75900
Mg 9.51300 48.05800 25.34600
C  7.68300 48.10800 28.18300
C  12.14400 49.62900 26.84800
C  11.19700 47.97100 22.31700
C  6.72300 46.73500 23.58300
N  9.74700 48.99700 27.17600
C  8.88800 48.81000 28.29900
C  9.42100 49.57200 29.56500
C  10.81600 50.02100 29.01500
C  10.94200 49.61700 27.52100
C  11.13200 51.58300 29.14000
C  9.42100 48.76100 30.86600
C  10.50400 49.09400 31.93800
H  10.08300 49.09600 33.38600
N  11.48800 48.51800 24.76400
C  12.42000 49.13200 25.55400
C  13.65700 49.21900 24.81200
C  13.40400 48.72300 23.51000
C  11.93000 48.41900 23.48700
C  14.89300 49.86400 25.33400
C  14.21900 48.55400 22.27900
O  13.94500 48.19700 21.14000
C  15.64000 48.87000 22.37800
N  9.10200 47.38900 23.29100
C  9.92700 47.48700 22.18900
C  9.30000 46.90600 20.84800
C  7.96200 46.32000 21.36400
C  7.91200 46.75200 22.84600
C  9.27000 47.90700 19.70700
C  7.87900 44.75600 21.24300
C  8.70000 43.86000 22.16400
N  7.55600 47.64300 25.73100
C  6.58700 47.16400 24.91800
C  5.38500 47.04900 25.76300
C  5.77100 47.32100 27.06900
C  7.11200 47.65200 26.98500
C  4.03700 46.43800 25.35600
C  5.44400 47.26200 28.53400
O  4.44300 46.90500 29.14300
C  6.68200 47.76500 29.29000
C  7.06800 46.69200 30.17600
O  7.80400 45.73400 29.92900
O  6.64600 46.92600 31.43700
C  7.00800 45.88600 32.38300
H  12.98300 50.10900 27.35600
H  11.80400 47.80500 21.42500
H  5.88000 46.33800 23.01300
H  8.73400 50.40700 29.70300
H  11.54600 49.42100 29.55800
H  11.36800 51.93800 28.13600
H  12.07700 51.76200 29.65300
H  10.37300 52.21400 29.60300
H  9.53000 47.73200 30.52500
H  8.41600 48.94300 31.24700
H  10.78400 50.12200 31.70600
H  11.43700 48.55500 31.77400
H  15.47500 50.46000 24.63200
H  15.56600 49.05900 25.62900
H  14.67900 50.36900 26.27600
H  16.13200 48.63700 21.43400
H  16.03000 48.17900 23.12600
H  15.85000 49.92800 22.53200
H  9.99800 46.13000 20.53200
H  7.18300 46.80400 20.77400
H  8.77300 48.85000 19.93300
H  8.61300 47.45100 18.96600
H  10.28400 48.02500 19.32400
H  8.27800 44.54000 20.25200
H  6.82000 44.51200 21.15600
H  9.12500 43.02600 21.60500
H  8.01300 43.41800 22.88500
H  9.44800 44.39500 22.74900
H  3.47600 47.05200 24.65200
H  3.47600 46.24600 26.27100
H  4.22300 45.48600 24.85800
H  6.55400 48.59200 29.98800
H  6.15200 45.21100 32.40300
H  7.13600 46.27700 33.39200
H  7.94900 45.42000 32.09100

