158

Mg 46.95500 24.84500 28.00800
C  47.75900 26.93300 30.71000
C  46.17800 22.27400 30.34600
C  47.09000 22.52300 25.58800
C  48.19900 27.20700 25.86600
N  46.89100 24.63800 30.21500
C  47.23500 25.62300 31.11600
C  46.96200 25.15100 32.62400
C  46.70300 23.60300 32.39100
C  46.60200 23.48400 30.85600
C  47.86400 22.66100 32.92200
C  45.78800 25.95800 33.39100
C  46.27100 26.68000 34.67800
H  45.28100 27.00400 35.76600
N  46.51700 22.75800 27.93600
C  46.15000 21.91700 28.97800
C  45.91200 20.52500 28.44300
C  46.27500 20.54800 27.08600
C  46.61800 21.98500 26.78000
C  45.40900 19.35300 29.31800
C  46.45000 19.42800 26.03500
O  46.93700 19.57700 24.92300
C  46.12000 18.00900 26.52500
N  47.39500 24.84900 26.00200
C  47.44700 23.80700 25.19200
C  47.97100 24.24100 23.79700
C  47.84300 25.83100 23.91400
C  47.81200 25.99300 25.35400
C  49.43000 23.66600 23.60500
C  46.50800 26.34600 23.32600
C  46.72600 27.35600 22.09700
N  47.73300 26.76300 28.18000
C  48.28100 27.60500 27.24900
C  48.64500 28.88500 27.80600
C  48.40900 28.64900 29.21700
C  47.97900 27.34400 29.37900
C  49.17000 29.95600 27.05000
C  48.46400 29.24000 30.48300
O  48.79900 30.34700 30.84700
C  48.13100 28.10300 31.53000
C  49.28300 27.76800 32.37700
O  50.33800 27.21800 31.97900
O  49.07500 28.27500 33.59300
C  50.03700 27.88800 34.67300
H  45.87600 21.42900 30.96700
H  47.24800 21.89900 24.70600
H  48.61600 27.94600 25.18000
H  47.89200 25.18500 33.19100
H  45.73200 23.28400 32.76900
H  47.44000 21.83700 33.49600
H  48.62600 23.15500 33.52600
H  48.26900 22.15700 32.04400
H  45.05800 25.22400 33.73200
H  45.35000 26.65600 32.67800
H  46.85300 27.49800 34.25300
H  47.11200 26.07500 35.01700
H  44.67500 18.82700 28.70800
H  45.10200 19.72400 30.29600
H  46.24800 18.69300 29.53700
H  46.63200 17.77700 27.45900
H  46.60000 17.36900 25.78500
H  45.05300 17.83300 26.66600
H  47.32500 23.76400 23.06000
H  48.69000 26.28200 23.39600
H  49.92700 23.52200 24.56400
H  50.12300 24.30700 23.06000
H  49.39700 22.67200 23.16000
H  45.89200 26.90500 24.03100
H  45.84200 25.52200 23.07000
H  47.77000 27.65500 22.00300
H  46.15400 28.21700 22.44200
H  46.28500 26.90800 21.20700
H  48.71300 29.98500 26.06100
H  50.25500 29.90300 26.96200
H  48.98500 30.85300 27.64100
H  47.30100 28.61100 32.02100
H  50.40700 28.75000 35.22900
H  50.84500 27.34800 34.17800
H  49.57100 27.16600 35.34400
Mg -10.90800 17.32700 42.44300
C  -7.35900 16.65700 42.17000
C  -10.29000 20.51000 41.64500
C  -14.17700 17.61200 42.22500
C  -11.22000 13.79900 42.73700
N  -9.04200 18.33900 41.83300
C  -7.66900 17.98200 41.89900
C  -6.76800 19.15800 41.54000
C  -7.75100 20.35600 41.70100
C  -9.13900 19.73400 41.64000
C  -7.56200 21.13100 43.09700
C  -6.05100 19.06900 40.21600
C  -6.77800 19.30200 38.93200
H  -6.12700 18.85600 37.64300
N  -12.13700 18.94000 42.10300
C  -11.66700 20.18100 41.68000
C  -12.84300 20.96800 41.32800
C  -14.01600 20.18500 41.69800
C  -13.45500 18.82700 42.05100
C  -12.77100 22.34700 40.81200
C  -15.47000 20.66800 41.59300
O  -15.77600 21.80600 41.23300
C  -16.55400 19.71700 41.79300
N  -12.42400 15.93700 42.20500
C  -13.69100 16.35000 42.47400
C  -14.67000 15.13600 42.56100
C  -13.67200 13.99000 42.45700
C  -12.31500 14.62000 42.46200
C  -15.63100 14.98600 43.80200
C  -13.72100 12.95400 41.33800
C  -14.33700 11.61100 41.77700
N  -9.59700 15.50000 42.46100
C  -9.89400 14.17800 42.62300
C  -8.68000 13.45000 42.69500
C  -7.65900 14.39600 42.61700
C  -8.29800 15.59400 42.41800
C  -8.61800 11.92100 42.79700
C  -6.15400 14.63900 42.65000
O  -5.26100 13.81300 42.72900
C  -5.96700 16.09400 42.19300
C  -5.06400 16.78700 43.25700
O  -3.93000 17.16900 43.14200
O  -5.72600 16.79400 44.44100
C  -5.00700 17.45100 45.52600
H  -10.11700 21.58200 41.52700
H  -15.26800 17.64100 42.23200
H  -11.42800 12.74100 42.90700
H  -6.04800 19.31100 42.34500
H  -7.41400 21.08600 40.96500
H  -6.99500 20.67500 43.90700
H  -8.55700 21.17400 43.54000
H  -7.21600 22.15500 42.95600
H  -5.62000 18.07600 40.08400
H  -5.18000 19.72400 40.25800
H  -6.98800 20.36600 38.82700
H  -7.80000 18.93300 39.01600
H  -13.10500 22.18600 39.78700
H  -11.79000 22.82200 40.78700
H  -13.36000 23.08600 41.35400
H  -16.56900 19.00900 40.96400
H  -17.46900 20.30700 41.73800
H  -16.44400 19.17500 42.73200
H  -15.26500 15.05000 41.65200
H  -13.72100 13.42500 43.38800
H  -15.59800 15.92800 44.34800
H  -15.37200 14.12600 44.41900
H  -16.70500 14.86100 43.66100
H  -12.73700 12.65000 40.97900
H  -14.32900 13.37000 40.53500
H  -15.32300 11.58900 41.31300
H  -14.40300 11.62000 42.86500
H  -13.79000 10.74400 41.40600
H  -7.81700 11.58900 43.45700
H  -8.33800 11.62600 41.78600
H  -9.56100 11.45600 43.08400
H  -5.53500 16.14600 41.19400
H  -5.75000 17.28900 46.30700
H  -4.80900 18.48600 45.24600
H  -4.06600 16.91600 45.65000

