158

Mg 47.18100 17.12600 28.28000
C  45.33000 16.81500 31.26500
C  49.27100 19.50300 29.86300
C  48.28700 18.11100 25.32900
C  44.51500 15.47000 26.70000
N  47.18400 18.10600 30.26600
C  46.49400 17.63300 31.33300
C  47.08200 18.17900 32.62300
C  48.22400 19.15600 32.16400
C  48.27200 18.92800 30.64900
C  48.08100 20.66600 32.61300
C  47.48600 16.98400 33.53900
C  46.97900 17.01900 34.94400
H  46.73100 18.43800 35.66000
N  48.89600 18.34100 27.70900
C  49.53400 19.26800 28.44500
C  50.47800 19.82200 27.61000
C  50.36300 19.34000 26.29500
C  49.13700 18.55500 26.38200
C  51.35800 20.87500 27.98000
C  51.22200 19.55400 25.09700
O  50.91500 19.17200 23.94100
C  52.47000 20.43200 25.20600
N  46.53300 16.79300 26.32700
C  47.14400 17.38300 25.24500
C  46.41700 16.99600 23.98100
C  45.16400 16.22000 24.42700
C  45.40800 16.18900 25.93000
C  46.17200 18.27900 23.14800
C  44.92400 14.85100 23.79500
C  44.51500 14.82600 22.33600
N  45.40200 16.21100 28.82600
C  44.46200 15.55900 28.11000
C  43.40900 15.07700 28.99100
C  43.76200 15.47600 30.27500
C  44.96600 16.24400 30.15400
C  42.21500 14.12800 28.54900
C  43.38100 15.40600 31.67400
O  42.45600 14.83500 32.23100
C  44.38100 16.30700 32.36900
C  43.62800 17.53000 33.01800
O  43.27300 18.53400 32.46500
O  43.36500 17.26300 34.30400
C  42.67300 18.27800 35.08000
H  49.97200 20.13100 30.41700
H  48.72900 18.36300 24.36300
H  43.69300 15.02700 26.13400
H  46.31500 18.74500 33.15200
H  49.18900 18.86200 32.57400
H  48.07800 21.46300 31.87000
H  48.90800 20.88000 33.29000
H  47.15700 20.78800 33.17700
H  48.56800 16.93500 33.41700
H  47.14200 16.03000 33.13800
H  47.67400 16.47900 35.58600
H  46.01300 16.51400 34.92700
H  52.36700 20.48200 27.85500
H  51.47300 21.07900 29.04500
H  50.97500 21.76100 27.47300
H  53.27900 19.84400 25.63800
H  52.28400 21.33100 25.79500
H  52.65900 20.72600 24.17400
H  47.15200 16.40500 23.43300
H  44.26500 16.78300 24.17400
H  45.11900 18.39800 22.89400
H  46.64300 18.32100 22.16600
H  46.47700 19.19900 23.64700
H  43.94400 14.52600 24.14400
H  45.62100 14.09700 24.15700
H  44.48800 15.84100 21.94100
H  43.52700 14.36700 22.30400
H  45.21400 14.23000 21.74800
H  42.39800 13.20600 27.99700
H  41.46200 14.64700 27.95600
H  41.72000 13.83500 29.47600
H  44.75700 15.81700 33.26700
H  42.55500 18.03300 36.13600
H  41.66100 18.40100 34.69400
H  43.26100 19.19000 34.98300
Mg -2.57300 34.16000 26.43900
C  -3.91700 32.35800 29.18600
C  -1.08600 36.20500 28.71400
C  -1.57900 35.77000 23.76400
C  -4.58900 32.21400 24.32400
N  -2.65000 34.33400 28.66000
C  -3.09900 33.41900 29.60600
C  -2.75500 33.84700 31.08500
C  -1.90600 35.16500 30.81800
C  -1.94300 35.25500 29.29200
C  -2.39100 36.45500 31.46200
C  -1.87900 32.94700 32.00400
C  -2.56000 32.47000 33.25900
H  -1.74100 32.15400 34.53800
N  -1.50600 35.70100 26.27900
C  -0.90800 36.44000 27.30100
C  0.05800 37.29600 26.68800
C  -0.00800 37.07700 25.29100
C  -1.13300 36.16300 25.03000
C  0.94400 38.13600 27.51500
C  0.94800 37.60700 24.19300
O  0.72400 37.54200 23.02900
C  2.19800 38.40500 24.55200
N  -3.29000 34.26700 24.39000
C  -2.61000 34.88500 23.48000
C  -3.08400 34.57600 22.03800
C  -3.95900 33.38000 22.27600
C  -3.98200 33.26300 23.74600
C  -3.71200 35.77000 21.19500
C  -3.53200 32.04900 21.54100
C  -2.63200 30.88600 22.19200
N  -3.92700 32.58400 26.61200
C  -4.63200 31.81700 25.70500
C  -5.32800 30.73300 26.32900
C  -5.17000 31.01400 27.65700
C  -4.26500 32.08200 27.82700
C  -6.18600 29.76400 25.65700
C  -5.48900 30.50700 28.96700
O  -6.25600 29.60100 29.29900
C  -4.64400 31.28600 29.97600
C  -5.53400 31.92000 31.05500
O  -6.21200 32.91700 31.03200
O  -5.53700 31.02300 32.16700
C  -6.50900 31.39700 33.15600
H  -0.63200 36.88400 29.43800
H  -1.15600 36.25700 22.88300
H  -5.12800 31.62600 23.57800
H  -3.63300 34.00200 31.71300
H  -0.85400 35.01500 31.05900
H  -1.72800 36.69500 32.29300
H  -3.32600 36.33200 32.00900
H  -2.33900 37.32700 30.81000
H  -0.87600 33.33900 32.17100
H  -1.63300 32.08400 31.38600
H  -2.80900 31.44200 32.99600
H  -3.45100 33.06500 33.46200
H  1.11100 39.05500 26.95100
H  1.97000 37.77000 27.48100
H  0.55500 38.34500 28.51100
H  2.73200 38.14700 25.46700
H  1.90300 39.44300 24.70500
H  2.84500 38.17800 23.70500
H  -2.19500 34.23200 21.50900
H  -5.00600 33.50300 21.99900
H  -2.89600 36.35600 20.77200
H  -4.14800 36.55200 21.81700
H  -4.37200 35.43400 20.39500
H  -2.96400 32.39300 20.67700
H  -4.46200 31.53200 21.30300
H  -1.98900 31.29100 22.97300
H  -1.91800 30.47100 21.48000
H  -3.28100 30.08500 22.54600
H  -6.46300 29.94200 24.61800
H  -7.05900 29.61900 26.29300
H  -5.62000 28.83400 25.69200
H  -3.87600 30.68300 30.46100
H  -6.07700 32.12900 33.83900
H  -6.63900 30.50600 33.77000
H  -7.48500 31.67400 32.75700

