158

Mg 54.54000 24.23300 44.04200
C  51.94000 26.50600 43.12500
C  52.67000 21.70900 42.58300
C  57.27800 22.33500 43.81500
C  56.37400 26.86900 45.14300
N  52.54800 24.21300 42.88900
C  51.66900 25.20100 42.68900
C  50.46000 24.67500 41.94600
C  50.50800 23.13600 42.15400
C  52.00200 22.98400 42.49100
C  49.60400 22.57900 43.25900
C  50.36500 25.08500 40.37900
C  51.68600 25.27800 39.61000
H  51.46500 25.93500 38.20700
N  54.94900 22.19200 43.49000
C  53.98500 21.35200 42.91600
C  54.57200 20.05900 42.81000
C  55.96400 20.19600 43.24600
C  56.12700 21.60700 43.58000
C  53.72700 18.83500 42.45900
C  56.86100 19.03300 43.34800
O  56.52000 17.93600 42.91600
C  58.21900 19.12900 43.99300
N  56.55700 24.60800 44.23600
C  57.55600 23.68400 44.18100
C  58.98600 24.29400 44.46100
C  58.59900 25.70500 44.99300
C  57.09700 25.72400 44.80100
C  59.69800 23.34500 45.51300
C  59.30500 26.90800 44.29500
C  59.64500 28.12100 45.18800
N  54.22100 26.27900 44.31300
C  55.04600 27.19500 44.85100
C  54.38700 28.48600 44.90900
C  53.09900 28.25500 44.31100
C  53.09400 26.93000 43.90000
C  54.81000 29.69800 45.61900
C  51.86700 28.86100 43.93700
O  51.45100 29.98500 44.13800
C  51.04500 27.77600 43.23200
C  50.50500 28.16700 41.97200
O  51.15400 28.22400 40.88300
O  49.15100 28.46700 42.07600
C  48.38300 28.53700 40.80100
H  51.98700 20.90400 42.30300
H  58.15300 21.70800 43.63200
H  56.92600 27.79000 45.34300
H  49.59700 25.17900 42.38100
H  50.22000 22.57800 41.26400
H  49.08300 23.45000 43.65700
H  50.09700 22.05900 44.08000
H  49.00500 21.86900 42.68800
H  49.69100 25.93400 40.26900
H  49.93200 24.22700 39.86500
H  52.18600 24.31200 39.53400
H  52.49700 25.82500 40.09000
H  52.64700 18.97600 42.51100
H  53.85200 17.97700 43.12000
H  54.08700 18.48400 41.49200
H  58.26400 19.83700 44.82100
H  58.88900 19.41600 43.18200
H  58.39700 18.12000 44.36600
H  59.59600 24.39400 43.56300
H  58.51900 25.88300 46.06600
H  59.04600 22.53600 45.84400
H  59.91700 23.93000 46.40700
H  60.61800 22.91700 45.11500
H  58.66600 27.20700 43.46400
H  60.29000 26.51500 44.04000
H  59.29200 28.02200 46.21500
H  59.44400 29.10200 44.75700
H  60.72400 28.14000 45.34200
H  54.80200 29.38600 46.66300
H  54.11400 30.53700 45.58300
H  55.79300 30.13700 45.45000
H  50.18200 27.45500 43.81600
H  47.90600 29.51500 40.74800
H  47.70800 27.68300 40.85000
H  48.92600 28.47400 39.85700
Mg 16.54500 51.56200 26.78200
C  18.71800 50.46100 29.47400
C  14.46300 52.62700 29.01900
C  14.70700 52.59700 24.20700
C  19.08800 50.45200 24.65600
N  16.71300 51.63000 28.95300
C  17.59600 51.17300 29.87900
C  17.21000 51.48800 31.34800
C  15.74600 51.97500 31.08300
C  15.58300 52.08200 29.58700
C  14.66100 51.07400 31.69000
C  18.14100 52.48600 32.10000
C  18.45800 52.13100 33.55600
H  17.33600 51.58000 34.44600
N  14.79500 52.49500 26.69700
C  14.02500 52.88900 27.76100
C  12.86600 53.56700 27.29100
C  13.01400 53.65900 25.91200
C  14.15900 52.79400 25.51000
C  11.90100 54.19300 28.21000
C  12.18200 54.37100 24.84300
O  12.37900 54.41600 23.66100
C  11.03100 55.21400 25.20600
N  16.90600 51.55300 24.76500
C  15.92400 51.96500 23.86600
C  16.43900 51.94100 22.40600
C  17.79600 51.18500 22.55500
C  17.99300 51.07300 24.07100
C  15.39900 51.44000 21.30700
C  18.89000 51.88500 21.71000
C  20.09000 51.02700 21.16300
N  18.49700 50.54600 26.96100
C  19.39200 50.17200 25.98300
C  20.56700 49.53400 26.58100
C  20.28800 49.52600 27.98300
C  19.10300 50.29300 28.13400
C  21.77100 49.10000 25.89300
C  20.75800 49.16800 29.27200
O  21.82600 48.63900 29.61700
C  19.74500 49.74800 30.31400
C  19.26600 48.77700 31.29500
O  18.36400 47.94200 31.08700
O  20.03400 48.77500 32.46600
C  19.52800 47.98500 33.58700
H  13.67600 52.84900 29.74300
H  14.25200 53.00800 23.30400
H  19.85800 50.31700 23.89300
H  17.22900 50.49600 31.80000
H  15.72100 53.00000 31.45100
H  14.12900 51.69000 32.41400
H  15.13100 50.24000 32.21000
H  14.04300 50.63000 30.91000
H  17.81100 53.52400 32.08400
H  19.09400 52.36100 31.58600
H  18.88400 52.96200 34.11900
H  19.25400 51.39800 33.42800
H  12.27400 54.09200 29.23000
H  10.89700 53.77800 28.12700
H  11.91600 55.26700 28.02500
H  11.46900 56.08300 25.69600
H  10.37800 54.67700 25.89400
H  10.50900 55.58000 24.32200
H  16.61500 52.94500 22.01900
H  17.63600 50.18600 22.14900
H  14.90300 52.25300 20.77700
H  14.69400 50.75600 21.78100
H  15.91200 50.88200 20.52400
H  19.19500 52.78100 22.25000
H  18.43200 52.24900 20.79000
H  20.93000 51.67900 21.40200
H  19.97100 50.87200 20.09100
H  20.08100 50.06800 21.68100
H  22.47600 49.04200 26.72300
H  22.10300 49.82600 25.15200
H  21.49300 48.13900 25.45900
H  20.43700 50.42300 30.81700
H  19.85600 46.95000 33.49300
H  18.44600 47.98400 33.44900
H  19.94600 48.39000 34.50800

