158

Mg 17.27600 -0.88000 27.89000
C  16.35100 0.83300 30.68200
C  19.44600 -2.89000 29.81900
C  18.66500 -2.16200 25.11400
C  15.52800 1.41300 25.87200
N  17.84100 -1.03400 29.97400
C  17.24700 -0.18700 30.93800
C  17.64400 -0.62600 32.32600
C  18.98200 -1.52900 31.98900
C  18.82500 -1.86400 30.50200
C  20.33900 -1.03400 32.45600
C  16.54600 -1.49300 33.08500
C  16.42000 -1.19100 34.64500
H  17.56200 -0.42900 35.35900
N  18.72800 -2.49000 27.51800
C  19.38900 -3.20300 28.44200
C  20.10100 -4.22300 27.78400
C  19.92500 -4.05200 26.38000
C  19.12700 -2.87500 26.24100
C  20.84200 -5.24000 28.52500
C  20.52000 -4.80700 25.14700
O  20.25500 -4.63900 24.01000
C  21.41600 -6.10700 25.38400
N  17.27100 -0.32200 25.81900
C  17.79900 -1.09300 24.92900
C  17.37500 -0.69000 23.45300
C  16.20500 0.32900 23.67600
C  16.28000 0.46100 25.22200
C  18.70100 -0.10400 22.72500
C  14.72000 -0.22400 23.29000
C  13.92400 0.52500 22.20300
N  16.18300 0.74100 28.10500
C  15.44200 1.53800 27.26900
C  14.59200 2.38000 28.04100
C  14.90600 2.10800 29.39000
C  15.88700 1.13900 29.40100
C  13.76600 3.53100 27.55100
C  14.56600 2.43900 30.75300
O  13.66600 3.16300 31.24300
C  15.43900 1.57400 31.67700
C  16.21800 2.55300 32.59600
O  17.32200 2.96100 32.41200
O  15.42300 2.68900 33.72700
C  15.92400 3.62000 34.76900
H  20.07100 -3.55500 30.41700
H  18.99800 -2.62500 24.18200
H  14.92400 2.14000 25.32700
H  18.07000 0.23200 32.84500
H  18.88400 -2.51600 32.44200
H  21.06900 -1.29200 31.68800
H  20.65600 -1.58800 33.34000
H  20.32300 0.02400 32.71700
H  16.65800 -2.57300 32.98700
H  15.58200 -1.20800 32.66500
H  16.30900 -2.11300 35.21600
H  15.53800 -0.56400 34.77200
H  21.85700 -4.86600 28.66100
H  20.89800 -6.21400 28.04000
H  20.37700 -5.44400 29.49000
H  21.71100 -6.76900 24.56900
H  20.91000 -6.79200 26.06500
H  22.41200 -5.80900 25.71100
H  17.11000 -1.59900 22.91300
H  16.33500 1.27700 23.15200
H  18.55600 0.90100 22.32800
H  19.05000 -0.71100 21.89000
H  19.55600 -0.01800 23.39600
H  14.12200 -0.27000 24.20000
H  14.90200 -1.21200 22.86800
H  13.29300 -0.14000 21.61400
H  14.61400 0.93900 21.46700
H  13.33200 1.33100 22.63800
H  13.51600 4.34400 28.23300
H  12.86100 3.22000 27.02900
H  14.35900 3.96800 26.74700
H  14.93600 0.80300 32.26000
H  16.31800 4.51500 34.28800
H  16.74100 3.20700 35.36100
H  15.13800 3.91200 35.46500
Mg -2.25000 34.99900 27.14400
C  -3.76900 33.41500 29.87100
C  -1.05100 37.34300 29.43500
C  -0.98200 36.71900 24.56700
C  -3.78000 32.81500 25.01400
N  -2.53200 35.46600 29.39000
C  -3.14100 34.57300 30.25700
C  -2.85300 34.96800 31.76800
C  -2.22700 36.38900 31.60500
C  -1.85800 36.41300 30.09100
C  -3.06600 37.59500 31.99200
C  -1.93300 33.86800 32.52800
C  -2.45400 33.18900 33.74800
H  -1.65100 33.17700 35.05600
N  -1.09900 36.72000 26.96000
C  -0.71600 37.52900 28.01900
C  0.11000 38.60500 27.53000
C  0.10600 38.49600 26.13500
C  -0.69200 37.25300 25.81000
C  0.94100 39.45800 28.43600
C  0.84700 39.32900 25.00600
O  0.69500 39.15200 23.79900
C  1.74600 40.44200 25.47800
N  -2.19300 34.70100 25.13400
C  -1.72200 35.58500 24.20100
C  -1.93800 35.20100 22.69600
C  -2.74700 33.88600 22.98200
C  -2.96300 33.76300 24.48900
C  -2.80000 36.23700 21.79400
C  -2.20300 32.56600 22.32400
C  -0.98700 31.91100 23.03600
N  -3.43300 33.37800 27.31600
C  -3.98100 32.57200 26.39200
C  -4.83900 31.61000 27.03700
C  -4.65000 31.77300 28.37400
C  -3.86700 32.93300 28.52000
C  -5.55200 30.57000 26.33900
C  -4.87400 31.23000 29.68800
O  -5.45100 30.16800 29.95800
C  -4.38800 32.27500 30.78200
C  -5.57000 32.74500 31.50300
O  -6.21700 33.72100 31.22200
O  -5.94300 31.87200 32.42000
C  -6.88900 32.47700 33.33400
H  -0.65900 38.04700 30.17200
H  -0.51300 37.12300 23.66700
H  -4.21700 32.14600 24.27000
H  -3.80400 35.07000 32.29200
H  -1.32600 36.31300 32.21400
H  -2.72200 37.81000 33.00400
H  -4.12900 37.35700 31.94400
H  -2.88800 38.44700 31.33500
H  -0.96100 34.26300 32.82300
H  -1.64300 33.06900 31.84600
H  -2.60800 32.16300 33.41200
H  -3.45000 33.60100 33.90800
H  0.90600 40.49800 28.11200
H  1.98100 39.18100 28.26600
H  0.64900 39.30000 29.47500
H  2.37400 40.04200 26.27300
H  1.07200 41.21900 25.83900
H  2.28200 40.77400 24.58900
H  -1.08400 34.80500 22.14700
H  -3.69200 34.07300 22.47200
H  -2.31900 37.21000 21.89600
H  -3.86500 36.30100 22.01700
H  -2.61200 35.95200 20.75900
H  -2.00300 32.74800 21.26800
H  -2.99800 31.82000 22.36000
H  -1.41900 30.92200 23.19300
H  -0.70900 32.56200 23.86500
H  -0.14100 31.88900 22.34900
H  -5.62800 29.74700 27.04900
H  -4.98600 30.38200 25.42600
H  -6.50700 31.04300 26.10800
H  -3.64200 31.91500 31.49100
H  -6.39300 33.19700 33.98500
H  -7.02100 31.69200 34.07800
H  -7.84900 32.77000 32.90800

