158

Mg 17.31400 -1.61500 28.30800
C  16.81200 0.74000 30.89800
C  19.12600 -3.51900 30.62800
C  18.53600 -3.60700 25.83000
C  16.48900 0.79300 25.98100
N  17.78700 -1.49300 30.64300
C  17.57300 -0.32500 31.42700
C  18.27600 -0.48100 32.75500
C  19.12900 -1.79200 32.61200
C  18.65100 -2.27600 31.24600
C  20.65100 -1.47000 32.60500
C  17.14000 -0.65300 33.75900
C  17.47000 -0.78300 35.22500
H  18.68700 -0.09900 35.81700
N  18.38200 -3.49200 28.30800
C  19.02400 -4.04600 29.32500
C  19.67900 -5.26400 28.93500
C  19.46200 -5.41900 27.49600
C  18.75500 -4.12900 27.14000
C  20.39800 -6.27400 29.84300
C  19.83800 -6.52700 26.37700
O  19.53000 -6.49800 25.20900
C  20.70700 -7.61000 26.84500
N  17.42600 -1.42000 26.12800
C  18.01700 -2.36000 25.34600
C  18.07600 -1.87300 23.93200
C  17.37400 -0.46800 23.92700
C  17.02200 -0.34600 25.42600
C  19.54900 -1.77400 23.45700
C  16.03600 -0.33100 23.06800
C  14.69700 -0.78400 23.63100
N  16.53900 0.24500 28.32100
C  16.22800 1.12600 27.34700
C  15.70000 2.38500 27.89200
C  15.85000 2.18300 29.30800
C  16.39900 0.91100 29.51700
C  15.18700 3.54500 27.10700
C  15.60200 2.82700 30.57900
O  14.99100 3.88000 30.79100
C  16.26300 1.88900 31.65100
C  17.25300 2.67200 32.37500
O  18.37000 2.69100 32.02000
O  16.66000 3.36400 33.42800
C  17.49500 4.28500 34.08500
H  19.66600 -4.16400 31.32500
H  19.03900 -4.23700 25.09300
H  16.52100 1.65300 25.31000
H  18.93800 0.38000 32.85000
H  18.91100 -2.60600 33.30400
H  21.30700 -2.28200 32.29200
H  20.95000 -1.10400 33.58700
H  20.69700 -0.53400 32.04900
H  16.61800 -1.57600 33.50500
H  16.50500 0.23300 33.76200
H  17.37100 -1.83100 35.50700
H  16.61800 -0.26600 35.66500
H  21.47200 -6.09400 29.78000
H  20.25500 -7.33400 29.63000
H  19.95600 -6.12000 30.82700
H  21.62200 -7.17100 27.24300
H  20.93200 -8.25600 25.99600
H  20.11600 -8.18200 27.56000
H  17.56700 -2.56300 23.25900
H  18.02100 0.39500 23.77200
H  19.76400 -0.78600 23.05100
H  19.71100 -2.54200 22.70100
H  20.32700 -1.99500 24.18800
H  16.36200 -0.72000 22.10300
H  16.00000 0.74600 22.90300
H  14.06100 0.08400 23.80000
H  14.79000 -1.27400 24.60100
H  14.16800 -1.43900 22.93900
H  14.60500 4.13700 27.81200
H  14.52000 3.31900 26.27500
H  16.02200 4.16800 26.78500
H  15.52100 1.49500 32.34500
H  18.06400 4.92500 33.41000
H  18.20000 3.78200 34.74800
H  16.93700 4.96500 34.72900
Mg -2.49700 35.71900 26.75900
C  -4.05600 33.67800 29.15900
C  -0.86800 37.22300 29.16300
C  -1.54500 37.83100 24.39800
C  -4.29500 33.80800 24.24900
N  -2.63100 35.50000 28.98700
C  -3.25000 34.63600 29.82600
C  -2.95700 34.92400 31.35700
C  -2.00300 36.20800 31.22900
C  -1.85300 36.32500 29.70400
C  -2.50200 37.51700 31.85000
C  -2.27400 33.66200 32.10000
C  -2.99100 33.18400 33.36800
H  -2.27800 33.20300 34.71400
N  -1.43400 37.32400 26.77900
C  -0.69900 37.69300 27.89800
C  0.09100 38.83800 27.51700
C  -0.02500 39.01800 26.12800
C  -1.05300 38.05800 25.67700
C  0.89600 39.62900 28.56300
C  0.65200 39.90500 25.21500
O  0.44500 40.02800 23.98400
C  1.80600 40.62000 25.83800
N  -2.86600 35.80500 24.63600
C  -2.29900 36.78300 23.86300
C  -2.46300 36.46100 22.37200
C  -3.33200 35.19200 22.30800
C  -3.55000 34.90500 23.81100
C  -3.04300 37.63100 21.50100
C  -2.73100 33.94100 21.54300
C  -2.55500 34.26600 20.03400
N  -3.97900 34.12400 26.66400
C  -4.42800 33.37900 25.57500
C  -5.14700 32.23000 26.06500
C  -5.01900 32.28200 27.49700
C  -4.35600 33.50000 27.76100
C  -5.74400 31.10500 25.25400
C  -5.27300 31.57600 28.71100
O  -5.75900 30.47800 28.94000
C  -4.72500 32.50400 29.85700
C  -5.94300 33.00400 30.56800
O  -6.87000 33.59900 30.05400
O  -5.91800 32.76500 31.81500
C  -6.93800 33.29500 32.67200
H  -0.12600 37.49700 29.91500
H  -1.17800 38.48000 23.60000
H  -4.68400 33.17300 23.45000
H  -3.94200 35.23700 31.70300
H  -1.03700 35.98400 31.68100
H  -3.43100 37.34800 32.39500
H  -2.79400 38.24900 31.09800
H  -1.87700 37.81600 32.69200
H  -1.23000 33.82900 32.36200
H  -2.21700 32.88300 31.34000
H  -3.49200 32.23700 33.16600
H  -3.88800 33.78900 33.49700
H  0.65200 39.43500 29.60700
H  0.67800 40.68400 28.39400
H  1.93200 39.32100 28.41800
H  1.43400 41.41700 26.48100
H  2.41800 40.98200 25.01200
H  2.42600 39.91900 26.39600
H  -1.53800 36.12900 21.90100
H  -4.36000 35.33000 21.97500
H  -3.14100 38.58600 22.01700
H  -4.05500 37.33500 21.22600
H  -2.34800 37.81100 20.68000
H  -3.40800 33.08900 21.61000
H  -1.83500 33.65700 22.09400
H  -2.52300 35.34600 19.89600
H  -3.48500 33.98200 19.54100
H  -1.67200 33.80300 19.59300
H  -5.56500 31.19800 24.18300
H  -6.82000 31.05500 25.42500
H  -5.31900 30.14100 25.53300
H  -4.11400 31.88200 30.51100
H  -7.45000 34.18400 32.30100
H  -6.42100 33.60000 33.58200
H  -7.65800 32.49200 32.82300

