158

Mg 41.54200 40.65600 27.68500
C  40.87200 43.28800 29.84200
C  42.72200 38.71700 30.36300
C  42.31300 38.20200 25.50400
C  40.74000 42.70800 24.98900
N  41.78900 41.02500 29.80900
C  41.36600 42.16700 30.51600
C  41.40700 41.90500 32.01900
C  42.34000 40.61400 32.15800
C  42.29000 40.02700 30.66400
C  43.75900 40.82200 32.54900
C  39.93400 41.84100 32.57100
C  39.39600 42.88600 33.64800
H  38.97900 42.29200 35.00800
N  42.30900 38.74200 27.86500
C  42.73600 38.14600 29.07300
C  43.32200 36.83400 28.70900
C  43.06300 36.58000 27.31300
C  42.59900 37.89400 26.80400
C  43.90300 35.94900 29.75100
C  43.35700 35.35000 26.57800
O  42.99100 35.07600 25.40000
C  43.98000 34.15300 27.24400
N  41.48400 40.51300 25.55300
C  41.81700 39.33100 24.88700
C  41.60100 39.45400 23.31200
C  41.02600 40.82100 23.22100
C  41.05000 41.38400 24.65000
C  42.92100 39.23500 22.54000
C  39.62000 40.89100 22.55000
C  38.48000 40.33500 23.42500
N  41.00300 42.58400 27.39200
C  40.77200 43.33500 26.25500
C  40.40300 44.74000 26.58100
C  40.41900 44.72800 28.01700
C  40.79500 43.37000 28.44100
C  40.09200 45.77900 25.55000
C  40.23000 45.54400 29.17300
O  39.89300 46.72800 29.30500
C  40.47700 44.58700 30.42900
C  41.51800 45.21600 31.22000
O  42.70000 45.17000 30.93500
O  40.98400 45.69700 32.38600
C  41.99800 46.18700 33.34900
H  43.17500 38.15600 31.18300
H  42.52000 37.36300 24.83600
H  40.43900 43.39800 24.19800
H  41.85000 42.74700 32.55100
H  41.89300 39.79100 32.71700
H  44.04000 41.84900 32.31900
H  44.34400 40.07300 32.01500
H  43.90900 40.60300 33.60600
H  39.75600 40.86300 33.01800
H  39.34100 41.77700 31.65900
H  38.50900 43.38400 33.25800
H  40.18000 43.62800 33.79700
H  43.36900 35.04900 30.05700
H  44.35400 36.40200 30.63300
H  44.72700 35.38300 29.31600
H  43.38300 33.82700 28.09600
H  44.99800 34.41800 27.52900
H  44.03700 33.38100 26.47700
H  40.83800 38.71000 23.08100
H  41.66100 41.48500 22.63400
H  43.68900 39.86100 22.99400
H  42.76100 39.54300 21.50600
H  43.23900 38.19300 22.49200
H  39.69500 40.28500 21.64700
H  39.37200 41.92600 22.31900
H  37.69900 41.06000 23.65300
H  38.74200 39.78500 24.32800
H  37.98300 39.59400 22.79800
H  40.15900 46.78300 25.96800
H  39.06600 45.76700 25.18000
H  40.75500 45.59200 24.70500
H  39.58900 44.42800 31.04100
H  42.45100 45.34400 33.87200
H  41.64500 46.85700 34.13200
H  42.77900 46.78100 32.87500
Mg 1.09500 43.95600 25.15500
C  3.03500 43.81000 28.06800
C  -1.72000 43.10100 27.19600
C  -0.79000 43.20100 22.35000
C  3.79600 44.16000 23.30200
N  0.77100 43.57200 27.48600
C  1.74200 43.61600 28.42300
C  1.09700 43.31700 29.77500
C  -0.44700 42.94100 29.42000
C  -0.51700 43.20900 27.94700
C  -0.94000 41.52400 29.78000
C  1.15800 44.60500 30.69600
C  0.47000 44.48400 32.12800
H  0.34500 43.10700 32.84400
N  -1.01500 43.59400 24.77600
C  -1.93200 43.37000 25.80000
C  -3.21500 43.34900 25.18200
C  -3.03100 43.10800 23.72800
C  -1.54200 43.25700 23.52100
C  -4.54200 43.53400 26.00400
C  -4.10400 43.01600 22.71400
O  -3.94700 43.06900 21.50600
C  -5.51600 43.05700 23.20000
N  1.43800 43.68000 23.03400
C  0.51800 43.49500 22.00300
C  1.16700 43.45700 20.61800
C  2.63200 43.87400 20.95800
C  2.64700 43.94900 22.54800
C  1.17000 42.04800 19.89300
C  3.00500 45.25500 20.23600
C  2.53100 46.71500 20.82900
N  3.02000 44.02700 25.53900
C  3.98800 44.29300 24.67800
C  5.26300 44.44100 25.43900
C  4.88200 44.17600 26.75100
C  3.47700 43.96300 26.77700
C  6.58600 44.66500 24.86700
C  5.42000 43.95200 28.09200
O  6.58700 43.77800 28.43500
C  4.27900 43.84600 29.05300
C  4.29600 42.55400 29.81700
O  4.04700 41.46900 29.34300
O  4.58600 42.73600 31.17400
C  4.69500 41.55100 32.03400
H  -2.55200 42.82900 27.84900
H  -1.35300 42.83000 21.49100
H  4.69100 44.32100 22.69800
H  1.49400 42.50100 30.37800
H  -1.19900 43.53600 29.93800
H  -1.87700 41.65400 30.32200
H  -0.23700 41.07800 30.48300
H  -1.20700 41.00500 28.86000
H  0.72800 45.43400 30.13400
H  2.18700 44.83900 30.97000
H  -0.56000 44.81100 31.98100
H  1.10500 45.12700 32.73700
H  -5.13900 44.33700 25.57100
H  -4.46800 43.71900 27.07500
H  -5.10600 42.60500 25.92400
H  -5.67100 42.21300 23.87100
H  -6.13700 42.82300 22.33500
H  -5.77200 44.01200 23.66000
H  0.59400 44.20400 20.06900
H  3.31300 43.04600 20.76100
H  0.60600 41.38700 20.55000
H  2.09800 41.57800 19.56500
H  0.49900 42.21400 19.05100
H  2.60900 45.26000 19.22100
H  4.06700 45.34400 20.00700
H  2.25000 47.38100 20.01300
H  3.37300 47.18700 21.33500
H  1.66500 46.77000 21.49000
H  6.83700 45.72500 24.90200
H  6.68100 44.28000 23.85100
H  7.27300 44.01200 25.40500
H  4.31300 44.64100 29.79800
H  5.64700 41.04600 31.87000
H  3.84000 40.90900 31.82200
H  4.63300 41.90000 33.06500

