158

Mg -0.03300 7.88500 26.19200
C  0.75800 10.19000 28.93700
C  0.12400 5.41600 28.53100
C  -0.02200 5.79800 23.71200
C  0.27800 10.58000 24.02800
N  0.21700 7.88800 28.47300
C  0.46500 8.94700 29.40300
C  0.26200 8.42200 30.82300
C  0.44100 6.91700 30.63800
C  0.10800 6.69800 29.13800
C  1.82000 6.35200 31.07400
C  -1.14900 8.81600 31.42600
C  -1.24900 8.52100 32.92400
H  0.03900 8.30700 33.76400
N  -0.01500 5.88100 26.12800
C  -0.01400 5.00300 27.21600
C  -0.22000 3.68600 26.78400
C  -0.26800 3.80100 25.30200
C  -0.11300 5.19200 25.01900
C  -0.40200 2.56000 27.73500
C  -0.48400 2.74400 24.26400
O  -0.66900 2.93200 23.09500
C  -0.49300 1.24700 24.68300
N  -0.00300 8.13700 24.24200
C  -0.12900 7.15600 23.36200
C  -0.22100 7.57600 21.86100
C  -0.58500 9.10100 22.06800
C  -0.08800 9.28900 23.56400
C  1.08700 7.39300 21.02400
C  -2.10700 9.65100 21.97600
C  -2.27700 11.03200 21.27200
N  0.28400 10.01900 26.38500
C  0.43700 10.95100 25.37500
C  0.85600 12.23800 25.98600
C  1.00200 11.98200 27.35800
C  0.59800 10.65100 27.59700
C  1.33300 13.51500 25.29600
C  1.51700 12.50400 28.64000
O  2.04500 13.62800 28.85800
C  1.18500 11.42100 29.66000
C  2.41000 11.00700 30.43500
O  3.24400 10.22700 30.11800
O  2.31100 11.55400 31.66700
C  3.37500 11.37500 32.68200
H  0.29100 4.61400 29.25300
H  0.09200 5.02800 22.94500
H  0.57900 11.31500 23.27900
H  0.99100 8.90500 31.47400
H  -0.37500 6.45600 31.19400
H  2.37400 7.16000 31.55000
H  2.45800 5.92800 30.29900
H  1.51700 5.56200 31.76100
H  -1.89500 8.15100 30.99000
H  -1.36600 9.87500 31.28700
H  -1.90500 7.65100 32.93000
H  -1.75700 9.36800 33.38500
H  0.58700 2.27500 28.09300
H  -1.03700 1.78700 27.30000
H  -1.04000 2.75300 28.59700
H  -0.39900 0.64900 23.77700
H  -1.38400 0.94200 25.23100
H  0.36200 1.22600 25.35800
H  -1.06000 7.07600 21.37900
H  0.06300 9.76100 21.49100
H  1.27000 8.33100 20.49800
H  0.89200 6.66100 20.24000
H  1.91000 7.00900 21.62600
H  -2.47300 9.80000 22.99200
H  -2.69500 8.97600 21.35300
H  -2.97700 10.72700 20.49400
H  -1.39900 11.34800 20.70800
H  -2.58200 11.83600 21.94200
H  0.70800 14.37900 25.52100
H  1.42600 13.33900 24.22400
H  2.29700 13.77200 25.73500
H  0.38400 11.77100 30.31100
H  3.47300 10.30100 32.84400
H  3.06700 11.95600 33.55100
H  4.28800 11.87400 32.35800
Mg 36.44800 48.90600 25.58800
C  36.56000 46.98600 28.65900
C  35.50800 51.50300 27.47500
C  35.99400 50.51500 22.76600
C  37.41600 46.01000 23.87100
N  36.11600 49.16100 27.79800
C  36.23500 48.28200 28.88400
C  36.03400 48.93100 30.25400
C  35.51000 50.32500 29.74400
C  35.72300 50.33300 28.21600
C  33.99900 50.74300 30.17200
C  37.36300 48.86400 31.06700
C  37.27400 48.62500 32.54100
H  35.98100 48.75400 33.26700
N  35.80200 50.79000 25.19700
C  35.58200 51.79700 26.11300
C  35.32100 53.07500 25.44100
C  35.30400 52.70900 24.02400
C  35.62800 51.28500 23.90300
C  35.14100 54.35900 26.11200
C  35.05800 53.60000 22.84800
O  35.02100 53.23000 21.62600
C  34.87200 55.09700 23.09600
N  36.62400 48.34300 23.67300
C  36.45000 49.24900 22.63000
C  36.69900 48.62100 21.27000
C  37.25200 47.19500 21.58200
C  37.06300 47.14200 23.16300
C  35.43600 48.63800 20.34000
C  38.66300 46.89700 21.02200
C  39.80500 47.59800 21.73600
N  37.00200 46.94600 26.07700
C  37.42800 45.90700 25.28000
C  37.71100 44.72400 26.11000
C  37.27400 45.05000 27.43600
C  36.88600 46.44200 27.37200
C  38.31100 43.48300 25.61800
C  37.17700 44.55400 28.74600
O  37.46900 43.43800 29.13600
C  36.77900 45.80700 29.70700
C  35.56400 45.42700 30.45100
O  34.44200 45.85700 30.34400
O  35.95400 44.69900 31.59900
C  34.98800 44.32600 32.67800
H  35.20700 52.36700 28.07200
H  35.98000 51.06000 21.82000
H  37.68300 45.14700 23.25800
H  35.24700 48.43200 30.81800
H  36.19300 51.10300 30.08400
H  33.27200 50.73700 29.36000
H  34.20000 51.72700 30.59700
H  33.58200 50.03500 30.88800
H  37.89500 49.81500 31.04900
H  38.02900 48.06900 30.72800
H  38.10700 49.16900 32.98700
H  37.56200 47.57400 32.57100
H  34.32900 54.92900 25.66100
H  35.97200 55.02500 25.88300
H  35.14300 54.24000 27.19500
H  35.68100 55.55900 23.66200
H  33.94300 55.23700 23.64900
H  34.94600 55.57700 22.12000
H  37.45600 49.20800 20.75100
H  36.58600 46.40700 21.23100
H  34.62400 49.32200 20.58700
H  35.06300 47.65000 20.07100
H  35.81300 49.05700 19.40700
H  38.52900 47.30400 20.02000
H  38.80500 45.81700 20.97800
H  39.59800 48.01000 22.72400
H  40.15100 48.45800 21.16300
H  40.60500 46.87900 21.91100
H  38.80800 43.64300 24.66200
H  37.47600 42.78500 25.68600
H  39.03100 43.24000 26.40000
H  37.56300 45.99600 30.44100
H  34.89400 43.24600 32.79200
H  33.99600 44.77600 32.64500
H  35.42800 44.81600 33.54600

