158

Mg 1.71500 -1.43900 43.52000
C  4.98700 -0.68900 42.89900
C  0.77300 1.29300 41.37900
C  -1.50000 -2.58400 43.22400
C  2.65400 -4.53300 44.99300
N  2.77200 0.16000 42.30700
C  4.13300 0.24900 42.21100
C  4.56200 1.37100 41.29500
C  3.21200 2.19700 41.03900
C  2.18400 1.19200 41.62900
C  3.03500 3.52700 41.57800
C  5.33700 0.87800 40.05300
C  6.59700 1.72100 39.58500
H  6.53700 2.37100 38.26000
N  -0.12200 -0.65700 42.62500
C  -0.29400 0.49600 41.85500
C  -1.68900 0.60200 41.61800
C  -2.42300 -0.53600 42.02000
C  -1.31800 -1.29600 42.64300
C  -2.30800 1.84000 40.92600
C  -3.93300 -0.69800 41.98100
O  -4.64700 0.15700 41.41900
C  -4.61600 -1.76700 42.74000
N  0.65200 -3.29000 44.12600
C  -0.65800 -3.50200 43.86600
C  -1.00600 -4.92900 44.33300
C  0.25700 -5.42900 45.07200
C  1.28100 -4.35900 44.71700
C  -2.33800 -5.08200 45.11400
C  0.71700 -6.89400 44.93600
C  0.84500 -7.77000 46.21400
N  3.40000 -2.41200 44.00600
C  3.66900 -3.60100 44.58600
C  5.13000 -3.75000 44.73900
C  5.68700 -2.59200 44.19400
C  4.59600 -1.83700 43.68600
C  5.79300 -5.00100 45.34500
C  6.91500 -1.97400 43.78900
O  8.07300 -2.29200 43.90100
C  6.52300 -0.68800 43.03700
C  7.15500 0.41600 43.81400
O  7.18000 0.64400 45.01200
O  7.70300 1.26600 42.87800
C  8.42400 2.41700 43.42200
H  0.51000 2.03800 40.62500
H  -2.53000 -2.92000 43.36000
H  3.10000 -5.43300 45.42200
H  5.19800 2.02100 41.89600
H  3.13100 2.30900 39.95800
H  3.85400 3.63000 42.28900
H  2.08300 3.65900 42.09300
H  3.07800 4.33700 40.85000
H  4.71000 0.80700 39.16500
H  5.73700 -0.08800 40.36000
H  7.43500 1.03000 39.49300
H  6.74400 2.56400 40.26000
H  -2.90100 1.55700 40.05600
H  -1.53400 2.50700 40.54500
H  -2.99200 2.27600 41.65400
H  -5.70200 -1.69300 42.79800
H  -4.22100 -1.58300 43.73900
H  -4.32400 -2.73900 42.34300
H  -1.10800 -5.48200 43.40000
H  -0.02400 -5.42500 46.12500
H  -3.10300 -5.46100 44.43600
H  -2.70200 -4.11900 45.47200
H  -2.34000 -5.88900 45.84600
H  1.70000 -6.80000 44.47300
H  0.13700 -7.40300 44.16700
H  1.88700 -7.76300 46.53500
H  0.62600 -8.77600 45.85700
H  0.26000 -7.34600 47.03000
H  5.38100 -5.89900 44.88400
H  5.46300 -5.04700 46.38300
H  6.84200 -5.09700 45.06700
H  7.03000 -0.61000 42.07600
H  7.77300 3.08600 43.98300
H  8.80200 2.96600 42.55900
H  9.21000 1.98300 44.04100
Mg -4.53400 25.82100 25.09800
C  -2.89500 27.10500 27.98200
C  -6.09900 23.60400 27.13500
C  -5.87500 24.58700 22.37900
C  -2.38800 27.86300 23.12100
N  -4.47900 25.41400 27.35300
C  -3.82300 26.14100 28.30200
C  -4.39700 25.80600 29.69400
C  -5.12300 24.40700 29.40400
C  -5.27000 24.46700 27.87500
C  -4.36700 23.10400 29.85500
C  -5.30600 26.95800 30.27900
C  -5.15900 27.33000 31.66700
H  -4.73900 26.15500 32.64500
N  -5.88400 24.42900 24.83500
C  -6.43500 23.51800 25.78300
C  -7.42000 22.68300 25.16400
C  -7.38300 22.96500 23.77700
C  -6.33400 24.00000 23.61500
C  -8.31900 21.68900 25.97600
C  -8.15800 22.39700 22.65900
O  -7.99600 22.68700 21.46500
C  -9.21900 21.40200 22.91800
N  -4.08800 26.12900 23.06300
C  -4.90400 25.54600 22.12000
C  -4.45000 25.97000 20.73700
C  -3.50100 27.12100 20.97300
C  -3.26700 27.03300 22.45000
C  -3.86900 24.80900 19.86700
C  -4.01000 28.57300 20.61300
C  -2.91600 29.48500 20.13200
N  -2.92500 27.09700 25.40500
C  -2.20700 27.96000 24.55000
C  -1.25400 28.78000 25.28600
C  -1.54000 28.43100 26.61800
C  -2.54600 27.45700 26.65500
C  -0.35700 29.81500 24.75000
C  -1.14800 28.75200 27.92100
O  -0.36300 29.52000 28.37100
C  -2.12200 27.95200 28.89100
C  -1.17700 27.34100 29.77200
O  -0.32700 26.53500 29.44100
O  -1.30900 27.69400 31.07500
C  -0.28400 27.23500 32.05100
H  -6.67800 22.96500 27.80400
H  -6.58600 24.42600 21.56600
H  -1.80400 28.46100 22.41800
H  -3.60900 25.60900 30.42100
H  -6.12400 24.46700 29.83100
H  -3.47100 23.25400 30.45600
H  -4.14400 22.43900 29.02000
H  -5.05900 22.63200 30.55300
H  -6.33900 26.62600 30.18300
H  -5.18500 27.87100 29.69600
H  -6.08500 27.72200 32.08800
H  -4.43700 28.14500 31.72400
H  -9.16800 22.28800 26.30500
H  -7.83900 21.45400 26.92600
H  -8.72900 20.83200 25.44000
H  -9.87100 21.34000 22.04600
H  -9.82500 21.80100 23.73200
H  -8.89000 20.37300 23.06200
H  -5.32900 26.40800 20.26500
H  -2.61900 26.85800 20.39000
H  -3.45000 23.96800 20.41800
H  -3.20600 25.06800 19.04200
H  -4.75100 24.42400 19.35500
H  -4.49900 29.05700 21.45800
H  -4.82600 28.57000 19.89000
H  -2.97400 30.39700 20.72600
H  -3.04700 29.65700 19.06300
H  -1.94500 28.99000 20.10600
H  0.61500 29.33900 24.61400
H  -0.24700 30.56600 25.53200
H  -0.82600 30.26500 23.87500
H  -2.72100 28.73800 29.35100
H  0.77300 27.27300 31.78600
H  -0.48700 26.28900 32.55500
H  -0.34200 27.98200 32.84300

