158

Mg 35.40100 2.44100 30.31900
C  32.74000 3.17400 32.46800
C  37.62800 2.53600 32.90900
C  37.95500 1.97500 28.10300
C  33.19200 2.70600 27.64800
N  35.19900 2.75600 32.39500
C  33.96800 2.98700 33.10500
C  34.24900 3.10700 34.63700
C  35.77400 3.19300 34.68400
C  36.26600 2.74100 33.24200
C  36.37000 4.55800 35.20800
C  33.70300 1.92500 35.50200
C  33.16400 2.19000 36.91800
H  33.91600 3.23100 37.82500
N  37.49100 2.10300 30.53000
C  38.17900 2.20300 31.70500
C  39.52500 1.73400 31.42100
C  39.65400 1.40200 30.09200
C  38.37400 1.85800 29.48800
C  40.64100 1.58100 32.42900
C  40.74200 0.76000 29.29600
O  40.63400 0.61200 28.05700
C  41.97800 0.23100 29.86100
N  35.59200 2.59200 28.16400
C  36.72400 2.32600 27.54300
C  36.55300 2.28200 26.00500
C  34.96300 2.42600 25.87000
C  34.54400 2.61000 27.30700
C  37.40500 3.44000 25.34200
C  34.22900 1.19000 25.31600
C  32.92800 1.32200 24.44300
N  33.37800 2.78400 30.06400
C  32.58300 2.82600 28.85500
C  31.20300 3.05000 29.24200
C  31.21400 3.35400 30.62500
C  32.56500 3.12100 31.09500
C  30.16200 3.23600 28.28200
C  30.43600 3.78000 31.77400
O  29.27900 4.20700 31.89700
C  31.42700 3.62100 32.98500
C  31.63700 4.94300 33.64200
O  32.00400 6.03100 33.14200
O  31.48900 4.78000 34.95000
C  31.61300 5.94900 35.91100
H  38.21100 2.58800 33.83100
H  38.73900 1.74000 27.38000
H  32.51000 2.78300 26.79800
H  33.83600 4.01500 35.07700
H  36.28600 2.37500 35.19100
H  35.75000 5.15800 35.87400
H  36.50300 5.20200 34.33800
H  37.33400 4.34500 35.67000
H  34.48100 1.16200 35.51800
H  32.83100 1.54900 34.96600
H  33.35300 1.21700 37.37200
H  32.08400 2.33200 36.92300
H  41.55600 1.81200 31.88300
H  40.63300 0.53800 32.74500
H  40.68100 2.23600 33.30000
H  42.50500 -0.40400 29.14900
H  41.70700 -0.29500 30.77700
H  42.60800 1.09100 30.08600
H  36.90500 1.38700 25.49200
H  34.70100 3.24300 25.19700
H  36.82100 3.92400 24.55900
H  38.32400 3.09200 24.86900
H  37.67200 4.19600 26.08100
H  33.89800 0.61000 26.17700
H  34.91200 0.57400 24.73100
H  32.68500 2.33000 24.10700
H  32.05800 0.95000 24.98500
H  33.16300 0.72600 23.56200
H  30.44500 3.53500 27.27300
H  29.41200 3.93700 28.64900
H  29.69200 2.26300 28.14300
H  30.89200 3.03000 33.72800
H  30.93100 5.90500 36.76000
H  31.36500 6.88600 35.41200
H  32.64100 5.99700 36.27000
Mg 50.44100 45.87600 42.70900
C  47.58800 46.93900 41.02400
C  50.02300 42.72400 41.26100
C  53.66300 45.15100 43.35500
C  51.04500 49.24400 43.77600
N  48.94900 45.01000 41.21100
C  47.83100 45.60000 40.80200
C  46.95700 44.60000 40.00200
C  47.70100 43.16000 40.21700
C  48.95300 43.60800 40.94400
C  46.87100 42.09800 40.91700
C  46.75600 45.09800 38.50400
C  45.37400 44.88500 37.93600
H  45.13300 43.69800 36.98500
N  51.55700 44.07400 42.59300
C  51.24800 42.95900 41.95500
C  52.35200 41.93600 42.06200
C  53.42100 42.64100 42.65800
C  52.90900 44.03800 42.87900
C  52.11000 40.52300 41.59600
C  54.75000 42.07700 43.05900
O  54.88900 40.88400 43.07600
C  55.86600 42.95700 43.56700
N  52.03700 47.00400 43.55000
C  53.26400 46.44100 43.67400
C  54.24100 47.51000 44.15200
C  53.45400 48.75200 44.49800
C  52.08200 48.32800 44.02000
C  55.23400 47.11600 45.31800
C  53.98600 50.08200 43.96400
C  54.07400 51.25200 44.97100
N  49.55700 47.70800 42.63100
C  49.87200 48.95000 43.09900
C  48.81000 49.88300 42.69000
C  47.92600 49.12300 41.93900
C  48.41000 47.81900 41.82600
C  48.77200 51.32400 43.00500
C  46.65700 49.27400 41.16400
O  45.94000 50.23900 40.89200
C  46.46500 47.79800 40.55700
C  45.13800 47.33900 41.17300
O  44.86600 46.82600 42.29700
O  44.20500 47.49100 40.18800
C  42.85300 47.07200 40.46300
H  49.77000 41.73300 40.87700
H  54.75200 45.12900 43.27600
H  51.20900 50.30300 43.99200
H  45.95600 44.47600 40.41500
H  47.90100 42.54700 39.33800
H  45.81800 42.29600 40.71900
H  46.96300 42.02700 42.00100
H  47.17900 41.15800 40.45900
H  47.44600 44.55000 37.86300
H  46.93200 46.17000 38.41900
H  45.08000 45.72500 37.30700
H  44.63300 44.77700 38.72800
H  52.97900 39.88800 41.76900
H  51.87300 40.34100 40.54700
H  51.41100 39.99200 42.24200
H  55.53800 43.54600 44.42400
H  56.24300 43.59300 42.76700
H  56.74700 42.36100 43.80500
H  54.75500 47.62400 43.19800
H  53.21400 48.88000 45.55300
H  54.80600 46.24700 45.81800
H  55.26900 47.83200 46.13900
H  56.22100 47.01800 44.86500
H  53.47600 50.32100 43.03100
H  55.03500 49.93000 43.70900
H  54.50700 50.87300 45.89700
H  53.06400 51.56700 45.23400
H  54.57700 52.14800 44.60900
H  48.73000 51.96900 42.12700
H  49.63500 51.62900 43.59700
H  47.85100 51.44400 43.57600
H  46.31200 47.79900 39.47800
H  42.24800 47.55100 39.69300
H  42.60200 47.36500 41.48200
H  42.72600 46.01100 40.24900

