158

Mg 24.30300 -5.63800 46.35300
C  26.58700 -3.58700 44.71200
C  21.90500 -4.62900 44.18100
C  22.71800 -8.52400 47.06300
C  27.32100 -7.21700 47.79100
N  24.25700 -4.32300 44.71300
C  25.27700 -3.58900 44.21700
C  24.73800 -2.45200 43.25200
C  23.20900 -2.64900 43.40700
C  23.08400 -3.93200 44.13500
C  22.41000 -1.49300 44.09800
C  25.35700 -2.81400 41.82400
C  25.86100 -1.58100 41.00300
H  25.48200 -1.57400 39.51000
N  22.53600 -6.43600 45.87200
C  21.66400 -5.82300 44.99500
C  20.49800 -6.67100 44.80000
C  20.68400 -7.80500 45.69200
C  21.99700 -7.65000 46.26600
C  19.35100 -6.38800 43.80500
C  19.60400 -8.88800 45.94700
O  18.68000 -8.93200 45.20100
C  19.77000 -9.85600 46.96100
N  24.93600 -7.54700 47.45000
C  24.01500 -8.53200 47.58700
C  24.44600 -9.60300 48.55000
C  25.97100 -9.16000 48.78600
C  26.14200 -7.93300 47.93900
C  23.56200 -9.77300 49.83400
C  27.02800 -10.32400 48.44300
C  28.02300 -10.69400 49.53800
N  26.45200 -5.23500 46.57700
C  27.53900 -5.94500 47.15300
C  28.73000 -5.17900 46.93400
C  28.42000 -4.28100 45.95400
C  27.04000 -4.35200 45.75300
C  30.05500 -5.47800 47.55600
C  28.96900 -3.27500 45.06300
O  30.04300 -2.73300 44.96700
C  27.78300 -2.72100 44.32700
C  27.52300 -1.35400 44.64600
O  27.18800 -0.91500 45.77700
O  27.81600 -0.54200 43.53000
C  27.75500 0.87000 43.79500
H  21.14600 -4.38400 43.43500
H  22.28500 -9.51700 47.19800
H  28.26200 -7.57800 48.21100
H  25.13700 -1.52100 43.65500
H  22.63500 -2.77300 42.48800
H  23.01400 -0.60000 44.26200
H  22.16300 -1.85600 45.09600
H  21.55400 -1.25200 43.46800
H  24.49500 -3.25700 41.32400
H  26.13400 -3.57200 41.92400
H  26.94100 -1.46000 41.08700
H  25.41700 -0.69600 41.45800
H  19.13600 -7.24600 43.16900
H  19.57200 -5.46700 43.26600
H  18.46500 -6.24400 44.42400
H  20.17200 -9.19900 47.73200
H  20.51400 -10.55000 46.57100
H  18.79800 -10.29800 47.18200
H  24.47000 -10.49900 47.93000
H  26.01300 -8.80000 49.81400
H  22.64800 -9.18600 49.74400
H  24.18900 -9.56100 50.70000
H  23.44000 -10.85600 49.81300
H  27.63600 -10.00200 47.59800
H  26.51800 -11.22200 48.09200
H  28.13100 -11.77700 49.60000
H  27.62100 -10.41800 50.51300
H  28.87100 -10.09900 49.19900
H  30.80700 -4.70200 47.41200
H  30.26900 -6.35300 46.94100
H  30.00600 -5.79300 48.59800
H  27.97700 -2.80500 43.25700
H  28.32700 1.34200 42.99700
H  28.05400 1.21200 44.78600
H  26.71500 1.16100 43.64700
Mg 17.01000 51.72800 25.63200
C  18.74500 50.57800 28.51800
C  14.44800 52.63600 27.71800
C  15.43600 52.77000 22.95600
C  19.44300 50.18800 23.61600
N  16.70000 51.67300 27.91800
C  17.56600 51.23500 28.90500
C  16.99400 51.52100 30.31600
C  15.46500 51.86500 29.97300
C  15.53200 52.03300 28.41300
C  14.41200 50.79200 30.35400
C  17.81200 52.62000 31.01500
C  18.00200 52.38300 32.50100
H  16.86000 52.93000 33.34600
N  15.21300 52.74500 25.38500
C  14.30200 53.00600 26.34400
C  13.21000 53.76300 25.72200
C  13.39400 53.74600 24.29600
C  14.71100 53.09200 24.12800
C  12.12000 54.34600 26.61600
C  12.49000 54.26000 23.16900
O  12.96900 54.37700 22.05000
C  11.03900 54.64000 23.37500
N  17.32200 51.38600 23.52400
C  16.60500 52.03600 22.64300
C  17.11600 51.87200 21.20800
C  18.59800 51.37900 21.49300
C  18.40400 50.87600 22.93900
C  16.26100 50.93300 20.35700
C  19.75000 52.46000 21.40700
C  20.91400 52.06700 20.47700
N  18.62600 50.52700 25.92100
C  19.52600 49.95800 25.01100
C  20.66200 49.35100 25.69900
C  20.40400 49.55200 27.07700
C  19.17400 50.36200 27.17000
C  21.76500 48.64300 24.92500
C  20.94200 49.35200 28.38600
O  21.90700 48.73300 28.72500
C  19.76500 49.93700 29.38600
C  19.28800 48.79000 30.21600
O  18.81600 47.70300 29.78200
O  19.36300 49.13800 31.58200
C  18.93600 48.14400 32.59800
H  13.52500 52.90200 28.23800
H  14.98200 53.20800 22.06500
H  20.30800 49.96000 22.99000
H  17.12800 50.59600 30.87700
H  15.24000 52.88700 30.27800
H  14.68400 50.44500 31.35100
H  14.35500 49.93400 29.68400
H  13.48500 51.36600 30.37200
H  17.46500 53.65000 30.92700
H  18.83600 52.55800 30.64600
H  19.01900 52.56500 32.84800
H  17.95500 51.29800 32.59400
H  11.20400 53.79200 26.41000
H  12.03800 55.36600 26.24100
H  12.22500 54.24200 27.69600
H  10.63000 53.82900 23.97700
H  10.48100 54.94300 22.48800
H  10.89800 55.53600 23.98000
H  17.23700 52.82200 20.68800
H  18.90900 50.66500 20.73000
H  15.68000 51.53900 19.66100
H  15.66000 50.29300 21.00300
H  16.94600 50.36000 19.73100
H  20.13700 52.72800 22.39000
H  19.40800 53.37700 20.92700
H  20.81200 51.02200 20.18700
H  21.79900 52.17700 21.10300
H  20.96400 52.68100 19.57800
H  22.29600 47.98800 25.61500
H  22.43900 49.34400 24.43300
H  21.33100 47.92300 24.23100
H  20.17200 50.71900 30.02600
H  17.86300 48.33800 32.60600
H  19.39100 48.44100 33.54300
H  19.15000 47.13900 32.23500

