158

Mg 41.15100 9.34400 29.85300
C  42.74800 10.48100 32.78200
C  38.58000 8.20100 31.77200
C  39.80700 7.96800 27.07800
C  43.91800 10.38200 28.06500
N  40.70300 9.45400 32.06100
C  41.49400 9.94100 33.02900
C  40.74900 9.77600 34.40300
C  39.50600 8.89500 34.11000
C  39.59200 8.76100 32.56200
C  39.42500 7.59800 34.91000
C  40.49400 11.15700 35.06700
C  40.02500 11.17200 36.55300
H  40.84300 12.07500 37.53600
N  39.34200 8.24400 29.48600
C  38.43200 7.95600 30.37900
C  37.30600 7.39700 29.72400
C  37.54200 7.35400 28.30600
C  38.96000 7.84100 28.20800
C  36.11600 6.83300 30.51100
C  36.66600 6.97900 27.13100
O  37.04300 7.20900 25.97100
C  35.26600 6.52200 27.35200
N  41.86900 9.21100 27.89800
C  41.10300 8.57900 26.92200
C  41.80900 8.55600 25.52900
C  43.11600 9.29500 25.88300
C  42.92000 9.70700 27.33900
C  42.07300 7.15500 24.85500
C  43.60500 10.40900 24.94100
C  42.95900 11.72000 25.08500
N  42.94800 10.32800 30.20500
C  43.97200 10.66000 29.35200
C  45.05300 11.20300 30.11500
C  44.67500 11.12400 31.47100
C  43.35000 10.63200 31.45000
C  46.48100 11.59900 29.61800
C  45.06700 11.38500 32.81800
O  46.05400 11.99800 33.25500
C  43.83400 10.95900 33.74500
C  44.33500 10.05500 34.75900
O  44.34500 8.86100 34.72400
O  44.82200 10.76900 35.89200
C  45.27100 9.91000 36.95200
H  37.73800 7.93200 32.41300
H  39.41600 7.50200 26.17100
H  44.88100 10.54900 27.57800
H  41.49600 9.24600 34.99500
H  38.53800 9.31800 34.38100
H  40.17900 7.51700 35.69300
H  39.64200 6.76500 34.24200
H  38.40600 7.38600 35.23500
H  39.82000 11.72200 34.42400
H  41.39900 11.73000 34.86600
H  39.91100 10.17000 36.96600
H  39.01700 11.58600 36.55400
H  35.18400 7.28300 30.16800
H  36.17300 7.08700 31.57000
H  35.87500 5.77600 30.40200
H  35.26300 5.77100 28.14200
H  34.93700 5.97200 26.47100
H  34.64400 7.40800 27.48100
H  41.17400 9.26500 24.99700
H  43.99100 8.64500 25.90900
H  41.73700 6.45800 25.62300
H  43.13200 6.99300 24.65400
H  41.41400 7.00600 23.99900
H  43.41400 9.91400 23.98800
H  44.66500 10.64500 25.03500
H  42.24300 11.63400 25.90200
H  42.36900 11.97100 24.20400
H  43.64500 12.54500 25.27900
H  46.54100 12.61700 29.23300
H  46.88800 10.89200 28.89500
H  47.04600 11.71000 30.54400
H  43.47000 11.90000 34.15800
H  45.99700 10.56900 37.42900
H  45.84100 9.03500 36.63900
H  44.54000 9.57800 37.68900
Mg -11.62800 16.93800 42.69100
C  -8.55100 15.34600 42.24100
C  -10.28000 19.75700 41.29300
C  -14.78800 17.86100 41.90200
C  -12.91700 13.73300 43.68100
N  -9.68700 17.43400 41.84300
C  -8.58400 16.66700 41.80600
C  -7.35700 17.43300 41.26300
C  -7.81800 18.90300 41.34800
C  -9.34400 18.69500 41.48600
C  -7.25300 19.80400 42.48500
C  -6.90300 16.85100 39.81300
C  -5.39100 16.98500 39.56900
H  -4.99500 17.43400 38.19300
N  -12.41400 18.65100 41.74000
C  -11.69200 19.72700 41.30200
C  -12.63400 20.69000 40.83600
C  -13.96200 20.03600 40.84700
C  -13.76000 18.73500 41.51100
C  -12.20300 21.95700 40.18000
C  -15.20100 20.75400 40.29200
O  -15.09100 21.89400 39.87200
C  -16.57400 20.02800 40.19900
N  -13.60200 15.94700 42.85400
C  -14.73400 16.57700 42.42200
C  -15.97900 15.72300 42.71900
C  -15.31700 14.37800 43.23200
C  -13.85200 14.71400 43.24500
C  -17.05400 16.39200 43.66300
C  -15.69000 13.08500 42.45600
C  -16.12300 11.95300 43.39900
N  -10.92900 14.99100 43.03400
C  -11.49600 13.83600 43.52300
C  -10.51400 12.71900 43.68700
C  -9.30300 13.31700 43.17200
C  -9.61200 14.67300 42.78200
C  -10.80900 11.28400 44.09600
C  -7.99000 12.97000 42.82000
O  -7.28900 11.96500 42.92600
C  -7.37400 14.34000 42.30900
C  -6.32300 14.78000 43.34100
O  -6.66600 15.42500 44.33600
O  -5.03600 14.37300 43.09600
C  -4.04600 14.66200 44.07700
H  -9.81500 20.70900 41.03000
H  -15.79400 18.21200 41.66600
H  -13.31300 12.74700 43.93100
H  -6.51100 17.25500 41.92700
H  -7.42300 19.48600 40.51600
H  -8.11000 20.00400 43.12900
H  -6.88300 20.79400 42.21900
H  -6.43700 19.30400 43.00600
H  -7.37100 17.37800 38.98100
H  -7.27500 15.82800 39.76800
H  -4.98200 16.01800 39.86300
H  -5.00800 17.72400 40.27300
H  -12.71300 22.76000 40.71200
H  -12.57200 21.87000 39.15800
H  -11.13700 22.18400 40.20900
H  -16.49500 19.16700 39.53500
H  -17.28600 20.72600 39.75800
H  -17.09700 19.91700 41.14900
H  -16.43300 15.54700 41.74300
H  -15.53900 14.30900 44.29700
H  -17.98900 16.56800 43.13300
H  -16.59900 17.34600 43.93100
H  -17.05200 15.82600 44.59500
H  -14.89600 12.69600 41.81900
H  -16.60800 13.23000 41.88800
H  -17.16800 12.09700 43.67400
H  -15.62000 11.91200 44.36500
H  -15.97600 11.00200 42.88900
H  -9.83500 10.80000 44.17500
H  -11.24800 10.73700 43.26100
H  -11.30700 11.22700 45.06300
H  -6.78900 14.16800 41.40600
H  -3.87800 15.72700 43.92300
H  -3.14700 14.05600 43.97200
H  -4.33300 14.48500 45.11400

