158

Mg 35.48700 -0.26700 29.83700
C  33.48300 1.22600 32.24200
C  37.85600 -1.02800 32.30900
C  37.77500 -1.13600 27.42300
C  33.23800 0.81600 27.39000
N  35.59300 0.16400 32.07700
C  34.63500 0.79100 32.83500
C  34.89400 0.58500 34.33300
C  36.49300 0.08700 34.23200
C  36.62900 -0.32300 32.75200
C  37.59700 1.14100 34.61000
C  33.95500 -0.39100 35.02500
C  33.64700 -0.11200 36.46800
H  34.22800 1.09400 37.20800
N  37.50300 -1.05400 29.90800
C  38.27800 -1.36600 31.00400
C  39.48500 -2.10000 30.62500
C  39.47800 -2.08400 29.22100
C  38.18800 -1.41900 28.77900
C  40.43100 -2.78800 31.61800
C  40.47300 -2.63200 28.21900
O  40.27700 -2.76700 27.01800
C  41.81900 -3.07900 28.72000
N  35.49000 -0.21000 27.74600
C  36.54700 -0.60900 26.95600
C  36.29800 -0.23600 25.46100
C  34.74800 0.18800 25.43200
C  34.45900 0.25000 26.95800
C  37.33800 0.76100 24.94200
C  33.75500 -0.79100 24.66100
C  32.39600 -0.17700 24.19100
N  33.64400 0.70600 29.75000
C  32.84700 1.08300 28.70500
C  31.66300 1.69800 29.19000
C  31.83800 1.84500 30.59600
C  33.13200 1.27700 30.84100
C  30.56100 2.13100 28.31400
C  31.29300 2.40500 31.84800
O  30.35800 3.16000 32.12800
C  32.27400 1.90100 32.93900
C  32.69000 3.11100 33.60100
O  33.61100 3.86400 33.34000
O  31.83500 3.22700 34.71700
C  32.01000 4.45000 35.53500
H  38.61700 -1.31000 33.04000
H  38.58300 -1.23100 26.69400
H  32.51500 1.23200 26.68600
H  34.88800 1.51200 34.90600
H  36.72800 -0.69500 34.95400
H  37.07700 2.02500 34.97800
H  38.16500 1.38400 33.71200
H  38.13700 0.77400 35.48300
H  34.57000 -1.28500 34.92100
H  33.05100 -0.49600 34.42400
H  33.95900 -0.97900 37.05000
H  32.56600 -0.00700 36.56200
H  40.32500 -3.85100 31.39900
H  40.09800 -2.51500 32.62000
H  41.45600 -2.42300 31.56600
H  42.32500 -3.42700 27.82000
H  41.79500 -3.85000 29.49100
H  42.27000 -2.18200 29.14300
H  36.43500 -1.11700 24.83500
H  34.71700 1.22700 25.10400
H  37.91400 1.14500 25.78400
H  36.75400 1.56800 24.50100
H  37.90100 0.40800 24.07700
H  33.47100 -1.68900 25.20900
H  34.31700 -1.16800 23.80700
H  32.34700 -0.63900 23.20400
H  32.57800 0.89200 24.29700
H  31.69600 -0.57400 24.92600
H  29.96000 1.24900 28.09600
H  30.97800 2.47500 27.36800
H  30.10100 3.01800 28.75000
H  31.83200 1.23200 33.67800
H  31.02200 4.85400 35.75400
H  32.46800 5.26000 34.96600
H  32.49000 4.29900 36.50200
Mg 47.30300 45.41400 42.45500
C  43.94600 44.68000 42.27400
C  47.93000 42.05600 42.12500
C  50.45000 46.24000 41.63600
C  46.50900 48.92000 42.51400
N  46.05600 43.56300 42.11500
C  44.71500 43.45600 42.22300
C  44.19200 42.05200 42.33800
C  45.54000 41.31200 42.71900
C  46.59000 42.37500 42.37800
C  45.58200 40.77400 44.20500
C  43.50600 41.49500 41.08200
C  43.75000 42.18500 39.73600
H  43.28000 41.40600 38.51600
N  48.97200 44.33700 41.88200
C  49.01000 42.95500 41.79600
C  50.31300 42.54300 41.28200
C  51.15300 43.69800 41.21200
C  50.20700 44.82400 41.59900
C  50.77500 41.11300 41.16300
C  52.60400 43.71900 40.76300
O  53.22400 42.68900 40.51100
C  53.39500 44.98700 40.85000
N  48.31900 47.27400 42.12800
C  49.61900 47.35700 41.88200
C  50.13000 48.84000 41.95200
C  48.88800 49.55500 42.52200
C  47.83100 48.52800 42.30400
C  51.47100 49.13000 42.66500
C  48.56900 50.97400 41.84300
C  48.38700 52.19700 42.83700
N  45.64600 46.55000 42.31400
C  45.51600 47.94600 42.33800
C  44.00700 48.21000 42.41800
C  43.46000 46.96700 42.38500
C  44.43300 46.03300 42.28000
C  43.26100 49.54400 42.39500
C  42.13000 46.28400 42.45100
O  41.06000 46.80400 42.55000
C  42.45700 44.80300 42.40900
C  41.85900 44.03700 43.61500
O  41.09900 43.04500 43.60300
O  42.28200 44.70000 44.72200
C  41.87700 44.04900 45.96700
H  48.32400 41.03900 42.17000
H  51.39400 46.56900 41.19700
H  46.14900 49.94300 42.64200
H  43.50200 41.97200 43.17800
H  45.71900 40.56500 41.94600
H  46.42300 41.25500 44.70500
H  45.67200 39.68900 44.25800
H  44.61200 41.00700 44.64300
H  42.42400 41.45800 41.21000
H  43.72000 40.44000 40.91100
H  44.82200 42.24400 39.54900
H  43.34300 43.19600 39.75300
H  49.98000 40.49500 40.74500
H  51.25900 40.65500 42.02600
H  51.57800 41.16200 40.42700
H  53.06700 45.63600 40.03800
H  54.44300 44.80100 40.61300
H  53.31400 45.43300 41.84100
H  50.15700 49.16000 40.91000
H  49.02100 49.83200 43.56800
H  51.35000 49.82400 43.49800
H  52.20600 49.64500 42.04700
H  51.90000 48.18800 43.00500
H  47.67800 50.88900 41.22100
H  49.26300 51.22400 41.04100
H  49.08800 53.02000 42.69400
H  48.38100 51.88300 43.88100
H  47.40100 52.60400 42.61200
H  43.51200 50.09100 43.30500
H  42.20000 49.38300 42.58900
H  43.46900 50.07500 41.46600
H  41.86600 44.47500 41.55400
H  42.23800 43.02400 46.05000
H  40.79100 44.10900 46.03500
H  42.39000 44.51100 46.81100

