158

Mg 25.78100 0.97300 28.65600
C  27.65500 0.67800 31.58800
C  23.07000 1.69000 30.63700
C  23.97100 1.19400 25.86300
C  28.50300 -0.12600 26.81200
N  25.42000 1.08900 30.89600
C  26.34800 0.96200 31.87100
C  25.76400 1.21700 33.32300
C  24.28100 1.59700 32.97600
C  24.22100 1.44500 31.39500
C  23.31300 0.78200 33.90700
C  26.46300 2.36400 34.13200
C  25.85600 2.76600 35.46200
H  26.51200 2.18100 36.69500
N  23.78400 1.33300 28.32000
C  22.84200 1.66000 29.29000
C  21.60300 1.92700 28.58800
C  21.86900 1.86200 27.20700
C  23.25600 1.40800 27.04100
C  20.26000 2.31300 29.30500
C  20.93400 2.30600 26.08600
O  21.19800 2.05400 24.92400
C  19.67200 3.06000 26.42600
N  26.15300 0.43600 26.71300
C  25.29100 0.77600 25.78700
C  25.90600 0.54000 24.39900
C  27.37000 0.16000 24.67800
C  27.36000 0.18400 26.15800
C  25.26000 -0.41600 23.42600
C  28.33600 1.21700 23.97300
C  28.77300 2.50700 24.67500
N  27.68400 0.45600 29.03400
C  28.64500 -0.00100 28.18600
C  29.82300 -0.30800 28.89600
C  29.57100 0.01900 30.26000
C  28.20100 0.38900 30.27900
C  31.10600 -0.81600 28.26900
C  30.11200 0.11700 31.62900
O  31.24600 -0.08500 32.02200
C  28.87300 0.48000 32.55900
C  28.60300 -0.59300 33.53700
O  27.82000 -1.53800 33.40000
O  29.47200 -0.59300 34.58300
C  29.69200 -1.82900 35.40300
H  22.22400 2.01200 31.24900
H  23.46800 1.17700 24.89400
H  29.25500 -0.54100 26.13700
H  25.83200 0.30400 33.91500
H  24.06800 2.63000 33.25100
H  23.11600 1.21500 34.88700
H  23.75900 -0.20600 34.02300
H  22.34400 0.59700 33.44300
H  26.64000 3.15900 33.40800
H  27.45700 1.99100 34.37700
H  24.79900 2.53900 35.32100
H  25.94600 3.84000 35.62700
H  20.24100 2.13700 30.38100
H  19.48300 1.67100 28.89000
H  20.09200 3.36500 29.07400
H  19.79800 4.02100 26.92600
H  19.02500 2.33700 26.92300
H  19.24400 3.32900 25.46100
H  25.77400 1.48600 23.87300
H  27.64800 -0.82800 24.31100
H  24.67100 -1.10500 24.03100
H  25.92400 -0.96800 22.76000
H  24.62500 0.11200 22.71500
H  27.99400 1.50500 22.97900
H  29.27900 0.71300 23.75900
H  28.10300 2.88200 25.44900
H  28.91900 3.32200 23.96700
H  29.75200 2.30000 25.11000
H  31.76600 -0.04400 27.87500
H  30.88900 -1.55600 27.49800
H  31.66900 -1.27100 29.08400
H  29.20800 1.45400 32.91700
H  28.96600 -1.98300 36.20100
H  30.64600 -1.80700 35.93000
H  29.57900 -2.64200 34.68600
Mg 48.36400 15.25300 28.32000
C  46.35000 15.04300 31.16100
C  50.57400 17.15400 30.05100
C  50.22200 15.48200 25.52500
C  45.64200 14.16700 26.46200
N  48.43200 16.01100 30.39200
C  47.57800 15.63400 31.43200
C  48.00600 16.21500 32.73900
C  49.23800 17.07100 32.33500
C  49.45900 16.77800 30.83400
C  49.21500 18.60900 32.66700
C  48.35800 15.13000 33.84500
C  47.93000 15.31300 35.26600
H  48.00100 16.79600 35.82700
N  50.24800 16.16800 27.90100
C  51.05900 16.83900 28.75800
C  52.25200 17.22700 28.07100
C  52.17000 16.69500 26.74300
C  50.84400 16.08600 26.66000
C  53.40900 17.99200 28.76100
C  53.27500 16.73900 25.66600
O  53.13600 16.13900 24.60800
C  54.50400 17.47900 25.85300
N  47.98500 14.92600 26.29200
C  48.94400 15.11600 25.32900
C  48.46000 14.66500 23.91500
C  46.96000 14.32400 24.14700
C  46.81000 14.47700 25.72000
C  48.56400 15.96000 22.93300
C  46.51600 12.90000 23.56100
C  47.19600 11.64700 24.19200
N  46.51000 14.65300 28.71400
C  45.50300 14.24500 27.82500
C  44.31700 13.83600 28.49500
C  44.58600 14.24200 29.82100
C  45.93600 14.64900 29.91500
C  42.96200 13.28800 28.00100
C  44.06700 14.26800 31.17900
O  42.99200 13.92300 31.61000
C  45.18700 14.73000 32.08900
C  44.61700 15.76600 32.89400
O  44.43700 16.88000 32.47400
O  44.35400 15.28600 34.16400
C  43.59600 16.28000 35.00500
H  51.37100 17.73200 30.52400
H  50.79300 15.51000 24.59500
H  44.84700 13.70100 25.87600
H  47.25800 16.91700 33.10700
H  50.10500 16.74900 32.91300
H  48.46200 18.82600 33.42400
H  49.01200 19.18900 31.76600
H  50.21800 18.78900 33.05300
H  49.43600 14.97500 33.89800
H  47.92800 14.17100 33.55600
H  48.44900 14.60700 35.91500
H  46.87900 15.02700 35.32500
H  53.50100 18.97500 28.30000
H  54.34900 17.44000 28.74100
H  53.22500 18.21900 29.81000
H  55.20600 17.27700 25.04400
H  54.93900 17.14700 26.79500
H  54.46900 18.54700 26.07000
H  48.95700 13.76700 23.54700
H  46.29500 15.05100 23.68100
H  49.07500 16.83800 23.32700
H  47.57900 16.27300 22.58600
H  49.04100 15.65500 22.00100
H  46.60400 12.95000 22.47600
H  45.43800 12.79700 23.68900
H  47.42500 10.82700 23.51100
H  46.52200 11.12400 24.87100
H  48.10300 11.94800 24.71700
H  42.14300 13.65000 28.62200
H  42.84500 12.20500 28.04500
H  42.78900 13.67500 26.99600
H  45.44400 13.95000 32.80600
H  42.76100 16.53700 34.35300
H  44.04800 17.25900 35.16400
H  43.36700 15.76800 35.93900

