158

Mg 8.67000 5.34500 27.31800
C  9.58100 3.58200 30.07500
C  6.03600 6.87400 29.08500
C  7.45900 6.94300 24.46800
C  10.42200 3.16800 25.23800
N  8.01400 5.32400 29.35200
C  8.55600 4.49400 30.32900
C  7.90700 4.80500 31.77200
C  6.58900 5.53200 31.18900
C  6.89800 5.97000 29.82400
C  5.33300 4.53200 31.09900
C  8.77000 5.75500 32.58500
C  9.08600 5.37200 34.02000
H  10.14400 6.02700 34.85900
N  7.08100 6.83400 26.87100
C  6.14700 7.27900 27.73600
C  5.28000 8.30400 27.10100
C  5.79800 8.53600 25.79200
C  6.80900 7.42000 25.64900
C  4.34700 9.14100 27.90000
C  5.39200 9.50400 24.69800
O  5.97500 9.55900 23.57000
C  4.32200 10.45800 24.97200
N  8.74300 4.97800 25.13100
C  8.26600 5.85300 24.19400
C  8.78900 5.49200 22.71900
C  9.64700 4.19600 23.08400
C  9.65400 4.10400 24.59100
C  7.62000 5.27100 21.63300
C  11.08300 4.15700 22.56500
C  11.44300 2.84500 21.89000
N  9.86000 3.79600 27.51100
C  10.54400 2.96600 26.63100
C  11.31200 1.98400 27.34700
C  11.04100 2.23800 28.70800
C  10.08700 3.31500 28.74800
C  12.20300 0.83200 26.74100
C  11.47400 1.88500 30.01700
O  12.41800 1.17100 30.32600
C  10.51400 2.69300 30.95800
C  9.69300 1.79400 31.75700
O  8.84300 1.02600 31.33800
O  10.08900 2.02500 33.08700
C  9.50600 1.02400 33.99100
H  5.12300 7.05300 29.65700
H  7.16300 7.39000 23.51700
H  11.15900 2.59800 24.66800
H  7.70800 3.89100 32.33000
H  6.37000 6.35400 31.87100
H  4.61900 4.77300 31.88600
H  5.56300 3.46700 31.09700
H  4.72200 4.63800 30.20300
H  8.36100 6.76300 32.52300
H  9.80300 5.82500 32.24500
H  9.30400 4.30800 34.10800
H  8.13900 5.36800 34.56000
H  4.31600 8.83000 28.94400
H  3.37300 9.09600 27.41200
H  4.62700 10.19500 27.87600
H  3.42100 9.92500 25.27400
H  4.31100 11.03800 24.04900
H  4.59500 11.09400 25.81500
H  9.42700 6.33700 22.45800
H  9.03500 3.41400 22.63500
H  6.73000 5.77500 22.00900
H  7.38800 4.20600 21.64300
H  7.80600 5.70000 20.64800
H  11.75100 4.38100 23.39700
H  11.33500 4.99100 21.91000
H  12.13000 3.07200 21.07400
H  10.61800 2.22900 21.53400
H  12.07800 2.25600 22.55200
H  13.26500 1.07400 26.70400
H  11.84100 0.62700 25.73300
H  12.05900 -0.04600 27.37000
H  11.18600 3.27000 31.59300
H  8.45800 0.82100 33.77100
H  9.34900 1.55600 34.92900
H  10.13200 0.14600 34.15500
Mg 23.58200 -4.44700 45.58100
C  25.84700 -2.24000 44.11000
C  21.19000 -3.07200 43.54500
C  21.69000 -7.22700 46.11800
C  26.25100 -5.96100 47.28300
N  23.59200 -2.89200 43.88600
C  24.61200 -2.14800 43.50100
C  24.21300 -1.06900 42.56800
C  22.60500 -1.13300 42.49900
C  22.43300 -2.42200 43.43000
C  21.81400 0.16100 43.02500
C  24.88200 -1.34100 41.21100
C  25.33200 -0.00000 40.52000
H  25.16200 0.03000 38.98500
N  21.74000 -5.04700 44.92200
C  20.91200 -4.30600 44.11000
C  19.64400 -5.05700 43.99700
C  19.77700 -6.26400 44.71400
C  21.12100 -6.25200 45.29600
C  18.43400 -4.56600 43.14700
C  18.62500 -7.32000 44.94200
O  17.53100 -7.25300 44.43500
C  18.73000 -8.42100 45.97200
N  23.95600 -6.40800 46.53400
C  22.99700 -7.34000 46.62400
C  23.51000 -8.52500 47.47900
C  24.82100 -7.93200 48.15200
C  25.05000 -6.68900 47.21700
C  22.55800 -9.02700 48.61900
C  26.01700 -9.03600 48.15500
C  26.95900 -9.04300 49.39400
N  25.58800 -4.10700 45.78700
C  26.53600 -4.82600 46.59200
C  27.75500 -4.08200 46.52100
C  27.55100 -3.09800 45.52000
C  26.26900 -3.13900 45.11600
C  29.01500 -4.51100 47.27000
C  28.17800 -2.03100 44.83300
O  29.32200 -1.57100 44.93500
C  27.16900 -1.49200 43.78400
C  27.21200 -0.03600 44.01900
O  26.52000 0.60100 44.78000
O  28.35700 0.50700 43.40500
C  28.86800 1.80000 43.83900
H  20.46600 -2.50600 42.95500
H  21.17300 -8.15000 46.38900
H  26.96200 -6.51700 47.89800
H  24.59400 -0.17100 43.05400
H  22.25700 -1.39300 41.50000
H  22.48700 1.01800 42.99400
H  21.42100 0.04100 44.03500
H  20.96500 0.31000 42.35800
H  24.20200 -1.74300 40.46100
H  25.72600 -2.03000 41.26800
H  26.32200 0.19100 40.93300
H  24.69000 0.80400 40.87800
H  18.23900 -5.35500 42.42100
H  18.63300 -3.63100 42.62300
H  17.66900 -4.35600 43.89500
H  17.79600 -8.97200 46.08200
H  19.10300 -7.82100 46.80200
H  19.54100 -9.10700 45.72800
H  23.80600 -9.38000 46.87100
H  24.64400 -7.69000 49.20000
H  21.63700 -9.51900 48.30500
H  22.27600 -8.09900 49.11600
H  23.09400 -9.75700 49.22600
H  26.62200 -8.97500 47.25100
H  25.48500 -9.98700 48.18600
H  26.83800 -8.12800 49.97200
H  27.98200 -9.27500 49.09900
H  26.57000 -9.90000 49.94500
H  29.09800 -5.56700 47.01000
H  28.97200 -4.50800 48.35900
H  29.91100 -3.91800 47.08600
H  27.66000 -1.78900 42.85700
H  28.11400 2.48900 44.22100
H  29.45400 2.33000 43.08800
H  29.53200 1.56800 44.67100

