158

Mg 0.32200 7.47800 26.18900
C  1.29700 9.38300 28.79500
C  -0.01000 4.82500 28.25600
C  -0.30100 5.51400 23.47700
C  1.06000 10.14000 24.06300
N  0.54200 7.12600 28.25900
C  0.85700 8.07900 29.21200
C  0.62000 7.50600 30.63600
C  0.51100 6.03500 30.32300
C  0.18100 5.97800 28.87400
C  1.71200 5.14600 30.83500
C  -0.77900 8.05300 31.15300
C  -1.03500 7.91300 32.65800
H  0.17600 7.93500 33.56800
N  -0.15500 5.42700 25.88500
C  -0.27400 4.48300 26.89600
C  -0.67800 3.27000 26.29100
C  -0.88400 3.43300 24.92100
C  -0.38500 4.79500 24.66300
C  -0.77800 1.99500 27.06300
C  -1.32100 2.47400 23.82100
O  -1.30000 2.72800 22.63100
C  -1.76000 1.16300 24.17100
N  0.20100 7.82200 24.14300
C  0.01200 6.91000 23.24300
C  0.27400 7.30800 21.83500
C  0.29500 8.89700 21.97800
C  0.49800 8.97600 23.49600
C  1.56600 6.72500 21.26900
C  -0.96500 9.61800 21.40300
C  -0.64500 10.91000 20.66100
N  1.14300 9.38200 26.39700
C  1.41000 10.32200 25.39100
C  2.06300 11.42800 25.99000
C  1.98300 11.15500 27.37900
C  1.42300 9.86700 27.50300
C  2.51600 12.72000 25.34600
C  2.17100 11.71400 28.69900
O  2.54600 12.80200 29.08000
C  1.62700 10.64300 29.66900
C  2.59800 10.46700 30.74400
O  3.55000 9.64300 30.68200
O  2.37200 11.28400 31.78300
C  3.18500 11.10100 32.97600
H  -0.12400 3.97100 28.92600
H  -0.35600 4.97400 22.52900
H  1.34900 10.90600 23.34100
H  1.44700 7.90100 31.22500
H  -0.37700 5.64900 30.82300
H  1.23000 4.39600 31.46200
H  2.47200 5.77900 31.29300
H  2.28400 4.70400 30.02000
H  -1.50600 7.48500 30.57200
H  -0.78600 9.12000 30.92800
H  -1.63100 7.02200 32.85600
H  -1.61100 8.79400 32.94100
H  -0.27000 2.09300 28.02200
H  -0.25800 1.21500 26.50600
H  -1.78800 1.58400 27.06100
H  -2.03500 0.62700 23.26300
H  -2.64200 1.33700 24.78700
H  -1.00400 0.54500 24.65500
H  -0.61100 7.06200 21.24900
H  1.21300 9.24800 21.50500
H  1.96300 7.39800 20.50900
H  1.39600 5.78900 20.73800
H  2.23100 6.60000 22.12400
H  -1.52200 9.89500 22.29700
H  -1.51400 9.03000 20.66700
H  -0.73700 10.73000 19.59000
H  0.39100 11.24100 20.73800
H  -1.23100 11.71500 21.10400
H  3.26000 12.59400 24.56000
H  3.02200 13.41300 26.01800
H  1.55400 12.98600 24.90700
H  0.73800 11.09300 30.11100
H  2.87000 11.69600 33.83300
H  4.23900 11.34400 32.84200
H  3.09500 10.03500 33.18200
Mg 55.82900 22.63100 44.87900
C  53.73200 25.15700 43.90500
C  53.61200 20.34600 43.78300
C  58.44400 20.34200 44.59400
C  58.30000 24.96500 45.47100
N  53.95500 22.77500 43.87500
C  53.20200 23.84900 43.61400
C  51.69700 23.47500 43.28800
C  51.63800 21.96400 43.60100
C  53.15900 21.69400 43.79000
C  50.75500 21.44300 44.81400
C  51.06700 23.89200 41.89000
C  49.77100 24.67300 42.07400
H  48.83200 24.57100 40.88100
N  56.00900 20.53400 44.45800
C  54.95200 19.80600 43.88400
C  55.41600 18.43800 43.77600
C  56.77100 18.38700 44.03200
C  57.12100 19.73900 44.43400
C  54.53100 17.35800 43.40700
C  57.71900 17.16800 43.91100
O  57.35400 16.08300 43.40500
C  59.18000 17.18600 44.34800
N  58.11500 22.66300 44.99600
C  58.89700 21.58100 44.91200
C  60.37000 21.90300 45.12500
C  60.27800 23.45700 45.23900
C  58.81200 23.71200 45.26500
C  61.03800 21.26200 46.40400
C  61.06100 24.20400 44.12200
C  62.16500 25.19600 44.64200
N  55.94800 24.64400 44.90200
C  57.01100 25.42500 45.20000
C  56.58400 26.79800 45.30900
C  55.23900 26.81800 44.79300
C  54.95600 25.40100 44.56200
C  57.35300 27.97300 45.82900
C  54.06400 27.55300 44.40300
O  53.78300 28.77500 44.51900
C  53.12000 26.53600 43.69100
C  53.11200 26.95800 42.26300
O  54.01500 26.68100 41.44000
O  51.88100 27.56200 41.95200
C  51.78700 27.75900 40.58100
H  52.83700 19.58500 43.67700
H  59.25000 19.60600 44.55100
H  58.95900 25.79600 45.73200
H  51.16700 24.00700 44.07800
H  51.18000 21.45100 42.75600
H  50.05900 22.22900 45.11100
H  51.34500 21.16600 45.68700
H  50.20500 20.64700 44.31300
H  50.92800 22.99900 41.28100
H  51.74600 24.55800 41.35700
H  50.05000 25.69400 42.33600
H  49.25000 24.23100 42.92200
H  54.73600 16.81100 42.48700
H  53.48600 17.62200 43.24400
H  54.54900 16.58700 44.17800
H  59.81100 17.65800 43.59500
H  59.44500 16.14500 44.53100
H  59.28500 17.68700 45.31000
H  60.92500 21.59200 44.24000
H  60.69500 23.78800 46.19000
H  61.91100 20.64800 46.18600
H  60.23300 20.63200 46.78200
H  61.35400 22.08700 47.04300
H  60.31000 24.70800 43.51400
H  61.46700 23.47600 43.42000
H  62.38600 25.07200 45.70200
H  61.91600 26.21600 44.35100
H  63.11100 24.97800 44.14600
H  56.68200 28.56900 46.44700
H  57.61200 28.64200 45.00900
H  58.24500 27.67000 46.37700
H  52.13600 26.70600 44.12800
H  50.92500 28.39000 40.36500
H  51.71700 26.84100 39.99700
H  52.65500 28.25200 40.14500

