158

Mg 0.87100 7.29800 26.36200
C  1.89100 8.97600 29.12500
C  1.01100 4.43700 28.21300
C  0.62200 5.41600 23.49600
C  1.33900 10.16200 24.41600
N  1.36000 6.78700 28.45200
C  1.57200 7.69000 29.45300
C  1.53100 7.02600 30.81800
C  1.34900 5.49900 30.45100
C  1.26000 5.61200 28.91200
C  2.48000 4.57200 30.97600
C  0.29900 7.56400 31.57900
C  0.32900 7.73800 33.11800
H  1.43400 6.97900 33.91200
N  0.83500 5.24500 25.90100
C  0.85000 4.22500 26.85100
C  0.55500 2.93900 26.20900
C  0.48200 3.22600 24.80200
C  0.60700 4.65700 24.67400
C  0.19600 1.68800 26.94300
C  0.25900 2.24900 23.61400
O  0.45700 2.51200 22.46100
C  -0.10000 0.91400 23.91700
N  0.74400 7.71900 24.32300
C  0.59600 6.80200 23.33300
C  0.58900 7.53300 22.00200
C  0.45700 9.09100 22.29200
C  0.86500 8.98500 23.76300
C  1.72800 7.14500 21.11100
C  -0.99000 9.70900 22.23800
C  -1.00700 10.97700 21.40000
N  1.27400 9.22800 26.68500
C  1.58900 10.28500 25.82000
C  1.90500 11.45700 26.59500
C  1.99200 10.98300 27.86900
C  1.67300 9.60700 27.90000
C  2.10400 12.86900 26.13100
C  2.33100 11.40200 29.19500
O  2.66200 12.48000 29.63400
C  2.15500 10.10800 30.16400
C  3.30300 9.97900 31.09900
O  4.48000 9.98000 30.81200
O  2.79300 10.21900 32.41300
C  3.80300 10.38500 33.37700
H  1.08200 3.54900 28.84400
H  0.45800 4.74500 22.65000
H  1.54800 11.04400 23.80700
H  2.48400 7.14000 31.33500
H  0.52600 5.07100 31.02400
H  2.02300 3.62400 31.25800
H  2.89800 4.99800 31.88800
H  3.22500 4.40000 30.19900
H  -0.54000 6.91100 31.33800
H  0.11300 8.59100 31.26700
H  -0.63100 7.48100 33.56400
H  0.46700 8.80200 33.31200
H  0.81300 0.91900 26.47800
H  -0.87900 1.57600 26.80200
H  0.43900 1.71800 28.00600
H  0.68300 0.40600 24.48000
H  -0.18100 0.34600 22.99000
H  -0.99500 0.75700 24.52000
H  -0.34900 7.20800 21.55300
H  1.20900 9.62200 21.71000
H  2.59100 7.78300 21.30100
H  1.46700 7.13800 20.05300
H  2.00800 6.12800 21.38800
H  -1.47500 9.83300 23.20600
H  -1.64200 9.02400 21.69600
H  0.00300 11.36400 21.26100
H  -1.45500 11.76500 22.00400
H  -1.52400 10.89300 20.44400
H  3.01000 13.12900 25.58400
H  2.16400 13.42700 27.06600
H  1.16300 13.15700 25.66200
H  1.31600 10.26600 30.84200
H  4.50400 11.20600 33.22600
H  4.41700 9.53200 33.66600
H  3.32300 10.81100 34.25800
Mg 47.41800 35.23300 27.68800
C  45.86700 33.48200 30.25900
C  47.64400 37.93600 29.87600
C  48.38100 37.27700 25.12800
C  46.75000 32.60500 25.50200
N  46.97400 35.59500 29.82800
C  46.34900 34.73900 30.74100
C  46.38900 35.26400 32.20600
C  46.38200 36.83300 31.85000
C  47.04300 36.81000 30.44300
C  45.07200 37.56400 31.84300
C  47.71600 34.88700 32.88700
C  47.48700 34.30500 34.30600
H  47.59800 35.38300 35.41900
N  48.09200 37.22800 27.52800
C  48.14300 38.16300 28.53300
C  48.74500 39.40900 28.02700
C  48.96800 39.23000 26.61400
C  48.44000 37.87600 26.35700
C  49.06100 40.51600 29.04400
C  49.56200 40.17000 25.54000
O  49.73700 39.86200 24.38300
C  49.96300 41.55900 26.05900
N  47.62600 34.96100 25.61200
C  48.03100 35.96700 24.72800
C  48.06500 35.37600 23.30200
C  47.63100 33.88500 23.49500
C  47.38500 33.75700 24.99000
C  47.19400 36.22900 22.30400
C  48.64700 32.79000 22.93100
C  50.04600 32.66600 23.61800
N  46.58900 33.35600 27.82500
C  46.40800 32.34900 26.89700
C  45.66700 31.18300 27.46900
C  45.42300 31.70000 28.76900
C  46.04900 32.93500 28.93400
C  45.23300 29.91800 26.80500
C  44.80700 31.37300 30.04000
O  44.18200 30.33100 30.37700
C  44.94700 32.51700 30.94700
C  45.28000 32.02400 32.27500
O  46.34400 31.48300 32.58200
O  44.22100 32.20800 33.16400
C  44.47500 31.51800 34.44800
H  47.65300 38.75100 30.60300
H  48.67900 37.70500 24.16800
H  46.56600 31.75600 24.84100
H  45.58400 35.05600 32.91100
H  46.90500 37.36800 32.64200
H  44.79300 38.09300 32.75500
H  44.27100 36.83100 31.74700
H  45.04900 38.23600 30.98600
H  48.32600 35.78700 32.96000
H  48.33200 34.18200 32.32900
H  48.25500 33.53200 34.27500
H  46.45200 33.96300 34.35000
H  49.90400 41.11200 28.69200
H  49.22200 40.26700 30.09300
H  48.21000 41.19300 28.97500
H  49.11700 42.07700 26.51100
H  50.39900 42.12600 25.23600
H  50.75400 41.42000 26.79600
H  49.11200 35.34700 23.00000
H  46.68900 33.77900 22.95700
H  46.84900 37.18200 22.70600
H  46.26800 35.80500 21.91700
H  47.87900 36.43600 21.48200
H  48.83900 32.89000 21.86200
H  48.22800 31.78500 22.98600
H  50.88100 32.78400 22.92700
H  50.15800 31.72500 24.15600
H  50.10700 33.49500 24.32400
H  45.65600 29.90100 25.80100
H  44.15300 29.77300 26.79000
H  45.61500 29.09100 27.40400
H  43.94300 32.93500 31.01400
H  44.86600 30.53500 34.18800
H  43.59000 31.39100 35.07200
H  45.10600 32.04700 35.16200

