158

Mg 17.22000 51.99000 26.46800
C  18.79700 50.45800 29.09700
C  14.71100 53.00600 28.63200
C  15.65200 53.56100 23.79500
C  19.51000 50.58400 24.37900
N  16.74100 51.58000 28.57900
C  17.63800 51.12400 29.46900
C  17.28500 51.46800 30.90100
C  15.80700 51.90100 30.73900
C  15.73000 52.20400 29.24400
C  14.70700 50.92300 31.37900
C  18.26200 52.41100 31.55700
C  18.60900 52.22300 33.04700
H  17.57800 51.60300 33.93500
N  15.50800 53.10800 26.28100
C  14.63200 53.44600 27.33000
C  13.64700 54.42200 26.81400
C  13.85600 54.57600 25.38500
C  15.03300 53.71200 25.09300
C  12.53800 55.08600 27.73400
C  13.13700 55.43200 24.33600
O  13.53000 55.51000 23.15700
C  12.05100 56.36600 24.75000
N  17.42100 51.91500 24.34000
C  16.77100 52.77000 23.47900
C  17.30900 52.61600 21.98700
C  18.40200 51.53400 22.17800
C  18.48500 51.32400 23.68100
C  16.15000 52.43500 20.99200
C  19.74800 51.99400 21.53000
C  20.42700 53.20100 22.16800
N  18.69800 50.72100 26.60700
C  19.58200 50.23000 25.68000
C  20.67600 49.37300 26.25500
C  20.41200 49.50600 27.57100
C  19.19500 50.28000 27.75700
C  21.69400 48.55600 25.58700
C  20.82600 49.17400 28.91100
O  21.82100 48.47200 29.20900
C  19.87100 49.76600 29.99900
C  19.36000 48.73400 30.99300
O  18.67100 47.77500 30.76300
O  19.92000 48.98400 32.26800
C  19.57300 48.08300 33.32700
H  13.95200 53.33600 29.34500
H  15.29100 54.06100 22.89300
H  20.34100 50.22500 23.76800
H  17.41000 50.45800 31.29100
H  15.64800 52.80800 31.32100
H  15.25800 50.01500 31.62400
H  13.93900 50.72800 30.63000
H  14.15000 51.36300 32.20600
H  17.72600 53.36000 31.57000
H  19.18200 52.44700 30.97300
H  18.65200 53.17300 33.57800
H  19.55000 51.69800 33.21000
H  11.52600 55.13600 27.33400
H  12.98000 56.06300 27.93200
H  12.45300 54.47300 28.63100
H  11.64400 56.95900 23.93100
H  12.34100 57.00500 25.58400
H  11.23900 55.69900 25.04000
H  17.72700 53.60000 21.77300
H  18.07200 50.58600 21.75500
H  15.26700 52.04400 21.49800
H  16.38300 51.67700 20.24500
H  15.84800 53.35200 20.48500
H  19.59000 52.18600 20.46900
H  20.57100 51.29100 21.65900
H  19.94100 53.48000 23.10400
H  20.36900 54.11200 21.57200
H  21.50400 53.04600 22.23400
H  21.28700 48.17300 24.65100
H  21.98900 47.66500 26.14100
H  22.63000 49.09200 25.42900
H  20.39000 50.56900 30.52200
H  20.16700 48.35000 34.20000
H  19.83900 47.09200 32.95900
H  18.48900 48.14300 33.42500
Mg -2.86300 34.87900 26.65300
C  -4.42800 32.87600 28.92900
C  -1.85400 37.02600 29.28400
C  -1.65500 37.04900 24.37400
C  -4.38800 32.99200 24.02600
N  -3.37200 35.06700 28.87900
C  -3.73700 33.94500 29.57100
C  -3.50700 34.16100 31.08600
C  -2.66900 35.46500 31.15100
C  -2.71700 35.95700 29.70900
C  -3.14700 36.54600 32.13700
C  -3.03400 32.97100 31.95100
C  -1.95400 33.12400 33.02100
H  -2.15900 32.28800 34.35200
N  -1.90000 36.71400 26.81800
C  -1.55600 37.39900 27.96300
C  -0.78200 38.57700 27.57400
C  -0.70500 38.55100 26.15500
C  -1.45700 37.40000 25.72000
C  -0.28300 39.59100 28.53600
C  -0.06700 39.55800 25.16100
O  -0.08300 39.52800 23.91600
C  0.94200 40.46800 25.69900
N  -3.25200 35.19100 24.40300
C  -2.46000 36.07900 23.74400
C  -2.68600 35.93600 22.20800
C  -3.33700 34.50400 22.11700
C  -3.73500 34.22000 23.60500
C  -3.68000 36.92700 21.65100
C  -2.37600 33.44600 21.47300
C  -0.85800 33.52500 21.76000
N  -4.26700 33.29800 26.51900
C  -4.72100 32.57500 25.37900
C  -5.40000 31.41500 25.87200
C  -5.41700 31.48100 27.25800
C  -4.61500 32.64400 27.56700
C  -6.12800 30.41000 25.03000
C  -5.81000 30.86900 28.53500
O  -6.44900 29.86600 28.79400
C  -5.29400 31.83700 29.66900
C  -6.41700 32.36400 30.45900
O  -7.30800 33.05300 30.02300
O  -6.30700 31.93400 31.79800
C  -7.28000 32.08800 32.87800
H  -1.29300 37.57400 30.04400
H  -1.34600 37.75200 23.59700
H  -4.62600 32.26900 23.24300
H  -4.48800 34.36900 31.51300
H  -1.61500 35.23600 31.30800
H  -2.56800 37.46900 32.11900
H  -3.04800 36.05800 33.10600
H  -4.18300 36.78100 31.89200
H  -2.58500 32.24900 31.26800
H  -3.92500 32.53500 32.40300
H  -1.98900 34.14200 33.40900
H  -0.98500 32.98600 32.54200
H  0.80200 39.69700 28.56400
H  -0.57600 39.42300 29.57200
H  -0.67700 40.54900 28.19500
H  0.35600 41.18300 26.27700
H  1.38900 40.95400 24.83200
H  1.59700 39.80000 26.25900
H  -1.75300 36.10100 21.66900
H  -4.26500 34.50400 21.54500
H  -4.50500 36.64200 20.99700
H  -3.06400 37.61900 21.07600
H  -4.12900 37.51300 22.45300
H  -2.43400 33.57000 20.39200
H  -2.76900 32.47200 21.76400
H  -0.76700 34.06600 22.70200
H  -0.40600 34.19500 21.02800
H  -0.35100 32.57000 21.62300
H  -6.35600 29.62500 25.75100
H  -5.42700 29.92300 24.35200
H  -6.96100 30.82400 24.46300
H  -4.64500 31.33200 30.38300
H  -6.80900 32.64500 33.68700
H  -7.70500 31.14000 33.20900
H  -7.99400 32.85100 32.56800

