158

Mg 9.13600 47.46100 25.51200
C  7.16000 47.28600 28.32100
C  11.72000 48.76600 27.44500
C  10.97100 47.88100 22.73400
C  6.31500 46.73500 23.45800
N  9.34400 47.93400 27.65900
C  8.44100 47.68000 28.68600
C  9.03900 48.08200 30.04100
C  10.32000 48.90600 29.63500
C  10.48600 48.55000 28.16800
C  10.26500 50.43400 29.77800
C  9.27900 46.91900 31.03500
C  8.53200 46.92700 32.36100
H  8.88800 45.87100 33.37700
N  11.06400 48.13700 25.17700
C  12.01200 48.44300 26.12400
C  13.33100 48.48400 25.52300
C  13.09000 48.21800 24.12100
C  11.60900 48.13300 23.98600
C  14.59000 48.72000 26.32000
C  14.10100 48.01100 23.03100
O  13.78600 47.80700 21.87400
C  15.56200 48.03900 23.34400
N  8.56600 47.67100 23.29000
C  9.64300 47.65700 22.43900
C  9.21100 47.15900 21.05600
C  7.70400 46.84900 21.30000
C  7.45300 47.04900 22.74600
C  9.36600 48.28700 19.97200
C  7.35600 45.33300 20.92700
C  6.15700 45.13400 20.03500
N  7.15800 47.06100 25.72500
C  6.09600 46.79500 24.82400
C  4.88400 46.63500 25.56800
C  5.26100 46.71500 26.93600
C  6.64400 46.99900 26.95900
C  3.57400 46.40900 25.06600
C  4.75400 46.62800 28.28500
O  3.68800 46.20600 28.70400
C  6.03600 46.83600 29.27700
C  6.18900 45.45200 29.84800
O  6.85100 44.54200 29.43500
O  5.54100 45.51200 31.06300
C  5.66200 44.42300 31.96500
H  12.51000 49.08600 28.12700
H  11.55000 47.98600 21.81400
H  5.47800 46.36600 22.86200
H  8.29900 48.72000 30.52500
H  11.13000 48.53000 30.25900
H  9.48900 50.63200 30.51700
H  10.13600 50.97600 28.84100
H  11.21700 50.72200 30.22400
H  10.34000 46.86700 31.27700
H  9.07000 45.99900 30.48900
H  7.46400 46.85200 32.15500
H  8.59500 47.94300 32.75200
H  14.48200 48.73600 27.40500
H  14.97400 49.72200 26.13000
H  15.30000 47.95600 26.00300
H  16.15800 48.06500 22.43200
H  15.65500 47.05500 23.80500
H  15.87800 48.89700 23.93700
H  9.74300 46.22200 20.89100
H  7.08300 47.56500 20.76300
H  8.91600 47.87200 19.07000
H  10.43200 48.45700 19.81800
H  8.92000 49.25200 20.21000
H  7.30600 44.70000 21.81200
H  8.16800 44.92000 20.32800
H  6.51600 44.86500 19.04200
H  5.49200 45.99500 19.97900
H  5.60100 44.36800 20.57600
H  3.48800 45.85200 24.13300
H  3.16800 47.38000 24.78400
H  2.95200 45.95400 25.83600
H  5.83500 47.57100 30.05700
H  6.22400 44.72100 32.85100
H  6.21700 43.59800 31.51700
H  4.76100 43.91900 32.31600
Mg -9.97000 18.28300 42.62200
C  -6.64200 17.29500 42.52700
C  -9.05400 21.42400 41.64700
C  -13.22500 19.04000 41.81400
C  -10.82600 14.95100 42.93600
N  -8.12900 19.20200 42.04500
C  -6.86500 18.67400 42.15400
C  -5.75400 19.62500 41.75900
C  -6.54200 20.95100 41.95300
C  -8.02300 20.50400 41.81900
C  -6.27300 21.82000 43.26900
C  -5.09400 19.32600 40.43700
C  -6.02900 18.65700 39.46400
H  -5.41600 18.51500 38.07100
N  -11.00000 20.09800 42.03000
C  -10.42200 21.27600 41.74500
C  -11.46400 22.30300 41.48800
C  -12.73300 21.56900 41.61600
C  -12.37600 20.19100 41.87000
C  -11.15300 23.79900 41.17300
C  -14.05300 22.20600 41.48300
O  -14.06800 23.44700 41.36200
C  -15.26600 21.43900 41.58400
N  -11.85500 17.15700 42.49500
C  -13.02300 17.68800 42.10600
C  -14.11200 16.55600 41.90900
C  -13.41200 15.35100 42.70500
C  -11.89700 15.80700 42.59500
C  -15.48000 16.87800 42.52400
C  -13.79300 13.96300 42.05800
C  -13.75600 12.87800 43.04400
N  -8.91100 16.43600 42.82500
C  -9.42500 15.14800 43.04700
C  -8.38600 14.17100 43.19600
C  -7.22500 14.99800 43.07300
C  -7.62000 16.33800 42.83500
C  -8.52200 12.65000 43.13800
C  -5.77200 14.98300 42.94200
O  -4.96200 14.10000 42.88600
C  -5.30000 16.49700 42.73000
C  -4.59800 17.07800 43.85700
O  -3.47100 17.59400 43.75900
O  -5.33700 17.07100 45.02400
C  -4.74300 17.69200 46.19600
H  -8.76400 22.45500 41.43500
H  -14.15600 19.33500 41.32500
H  -11.16900 13.91700 43.02300
H  -4.95800 19.62400 42.50300
H  -6.40700 21.57100 41.06600
H  -7.14200 21.90200 43.92200
H  -5.89400 22.79200 42.95400
H  -5.52000 21.30400 43.86400
H  -4.28600 18.60500 40.56100
H  -4.73800 20.21100 39.91100
H  -6.93000 19.24000 39.27300
H  -6.16000 17.62700 39.79800
H  -11.87800 24.27800 40.51500
H  -10.27900 23.79300 40.52300
H  -11.00600 24.35800 42.09700
H  -15.23500 20.82400 42.48400
H  -15.40000 20.85400 40.67400
H  -16.06900 22.14700 41.78900
H  -14.26900 16.36100 40.84800
H  -13.73900 15.29900 43.74300
H  -15.57500 17.77300 43.13900
H  -15.77800 16.08700 43.21200
H  -16.18800 17.03800 41.71100
H  -13.06400 13.75500 41.27500
H  -14.79000 14.04700 41.62600
H  -13.32800 13.19800 43.99400
H  -13.17600 12.02300 42.69600
H  -14.73900 12.42900 43.19100
H  -9.30300 12.42300 42.41300
H  -8.92800 12.17400 44.03100
H  -7.65300 12.12500 42.74200
H  -4.59400 16.71300 41.92800
H  -3.69500 17.47700 46.40600
H  -5.35500 17.37400 47.04100
H  -5.00800 18.74500 46.10300

