158

Mg 30.74400 57.70900 39.77700
C  28.25700 55.49200 38.55100
C  33.08700 55.56600 38.70500
C  33.09200 60.15800 39.98500
C  28.31900 60.00100 40.31000
N  30.64200 55.80600 38.71900
C  29.54800 55.09900 38.25500
C  30.01600 53.79500 37.57400
C  31.53600 53.74900 37.84900
C  31.81100 55.13100 38.44300
C  31.87400 52.58300 38.85300
C  29.52600 53.63300 36.06400
C  28.85100 54.81300 35.33300
H  28.98800 54.90400 33.80400
N  32.82600 57.75500 39.62300
C  33.67800 56.74400 39.15300
C  35.10000 57.19700 39.10400
C  35.05000 58.57900 39.42900
C  33.59800 58.85000 39.78600
C  36.31100 56.34300 38.73800
C  36.25400 59.48100 39.31500
O  37.36100 59.07900 39.05000
C  36.24000 60.98000 39.58100
N  30.74400 59.82500 39.90800
C  31.78700 60.63600 40.07300
C  31.44800 62.03600 40.57000
C  29.86600 61.90400 40.84400
C  29.59500 60.47000 40.33900
C  32.29400 62.66200 41.75700
C  28.96700 62.97900 40.21300
C  27.76700 63.43200 41.12300
N  28.63900 57.76700 39.54900
C  27.84800 58.80700 39.81100
C  26.47200 58.38400 39.55500
C  26.59500 57.02600 39.11200
C  27.92800 56.77000 39.07800
C  25.23700 59.26200 39.55700
C  25.91900 55.81100 38.61500
O  24.73500 55.52500 38.67200
C  26.95000 54.78200 38.28000
C  26.69600 53.53600 39.04100
O  26.98200 53.36100 40.16600
O  26.03000 52.59500 38.31100
C  25.52500 51.38900 39.08100
H  33.87600 54.90400 38.34200
H  33.92200 60.85800 40.10100
H  27.51100 60.60500 40.72700
H  29.43900 53.02800 38.08900
H  32.04700 53.55400 36.90700
H  31.05600 51.86400 38.81400
H  31.90200 53.09600 39.81400
H  32.83800 52.15800 38.56900
H  28.88400 52.75800 36.16900
H  30.30400 53.16600 35.46100
H  29.29300 55.75500 35.65900
H  27.77400 54.85000 35.50100
H  36.49500 56.43800 37.66800
H  36.09900 55.28900 38.91900
H  37.21100 56.61300 39.28900
H  37.16900 61.33300 39.13300
H  36.25700 61.12900 40.66100
H  35.43800 61.59900 39.17900
H  31.52500 62.63800 39.66500
H  29.73300 61.71100 41.90800
H  33.13700 63.29300 41.47400
H  32.81000 61.83900 42.25300
H  31.73300 63.13700 42.56100
H  28.59200 62.71700 39.22400
H  29.56000 63.89400 40.19900
H  27.76200 64.52100 41.16800
H  27.79800 63.04500 42.14200
H  26.83200 63.27100 40.58700
H  25.43900 60.11400 38.90900
H  24.94300 59.62100 40.54300
H  24.48500 58.67000 39.03500
H  26.55400 54.56500 37.28800
H  24.56900 51.00600 38.72500
H  25.47200 51.65100 40.13800
H  26.29100 50.63700 38.89100
Mg 9.99500 47.15500 25.88200
C  7.44400 47.45300 28.41700
C  12.19400 48.28700 28.24800
C  12.25100 47.04400 23.38400
C  7.41300 46.61000 23.46800
N  9.79700 47.94600 28.11200
C  8.72100 47.80000 28.93200
C  9.20000 47.77700 30.46200
C  10.64400 48.43100 30.30900
C  10.90400 48.19400 28.81100
C  10.76800 49.94000 30.62500
C  9.26000 46.30200 31.02100
C  8.76700 46.03400 32.40700
H  9.86800 45.67000 33.39400
N  11.95300 47.66800 25.81800
C  12.64300 48.07400 26.86400
C  14.01000 48.23400 26.40900
C  14.10400 47.98400 24.96900
C  12.72800 47.48400 24.67800
C  15.12400 48.61300 27.42100
C  15.27900 48.08900 23.94100
O  15.24200 47.93600 22.73800
C  16.62800 48.47800 24.52400
N  9.84400 46.77600 23.77700
C  10.93600 46.73800 23.00300
C  10.61400 46.27000 21.54500
C  9.06800 46.09900 21.53600
C  8.71200 46.54700 23.04000
C  11.07900 47.27400 20.44800
C  8.57100 44.63900 21.02800
C  8.16000 44.47100 19.55000
N  7.91400 47.12100 25.84100
C  7.04400 46.81300 24.77100
C  5.61600 46.84800 25.30600
C  5.76600 47.01100 26.71500
C  7.14800 47.24900 27.01200
C  4.33200 46.70700 24.50300
C  5.02500 47.04800 27.95800
O  3.86000 46.82000 28.14300
C  6.06600 47.41700 29.09800
C  5.85600 46.49400 30.23200
O  5.79900 45.23900 30.22800
O  5.66600 47.26000 31.35000
C  5.13200 46.71600 32.59700
H  12.90300 48.71200 28.96100
H  13.01300 47.10700 22.60400
H  6.69300 46.55800 22.64900
H  8.39800 48.29500 30.98900
H  11.35000 47.76700 30.80800
H  11.40700 50.15400 31.48200
H  9.75000 50.21900 30.89800
H  11.17400 50.40800 29.72800
H  10.30000 45.98300 30.94500
H  8.68400 45.64800 30.36700
H  8.10400 45.16900 32.39200
H  8.24500 46.91100 32.79000
H  15.90300 47.87800 27.22200
H  14.74600 48.49700 28.43700
H  15.45800 49.64200 27.29000
H  16.57200 49.29700 25.24100
H  17.29500 48.61800 23.67400
H  16.96200 47.57300 25.03200
H  11.04200 45.29700 21.30600
H  8.60200 46.84300 20.89000
H  11.45600 48.22200 20.83100
H  10.42700 47.45200 19.59300
H  11.92900 46.73300 20.03100
H  7.73900 44.25000 21.61600
H  9.40300 43.98500 21.29100
H  7.34300 45.17600 19.39800
H  7.82700 43.45500 19.33900
H  8.96300 44.77500 18.87900
H  3.83900 45.74600 24.64500
H  4.65000 46.85500 23.47000
H  3.55300 47.37900 24.86500
H  5.78000 48.43000 29.38200
H  5.14400 45.63400 32.72900
H  4.17700 47.18400 32.83700
H  5.87200 47.03500 33.33100

