158

Mg 44.99900 5.30900 48.26000
C  43.00400 8.19100 47.36900
C  42.19200 3.41400 47.56900
C  47.02400 2.68000 47.98400
C  47.86500 7.42900 48.14000
N  42.78700 5.83900 47.50700
C  42.18200 7.04500 47.37000
C  40.63900 6.90300 46.98400
C  40.49200 5.31500 47.11000
C  41.88900 4.78900 47.48400
C  39.38200 4.98500 48.15500
C  40.36500 7.39400 45.56200
C  38.99000 8.00800 45.24600
H  38.21300 7.49400 44.01100
N  44.64800 3.31800 47.95100
C  43.43000 2.72500 47.60500
C  43.68800 1.32700 47.30100
C  45.09900 1.06700 47.35500
C  45.66300 2.41300 47.76300
C  42.53400 0.40400 46.92400
C  45.80200 -0.26900 47.04700
O  45.13300 -1.23400 46.71100
C  47.25300 -0.47600 47.15700
N  47.18300 5.10000 48.17000
C  47.71000 3.90100 48.25300
C  49.20600 3.91400 48.21200
C  49.48200 5.44100 48.20400
C  48.10100 6.08900 48.22600
C  49.84000 3.20000 49.38900
C  50.38900 6.05300 47.10600
C  51.50600 6.99300 47.58600
N  45.38700 7.41100 48.02200
C  46.62700 8.09800 48.06300
C  46.32700 9.50900 47.92300
C  44.95000 9.53300 47.62300
C  44.39700 8.23200 47.65500
C  47.26700 10.66000 48.05800
C  43.85600 10.50100 47.41000
O  43.78600 11.70600 47.32900
C  42.57900 9.58900 47.16900
C  41.51800 9.97200 48.17300
O  41.62900 10.00600 49.40400
O  40.30400 10.23200 47.51300
C  39.08200 10.38300 48.23900
H  41.29800 2.83500 47.33000
H  47.70700 1.83000 47.92000
H  48.67800 8.13200 47.94800
H  40.07600 7.43500 47.75100
H  40.08700 4.86900 46.20200
H  39.79000 4.21800 48.81300
H  38.50800 4.50700 47.71200
H  39.01900 5.81200 48.76500
H  40.49900 6.57000 44.86100
H  41.04800 8.16300 45.19900
H  39.02500 9.09700 45.23400
H  38.35500 7.70500 46.07800
H  42.74800 -0.40800 46.22800
H  41.66400 0.98400 46.61400
H  42.21900 0.07300 47.91300
H  47.69400 0.19300 46.41700
H  47.42700 -1.51300 46.87000
H  47.57600 -0.28100 48.17900
H  49.36000 3.47700 47.22500
H  49.87600 5.67200 49.19300
H  49.68100 2.12700 49.28000
H  49.43500 3.54300 50.34100
H  50.92200 3.32900 49.36300
H  49.84500 6.50100 46.27400
H  50.84700 5.26200 46.51200
H  51.47000 8.02000 47.22300
H  52.47300 6.52400 47.40600
H  51.52200 7.12100 48.66900
H  46.73300 11.49400 48.51300
H  47.58000 10.86800 47.03500
H  48.09800 10.31800 48.67500
H  42.15000 9.73800 46.17900
H  38.23500 10.29600 47.55900
H  39.05900 11.38200 48.67500
H  38.94000 9.72300 49.09500
Mg -10.27100 37.87300 41.12600
C  -8.15500 35.34100 40.12600
C  -8.22100 40.17500 39.51700
C  -12.64400 40.37600 41.71900
C  -12.69600 35.49000 41.87800
N  -8.43000 37.76900 39.89500
C  -7.68300 36.62400 39.68100
C  -6.40900 36.90900 38.91300
C  -6.37100 38.49200 38.74400
C  -7.71300 38.87200 39.55500
C  -5.04900 39.22500 39.25000
C  -6.21700 36.08400 37.62000
C  -7.47100 36.05800 36.68200
H  -7.20600 35.97900 35.17000
N  -10.41600 40.00400 40.77000
C  -9.45800 40.68000 40.07300
C  -9.84300 42.07500 39.92500
C  -11.07500 42.17800 40.65000
C  -11.44800 40.81300 41.06700
C  -9.06100 43.12400 39.16600
C  -11.89200 43.46900 40.84100
O  -11.36400 44.56800 40.59600
C  -13.27300 43.55000 41.42400
N  -12.40900 37.89500 41.58700
C  -13.04100 39.03800 41.96400
C  -14.46800 38.76700 42.51300
C  -14.54500 37.18400 42.42100
C  -13.05200 36.85000 42.02200
C  -14.83400 39.39000 43.90100
C  -15.52900 36.52200 41.41500
C  -16.13600 35.13300 41.84700
N  -10.38700 35.77400 41.17400
C  -11.46800 34.97500 41.44600
C  -11.04200 33.57700 41.41500
C  -9.71800 33.69500 40.91200
C  -9.36400 35.09800 40.72400
C  -11.77400 32.35900 41.95900
C  -8.48800 32.98300 40.47900
O  -8.19700 31.80400 40.30400
C  -7.47600 34.01500 39.96800
C  -6.11900 33.97200 40.55400
O  -5.60800 34.84500 41.28300
O  -5.57200 32.71200 40.36400
C  -4.37600 32.32700 41.12700
H  -7.60100 40.94100 39.04700
H  -13.44400 41.08300 41.94800
H  -13.35800 34.68100 42.19600
H  -5.61400 36.63300 39.60600
H  -6.45000 38.82700 37.71000
H  -5.31100 40.16000 39.74400
H  -4.37000 39.36200 38.40900
H  -4.60200 38.59800 40.02100
H  -5.85000 35.08800 37.87100
H  -5.50100 36.52000 36.92400
H  -8.01900 36.98400 36.85800
H  -8.21800 35.35300 37.04700
H  -9.41700 44.13700 38.97800
H  -9.02400 42.64400 38.18800
H  -8.01900 43.03100 39.47200
H  -13.17800 43.37300 42.49500
H  -13.82100 42.78700 40.87200
H  -13.77600 44.51500 41.35000
H  -15.18200 39.03900 41.73500
H  -14.72600 36.87700 43.45100
H  -15.09300 38.64800 44.65700
H  -15.79100 39.87800 43.71600
H  -14.16100 40.06000 44.43700
H  -15.15300 36.47000 40.39400
H  -16.43700 37.11500 41.30300
H  -17.22000 35.23200 41.79400
H  -15.77900 34.76300 42.80800
H  -15.87200 34.33500 41.15300
H  -11.32600 31.40900 41.66900
H  -12.82100 32.42300 41.66400
H  -11.82500 32.30600 43.04600
H  -7.30200 33.87500 38.90200
H  -3.93000 31.48200 40.60400
H  -4.57000 32.16300 42.18700
H  -3.65400 33.12800 40.96600

