158

Mg 43.07500 3.49500 46.82300
C  41.39400 6.60700 47.01600
C  39.81900 1.91100 46.83100
C  44.42400 0.62900 46.12900
C  46.06600 5.25900 46.28100
N  40.94400 4.24800 46.93600
C  40.54100 5.53900 47.03200
C  39.00900 5.70200 47.19600
C  38.57500 4.18800 47.14500
C  39.84300 3.35800 46.98800
C  37.69900 3.69000 48.36400
C  38.21000 6.45600 46.13600
C  38.84600 6.49700 44.65000
H  38.08600 5.76800 43.48800
N  42.24700 1.49400 46.46700
C  40.91300 1.03700 46.63500
C  40.91800 -0.36900 46.41100
C  42.25900 -0.77700 46.16600
C  43.09500 0.42100 46.21400
C  39.69000 -1.20400 46.56300
C  42.69400 -2.26800 45.93700
O  41.84900 -3.16800 45.74800
C  44.07200 -2.62300 45.53700
N  44.96700 3.04600 46.21900
C  45.25800 1.74000 46.10100
C  46.78300 1.61400 46.03300
C  47.34600 3.03900 45.79200
C  46.05400 3.84400 46.13700
C  47.34600 1.01500 47.30800
C  47.93100 3.28700 44.42300
C  49.16400 4.04100 44.27400
N  43.69700 5.49000 46.75000
C  44.91200 6.04700 46.51900
C  44.75600 7.52000 46.56900
C  43.39600 7.68900 46.72600
C  42.82500 6.50300 46.88300
C  45.85200 8.60900 46.42600
C  42.37900 8.81700 46.80400
O  42.44700 10.06500 46.72600
C  41.06900 8.10400 46.95800
C  40.52300 8.65800 48.27100
O  40.96400 8.54700 49.38200
O  39.36700 9.32600 48.00900
C  38.82300 10.00400 49.20600
H  38.84200 1.42200 46.81900
H  45.00300 -0.29600 46.10300
H  46.96400 5.87000 46.17000
H  38.86800 6.17900 48.16500
H  38.09500 3.92000 46.20400
H  37.80000 2.61800 48.53200
H  36.65600 3.92700 48.15700
H  37.94200 4.11200 49.33900
H  38.10300 7.45300 46.56400
H  37.21300 6.07200 45.91600
H  39.79700 5.97000 44.56600
H  38.93600 7.56900 44.47700
H  39.82600 -2.18800 47.01300
H  39.06100 -1.10700 45.67900
H  39.03100 -0.72500 47.28700
H  44.56700 -2.69700 46.50600
H  44.35700 -1.85300 44.82100
H  44.11600 -3.56000 44.98200
H  46.99100 1.06400 45.11500
H  47.99000 3.45900 46.56500
H  46.66300 0.54500 48.01600
H  47.84700 1.81500 47.85200
H  48.10700 0.30800 46.97600
H  47.21400 3.82700 43.80300
H  47.90200 2.39000 43.80400
H  49.00400 4.93500 43.67200
H  49.90900 3.41600 43.78200
H  49.50900 4.31500 45.27200
H  46.90100 8.31200 46.41400
H  45.71500 9.25700 47.29100
H  45.76200 9.13800 45.47700
H  40.37300 8.24700 46.13200
H  38.57100 9.20800 49.90700
H  37.83800 10.40800 48.97200
H  39.43400 10.79000 49.65100
Mg 30.13500 57.32600 38.89300
C  27.22200 55.62300 37.95300
C  31.93300 54.53100 38.20300
C  32.92600 59.21000 38.43300
C  28.24800 60.27000 39.12300
N  29.56600 55.36300 38.26100
C  28.34400 54.85700 37.91600
C  28.40200 53.28900 37.72800
C  29.88100 52.98800 38.17100
C  30.52100 54.33400 38.20600
C  30.00700 52.07000 39.44400
C  28.09300 52.79100 36.24000
C  28.82400 53.57400 35.16400
H  27.93400 54.53200 34.35200
N  32.23700 56.90300 38.57100
C  32.70800 55.69700 38.29300
C  34.12500 55.78400 38.00700
C  34.46800 57.13500 38.09600
C  33.22600 57.84500 38.40200
C  35.07500 54.56400 37.68300
C  35.80500 57.72600 37.77200
O  36.74800 56.93100 37.74200
C  36.14600 59.08700 37.62700
N  30.51300 59.41000 38.81100
C  31.77200 59.95100 38.70400
C  31.76400 61.49800 38.68000
C  30.30200 61.82500 39.17000
C  29.62800 60.41300 38.98800
C  32.92000 62.12000 39.62200
C  29.65100 63.06000 38.44400
C  29.42400 64.32200 39.30800
N  28.04600 57.89500 38.72600
C  27.48000 59.13700 38.87900
C  25.99300 59.02100 38.72700
C  25.88700 57.59400 38.38100
C  27.13000 56.99600 38.33500
C  24.96400 60.14300 38.74600
C  24.93700 56.52900 38.13600
O  23.72000 56.61700 38.12200
C  25.75500 55.27100 37.69500
C  25.40100 54.19000 38.66400
O  25.36900 54.25700 39.91100
O  25.10500 53.10400 37.94600
C  24.59500 51.95700 38.69500
H  32.41800 53.55800 38.10000
H  33.71700 59.96200 38.42100
H  27.85700 61.26300 39.35600
H  27.59200 52.92500 38.36000
H  30.34600 52.39900 37.38000
H  30.39400 52.66700 40.27000
H  30.74100 51.29600 39.21800
H  29.00400 51.69200 39.64400
H  27.02300 52.95800 36.12000
H  28.35100 51.73700 36.13600
H  29.22200 52.83900 34.46300
H  29.66200 54.12400 35.59200
H  35.55000 54.76100 36.72200
H  34.60100 53.58900 37.56900
H  35.81000 54.41100 38.47400
H  36.56300 59.42500 38.57600
H  35.26400 59.65400 37.32800
H  36.77000 59.27200 36.75200
H  31.84500 61.86100 37.65500
H  30.32700 61.97700 40.24900
H  33.25300 61.28000 40.23100
H  32.63800 62.80700 40.42000
H  33.77900 62.44700 39.03600
H  28.71700 62.58700 38.14000
H  30.28100 63.45000 37.64500
H  30.06600 64.26900 40.18700
H  28.38100 64.24500 39.61600
H  29.50900 65.16100 38.61700
H  24.45500 60.21700 37.78400
H  25.59200 61.02700 38.85000
H  24.19400 60.19700 39.51500
H  25.50200 55.04400 36.65900
H  24.05300 52.28900 39.58100
H  25.43200 51.34100 39.02500
H  24.01600 51.23000 38.12600

