158

Mg 24.02300 -4.70900 45.59300
C  26.02700 -2.23100 44.11200
C  21.43900 -3.53300 43.68000
C  22.52400 -7.68200 46.12100
C  27.05600 -6.11700 46.85800
N  23.74200 -3.05100 44.17800
C  24.67900 -2.20200 43.74300
C  24.13600 -1.17100 42.70400
C  22.58800 -1.39600 42.87100
C  22.59800 -2.75100 43.61000
C  21.87700 -0.27400 43.62100
C  24.62100 -1.58200 41.30800
C  25.43300 -0.50300 40.57700
H  25.40400 -0.61400 39.04700
N  22.09500 -5.37000 45.15500
C  21.20300 -4.74700 44.33200
C  20.02000 -5.53200 44.30200
C  20.28800 -6.80600 45.01400
C  21.71200 -6.66200 45.43400
C  18.76500 -5.08200 43.51000
C  19.35000 -7.89500 45.20600
O  18.31400 -7.93000 44.59100
C  19.55800 -9.04800 46.22900
N  24.76600 -6.73500 46.24200
C  23.88800 -7.76500 46.46200
C  24.46300 -8.92100 47.19000
C  25.99100 -8.33900 47.40700
C  25.97800 -6.98000 46.82100
C  23.66200 -9.46500 48.36900
C  27.08800 -9.34800 46.97000
C  28.10700 -9.65100 48.02800
N  26.10800 -4.29200 45.58100
C  27.17600 -4.90800 46.20700
C  28.35800 -4.02700 46.04100
C  27.91000 -3.01900 45.21400
C  26.52000 -3.21600 44.94500
C  29.72400 -4.30000 46.48500
C  28.41200 -1.88400 44.44100
O  29.56700 -1.47600 44.40800
C  27.16200 -1.26000 43.67000
C  26.87300 0.14000 44.06400
O  26.43400 0.39300 45.13500
O  27.39200 0.96200 43.07500
C  27.49000 2.45200 43.23400
H  20.60400 -3.04700 43.17100
H  22.01500 -8.64300 46.22400
H  27.96100 -6.54300 47.29600
H  24.36800 -0.14600 42.99500
H  22.02900 -1.36100 41.93600
H  21.41600 -0.74100 44.49100
H  21.17700 0.08500 42.86600
H  22.44800 0.59100 43.95800
H  23.74000 -1.69200 40.67500
H  25.26900 -2.45200 41.40700
H  26.46400 -0.56300 40.92600
H  25.04600 0.48300 40.83600
H  17.91600 -5.29100 44.16200
H  18.72300 -5.71800 42.62600
H  18.72900 -4.04900 43.16500
H  18.58600 -9.34100 46.62600
H  20.10200 -8.81800 47.14600
H  20.02000 -9.87600 45.69200
H  24.53300 -9.58500 46.32900
H  26.22900 -8.14800 48.45300
H  23.66100 -10.55500 48.33700
H  22.60400 -9.26600 48.19700
H  24.02200 -9.11800 49.33700
H  27.58600 -8.85100 46.13800
H  26.69600 -10.28500 46.57300
H  27.80900 -9.21900 48.98300
H  29.02200 -9.24800 47.59300
H  28.19300 -10.73700 48.06200
H  30.39400 -3.82300 45.77000
H  29.97700 -5.34400 46.66700
H  29.88000 -3.84000 47.46100
H  27.42500 -1.29000 42.61300
H  28.25500 2.49500 44.00900
H  26.58400 2.85900 43.68400
H  27.79400 3.03400 42.36400
Mg -1.81300 34.16000 27.53400
C  -4.09900 32.40600 29.70200
C  -0.63300 35.86400 30.24200
C  -0.12200 36.03400 25.36700
C  -3.53600 32.59700 24.85900
N  -2.36700 34.22900 29.78400
C  -3.36500 33.37900 30.41100
C  -3.34000 33.65100 31.87000
C  -2.43400 34.97200 31.97500
C  -1.75400 35.06500 30.59100
C  -3.23700 36.27200 32.20100
C  -2.61700 32.53500 32.63800
C  -3.40700 32.11900 33.95000
H  -2.61500 32.29800 35.28000
N  -0.36700 35.67700 27.86900
C  -0.03900 36.27500 29.01500
C  1.05600 37.24000 28.74000
C  1.26000 37.18300 27.33000
C  0.23800 36.24400 26.76300
C  1.82900 38.07000 29.73500
C  2.33000 37.96000 26.46600
O  2.40400 37.72300 25.25700
C  3.24400 38.85000 27.09400
N  -1.76900 34.17500 25.39100
C  -1.04000 35.14400 24.74800
C  -1.25700 35.02200 23.20600
C  -2.24300 33.84400 23.07900
C  -2.61600 33.59300 24.56600
C  -1.77000 36.48200 22.67300
C  -1.81000 32.56100 22.28700
C  -0.78400 31.57500 22.98000
N  -3.40200 32.83800 27.26100
C  -3.88200 32.16500 26.13900
C  -4.71600 31.08600 26.50300
C  -4.80800 31.17100 27.88200
C  -4.04100 32.26400 28.31000
C  -5.43800 30.08600 25.58600
C  -5.55000 30.60500 29.02800
O  -6.29400 29.62200 29.08300
C  -5.00600 31.42400 30.24400
C  -6.05800 31.92800 31.21300
O  -6.88000 32.82200 31.04400
O  -6.06200 31.17800 32.37200
C  -7.19200 31.42500 33.29900
H  -0.21000 36.32500 31.13600
H  0.42700 36.75600 24.75900
H  -4.10100 32.11100 24.06100
H  -4.32700 33.80000 32.30700
H  -1.65900 34.95600 32.74100
H  -3.43600 36.77600 31.25600
H  -2.53800 36.89800 32.75600
H  -4.02700 36.11200 32.93500
H  -1.55500 32.68400 32.83000
H  -2.55400 31.60800 32.06900
H  -3.68200 31.06600 33.88900
H  -4.32700 32.70400 33.95600
H  1.48800 37.89800 30.75600
H  1.79500 39.13400 29.49800
H  2.87300 37.76500 29.65300
H  3.80000 39.53900 26.45800
H  3.89200 38.22800 27.71200
H  2.74600 39.53900 27.77600
H  -0.32900 34.76700 22.69500
H  -3.00700 34.25700 22.42100
H  -1.21300 36.75100 21.77600
H  -1.76700 37.34000 23.34500
H  -2.73400 36.47400 22.16500
H  -1.29500 33.03400 21.45100
H  -2.72700 32.01300 22.06900
H  -0.45200 32.01700 23.91900
H  0.10400 31.32000 22.40200
H  -1.31200 30.64700 23.20000
H  -5.61500 29.17200 26.15400
H  -4.87900 29.81300 24.69200
H  -6.40100 30.49700 25.28100
H  -4.47500 30.59300 30.70700
H  -8.15800 31.23500 32.83200
H  -7.26600 32.46900 33.60400
H  -7.18500 30.73900 34.14600

