158

Mg 40.16500 8.85200 30.11300
C  42.07100 10.17200 32.70600
C  37.75400 8.02900 32.37800
C  38.56200 7.25800 27.69300
C  42.72700 9.58800 27.91100
N  39.98900 9.10400 32.25500
C  40.87200 9.69100 33.11700
C  40.30500 9.80800 34.54800
C  39.00500 9.01100 34.42000
C  38.90300 8.64400 32.92300
C  38.95100 7.75300 35.34700
C  39.96000 11.34800 34.87400
C  39.59800 11.62800 36.33700
H  40.34500 12.60100 37.28400
N  38.41300 7.70600 30.02600
C  37.56800 7.47400 31.08200
C  36.43300 6.79500 30.59500
C  36.52200 6.73800 29.22000
C  37.88600 7.20600 28.90100
C  35.31700 6.30800 31.55300
C  35.54100 6.17800 28.24200
O  35.84000 6.05100 27.02100
C  34.17300 5.87200 28.68900
N  40.53300 8.48700 28.07700
C  39.80100 7.73800 27.31400
C  40.25000 7.68200 25.83800
C  41.52200 8.49900 25.85500
C  41.61600 8.89100 27.42200
C  40.46400 6.19300 25.41000
C  41.61700 9.70800 24.94800
C  40.81900 11.02900 25.32300
N  42.03300 9.71400 30.19600
C  42.95300 10.03400 29.18800
C  44.07800 10.71200 29.74600
C  43.75000 10.78500 31.13300
C  42.52000 10.16900 31.36100
C  45.29900 11.20400 28.99300
C  44.23600 11.17200 32.39000
O  45.30000 11.68900 32.67100
C  43.24000 10.73200 33.48700
C  43.94800 9.80300 34.44300
O  44.07200 8.56700 34.34900
O  44.36500 10.55400 35.47100
C  45.14000 9.83000 36.50000
H  36.95100 7.91500 33.11000
H  38.13800 6.83000 26.78200
H  43.58200 9.85000 27.28500
H  41.13200 9.44400 35.15900
H  38.14700 9.59900 34.74400
H  39.53200 7.93200 36.25100
H  39.32900 6.92900 34.74100
H  37.89200 7.58000 35.54100
H  39.09100 11.50100 34.23400
H  40.77200 11.97900 34.51200
H  39.42800 10.70300 36.88700
H  38.57200 11.99400 36.38600
H  35.56900 6.72400 32.52900
H  35.19400 5.22600 31.49400
H  34.33500 6.67700 31.25800
H  33.72000 5.40700 27.81400
H  33.62800 6.79400 28.89500
H  34.27200 5.20700 29.54700
H  39.54600 8.19800 25.18500
H  42.45200 7.93900 25.75100
H  40.09300 5.61800 26.25900
H  41.49100 5.84900 25.28400
H  39.78800 6.06500 24.56600
H  41.23100 9.32000 24.00500
H  42.67500 9.94800 24.84700
H  41.41200 11.93500 25.19500
H  40.39800 10.97000 26.32700
H  39.98800 11.14200 24.62700
H  45.27600 10.83100 27.96900
H  46.23300 10.81800 29.40100
H  45.32600 12.28600 29.12300
H  42.97400 11.62900 34.04600
H  44.91600 10.40100 37.40100
H  46.20100 9.89000 36.26100
H  44.85000 8.78700 36.62100
Mg 49.18200 46.57000 43.21900
C  46.00300 47.35000 42.19600
C  48.91900 43.58800 41.53400
C  52.49800 46.24700 43.54200
C  49.57500 49.97000 44.21900
N  47.57600 45.58900 42.07700
C  46.34700 46.09100 41.73700
C  45.51200 45.04700 40.97200
C  46.53400 43.88100 40.85200
C  47.73500 44.40600 41.49900
C  45.90800 42.46900 41.36600
C  45.01600 45.54300 39.58900
C  43.93400 44.69300 38.96100
H  44.32100 43.78400 37.75000
N  50.50400 44.95800 42.76400
C  50.17500 43.81000 42.17700
C  51.35500 42.97700 42.04500
C  52.42200 43.69700 42.70600
C  51.91600 45.05900 42.96900
C  51.29900 41.59100 41.50900
C  53.89800 43.18100 42.97600
O  54.20600 42.05200 42.56700
C  54.96200 43.94500 43.61200
N  50.87800 47.96300 43.64100
C  52.10300 47.51600 43.89800
C  53.02300 48.70900 44.39100
C  52.11600 49.91100 44.23400
C  50.73600 49.26900 43.99300
C  53.46300 48.38400 45.78600
C  52.61700 50.95800 43.19200
C  52.30700 52.41900 43.57800
N  48.04700 48.29800 43.37400
C  48.31500 49.60000 43.82700
C  47.07500 50.35500 43.80800
C  46.16000 49.46900 43.23000
C  46.79500 48.29300 42.89900
C  46.91600 51.76600 44.30000
C  44.78700 49.40900 42.79600
O  43.81900 50.16000 42.92600
C  44.66300 48.02700 42.06900
C  43.70900 47.09000 42.70100
O  43.73900 46.84400 43.91400
O  42.80800 46.60500 41.71700
C  41.78600 45.71800 42.25500
H  48.86800 42.63100 41.01100
H  53.58400 46.13900 43.57500
H  49.67000 50.96300 44.66300
H  44.66500 44.69200 41.55900
H  46.87000 43.78700 39.82000
H  44.88600 42.43400 40.99000
H  45.87100 42.38800 42.45200
H  46.25300 41.53600 40.92000
H  45.91000 45.66900 38.97700
H  44.54400 46.51500 39.73100
H  43.12400 45.38200 38.72200
H  43.49900 44.09200 39.75900
H  50.78000 40.86800 42.13900
H  52.26900 41.15000 41.28200
H  50.72700 41.74100 40.59400
H  54.55900 44.39200 44.52100
H  55.35800 44.67700 42.90900
H  55.76400 43.27500 43.92000
H  53.83300 48.71700 43.66100
H  52.19800 50.33300 45.23600
H  53.71100 47.32300 45.77900
H  52.67600 48.49400 46.53200
H  54.42300 48.85500 46.00200
H  52.09500 50.80900 42.24700
H  53.69500 51.04600 43.05800
H  51.33900 52.52100 43.08800
H  53.11400 53.03200 43.17500
H  52.34300 52.67100 44.63800
H  45.83200 51.87200 44.28300
H  47.47200 52.41300 43.62100
H  47.27500 51.99100 45.30500
H  44.45800 48.25500 41.02300
H  41.28300 46.19800 43.09400
H  42.35000 44.85000 42.59600
H  41.08900 45.48000 41.45200

