158

Mg 35.69600 3.40600 30.82400
C  33.02300 4.34000 32.76900
C  37.66600 3.35400 33.59800
C  38.32900 2.47700 28.86800
C  33.66300 3.54800 28.01300
N  35.32300 3.63000 32.92900
C  34.14500 4.00500 33.52200
C  34.24500 3.99700 35.04300
C  35.80400 3.95800 35.27200
C  36.30600 3.63600 33.85100
C  36.41100 5.24800 35.86500
C  33.34400 2.85800 35.61900
C  33.54600 2.20700 36.99700
H  33.97400 3.04700 38.20200
N  37.68600 2.91000 31.26900
C  38.34200 2.99800 32.43000
C  39.75300 2.82800 32.22800
C  39.91500 2.27500 30.92800
C  38.60400 2.52600 30.26000
C  40.74300 2.91500 33.33000
C  41.02200 1.54000 30.32200
O  40.97900 1.16200 29.12900
C  42.11600 1.11900 31.22900
N  35.90300 2.98500 28.77200
C  37.11700 2.71900 28.18900
C  37.04300 2.62700 26.64700
C  35.54000 2.95300 26.36200
C  35.00900 3.21600 27.78000
C  37.87400 3.68600 25.89800
C  34.79200 1.74800 25.76200
C  34.31900 0.55800 26.69400
N  33.74400 3.89200 30.36900
C  33.03200 3.88600 29.20500
C  31.67000 4.22800 29.44600
C  31.59100 4.51500 30.83700
C  32.87400 4.20200 31.38600
C  30.57400 4.21100 28.42000
C  30.78100 4.93000 31.96600
O  29.66100 5.46400 32.01800
C  31.65100 4.80500 33.25900
C  31.75900 6.15500 33.96100
O  32.56900 6.99400 33.59800
O  30.84100 6.30500 34.99200
C  31.05800 7.34500 36.00500
H  38.17600 3.37200 34.56300
H  39.16900 2.40100 28.17400
H  32.94300 3.65300 27.19900
H  33.80600 4.94600 35.35100
H  36.16100 3.13900 35.89600
H  36.94500 5.87700 35.15200
H  37.03300 5.22100 36.76000
H  35.52700 5.82500 36.13600
H  33.51600 2.01200 34.95400
H  32.28300 3.07700 35.49700
H  34.26300 1.40600 36.81800
H  32.56900 1.74600 37.14200
H  41.72200 3.18200 32.93400
H  40.65500 2.00800 33.92900
H  40.65600 3.76300 34.01000
H  42.52000 0.23900 30.72700
H  41.73200 0.76800 32.18700
H  43.01300 1.72800 31.34200
H  37.29500 1.59300 26.41400
H  35.43100 3.88800 25.81200
H  38.74100 3.18500 25.46600
H  38.26000 4.34300 26.67800
H  37.45900 4.25900 25.06900
H  35.45500 1.33200 25.00400
H  33.98000 2.20900 25.19900
H  33.89800 0.85700 27.65400
H  35.05800 -0.23700 26.80500
H  33.54700 0.14500 26.04500
H  30.52000 3.30900 27.81000
H  30.59100 4.99000 27.65800
H  29.62500 4.27900 28.95200
H  31.14000 4.15800 33.97200
H  31.33100 6.79100 36.90200
H  30.15300 7.85500 36.33600
H  31.91800 7.99500 35.84300
Mg 6.51700 53.78100 40.71300
C  6.31100 50.30700 40.32900
C  9.83700 53.66500 39.93200
C  6.45200 57.13900 40.45400
C  2.98900 53.88200 41.27500
N  7.85900 52.14500 40.15200
C  7.62300 50.78700 40.05400
C  8.86700 50.03300 39.62800
C  9.96000 51.08700 39.97000
C  9.16100 52.42200 40.00700
C  10.82000 50.85000 41.25000
C  8.72500 49.56700 38.13500
C  8.69900 50.61700 37.03200
H  7.37900 50.82400 36.26500
N  7.96000 55.18400 40.26500
C  9.28500 54.97200 39.98500
C  9.98100 56.24300 39.82100
C  9.04600 57.28300 40.19700
C  7.75000 56.56700 40.36000
C  11.40200 56.46000 39.40400
C  9.31400 58.77400 40.47000
O  10.43600 59.14500 40.24100
C  8.37100 59.74800 41.03200
N  4.90200 55.26100 40.73700
C  5.19200 56.60500 40.68400
C  3.91800 57.38800 40.63900
C  2.81800 56.42300 41.22900
C  3.59200 55.08600 41.00900
C  4.06100 58.70400 41.50300
C  1.35900 56.44700 40.68100
C  0.31300 56.41200 41.73800
N  4.94800 52.43600 40.89000
C  3.64100 52.58500 41.21100
C  3.06400 51.25500 41.51900
C  4.02000 50.33800 41.09200
C  5.18300 51.09500 40.76300
C  1.71100 50.89600 42.17900
C  4.31900 48.93600 40.94300
O  3.66200 47.92500 41.09000
C  5.82700 48.85800 40.53400
C  5.78500 47.91100 39.37200
O  5.33900 48.23500 38.28400
O  6.08300 46.62200 39.74100
C  5.94600 45.60200 38.75500
H  10.91200 53.56800 39.77000
H  6.37400 58.21300 40.27000
H  1.95200 53.77800 41.60100
H  9.01000 49.17900 40.29000
H  10.60200 51.23900 39.10200
H  11.32500 49.90700 41.04200
H  10.20600 51.03500 42.13100
H  11.53000 51.66300 41.40900
H  7.89900 48.86400 38.03000
H  9.59800 48.92100 38.04200
H  9.52800 50.35900 36.37300
H  9.01200 51.63400 37.27100
H  11.56300 57.25200 38.67300
H  11.71700 55.62400 38.78100
H  12.17600 56.51300 40.17000
H  8.98100 60.45600 41.59400
H  7.76900 59.20100 41.75800
H  7.79200 60.26300 40.26600
H  3.73400 57.57600 39.58100
H  2.68200 56.59500 42.29600
H  5.06200 58.81200 41.92100
H  3.38500 58.59200 42.35100
H  3.75800 59.59900 40.96000
H  1.25200 55.52700 40.10600
H  1.22800 57.25000 39.95600
H  0.54900 56.72900 42.75400
H  -0.24000 55.47300 41.73800
H  -0.48900 57.10900 41.49500
H  1.21500 50.11200 41.60600
H  1.00200 51.72400 42.16100
H  1.88800 50.63100 43.22200
H  6.49400 48.36600 41.24200
H  6.07700 44.69400 39.34400
H  6.63300 45.62300 37.90900
H  4.92700 45.60400 38.36900

