158

Mg 1.91100 -1.63000 45.15600
C  5.25700 -0.73100 44.62500
C  0.95200 1.28500 43.51500
C  -1.23200 -2.84800 45.22700
C  3.13200 -4.79000 46.42800
N  3.03300 0.03600 44.10900
C  4.37400 0.25400 44.14300
C  4.74700 1.68300 43.46200
C  3.34400 2.29900 43.36700
C  2.34300 1.19000 43.74700
C  3.12900 3.65400 44.08600
C  5.40100 1.55500 42.11100
C  6.03400 2.93800 41.55300
H  5.79200 3.31200 40.03900
N  0.17300 -0.90500 44.33900
C  -0.04600 0.34200 43.75700
C  -1.44800 0.43100 43.51900
C  -2.14900 -0.72400 43.98300
C  -1.06600 -1.58400 44.48800
C  -2.04200 1.77000 42.97900
C  -3.59300 -0.94800 43.85600
O  -4.23400 -0.01200 43.40400
C  -4.28900 -2.20000 44.37900
N  1.10500 -3.54100 45.66600
C  -0.23400 -3.65500 45.78600
C  -0.67000 -4.94700 46.46100
C  0.69700 -5.64800 46.81100
C  1.75100 -4.67900 46.22300
C  -1.64700 -4.85400 47.62100
C  0.77100 -7.06200 46.18200
C  1.40500 -8.14400 47.03600
N  3.77900 -2.56700 45.56100
C  4.08900 -3.80800 46.07600
C  5.49900 -4.03300 46.02000
C  6.00600 -2.80300 45.50900
C  4.90500 -1.92700 45.20000
C  6.19300 -5.24100 46.48200
C  7.22500 -2.08200 45.15400
O  8.42400 -2.44600 45.35100
C  6.80900 -0.75200 44.47900
C  7.46700 0.41700 45.13400
O  7.73300 0.52200 46.32400
O  7.91700 1.25800 44.14100
C  8.65300 2.37200 44.74100
H  0.68700 2.33900 43.41000
H  -2.26000 -3.16100 45.42300
H  3.45900 -5.76500 46.79500
H  5.30700 2.33300 44.13500
H  3.11800 2.60800 42.34700
H  2.43000 4.35600 43.63200
H  4.09400 4.16000 44.10000
H  2.89500 3.51100 45.14100
H  4.66400 1.04900 41.48700
H  6.21800 0.84200 42.22100
H  7.07100 2.60300 41.54800
H  5.85300 3.76000 42.24500
H  -2.49500 1.58700 42.00500
H  -1.26400 2.51800 42.82800
H  -2.81200 2.28600 43.55400
H  -4.09000 -2.37700 45.43600
H  -3.82500 -3.02800 43.84200
H  -5.36900 -2.10500 44.27200
H  -1.23200 -5.52200 45.72500
H  0.75500 -5.72800 47.89600
H  -1.69200 -3.81100 47.93600
H  -1.33100 -5.54200 48.40600
H  -2.65800 -5.16400 47.35400
H  1.38200 -7.00700 45.28000
H  -0.25700 -7.34900 45.96400
H  1.81000 -7.73700 47.96200
H  2.23300 -8.69300 46.58800
H  0.58000 -8.81600 47.27200
H  7.16600 -4.81100 46.71800
H  6.26400 -5.91500 45.62900
H  5.70500 -5.71800 47.33200
H  7.09400 -0.85700 43.43200
H  7.92700 3.05000 45.19100
H  9.26300 2.92300 44.02600
H  9.34300 2.00300 45.49900
Mg 1.12000 42.36700 25.50200
C  2.64400 42.50600 28.73900
C  -1.71100 41.09400 27.01300
C  -0.02200 41.78800 22.53900
C  4.16800 43.77200 24.22200
N  0.53700 41.83000 27.72000
C  1.28100 42.11400 28.81000
C  0.47400 41.96400 30.10600
C  -0.88700 41.40500 29.50000
C  -0.70200 41.46200 27.97300
C  -1.21700 39.89900 29.98000
C  0.40600 43.10700 31.14300
C  0.68400 42.63100 32.62100
H  -0.45100 43.00500 33.67300
N  -0.59200 41.56400 24.89900
C  -1.64800 41.19900 25.63100
C  -2.71700 40.61500 24.72100
C  -2.26700 40.86800 23.38800
C  -0.92000 41.44600 23.57600
C  -3.95100 39.83700 25.17100
C  -2.91300 40.62100 22.07400
O  -2.37300 40.90700 21.00900
C  -4.21200 39.90900 21.89700
N  1.98300 42.71900 23.62300
C  1.33400 42.23100 22.49800
C  2.13400 42.55400 21.31300
C  3.22600 43.56300 21.77600
C  3.13100 43.40600 23.32700
C  2.51600 41.45800 20.31800
C  3.03900 44.95000 21.20100
C  3.31900 45.10400 19.75300
N  2.94900 43.03400 26.26100
C  4.11500 43.52000 25.59200
C  5.17200 43.73800 26.55700
C  4.63000 43.36900 27.76100
C  3.30800 42.86700 27.56400
C  6.62100 44.15700 26.23600
C  4.98800 43.09100 29.15200
O  6.02200 43.25200 29.74100
C  3.67100 42.69600 29.87500
C  3.79400 41.56300 30.81300
O  3.88900 40.37100 30.43900
O  3.67200 42.04400 32.08300
C  3.69300 41.12000 33.17700
H  -2.74100 40.95200 27.34700
H  -0.39000 41.77400 21.51100
H  5.05700 44.21200 23.76700
H  0.97000 41.07900 30.50400
H  -1.65100 42.09200 29.86300
H  -0.59000 39.51100 30.78200
H  -1.32600 39.22200 29.13200
H  -2.23000 39.84500 30.37700
H  -0.63800 43.41400 31.20700
H  0.92400 44.01100 30.82300
H  1.51500 43.19200 33.04700
H  0.79100 41.55400 32.74400
H  -3.85100 38.90500 24.61400
H  -4.93300 40.23000 24.90600
H  -3.99500 39.69900 26.25200
H  -3.85600 38.89100 22.05500
H  -4.54100 40.08400 20.87300
H  -5.05300 40.24700 22.50200
H  1.49300 43.23800 20.75600
H  4.21200 43.21600 21.46600
H  2.62200 40.48200 20.79300
H  3.44700 41.64500 19.78300
H  1.72800 41.42300 19.56600
H  3.71000 45.61600 21.74400
H  2.05400 45.21500 21.58600
H  3.90800 46.01900 19.68500
H  2.37800 45.24400 19.22000
H  3.79100 44.22300 19.31800
H  6.98300 44.01000 25.21900
H  7.17500 43.48700 26.89500
H  6.81700 45.17900 26.56100
H  3.55200 43.52900 30.56700
H  2.81300 41.40700 33.75200
H  4.63500 41.12300 33.72500
H  3.50900 40.10200 32.83300

