158

Mg 34.71500 3.38400 29.72800
C  32.47100 4.35200 32.26700
C  37.22000 3.44000 32.22200
C  36.99700 2.81900 27.35800
C  32.29300 3.77300 27.37800
N  34.81100 3.72400 32.04900
C  33.76100 4.06000 32.84900
C  34.14600 4.26100 34.30500
C  35.72500 4.28700 34.20200
C  36.00600 3.83100 32.72200
C  36.31100 5.70700 34.61800
C  33.63400 3.14400 35.26000
C  33.36600 3.76500 36.64000
H  34.27400 4.93900 37.21400
N  36.80000 3.03500 29.82100
C  37.62300 2.99800 30.93300
C  38.94900 2.46900 30.50900
C  38.87000 2.32800 29.08200
C  37.54300 2.78100 28.68900
C  40.02300 2.19900 31.51300
C  39.90000 1.75500 28.18900
O  39.70600 1.46100 26.99000
C  41.17000 1.26300 28.74800
N  34.61500 3.25700 27.69900
C  35.71000 3.05600 26.88300
C  35.30600 2.99700 25.37200
C  33.74800 3.12200 25.39200
C  33.50900 3.37800 26.93600
C  35.91300 4.14900 24.56000
C  33.04200 1.74800 25.00200
C  31.77500 1.97500 24.25500
N  32.86600 3.92300 29.74900
C  31.97400 4.02800 28.75000
C  30.69300 4.29000 29.20400
C  30.81900 4.55600 30.53200
C  32.16700 4.23900 30.88700
C  29.40100 4.42200 28.33600
C  30.13600 5.00800 31.66800
O  28.95000 5.33000 31.80200
C  31.14700 4.76200 32.87900
C  31.18200 6.05800 33.70200
O  31.62200 7.10700 33.29200
O  30.74600 5.88900 35.01700
C  31.00900 6.96200 35.88100
H  38.03900 3.56800 32.93300
H  37.60500 2.53100 26.49800
H  31.57700 3.94200 26.57100
H  33.76000 5.26500 34.48400
H  36.23800 3.50800 34.76700
H  36.60100 6.21000 33.69500
H  37.14700 5.38000 35.23600
H  35.60500 6.32300 35.17500
H  34.43300 2.41500 35.39300
H  32.71100 2.68500 34.90600
H  33.30700 2.99700 37.41100
H  32.32900 4.08200 36.52400
H  40.98000 2.53800 31.11700
H  40.22400 1.15300 31.74700
H  39.79400 2.81600 32.38100
H  41.71900 0.80100 27.92700
H  41.02500 0.62900 29.62300
H  41.80100 2.12000 28.98200
H  35.65500 2.06600 24.92600
H  33.26200 3.87000 24.76700
H  36.14000 4.90400 25.31200
H  35.16000 4.53900 23.87500
H  36.84500 3.89100 24.05800
H  32.78000 1.23700 25.92800
H  33.77400 1.12500 24.48700
H  31.83400 1.40600 23.32700
H  31.57800 3.02000 24.01500
H  30.95300 1.51700 24.80500
H  28.60400 3.96400 28.92200
H  29.32000 3.98800 27.33900
H  29.16600 5.48500 28.27800
H  30.78200 3.98700 33.55400
H  30.83100 6.56000 36.87900
H  30.20900 7.65600 35.62100
H  32.01900 7.36100 35.79000
Mg 54.09600 24.76900 44.61200
C  51.45600 27.08100 43.81400
C  51.88000 22.41200 43.55200
C  56.71800 22.79400 44.44600
C  56.18000 27.51200 45.37300
N  51.90300 24.82400 43.53900
C  50.96900 25.85700 43.48000
C  49.60100 25.33700 42.89200
C  49.72100 23.81800 43.30500
C  51.27200 23.62100 43.48400
C  48.86900 23.42100 44.49600
C  49.41400 25.50700 41.31900
C  47.96200 25.39500 40.91300
H  47.65600 25.31200 39.48200
N  54.24400 22.80600 44.07900
C  53.20600 21.97000 43.78900
C  53.75200 20.68100 43.53400
C  55.16400 20.78200 43.78700
C  55.45100 22.20700 44.05600
C  52.89000 19.31700 43.35000
C  56.07300 19.60200 43.82200
O  55.76100 18.45500 43.58600
C  57.52700 19.76300 44.08500
N  56.23300 25.11700 44.90900
C  57.06100 24.09900 44.85700
C  58.44100 24.59400 45.32300
C  58.21800 26.09000 45.80000
C  56.79800 26.24500 45.27000
C  59.08100 23.71600 46.41100
C  59.35300 26.97900 45.38500
C  59.15700 27.83900 44.11300
N  53.93600 26.85900 44.59100
C  54.79600 27.79200 45.12100
C  54.06100 29.03200 45.32400
C  52.78200 28.76400 44.76900
C  52.74600 27.45700 44.34200
C  54.55500 30.34500 45.88200
C  51.46500 29.36800 44.62700
O  51.08800 30.52200 44.91500
C  50.62700 28.32500 43.83900
C  50.36200 28.92400 42.52300
O  51.22400 29.49600 41.85500
O  49.02600 28.96800 42.25700
C  48.68900 29.58300 40.96200
H  51.26300 21.52400 43.40200
H  57.57600 22.11900 44.46100
H  56.72600 28.40700 45.67800
H  48.89100 25.94600 43.45200
H  49.51500 23.07500 42.53500
H  48.25900 22.53000 44.34500
H  48.17700 24.18100 44.85900
H  49.49100 22.99700 45.28400
H  50.02900 24.75900 40.81800
H  49.85500 26.45700 41.01500
H  47.48400 26.26600 41.36100
H  47.59500 24.55800 41.50800
H  53.36600 18.48700 43.87100
H  52.82900 19.02900 42.30100
H  51.95700 19.53700 43.86800
H  57.81600 20.51100 43.34600
H  58.08300 18.85600 43.85000
H  57.72600 20.02400 45.12400
H  59.24300 24.56800 44.58500
H  58.23000 25.97200 46.88400
H  58.50000 22.79500 46.44000
H  59.12500 24.22200 47.37500
H  60.11700 23.48100 46.16600
H  60.26600 26.38700 45.32000
H  59.51300 27.69100 46.19500
H  58.38400 27.40600 43.47700
H  60.08700 28.11300 43.61600
H  58.94200 28.78700 44.60600
H  55.59200 30.38600 46.21200
H  53.93800 30.54500 46.75800
H  54.44000 31.15100 45.15700
H  49.67000 28.12100 44.31900
H  47.99200 28.89600 40.48200
H  49.57000 29.81600 40.36300
H  48.08200 30.48800 40.95200

