158

Mg 6.79600 53.35600 40.86800
C  6.60800 49.76700 40.39400
C  10.09200 53.11700 40.35700
C  6.89900 56.77200 40.79400
C  3.30300 53.37100 41.05200
N  8.18400 51.60900 40.40600
C  7.92600 50.25600 40.29300
C  9.16400 49.49000 39.84700
C  10.30200 50.59800 40.16600
C  9.46500 51.86500 40.30600
C  11.09000 50.45800 41.47200
C  9.15500 48.82200 38.48500
C  8.73100 49.75200 37.30700
H  7.34100 49.54700 36.71500
N  8.26900 54.71700 40.57400
C  9.59500 54.38600 40.34700
C  10.39100 55.63000 40.10700
C  9.45100 56.75200 40.19500
C  8.12500 56.11300 40.54400
C  11.78900 55.56700 39.60400
C  9.77800 58.23300 39.98200
O  10.91900 58.51400 39.84500
C  8.74400 59.35000 40.13900
N  5.27100 54.86700 40.66700
C  5.56700 56.21700 40.84400
C  4.23700 57.02300 41.30700
C  3.14800 55.88800 41.19900
C  3.95400 54.58800 40.95600
C  4.37400 57.57800 42.73500
C  2.02600 56.24600 40.15900
C  1.08800 57.44800 40.55600
N  5.23200 51.88500 40.71900
C  3.90300 52.11700 40.89600
C  3.28800 50.85000 40.86900
C  4.27900 49.94600 40.84800
C  5.48600 50.56800 40.60500
C  1.85100 50.47300 41.19200
C  4.55000 48.49700 41.01900
O  3.84000 47.54600 41.24700
C  6.00600 48.34400 40.72700
C  6.07600 47.35800 39.59700
O  5.86800 47.62400 38.40900
O  6.43200 46.14600 40.06700
C  6.45400 45.03900 39.09200
H  11.18400 53.10800 40.36900
H  6.89300 57.84300 41.01200
H  2.21900 53.44500 41.16800
H  9.31100 48.69300 40.57500
H  10.86900 50.64000 39.23600
H  10.87400 51.24400 42.19700
H  12.08700 50.66500 41.08400
H  11.08400 49.47800 41.94800
H  8.39300 48.05000 38.58200
H  10.19300 48.52900 38.32500
H  9.46700 49.79200 36.50400
H  8.77700 50.79800 37.60900
H  12.35900 54.69900 39.93400
H  12.33800 56.47400 39.85800
H  11.78700 55.56100 38.51400
H  8.03500 59.17900 39.32900
H  9.33200 60.25300 39.97700
H  8.26800 59.33200 41.11900
H  4.02500 57.76900 40.54000
H  2.63700 55.79500 42.15800
H  5.39500 57.58800 43.11600
H  3.86900 56.97300 43.48700
H  4.03800 58.61200 42.80300
H  1.43600 55.33300 40.07900
H  2.49900 56.35800 39.18300
H  1.56600 57.75200 41.48700
H  0.11900 57.01400 40.80500
H  1.05800 58.25200 39.82100
H  1.36700 50.32800 40.22600
H  1.37000 51.28800 41.73400
H  1.70000 49.50500 41.66900
H  6.56900 47.85200 41.52000
H  5.41700 44.92200 38.77600
H  6.73800 44.12700 39.61700
H  7.22300 45.14500 38.32700
Mg -2.45700 34.30600 26.31800
C  -4.04000 32.45600 28.96200
C  -1.36100 36.58900 28.72000
C  -1.16500 36.25200 23.75100
C  -4.16700 32.35800 24.01000
N  -2.87500 34.56100 28.49900
C  -3.42200 33.67500 29.42100
C  -3.25100 34.14500 30.90500
C  -2.71700 35.62400 30.73900
C  -2.19400 35.58700 29.22400
C  -3.78100 36.73800 31.02300
C  -2.37900 33.16900 31.68900
C  -3.00600 32.54600 32.94200
H  -2.18900 32.46600 34.24300
N  -1.30000 36.03300 26.18400
C  -0.96000 36.77900 27.29300
C  0.01300 37.69000 26.88000
C  0.07400 37.71200 25.48800
C  -0.79500 36.64600 25.03900
C  0.75400 38.58600 27.92100
C  0.78300 38.60500 24.48400
O  0.76800 38.43100 23.27300
C  1.54800 39.82700 25.01200
N  -2.71000 34.35200 24.16400
C  -2.02000 35.15600 23.35600
C  -2.34100 34.86800 21.89700
C  -3.02300 33.48400 22.02200
C  -3.39400 33.41100 23.47600
C  -3.38600 35.95500 21.22700
C  -2.00100 32.41200 21.63300
C  -0.88500 31.88600 22.61100
N  -3.74900 32.71600 26.43000
C  -4.23500 31.97000 25.40100
C  -5.06400 30.87100 25.93900
C  -4.96600 31.03900 27.31100
C  -4.15200 32.11200 27.60500
C  -5.91800 29.84700 25.29600
C  -5.39600 30.44800 28.52800
O  -6.11100 29.47800 28.74800
C  -4.75600 31.32400 29.73700
C  -5.78900 31.73600 30.62400
O  -6.56600 32.65300 30.43400
O  -5.85000 30.88900 31.61800
C  -6.87800 31.26100 32.61400
H  -0.75500 37.02100 29.51900
H  -0.85400 36.85200 22.89300
H  -4.62600 31.56600 23.41400
H  -4.25000 34.11700 31.34000
H  -1.81300 35.82100 31.31400
H  -3.53700 36.99600 32.05400
H  -4.76000 36.26400 30.94400
H  -3.61600 37.62200 30.40900
H  -1.49200 33.68700 32.05600
H  -2.12600 32.34400 31.02300
H  -3.26800 31.50200 32.76800
H  -3.92600 33.09600 33.13900
H  1.82800 38.59800 27.73100
H  0.59500 38.25600 28.94700
H  0.43100 39.62300 27.82800
H  0.82300 40.46600 25.51600
H  2.01700 40.35400 24.18100
H  2.25300 39.53900 25.79100
H  -1.46000 34.92800 21.25800
H  -3.93500 33.35300 21.43900
H  -3.44900 36.87400 21.81000
H  -4.39500 35.58500 21.04600
H  -2.93900 36.09600 20.24200
H  -1.48000 32.90100 20.81000
H  -2.57200 31.55600 21.27300
H  0.06300 32.27000 22.23400
H  -0.80300 30.80400 22.50100
H  -1.09100 32.22000 23.62800
H  -5.89100 29.62700 24.22900
H  -6.96100 30.12800 25.44400
H  -5.65500 28.97900 25.90100
H  -4.03000 30.77800 30.33900
H  -6.35800 31.83200 33.38300
H  -7.12500 30.31500 33.09500
H  -7.81000 31.71800 32.28400

