158

Mg 45.28300 4.05300 47.18500
C  43.41100 6.96800 46.26300
C  42.24900 2.30700 46.41300
C  46.94100 1.34400 47.87800
C  48.15400 6.03000 47.17700
N  43.06500 4.61500 46.47700
C  42.63800 5.79900 46.02600
C  41.19300 5.75400 45.50200
C  40.74700 4.28100 45.76200
C  42.08900 3.69100 46.28900
C  39.63900 4.22000 46.80700
C  41.14900 6.14500 44.00600
C  40.22300 7.24300 43.61500
H  40.38500 7.61500 42.09400
N  44.66500 2.11100 47.15400
C  43.40300 1.57500 46.79200
C  43.56700 0.15700 46.82700
C  44.82900 -0.20400 47.38700
C  45.53700 1.09300 47.56300
C  42.48400 -0.72500 46.40600
C  45.33300 -1.60400 47.62100
O  44.49400 -2.49000 47.53900
C  46.74700 -1.90600 48.05400
N  47.34800 3.71100 47.36800
C  47.76300 2.51800 47.83100
C  49.25600 2.65900 48.19300
C  49.62000 4.11800 47.92900
C  48.28900 4.65500 47.45400
C  49.65900 2.16700 49.57700
C  50.78600 4.36200 47.00700
C  50.67300 3.84700 45.49400
N  45.76600 6.07800 46.88100
C  46.91100 6.70300 46.96700
C  46.77400 8.13000 46.71700
C  45.38200 8.30600 46.49300
C  44.81200 7.05400 46.56600
C  47.94400 9.09200 46.60400
C  44.31100 9.25500 46.16700
O  44.28600 10.45900 46.01800
C  43.03800 8.42600 45.97600
C  41.99900 8.94100 47.02700
O  41.52100 8.29200 47.98100
O  41.49900 10.17500 46.61700
C  40.35000 10.58400 47.53200
H  41.29600 1.85200 46.13200
H  47.53000 0.45400 48.10900
H  49.01700 6.67700 47.34500
H  40.57100 6.43700 46.08000
H  40.39900 3.74800 44.87700
H  38.70700 4.17000 46.24500
H  39.59700 5.07200 47.48600
H  39.78500 3.30000 47.37300
H  40.86900 5.21600 43.51000
H  42.11300 6.40800 43.57000
H  40.45100 8.18700 44.11000
H  39.15500 7.02400 43.59100
H  42.96100 -1.26300 45.58700
H  41.56700 -0.26000 46.04300
H  42.19400 -1.33000 47.26500
H  46.82900 -2.99100 48.11600
H  47.12100 -1.49700 48.99300
H  47.42400 -1.66100 47.23600
H  49.67500 2.00000 47.43300
H  49.86600 4.68500 48.82700
H  50.44500 2.83200 49.93500
H  50.05900 1.15400 49.53100
H  48.77000 2.26800 50.20000
H  51.70800 3.96400 47.43100
H  51.02100 5.42600 47.02500
H  51.34000 3.07700 45.10600
H  50.76900 4.73900 44.87400
H  49.67900 3.44300 45.30400
H  48.56700 8.79200 45.76100
H  48.53300 9.28300 47.50100
H  47.57900 10.07300 46.30200
H  42.59900 8.56100 44.98800
H  39.91700 9.80600 48.16200
H  39.59000 10.92800 46.83000
H  40.61100 11.42000 48.18000
Mg 34.53000 49.17200 26.47800
C  34.92600 46.80300 28.95900
C  33.66800 51.46600 28.71700
C  33.54500 51.09900 23.90100
C  35.30600 46.63700 24.10800
N  34.44200 49.12000 28.58600
C  34.59700 48.03500 29.45200
C  34.68200 48.48100 30.89400
C  34.15300 50.02600 30.83000
C  34.13700 50.28700 29.28000
C  32.86200 50.46500 31.63400
C  36.05900 48.37200 31.52100
C  36.15800 48.05100 32.95600
H  36.28200 49.21800 33.93100
N  33.84500 51.10700 26.31400
C  33.54100 51.86700 27.36000
C  33.35800 53.25800 26.84400
C  33.39500 53.17500 25.39600
C  33.53800 51.74800 25.17800
C  33.31400 54.47900 27.70400
C  33.21900 54.29400 24.38500
O  33.28700 54.12000 23.18300
C  32.70900 55.53300 24.89300
N  34.38800 48.94600 24.40000
C  33.97500 49.88400 23.54900
C  34.12700 49.48200 22.05600
C  34.97200 48.20500 22.20000
C  34.86800 47.90000 23.66800
C  32.75900 49.23400 21.23600
C  36.41200 48.38100 21.72400
C  37.21800 47.10200 21.36800
N  35.01900 47.12000 26.45500
C  35.21700 46.18700 25.45700
C  35.45900 44.86200 26.03200
C  35.45500 45.07000 27.44400
C  35.07700 46.40200 27.57200
C  35.97200 43.63700 25.24700
C  35.68500 44.47800 28.75400
O  35.89300 43.33000 29.07900
C  35.36000 45.58300 29.76800
C  34.27300 45.10500 30.61400
O  33.13300 44.83100 30.21700
O  34.73000 44.89900 31.85700
C  33.67800 44.72800 32.87600
H  33.49700 52.21000 29.49700
H  33.36300 51.77300 23.06200
H  35.48200 45.89100 23.33000
H  33.97300 47.87800 31.46100
H  34.87000 50.74400 31.22900
H  32.03300 50.57800 30.93500
H  33.08400 51.38700 32.17100
H  32.46300 49.76800 32.37000
H  36.44300 49.39200 31.50600
H  36.70100 47.77000 30.87900
H  37.08000 47.48300 33.08100
H  35.25700 47.47800 33.17800
H  34.14600 55.12100 27.41500
H  33.70400 54.22800 28.69000
H  32.35300 54.99200 27.66200
H  32.36700 56.05300 23.99800
H  33.62100 56.05000 25.19100
H  31.89300 55.44100 25.60900
H  34.64100 50.31100 21.56900
H  34.51900 47.45600 21.55000
H  32.97000 49.88700 20.38800
H  31.99000 49.67100 21.87400
H  32.57500 48.22800 20.86000
H  36.92800 48.85000 22.56200
H  36.42500 49.02600 20.84500
H  37.57000 47.26100 20.34900
H  36.60100 46.21000 21.48000
H  38.14600 46.93900 21.91700
H  36.87900 44.04100 24.79700
H  35.30300 43.27900 24.46500
H  36.34500 42.83900 25.88800
H  36.25200 45.75800 30.36800
H  33.98500 45.54200 33.53200
H  33.84800 43.77800 33.38400
H  32.66000 44.92600 32.54200

