158

Mg 17.46100 -1.45700 26.76400
C  16.47200 0.69500 29.48400
C  19.42300 -3.09300 28.96700
C  18.58700 -3.01900 24.25300
C  15.91900 1.01900 24.74100
N  17.87100 -1.19800 28.89800
C  17.38700 -0.29600 29.84700
C  17.93700 -0.48100 31.23700
C  19.01900 -1.49500 30.93400
C  18.80000 -2.01700 29.53200
C  20.49400 -0.97800 31.18800
C  16.73400 -0.96300 32.13800
C  16.79700 -0.69200 33.62900
H  18.18900 -0.35100 34.15600
N  18.62500 -3.01900 26.64000
C  19.33500 -3.62200 27.62900
C  20.08400 -4.74500 27.07000
C  19.72200 -4.83700 25.67100
C  18.88600 -3.62000 25.44200
C  20.93800 -5.76300 27.85400
C  20.11000 -5.88800 24.56300
O  19.84800 -5.90000 23.37600
C  20.94000 -7.05800 25.16600
N  17.29400 -0.99700 24.81600
C  17.92700 -1.82500 23.93600
C  17.82600 -1.25700 22.48700
C  16.90300 -0.05500 22.66500
C  16.68600 0.03900 24.14800
C  19.17100 -0.88900 21.79600
C  15.61900 0.03600 21.78900
C  14.52000 -0.92500 22.27700
N  16.23200 0.31000 27.02900
C  15.69000 1.21100 26.11800
C  14.86900 2.18900 26.73100
C  15.10500 1.96400 28.07000
C  15.99800 0.87900 28.19800
C  13.81400 3.12700 26.10300
C  14.67100 2.41500 29.32300
O  13.82700 3.19100 29.70800
C  15.65400 1.69900 30.38700
C  16.38200 2.72400 31.10900
O  17.43900 3.21900 30.81600
O  15.67200 3.03100 32.16800
C  16.07800 4.26800 32.92000
H  20.06600 -3.54400 29.72600
H  18.71300 -3.59400 23.33300
H  15.64500 1.82600 24.05900
H  18.28500 0.48800 31.59500
H  18.84200 -2.34900 31.58700
H  20.56300 0.06300 31.50300
H  20.98100 -0.88000 30.21700
H  21.15300 -1.61600 31.77700
H  16.47000 -1.99100 31.88700
H  15.79400 -0.44300 31.95100
H  16.65200 -1.63000 34.16300
H  16.07600 0.06200 33.94400
H  21.98000 -5.69500 27.54100
H  20.70000 -6.82700 27.86800
H  20.83900 -5.50200 28.90800
H  20.35100 -7.48500 25.97800
H  21.90700 -6.67500 25.49300
H  21.16000 -7.80600 24.40500
H  17.42700 -2.07100 21.88200
H  17.42400 0.85600 22.37400
H  19.20000 0.17000 21.54100
H  19.23300 -1.34100 20.80600
H  20.08200 -1.12600 22.34600
H  15.90400 -0.32000 20.80000
H  15.19200 1.03900 21.80300
H  13.75700 -0.33100 22.78000
H  14.95700 -1.61700 22.99600
H  14.18900 -1.35100 21.33000
H  14.04800 3.19500 25.04000
H  13.94900 4.14500 26.46900
H  12.78400 2.78000 26.18600
H  14.98200 1.14400 31.04300
H  16.57500 4.98900 32.27100
H  16.63000 3.88700 33.77900
H  15.20400 4.83400 33.24100
Mg 10.48700 47.25900 26.25900
C  8.45000 47.79400 29.04800
C  13.06800 48.83700 27.95500
C  12.38400 46.89600 23.49700
C  7.55100 46.62300 24.30600
N  10.69400 48.28000 28.24700
C  9.79800 48.07700 29.28000
C  10.46200 48.56800 30.60200
C  11.57000 49.46600 30.04600
C  11.85600 48.85000 28.67000
C  11.28700 50.97500 29.96600
C  10.91600 47.45600 31.49600
C  11.09900 47.70500 33.02900
H  10.77000 46.50300 33.98900
N  12.49900 47.65700 25.85900
C  13.38000 48.29900 26.70300
C  14.74800 48.28500 26.04100
C  14.53700 47.65200 24.77500
C  13.09300 47.37700 24.61400
C  15.92600 48.84100 26.68800
C  15.51900 47.16400 23.79400
O  15.28600 46.41900 22.81100
C  16.88300 47.64400 23.93500
N  9.98500 46.94600 24.11900
C  11.01200 46.63600 23.26000
C  10.40400 46.11000 21.95100
C  8.96200 45.82300 22.34000
C  8.79800 46.52900 23.65300
C  10.54000 47.03600 20.70100
C  8.53800 44.35100 22.37300
C  9.26800 43.51700 23.36100
N  8.34800 47.18300 26.59600
C  7.32600 46.95000 25.75200
C  6.08300 47.16400 26.45500
C  6.47800 47.41800 27.84300
C  7.88900 47.47600 27.78500
C  4.59300 47.12600 25.95100
C  6.07500 47.61000 29.19200
O  4.93800 47.68400 29.62800
C  7.35100 47.77600 30.07000
C  7.45400 46.56700 30.92900
O  7.94400 45.47600 30.60000
O  6.94200 46.82200 32.14700
C  6.85400 45.71200 33.13200
H  13.85900 49.31000 28.54000
H  12.96600 46.59700 22.62300
H  6.67000 46.29300 23.75100
H  9.81900 49.29600 31.09700
H  12.54700 49.32600 30.50900
H  10.23100 51.22000 30.07900
H  11.51500 51.46800 29.02100
H  11.69100 51.49800 30.83300
H  11.84700 47.11300 31.04300
H  10.22300 46.62700 31.34900
H  10.39700 48.49800 33.28700
H  12.12300 47.94000 33.32200
H  15.77200 49.28500 27.67100
H  16.33000 49.61600 26.03600
H  16.69100 48.07900 26.83700
H  16.78500 48.72800 23.98400
H  17.52400 47.26600 23.13800
H  17.21800 47.25600 24.89700
H  10.96600 45.19200 21.78300
H  8.18200 46.25100 21.71100
H  10.35700 48.10000 20.84600
H  9.86100 46.70700 19.91400
H  11.55400 47.05200 20.30100
H  8.54900 43.91900 21.37200
H  7.46100 44.33300 22.54000
H  8.75600 43.30300 24.29800
H  10.24300 43.91200 23.64700
H  9.59000 42.62400 22.82500
H  4.42200 48.07000 25.43400
H  3.94900 46.97800 26.81800
H  4.47100 46.23600 25.33300
H  7.27500 48.61100 30.76600
H  7.57100 44.91800 32.92300
H  5.84000 45.32400 33.23300
H  7.12400 45.98300 34.15200

