158

Mg 1.37200 7.62100 25.47900
C  1.98200 9.48700 28.41500
C  1.42900 4.81600 27.39900
C  0.73200 5.82500 22.69500
C  1.64200 10.46500 23.58200
N  1.76800 7.22500 27.70700
C  1.76900 8.10500 28.68700
C  1.77700 7.45300 30.13600
C  1.81900 5.96100 29.73800
C  1.60900 5.95300 28.18900
C  3.00800 5.18000 30.27800
C  0.53800 8.05300 30.96100
C  0.91600 8.51400 32.37100
H  1.99200 7.68600 33.04400
N  1.22400 5.51600 25.09000
C  1.25700 4.53000 25.98300
C  1.08900 3.19300 25.30900
C  0.96000 3.58300 23.91900
C  0.92800 5.01900 23.83100
C  1.17700 1.81900 25.95100
C  0.85900 2.56800 22.76700
O  0.63200 2.96100 21.65000
C  0.85400 1.12300 22.92100
N  1.24200 8.03700 23.38500
C  0.88500 7.18300 22.45900
C  0.65600 7.88100 21.04500
C  0.93000 9.40500 21.38600
C  1.21000 9.32800 22.92500
C  1.63700 7.21800 20.03600
C  -0.23600 10.33200 21.00500
C  0.29400 11.62200 20.29800
N  1.68700 9.61100 25.89200
C  1.83800 10.64200 24.97400
C  2.19300 11.86500 25.73700
C  2.26900 11.41800 27.05400
C  1.96600 10.05900 27.09700
C  2.38900 13.25000 25.24300
C  2.51600 11.88900 28.44000
O  2.82800 13.02500 28.75400
C  2.25900 10.66300 29.41900
C  3.44700 10.54400 30.23600
O  4.51900 10.27400 29.88200
O  3.18000 11.08100 31.48100
C  4.28500 11.42000 32.38600
H  1.37200 3.83800 27.88300
H  0.35200 5.33800 21.79500
H  1.75300 11.36500 22.97200
H  2.64100 7.87400 30.65000
H  0.90800 5.51700 30.13900
H  3.72800 5.92700 30.61100
H  3.31900 4.49800 29.48700
H  2.60200 4.54700 31.06700
H  -0.30000 7.36100 31.04800
H  0.20800 8.94700 30.43100
H  0.07100 8.53600 33.05900
H  1.28100 9.52500 32.18800
H  1.27900 1.92800 27.03100
H  2.00800 1.21900 25.57900
H  0.24800 1.28000 25.76600
H  0.86300 0.63300 21.94700
H  -0.08000 0.95000 23.45500
H  1.65200 0.60600 23.45500
H  -0.38100 7.69600 20.76200
H  1.80600 9.77300 20.85100
H  2.61000 7.11000 20.51700
H  1.60000 7.82100 19.12900
H  1.39500 6.17800 19.81800
H  -0.70200 10.80300 21.87000
H  -0.95700 9.78200 20.40100
H  -0.32000 12.39600 20.75800
H  -0.02600 11.45500 19.27000
H  1.36100 11.84700 20.30300
H  2.86200 13.86900 26.00500
H  1.43500 13.64300 24.89200
H  3.00900 13.22000 24.34600
H  1.41900 10.91100 30.06800
H  3.97000 11.44800 33.42900
H  4.62300 12.42400 32.13000
H  5.06800 10.66600 32.29500
Mg 8.61700 48.08500 25.31000
C  6.54200 47.97600 28.06700
C  11.10700 49.37800 27.24700
C  10.68200 48.20500 22.49700
C  5.94000 47.41400 23.25100
N  8.72400 48.64100 27.40100
C  7.81500 48.40600 28.36100
C  8.38700 48.90300 29.73000
C  9.66700 49.74600 29.35100
C  9.88700 49.29100 27.90500
C  9.38100 51.31800 29.49500
C  8.69400 47.72600 30.80200
C  8.05300 47.92600 32.18400
H  8.38300 46.76200 33.21800
N  10.69100 48.64500 24.97000
C  11.53000 49.05700 25.90300
C  12.79000 49.17900 25.30900
C  12.75500 48.67200 23.96200
C  11.34500 48.50500 23.72800
C  14.04200 49.50400 26.09600
C  13.89600 48.39000 22.92400
O  13.70000 47.96900 21.79700
C  15.36300 48.64300 23.24900
N  8.33900 47.99100 23.17500
C  9.28700 48.04300 22.22200
C  8.70000 47.83700 20.81600
C  7.26200 47.29400 21.22400
C  7.11300 47.66800 22.63000
C  8.67000 49.03200 19.86300
C  7.07800 45.75100 20.86800
C  5.78900 45.39500 20.14700
N  6.66100 47.74500 25.54400
C  5.73100 47.40400 24.61800
C  4.45300 47.13900 25.34000
C  4.69800 47.37300 26.69200
C  6.09400 47.69900 26.80500
C  3.18700 46.70000 24.67700
C  4.09100 47.31500 28.03300
O  3.01400 47.00300 28.46000
C  5.30200 47.69400 29.02100
C  5.54100 46.55100 30.01400
O  6.17800 45.55800 29.83400
O  4.71100 46.77300 31.14600
C  4.92200 45.78400 32.24000
H  11.93400 49.75100 27.85500
H  11.31600 47.96900 21.63900
H  5.20300 46.88200 22.64600
H  7.53600 49.48200 30.09000
H  10.54300 49.46500 29.93500
H  9.31400 51.67900 28.46900
H  10.27500 51.69500 29.99100
H  8.55200 51.59400 30.14700
H  9.77900 47.62700 30.84300
H  8.32800 46.85200 30.26400
H  6.97300 47.94400 32.04200
H  8.35600 48.87300 32.63100
H  13.83600 49.62400 27.15900
H  14.64300 50.34800 25.75700
H  14.61000 48.57800 26.00500
H  15.39000 49.62600 23.72000
H  15.90200 48.60800 22.30200
H  15.65700 47.84400 23.93000
H  9.19100 47.02500 20.28100
H  6.48500 47.78700 20.63900
H  7.66200 49.44300 19.79500
H  9.08000 48.66900 18.92100
H  9.37400 49.78500 20.21700
H  7.05600 45.23400 21.82700
H  7.94500 45.29500 20.39000
H  5.98900 45.24900 19.08500
H  5.03800 46.16900 20.30300
H  5.21800 44.54900 20.53000
H  3.42200 46.08400 23.80900
H  2.48200 47.51300 24.50200
H  2.69800 46.13700 25.47300
H  5.07800 48.60900 29.57100
H  3.92100 45.42600 32.48000
H  5.33300 46.22400 33.14900
H  5.54700 44.91600 32.03200

