158

Mg 17.02200 51.32000 26.20400
C  19.12200 49.96300 28.82100
C  14.86100 52.23800 28.64500
C  15.03100 52.59200 23.77400
C  19.16800 50.21300 23.84300
N  17.14200 51.17600 28.57200
C  17.96600 50.56300 29.40900
C  17.66600 50.81800 30.84500
C  16.12000 51.13100 30.66500
C  15.99400 51.53800 29.23100
C  15.24600 49.92000 30.92100
C  18.45200 51.94600 31.57900
C  18.59700 51.71300 33.11200
H  17.70500 50.72800 33.87800
N  15.20400 52.25400 26.19700
C  14.49400 52.60700 27.30600
C  13.34300 53.36700 26.86200
C  13.29500 53.27500 25.44600
C  14.55600 52.73200 25.09900
C  12.44800 54.09800 27.86000
C  12.17900 53.63000 24.48400
O  12.23100 53.40600 23.31700
C  10.89400 54.32900 25.14100
N  17.10400 51.34800 24.07500
C  16.24000 52.01300 23.34800
C  16.64600 52.13900 21.81700
C  18.00400 51.28800 21.83800
C  18.12900 50.96400 23.28800
C  15.66300 51.62500 20.79200
C  19.17000 52.19900 21.29300
C  20.34300 51.57500 20.55100
N  18.72100 50.25600 26.28700
C  19.50400 49.82100 25.22700
C  20.70800 49.12800 25.69600
C  20.55000 49.11500 27.09600
C  19.34200 49.84500 27.40500
C  21.84100 48.64900 24.86900
C  21.14000 48.68300 28.41000
O  22.16400 48.06700 28.62000
C  20.26500 49.22700 29.52100
C  19.70700 48.07800 30.25800
O  19.37000 46.96800 29.81700
O  19.69400 48.44500 31.60000
C  19.69900 47.36100 32.57700
H  14.18800 52.53300 29.45300
H  14.51500 53.10900 22.96300
H  19.91000 49.86200 23.12200
H  17.71200 49.87100 31.38300
H  15.83900 51.94400 31.33400
H  15.86900 49.15300 31.38100
H  14.72300 49.58300 30.02700
H  14.55600 50.10100 31.74500
H  17.95700 52.87800 31.30900
H  19.45400 51.89800 31.15400
H  18.47400 52.68100 33.59800
H  19.58900 51.35100 33.38100
H  11.46200 53.63400 27.84600
H  12.27000 55.11900 27.52300
H  12.84200 54.05900 28.87600
H  11.01700 55.29300 25.63400
H  10.44500 53.61500 25.83100
H  10.20500 54.52800 24.32000
H  16.75300 53.22300 21.79500
H  18.05300 50.35500 21.27700
H  15.20800 52.52700 20.38300
H  14.95300 50.89600 21.18200
H  16.15800 51.15400 19.94200
H  19.62500 52.71600 22.13800
H  18.73700 53.02000 20.72100
H  20.39000 51.83100 19.49300
H  20.30700 50.48600 20.53900
H  21.30100 51.84300 20.99700
H  22.13500 49.46300 24.20600
H  21.63800 47.75100 24.28500
H  22.72900 48.39800 25.44900
H  20.89500 49.81300 30.19100
H  20.24200 46.50600 32.17400
H  18.73200 47.00700 32.93400
H  20.30400 47.66300 33.43100
Mg -12.92900 38.38600 42.23300
C  -11.68700 35.41100 40.85300
C  -10.32200 40.15000 40.64900
C  -14.48500 41.47500 42.79000
C  -15.49600 36.73800 43.56900
N  -11.22200 37.80700 40.79500
C  -10.89200 36.52000 40.46200
C  -9.56100 36.50100 39.66500
C  -9.04700 37.99100 39.78100
C  -10.19400 38.71500 40.56000
C  -7.69500 38.07700 40.48400
C  -9.84700 35.96800 38.18400
C  -8.79400 34.94200 37.84600
H  -7.64200 35.53900 36.89700
N  -12.47500 40.53700 41.79500
C  -11.36300 40.99000 41.15300
C  -11.36100 42.38700 41.16700
C  -12.56900 42.80400 41.68200
C  -13.28300 41.59600 42.13500
C  -10.23200 43.25800 40.60900
C  -13.07200 44.30900 41.79100
O  -12.40300 45.22900 41.38700
C  -14.29900 44.67300 42.50800
N  -14.78400 39.02300 42.81200
C  -15.02600 40.27200 43.24800
C  -16.30400 40.30700 44.16700
C  -16.49700 38.80200 44.51000
C  -15.49700 38.10700 43.59500
C  -16.24500 41.29100 45.37700
C  -17.93100 38.26200 44.25000
C  -19.11800 39.04800 44.94300
N  -13.58800 36.43800 42.23300
C  -14.60900 35.88300 42.90500
C  -14.62700 34.40200 42.66600
C  -13.39100 34.24800 41.96300
C  -12.88300 35.47600 41.63200
C  -15.69000 33.40600 42.92700
C  -12.51800 33.25600 41.38200
O  -12.62000 32.05200 41.53900
C  -11.38400 33.95700 40.52000
C  -10.10200 33.43800 41.01200
O  -9.48900 32.51400 40.48500
O  -9.73700 33.98000 42.26300
C  -8.73600 33.13500 42.94400
H  -9.43800 40.59800 40.19100
H  -15.08600 42.29100 43.19600
H  -16.28100 36.15600 44.05600
H  -8.93600 35.82800 40.25100
H  -8.94100 38.40300 38.77700
H  -7.11100 37.16600 40.35300
H  -7.83800 38.16200 41.56100
H  -7.14700 38.93600 40.09600
H  -9.72200 36.76200 37.44800
H  -10.83400 35.50800 38.14000
H  -9.31800 34.18300 37.26500
H  -8.29000 34.53600 38.72300
H  -9.28700 42.72900 40.48700
H  -9.96000 43.95900 41.39800
H  -10.51200 43.86500 39.74700
H  -15.11100 44.05300 42.12800
H  -14.54900 45.72900 42.40200
H  -14.23000 44.46400 43.57600
H  -17.06500 40.80400 43.56500
H  -16.23700 38.65000 45.55700
H  -16.58200 42.29200 45.10600
H  -15.25300 41.25200 45.82700
H  -16.89800 40.99700 46.19900
H  -17.99600 37.26300 44.68100
H  -18.02100 38.14900 43.17000
H  -18.72400 39.78400 45.64500
H  -19.78300 38.43200 45.54800
H  -19.76200 39.45300 44.16200
H  -16.39100 33.52900 42.10200
H  -16.02600 33.67600 43.92800
H  -15.25100 32.41000 42.86600
H  -11.32600 33.64000 39.47800
H  -8.55800 33.75700 43.82000
H  -7.80600 32.96100 42.40300
H  -9.19800 32.17100 43.15900

