158

Mg -2.40400 17.19800 27.04200
C  -2.64600 14.68100 29.65100
C  -2.71500 19.58400 29.30000
C  -2.51500 19.37900 24.52100
C  -2.57800 14.48700 24.72600
N  -2.59500 17.03600 29.18500
C  -2.65000 15.97400 30.15400
C  -2.88400 16.61200 31.51000
C  -2.92600 18.17400 31.33400
C  -2.72000 18.25800 29.81100
C  -4.17700 18.88300 31.99100
C  -1.83300 16.15000 32.51400
C  -1.44000 16.94100 33.65300
H  -0.88600 16.17000 34.83400
N  -2.45600 19.22900 26.87800
C  -2.50900 20.06900 27.96100
C  -2.39500 21.43900 27.60200
C  -2.42600 21.43600 26.17600
C  -2.47200 19.98000 25.78400
C  -2.37600 22.56000 28.61600
C  -2.34500 22.55400 25.12200
O  -2.38900 22.39400 23.94600
C  -2.25200 23.94200 25.64500
N  -2.70800 16.91000 24.91200
C  -2.58700 18.01200 24.15000
C  -2.41600 17.63200 22.61300
C  -2.52600 16.10200 22.70200
C  -2.58600 15.76700 24.18300
C  -3.57600 18.15100 21.70500
C  -1.40000 15.33200 21.96400
C  -0.01000 15.34400 22.56400
N  -2.49500 15.06700 27.11000
C  -2.53800 14.14800 26.08000
C  -2.41600 12.77900 26.57800
C  -2.46300 12.96500 27.99800
C  -2.61200 14.35100 28.27300
C  -2.27000 11.49600 25.83300
C  -2.47300 12.21200 29.30000
O  -2.58900 11.03800 29.55400
C  -2.54300 13.37700 30.41100
C  -1.20000 13.23100 31.12300
O  -0.14100 13.45900 30.62500
O  -1.30000 12.61900 32.35400
C  -0.02000 12.48300 33.02500
H  -2.99300 20.32000 30.05700
H  -2.41900 20.11300 23.71800
H  -2.49400 13.63800 24.04300
H  -3.79400 16.12800 31.86400
H  -2.06500 18.70400 31.74000
H  -4.77000 19.45800 31.28100
H  -3.75600 19.72900 32.53500
H  -4.75000 18.27800 32.69400
H  -0.89700 16.09700 31.95700
H  -2.14600 15.13700 32.76500
H  -2.43500 17.33000 33.87200
H  -0.76000 17.76200 33.42700
H  -1.57900 23.26600 28.38300
H  -2.17100 22.26700 29.64500
H  -3.35600 23.03500 28.57100
H  -2.51200 24.57700 24.79700
H  -1.30900 24.29500 26.06000
H  -2.97800 23.84200 26.45200
H  -1.41800 18.00100 22.37600
H  -3.48700 15.82000 22.27100
H  -4.40400 18.44300 22.35000
H  -3.84100 17.38100 20.98000
H  -3.17100 18.91600 21.04300
H  -1.46600 15.65700 20.92600
H  -1.70000 14.28800 22.05800
H  0.31400 14.33200 22.80700
H  0.02200 15.87400 23.51600
H  0.69700 15.81400 21.87900
H  -3.25600 11.32900 25.39800
H  -2.01900 10.71600 26.55000
H  -1.50100 11.52500 25.06000
H  -3.28800 13.26000 31.19800
H  0.51900 13.42800 32.95800
H  0.61300 11.67000 32.66900
H  -0.30700 12.23900 34.04800
Mg 53.50800 25.78200 45.87300
C  50.75500 27.65600 44.76100
C  52.16800 23.08800 44.16200
C  56.51200 24.15800 46.13100
C  54.96200 28.68600 46.92500
N  51.87100 25.52600 44.27700
C  50.83100 26.39000 44.16300
C  49.70400 25.75000 43.23000
C  49.96200 24.27700 43.58300
C  51.43900 24.27400 44.03500
C  49.01700 23.67900 44.66700
C  49.87100 26.05000 41.72400
C  48.66500 25.92500 40.75600
H  48.83800 25.27900 39.33000
N  54.20700 23.82600 45.35700
C  53.47400 22.87600 44.72100
C  54.21200 21.65800 44.70100
C  55.42600 21.95400 45.29900
C  55.41800 23.36600 45.67200
C  53.60300 20.36900 44.09600
C  56.58400 21.00400 45.37400
O  56.44900 19.91200 44.84200
C  57.90200 21.25800 46.03500
N  55.48000 26.31300 46.22800
C  56.49900 25.52500 46.33700
C  57.78800 26.20200 46.89100
C  57.31400 27.67700 46.96200
C  55.78300 27.60100 46.64300
C  58.52800 25.64000 48.18700
C  58.14300 28.65100 46.08400
C  58.38400 30.03400 46.64800
N  52.93700 27.80700 45.92100
C  53.55500 28.83800 46.55100
C  52.73900 29.95300 46.58300
C  51.57600 29.56400 45.91700
C  51.78200 28.22500 45.47500
C  53.02000 31.32500 47.20800
C  50.25200 29.99800 45.45800
O  49.62700 31.04500 45.62100
C  49.73900 28.78500 44.63400
C  49.66500 29.32900 43.27400
O  50.43300 30.04500 42.71600
O  48.40500 29.03400 42.77300
C  48.06200 29.62200 41.50700
H  51.57800 22.23800 43.81400
H  57.50000 23.69100 46.12500
H  55.42300 29.55000 47.40800
H  48.75200 26.05600 43.66500
H  49.80300 23.73700 42.65000
H  49.57400 22.95400 45.26100
H  48.18800 23.12000 44.23200
H  48.56000 24.42200 45.32100
H  50.66800 25.38900 41.38300
H  50.33800 27.01400 41.52300
H  48.27100 26.91300 40.51800
H  47.86000 25.35300 41.21800
H  53.94000 20.08100 43.10000
H  52.52900 20.41500 43.91500
H  53.68100 19.60000 44.86500
H  58.44300 20.34300 46.27600
H  57.73900 21.86700 46.92400
H  58.52100 21.80600 45.32500
H  58.41000 26.02200 46.01400
H  57.41900 28.02700 47.98900
H  58.30500 24.58500 48.34700
H  58.30000 26.20300 49.09200
H  59.60100 25.80700 48.08700
H  57.55600 28.71800 45.16800
H  59.05800 28.18200 45.72300
H  59.43300 30.32600 46.68600
H  58.01800 30.08800 47.67400
H  57.72400 30.68400 46.07400
H  52.11000 31.56400 47.75800
H  53.35400 32.08500 46.50200
H  53.78900 31.19600 47.97000
H  48.75700 28.49400 45.00800
H  47.08200 29.30400 41.15300
H  48.78400 29.61000 40.69000
H  47.74600 30.62900 41.77900

