158

Mg 35.69600 3.40600 30.82400
C  33.02300 4.34000 32.76900
C  37.66600 3.35400 33.59800
C  38.32900 2.47700 28.86800
C  33.66300 3.54800 28.01300
N  35.32300 3.63000 32.92900
C  34.14500 4.00500 33.52200
C  34.24500 3.99700 35.04300
C  35.80400 3.95800 35.27200
C  36.30600 3.63600 33.85100
C  36.41100 5.24800 35.86500
C  33.34400 2.85800 35.61900
C  33.54600 2.20700 36.99700
H  33.97400 3.04700 38.20200
N  37.68600 2.91000 31.26900
C  38.34200 2.99800 32.43000
C  39.75300 2.82800 32.22800
C  39.91500 2.27500 30.92800
C  38.60400 2.52600 30.26000
C  40.74300 2.91500 33.33000
C  41.02200 1.54000 30.32200
O  40.97900 1.16200 29.12900
C  42.11600 1.11900 31.22900
N  35.90300 2.98500 28.77200
C  37.11700 2.71900 28.18900
C  37.04300 2.62700 26.64700
C  35.54000 2.95300 26.36200
C  35.00900 3.21600 27.78000
C  37.87400 3.68600 25.89800
C  34.79200 1.74800 25.76200
C  34.31900 0.55800 26.69400
N  33.74400 3.89200 30.36900
C  33.03200 3.88600 29.20500
C  31.67000 4.22800 29.44600
C  31.59100 4.51500 30.83700
C  32.87400 4.20200 31.38600
C  30.57400 4.21100 28.42000
C  30.78100 4.93000 31.96600
O  29.66100 5.46400 32.01800
C  31.65100 4.80500 33.25900
C  31.75900 6.15500 33.96100
O  32.56900 6.99400 33.59800
O  30.84100 6.30500 34.99200
C  31.05800 7.34500 36.00500
H  38.17600 3.37200 34.56300
H  39.16900 2.40100 28.17400
H  32.94300 3.65300 27.19900
H  33.80600 4.94600 35.35100
H  36.16100 3.13900 35.89600
H  36.94500 5.87700 35.15200
H  37.03300 5.22100 36.76000
H  35.52700 5.82500 36.13600
H  33.51600 2.01200 34.95400
H  32.28300 3.07700 35.49700
H  34.26300 1.40600 36.81800
H  32.56900 1.74600 37.14200
H  41.72200 3.18200 32.93400
H  40.65500 2.00800 33.92900
H  40.65600 3.76300 34.01000
H  42.52000 0.23900 30.72700
H  41.73200 0.76800 32.18700
H  43.01300 1.72800 31.34200
H  37.29500 1.59300 26.41400
H  35.43100 3.88800 25.81200
H  38.74100 3.18500 25.46600
H  38.26000 4.34300 26.67800
H  37.45900 4.25900 25.06900
H  35.45500 1.33200 25.00400
H  33.98000 2.20900 25.19900
H  33.89800 0.85700 27.65400
H  35.05800 -0.23700 26.80500
H  33.54700 0.14500 26.04500
H  30.52000 3.30900 27.81000
H  30.59100 4.99000 27.65800
H  29.62500 4.27900 28.95200
H  31.14000 4.15800 33.97200
H  31.33100 6.79100 36.90200
H  30.15300 7.85500 36.33600
H  31.91800 7.99500 35.84300
Mg 55.39900 25.74300 44.62100
C  52.35600 27.35300 43.76900
C  53.98700 22.86300 43.66300
C  58.38700 24.48800 44.59300
C  56.62200 28.96900 45.72900
N  53.41500 25.20700 43.38000
C  52.28600 25.98300 43.43100
C  51.12000 25.14200 42.96700
C  51.60300 23.72600 43.50500
C  53.14400 23.93600 43.46300
C  51.15000 23.40200 45.00300
C  50.57700 25.17000 41.51700
C  49.11100 24.73600 41.39400
H  48.72000 23.73300 40.25600
N  56.12700 23.83300 44.16900
C  55.33700 22.82000 43.77800
C  56.17100 21.66800 43.78100
C  57.48500 22.08100 44.12200
C  57.43500 23.53900 44.31300
C  55.61200 20.26400 43.46300
C  58.62000 21.12700 44.07000
O  58.43000 19.90800 43.73400
C  60.05700 21.65500 44.22900
N  57.14900 26.59600 45.11300
C  58.28100 25.80700 45.03500
C  59.58400 26.72400 45.33500
C  58.97400 28.05200 45.85800
C  57.49700 27.85200 45.52600
C  60.58400 26.12800 46.38600
C  59.69600 29.35000 45.32000
C  59.09800 30.06200 44.08100
N  54.69100 27.75800 44.80300
C  55.23500 28.87200 45.42600
C  54.19600 29.90700 45.49100
C  53.09000 29.38200 44.84700
C  53.40000 28.00600 44.47400
C  54.30300 31.24700 46.04400
C  51.77600 29.67800 44.37000
O  51.21200 30.70600 44.51000
C  51.24500 28.42300 43.63100
C  51.06800 28.75500 42.19900
O  51.94600 29.17900 41.47100
O  49.79400 28.50900 41.86100
C  49.47500 29.09500 40.55600
H  53.56700 21.85700 43.60600
H  59.38600 24.04700 44.59700
H  57.07300 29.90200 46.07200
H  50.25800 25.46200 43.55200
H  51.24100 22.91000 42.87900
H  52.03200 23.29700 45.63400
H  50.67400 22.43500 44.84200
H  50.39100 24.12100 45.31200
H  51.15300 24.47900 40.90100
H  50.71500 26.20900 41.21900
H  48.59300 25.66600 41.15800
H  48.71700 24.34100 42.33000
H  55.63100 20.13600 42.38100
H  54.55800 20.20200 43.73500
H  56.09000 19.43500 43.98500
H  60.37300 22.38500 43.48400
H  60.80300 20.86000 44.21500
H  60.16100 22.15400 45.19200
H  59.98100 26.83200 44.32500
H  59.09300 27.99500 46.94000
H  60.86200 26.76900 47.22200
H  61.46500 25.70700 45.90200
H  60.01800 25.34400 46.88700
H  60.73000 29.05400 45.14600
H  59.69200 30.10200 46.11000
H  59.99600 30.22100 43.48300
H  58.55700 30.94800 44.41100
H  58.35200 29.42300 43.61000
H  53.68000 31.29700 46.93700
H  53.96600 31.99200 45.32400
H  55.32000 31.50200 46.34100
H  50.39800 28.03500 44.19600
H  50.15400 29.84600 40.15200
H  48.42400 29.38200 40.61200
H  49.45300 28.33600 39.77400

