158

Mg 27.21400 50.68900 26.02700
C  25.00700 51.62700 28.80800
C  29.22400 49.30200 28.37300
C  29.28100 50.10600 23.52200
C  24.88700 52.17200 23.94800
N  27.09400 50.50100 28.39500
C  26.15500 50.93600 29.27500
C  26.46000 50.58400 30.76400
C  27.94000 49.96300 30.56000
C  28.15000 49.91300 28.99900
C  29.08100 50.67300 31.31200
C  25.33500 49.54100 31.38100
C  24.60700 50.04300 32.57800
H  25.44200 50.43100 33.74100
N  28.98500 49.73200 25.94800
C  29.76200 49.30000 27.06200
C  30.93900 48.77200 26.59000
C  31.02500 49.03000 25.19200
C  29.78200 49.69000 24.79500
C  32.04300 48.19900 27.52400
C  32.23600 48.74100 24.22900
O  32.08600 49.05300 23.07000
C  33.53300 47.95100 24.73900
N  27.00900 50.99400 24.08900
C  28.02000 50.76400 23.23500
C  27.64200 51.00200 21.80000
C  26.07500 51.38600 21.94400
C  25.97100 51.47900 23.40700
C  28.48700 52.15200 21.23100
C  25.12500 50.30500 21.41600
C  24.36100 50.70500 20.14700
N  25.37400 51.75000 26.29900
C  24.54300 52.25300 25.33500
C  23.39400 52.77700 25.87800
C  23.53500 52.55200 27.27500
C  24.78100 51.93300 27.45000
C  22.32400 53.36100 25.08400
C  22.92700 52.75200 28.59700
O  21.94000 53.41800 28.95200
C  23.87100 52.16800 29.62800
C  24.31100 53.24000 30.65300
O  25.35900 53.81300 30.67500
O  23.39500 53.25500 31.68900
C  23.77700 53.97200 32.91200
H  29.91600 48.76000 29.02100
H  29.84000 49.96400 22.59500
H  24.08400 52.54400 23.30800
H  26.52300 51.48800 31.37000
H  27.98500 48.94400 30.94600
H  28.60600 51.56000 31.73000
H  29.79700 50.99000 30.55400
H  29.70600 50.02800 31.93000
H  25.92400 48.68400 31.70800
H  24.64400 49.25900 30.58700
H  24.00000 49.16700 32.80700
H  24.01700 50.91900 32.30700
H  32.28600 47.18200 27.21600
H  31.78300 48.19300 28.58300
H  32.94000 48.76000 27.26100
H  34.21400 48.63300 25.24800
H  33.99900 47.60900 23.81500
H  33.29200 47.02800 25.26700
H  27.77900 50.06100 21.26600
H  25.83800 52.34700 21.48700
H  29.27300 52.24600 21.98000
H  28.06500 53.09200 20.87500
H  28.98700 51.68100 20.38400
H  24.43700 49.93200 22.17400
H  25.60000 49.35100 21.18600
H  24.46400 49.95000 19.36800
H  24.74300 51.67000 19.81300
H  23.32400 50.88700 20.42800
H  22.22600 52.68300 24.23600
H  22.63800 54.31500 24.66000
H  21.46000 53.57800 25.71200
H  23.31100 51.40500 30.16900
H  23.27800 53.35500 33.66000
H  23.34200 54.96300 32.78900
H  24.83200 54.03000 33.18300
Mg -5.44800 25.36900 26.06600
C  -4.41100 26.78500 29.07200
C  -7.63300 23.28400 28.08700
C  -6.14400 23.45800 23.31900
C  -3.08100 27.01700 24.25300
N  -5.78600 24.99500 28.32900
C  -5.34600 25.82900 29.32800
C  -5.91900 25.34000 30.70300
C  -6.82600 24.16900 30.38700
C  -6.82800 24.20800 28.81200
C  -6.22900 22.82000 30.82000
C  -6.61700 26.59900 31.30500
C  -6.74400 26.54900 32.83300
H  -6.07100 25.37200 33.62800
N  -6.76200 23.61400 25.72500
C  -7.48600 22.88800 26.70600
C  -8.28300 21.85400 25.98200
C  -7.88700 22.00500 24.61200
C  -6.98300 23.09500 24.50200
C  -9.34700 20.97300 26.60700
C  -8.42500 21.20700 23.44400
O  -8.17100 21.50900 22.30300
C  -9.28200 20.05000 23.69600
N  -4.74200 25.33400 24.01800
C  -5.18400 24.44200 23.11500
C  -4.36500 24.50100 21.80800
C  -3.54700 25.86000 21.93800
C  -3.82400 26.16700 23.49100
C  -3.54100 23.33000 21.29500
C  -4.03700 27.10900 21.11500
C  -3.03700 27.67000 19.99000
N  -4.04300 26.72900 26.47800
C  -3.11600 27.36200 25.60800
C  -2.22700 28.24400 26.43600
C  -2.69100 28.05700 27.78300
C  -3.80500 27.10500 27.74300
C  -1.05400 29.06800 26.07200
C  -2.52600 28.43000 29.25800
O  -1.74400 29.22000 29.67800
C  -3.55900 27.57800 30.11900
C  -2.74900 26.68000 31.01400
O  -2.07000 25.69300 30.70100
O  -2.71200 27.31800 32.23800
C  -1.64000 26.80700 33.05900
H  -8.29500 22.57100 28.58400
H  -6.28500 22.76600 22.48600
H  -2.39900 27.62700 23.65800
H  -5.02500 25.25900 31.32100
H  -7.84400 24.34100 30.73500
H  -6.15200 22.07400 30.02900
H  -6.83000 22.47800 31.66300
H  -5.16900 22.91000 31.05800
H  -7.61500 26.57200 30.86800
H  -6.09400 27.50100 30.98800
H  -7.80200 26.63600 33.08100
H  -6.22200 27.42800 33.21200
H  -9.07400 19.93600 26.41500
H  -10.36100 21.22800 26.29800
H  -9.25900 21.04700 27.69000
H  -8.85600 19.20100 24.23000
H  -9.67000 19.64700 22.76100
H  -10.13600 20.46900 24.22800
H  -5.07600 24.73500 21.01600
H  -2.46600 25.77500 21.82400
H  -2.54800 23.75100 21.13300
H  -4.02400 22.88100 20.42700
H  -3.51200 22.52000 22.02400
H  -4.31700 27.90800 21.80200
H  -5.01100 26.83700 20.70700
H  -2.81200 28.71200 20.21700
H  -3.57100 27.78300 19.04600
H  -2.03300 27.26200 20.10100
H  -1.32200 30.09100 25.80900
H  -0.47900 28.59500 25.27600
H  -0.35300 29.01100 26.90500
H  -4.18800 28.18700 30.76800
H  -1.68100 27.19800 34.07500
H  -0.67800 26.87600 32.55100
H  -1.79600 25.73900 33.21100

