158

Mg 17.07900 -2.08600 27.68900
C  16.15500 -0.06800 30.24300
C  19.18300 -3.84200 29.83100
C  18.45000 -3.81900 25.03200
C  15.77000 0.16200 25.40200
N  17.56300 -1.98600 29.79100
C  16.97700 -1.09800 30.69600
C  17.45900 -1.33300 32.15100
C  18.63700 -2.30600 31.88700
C  18.41600 -2.77300 30.38600
C  20.08800 -1.71500 32.05000
C  16.21200 -1.91700 32.91000
C  16.13500 -1.40800 34.41600
H  17.23300 -0.75600 35.19900
N  18.51200 -3.70400 27.43300
C  19.14000 -4.34800 28.44100
C  19.91200 -5.46100 27.96600
C  19.79100 -5.38800 26.57100
C  18.93000 -4.26700 26.25900
C  20.71900 -6.44900 28.85100
C  20.50600 -6.28800 25.47800
O  20.59200 -6.00000 24.29800
C  21.14900 -7.57200 25.97700
N  16.99700 -2.00300 25.52100
C  17.72300 -2.73300 24.65800
C  17.82600 -2.08500 23.24600
C  16.94500 -0.81700 23.35000
C  16.47200 -0.92000 24.85100
C  19.28300 -1.78000 22.78200
C  15.70200 -0.78900 22.37400
C  14.66400 -1.93400 22.42000
N  16.16100 -0.37800 27.69800
C  15.64000 0.53400 26.77600
C  14.95900 1.66100 27.35600
C  15.07900 1.39400 28.77800
C  15.86900 0.21600 28.89600
C  14.09700 2.63000 26.60600
C  14.76400 1.90000 30.08300
O  14.12200 2.89300 30.33600
C  15.53600 1.09000 31.11700
C  16.36100 2.07400 31.85900
O  17.51300 2.37300 31.54100
O  15.65700 2.48800 32.97300
C  16.43100 3.21500 33.99400
H  19.84700 -4.43800 30.46100
H  18.88400 -4.33700 24.17400
H  15.42100 0.94000 24.72000
H  17.88700 -0.41400 32.55000
H  18.49900 -3.01400 32.70300
H  20.61100 -2.03000 31.14700
H  20.46800 -2.28500 32.89800
H  20.03000 -0.65900 32.31200
H  16.15200 -3.00500 32.92400
H  15.22700 -1.77500 32.46500
H  15.83500 -2.26700 35.01700
H  15.30000 -0.71800 34.29600
H  21.74100 -6.07600 28.77900
H  20.59300 -7.48000 28.51800
H  20.27900 -6.48400 29.84700
H  21.60700 -8.20300 25.21500
H  20.30700 -8.05600 26.47100
H  21.94800 -7.16000 26.59400
H  17.33700 -2.86200 22.65900
H  17.47400 0.11300 23.14400
H  19.41800 -2.18000 21.77700
H  19.97000 -2.27400 23.46900
H  19.43000 -0.70000 22.75700
H  16.05900 -0.45500 21.40000
H  15.15300 0.09400 22.70000
H  15.10000 -2.80700 22.90500
H  14.47300 -2.22900 21.38900
H  13.69000 -1.71500 22.86000
H  13.69400 2.19600 25.69000
H  14.61200 3.45000 26.10500
H  13.38400 3.09500 27.28700
H  14.83500 0.49700 31.70600
H  15.73200 3.64500 34.71100
H  17.08200 3.94300 33.51000
H  17.02800 2.49000 34.54700
Mg -10.43600 39.73400 41.60900
C  -9.55600 36.54700 40.63700
C  -7.33900 40.89100 40.38100
C  -11.45500 42.88200 41.95600
C  -13.62900 38.63500 42.35000
N  -8.64800 38.81700 40.60700
C  -8.52300 37.43300 40.30800
C  -7.14100 37.10000 39.69200
C  -6.52200 38.48000 39.68000
C  -7.55900 39.44900 40.25800
C  -5.05200 38.64400 40.12900
C  -7.11500 36.36000 38.35100
C  -5.96500 35.48000 37.94600
H  -4.95600 36.01800 36.88500
N  -9.44400 41.63300 41.31300
C  -8.22000 41.91200 40.82900
C  -8.02900 43.32800 40.87300
C  -9.17300 43.93100 41.29400
C  -10.10500 42.77800 41.57400
C  -6.68000 43.91700 40.43800
C  -9.49400 45.37000 41.44100
O  -8.62800 46.21700 41.30300
C  -10.78100 46.06700 41.76600
N  -12.36700 40.59900 41.77000
C  -12.46800 41.94500 42.02400
C  -13.94100 42.37700 42.30200
C  -14.64600 40.98800 42.49900
C  -13.52200 39.99700 42.18500
C  -14.21800 43.43200 43.35800
C  -15.95900 40.66200 41.64000
C  -17.23800 40.54300 42.44100
N  -11.32900 37.96000 41.72300
C  -12.62400 37.65400 42.08400
C  -12.81100 36.16600 42.02500
C  -11.62300 35.74800 41.43100
C  -10.78100 36.83300 41.31700
C  -14.06300 35.35400 42.26500
C  -10.92000 34.54000 40.93800
O  -11.28000 33.41900 40.95200
C  -9.53800 35.06600 40.41500
C  -8.42600 34.28300 41.08900
O  -7.98600 34.42500 42.24500
O  -7.99800 33.33000 40.26000
C  -7.16300 32.21100 40.65800
H  -6.32500 41.08300 40.02400
H  -11.72200 43.86800 42.34300
H  -14.56000 38.22400 42.74600
H  -6.63300 36.48900 40.43800
H  -6.36300 38.82100 38.65700
H  -4.58600 39.31500 39.40700
H  -4.54200 37.68400 40.21100
H  -5.03000 39.06200 41.13600
H  -7.11500 37.17400 37.62500
H  -8.08000 35.88300 38.18000
H  -6.28500 34.50900 37.56900
H  -5.42600 35.16700 38.84100
H  -5.88100 43.22500 40.70400
H  -6.27400 44.82900 40.87600
H  -6.61900 44.08600 39.36300
H  -11.52500 45.66200 41.08000
H  -10.76100 47.14700 41.62000
H  -11.05500 45.89900 42.80700
H  -14.37500 42.80000 41.39600
H  -14.82900 40.91000 43.57000
H  -14.65400 42.96700 44.24200
H  -14.89700 44.20900 43.00700
H  -13.38400 43.93700 43.84500
H  -15.73200 39.71000 41.16000
H  -15.94800 41.45100 40.88700
H  -18.02300 41.09300 41.92300
H  -17.06600 40.92800 43.44600
H  -17.55000 39.50100 42.51100
H  -14.68200 35.43100 41.37100
H  -14.55000 35.72800 43.16600
H  -13.87900 34.29200 42.42600
H  -9.64700 34.75800 39.37500
H  -7.65100 31.27400 40.38800
H  -6.86300 32.27900 41.70300
H  -6.25500 32.28800 40.05900

