158

Mg 1.86100 8.22000 25.95700
C  2.50400 10.18000 28.92200
C  2.40300 5.51300 27.96000
C  1.36100 6.54300 23.38700
C  2.04900 11.28000 24.23900
N  2.48400 7.93600 28.25200
C  2.54500 8.83700 29.28200
C  2.39500 8.14200 30.65200
C  2.66200 6.66800 30.26400
C  2.47700 6.68100 28.72600
C  4.02800 6.08300 30.54500
C  0.97900 8.39400 31.19100
C  0.91300 8.71600 32.64400
H  2.13900 8.35300 33.51200
N  2.01700 6.25200 25.67100
C  2.22100 5.28800 26.56000
C  2.14400 4.01200 25.96100
C  1.75700 4.26600 24.69300
C  1.71900 5.77100 24.51800
C  2.41800 2.74100 26.64200
C  1.39900 3.33200 23.57600
O  1.02500 3.80600 22.55500
C  1.39900 1.86300 23.59900
N  1.87700 8.83000 24.03000
C  1.55400 7.88500 23.11600
C  1.27600 8.50400 21.74500
C  1.26700 9.99000 22.07200
C  1.80500 10.10100 23.51000
C  2.43300 8.16400 20.73700
C  -0.16800 10.61900 21.95300
C  -0.39000 11.66100 20.81900
N  2.04200 10.36800 26.46900
C  2.13500 11.44200 25.65400
C  2.24200 12.69400 26.42800
C  2.33400 12.22600 27.73700
C  2.31900 10.80200 27.67400
C  2.33100 14.14100 25.94700
C  2.55800 12.68300 29.13200
O  2.78600 13.79000 29.53700
C  2.48200 11.31400 30.00300
C  3.71500 11.30500 30.87400
O  4.74100 10.66600 30.75500
O  3.34100 12.15900 31.97600
C  4.19300 12.00000 33.12400
H  2.42700 4.63600 28.61000
H  0.92200 6.12600 22.47800
H  1.63300 12.18200 23.78600
H  3.16300 8.56500 31.29900
H  1.86400 6.01500 30.61700
H  4.28200 5.26700 29.86800
H  4.17200 5.72200 31.56300
H  4.83400 6.81500 30.50600
H  0.33500 7.56800 30.88900
H  0.48300 9.25900 30.75000
H  0.01900 8.26700 33.07900
H  0.88500 9.80000 32.75700
H  2.84800 2.89400 27.63200
H  3.08000 2.01500 26.16800
H  1.44700 2.26700 26.78300
H  1.60100 1.43400 22.61700
H  0.45000 1.58400 24.05600
H  2.17500 1.42600 24.22800
H  0.27400 8.26000 21.39200
H  1.99400 10.47000 21.41600
H  3.37100 7.76600 21.12400
H  2.67700 9.02000 20.10800
H  2.15200 7.37900 20.03600
H  -0.39200 11.18300 22.85900
H  -0.94800 9.86900 21.82000
H  0.42700 11.44400 20.13100
H  -0.50400 12.63300 21.29800
H  -1.28400 11.44700 20.23200
H  3.20500 14.19900 25.29900
H  2.37400 14.62900 26.92100
H  1.41100 14.47400 25.46500
H  1.68900 11.33700 30.75000
H  4.77100 11.08000 33.21500
H  3.59000 12.12900 34.02200
H  4.76100 12.93000 33.10600
Mg -10.76800 39.74000 42.76500
C  -9.00800 36.92000 41.63400
C  -8.55600 41.59000 40.95300
C  -12.90100 42.35700 43.16200
C  -13.37600 37.60800 43.91000
N  -9.01000 39.19900 41.29000
C  -8.40800 38.01900 41.08500
C  -7.08100 38.08600 40.18900
C  -6.83400 39.67200 40.28500
C  -8.19800 40.22400 40.83400
C  -5.63000 40.07800 41.12900
C  -7.32200 37.55200 38.74400
C  -6.54200 36.33800 38.23800
H  -5.94400 36.52100 36.90000
N  -10.73300 41.70400 42.19000
C  -9.79500 42.23600 41.40700
C  -10.05100 43.70600 41.23900
C  -11.15100 43.98500 42.05900
C  -11.66400 42.65400 42.52400
C  -9.26900 44.57500 40.39600
C  -11.60900 45.40100 42.32300
O  -11.06300 46.38900 41.86600
C  -12.91000 45.68500 43.11500
N  -12.83200 39.93500 43.56100
C  -13.51000 41.15200 43.60900
C  -14.90700 40.95100 44.20400
C  -15.07600 39.40100 44.29000
C  -13.66200 38.95200 43.86200
C  -15.10300 41.77700 45.50800
C  -16.26000 38.83800 43.37300
C  -17.05100 37.62900 43.92700
N  -11.05100 37.71400 42.93600
C  -12.15200 36.98700 43.46400
C  -11.83800 35.55900 43.42000
C  -10.59500 35.49600 42.65700
C  -10.11800 36.82700 42.43300
C  -12.72200 34.42100 43.91500
C  -9.63500 34.63300 42.12300
O  -9.60800 33.38400 42.10600
C  -8.58000 35.53600 41.44400
C  -7.24100 35.21900 41.87200
O  -6.88900 35.29300 43.04500
O  -6.66700 34.51000 40.86900
C  -5.37300 33.85800 41.08000
H  -7.79000 42.27600 40.58600
H  -13.51500 43.26000 43.15700
H  -14.19900 36.91100 44.08000
H  -6.29000 37.47800 40.62800
H  -6.65800 40.12400 39.30900
H  -4.88500 40.59500 40.52500
H  -5.14000 39.29300 41.70500
H  -5.95900 40.92000 41.73800
H  -7.42400 38.39200 38.05700
H  -8.34600 37.18300 38.69600
H  -7.21300 35.49500 38.07400
H  -5.68000 36.23600 38.89700
H  -8.74200 43.90600 39.71600
H  -8.54800 45.02500 41.07800
H  -9.89100 45.32800 39.91000
H  -12.87400 45.19400 44.08700
H  -13.78500 45.38500 42.53800
H  -13.06000 46.75100 43.28600
H  -15.70000 41.46300 43.66000
H  -15.27100 39.06400 45.30900
H  -14.13300 42.10700 45.87700
H  -15.63500 41.14000 46.21600
H  -15.68100 42.65500 45.22100
H  -15.82200 38.57300 42.41000
H  -16.87100 39.65700 42.99200
H  -18.01300 37.86400 44.38300
H  -16.44500 36.99900 44.57800
H  -17.17700 37.01700 43.03400
H  -12.23300 33.44900 43.86300
H  -13.65100 34.39200 43.34500
H  -13.06100 34.49900 44.94900
H  -8.67500 35.27600 40.39000
H  -4.67300 34.41000 41.70500
H  -4.87800 33.86100 40.10900
H  -5.55200 32.93700 41.63500

