158

Mg -1.57100 18.38600 26.89100
C  -2.32500 16.35600 29.75600
C  -2.39500 21.17000 28.76200
C  -1.17100 20.16300 23.99800
C  -1.32900 15.38100 25.03000
N  -2.27400 18.67800 29.02200
C  -2.25600 17.74000 30.05200
C  -2.48800 18.40100 31.38400
C  -2.93600 19.91800 30.99200
C  -2.54400 19.97100 29.46900
C  -4.42400 20.34800 31.15500
C  -1.28200 18.25600 32.40600
C  -1.64200 17.72400 33.86800
H  -0.43400 17.53700 34.86200
N  -1.79400 20.31400 26.41500
C  -2.02600 21.33000 27.36100
C  -1.95400 22.60300 26.70200
C  -1.46200 22.32500 25.36500
C  -1.40700 20.91100 25.22300
C  -2.25800 23.95600 27.35600
C  -1.18900 23.30800 24.21700
O  -0.90300 22.93500 23.06100
C  -1.06600 24.77800 24.50400
N  -1.07000 17.86400 24.82500
C  -1.02300 18.78600 23.81800
C  -0.94200 18.08200 22.40600
C  -0.95100 16.60300 22.79800
C  -1.14700 16.56200 24.34100
C  -2.14700 18.58000 21.43000
C  0.41000 15.87300 22.33200
C  0.15100 14.49600 21.76800
N  -1.72800 16.27600 27.29100
C  -1.58900 15.20400 26.40600
C  -1.93200 14.02000 27.11000
C  -2.16900 14.37900 28.40600
C  -2.02900 15.78200 28.45100
C  -2.16100 12.64500 26.48900
C  -2.56100 13.84500 29.69300
O  -2.70500 12.68900 29.98700
C  -2.61200 15.15000 30.68800
C  -1.53300 14.81300 31.67200
O  -0.33300 14.64100 31.36700
O  -1.98800 14.60600 32.92800
C  -1.26700 13.63400 33.75500
H  -2.45900 22.04300 29.41600
H  -1.16300 20.60200 22.99800
H  -1.33700 14.49200 24.39600
H  -3.33500 17.89000 31.84200
H  -2.25200 20.60000 31.49800
H  -4.77400 20.71200 30.18900
H  -4.54200 21.10500 31.93100
H  -4.96400 19.45400 31.46600
H  -0.78000 19.21500 32.53700
H  -0.49500 17.64200 31.96800
H  -2.15000 16.76300 33.78700
H  -2.31800 18.41800 34.36700
H  -3.15100 24.34300 26.86600
H  -1.30800 24.48300 27.44200
H  -2.52300 23.85800 28.40900
H  -1.26400 25.38100 23.61800
H  -0.13900 25.00100 25.03100
H  -1.92600 25.06800 25.10700
H  -0.00800 18.41000 21.95100
H  -1.73300 16.12900 22.20500
H  -2.90100 17.79400 21.37500
H  -1.77000 18.75000 20.42200
H  -2.63000 19.49800 21.76500
H  1.10500 15.82700 23.16900
H  0.82800 16.54700 21.58400
H  0.86900 14.34100 20.96200
H  -0.87500 14.43800 21.40500
H  0.24400 13.70000 22.50600
H  -2.18900 12.59200 25.40100
H  -3.10700 12.20200 26.80000
H  -1.46300 11.94300 26.94600
H  -3.52600 15.23700 31.27500
H  -0.60200 14.25200 34.35900
H  -0.64700 12.93500 33.19500
H  -1.89300 13.08500 34.45800
Mg 16.05100 52.23300 26.17400
C  18.06400 51.02100 29.06100
C  13.77200 53.23600 28.63500
C  14.49200 53.63600 23.71100
C  18.75300 51.32700 24.14100
N  15.84900 51.97700 28.47900
C  16.84100 51.59000 29.47900
C  16.37400 51.82200 30.89400
C  14.90400 52.30600 30.72500
C  14.81700 52.54600 29.21200
C  13.82000 51.41600 31.35000
C  17.26800 52.87300 31.66000
C  17.37000 52.86200 33.16300
H  16.44000 51.90700 33.92300
N  14.18500 53.13200 26.14800
C  13.43300 53.50400 27.24100
C  12.28300 54.26900 26.66700
C  12.49100 54.43800 25.27200
C  13.76100 53.75700 24.99700
C  11.07000 54.70100 27.46600
C  11.71400 55.19400 24.22400
O  12.02500 55.27900 23.07400
C  10.34200 55.84800 24.58800
N  16.51300 52.36700 24.29100
C  15.72100 53.04800 23.37600
C  16.39500 53.31700 22.00700
C  17.81700 52.71600 22.22100
C  17.73400 52.13800 23.66700
C  15.72000 52.62200 20.77700
C  18.99000 53.77200 22.11200
C  20.32700 53.44900 21.43800
N  17.89700 51.17100 26.42500
C  18.86800 50.89900 25.49100
C  19.92800 50.18800 26.12700
C  19.70600 50.28400 27.52800
C  18.43400 50.84100 27.66000
C  21.15500 49.70900 25.33900
C  20.26600 49.88000 28.82000
O  21.23400 49.22900 29.13400
C  19.26500 50.54800 29.88200
C  19.14300 49.52400 30.98200
O  18.57000 48.44900 30.92400
O  19.65100 50.14400 32.07700
C  19.54900 49.25800 33.25500
H  13.04200 53.74700 29.26700
H  14.06200 54.16200 22.85600
H  19.56700 51.16100 23.43300
H  16.46000 50.81600 31.30400
H  14.69800 53.29800 31.12600
H  13.51700 50.66200 30.62300
H  13.01000 52.02100 31.75800
H  14.23700 50.89400 32.21200
H  17.14900 53.90900 31.34300
H  18.28800 52.68000 31.32600
H  17.10600 53.89100 33.41000
H  18.37300 52.59100 33.49100
H  11.11900 55.78600 27.55400
H  11.10700 54.32500 28.48800
H  10.13200 54.36500 27.02300
H  9.90500 56.12300 23.62800
H  10.48100 56.71900 25.22800
H  9.64000 55.05700 24.85000
H  16.35600 54.40000 21.88400
H  17.85900 51.88300 21.51900
H  16.44200 52.02400 20.22100
H  15.37400 53.32200 20.01700
H  14.93400 51.99900 21.20300
H  19.21300 54.16100 23.10500
H  18.57000 54.62300 21.57700
H  20.38400 52.37500 21.26400
H  21.11800 53.67700 22.15300
H  20.42900 53.99400 20.50000
H  21.90100 49.79400 26.12900
H  21.29400 50.31600 24.44500
H  20.99400 48.67300 25.04200
H  19.78200 51.45100 30.20800
H  20.32300 48.49400 33.17500
H  18.62400 48.68700 33.33800
H  19.63400 49.78800 34.20400

