158

Mg 16.65000 -0.33900 28.26200
C  15.59400 1.76100 30.97300
C  18.51800 -2.10400 30.53600
C  18.16000 -1.88700 25.78700
C  15.26200 2.04600 26.08200
N  16.94500 -0.27100 30.56400
C  16.35000 0.68800 31.41100
C  16.70300 0.35300 32.90600
C  17.84400 -0.74300 32.63700
C  17.76700 -1.08900 31.15400
C  19.35200 -0.46000 33.05000
C  15.57700 -0.03200 33.91000
C  15.58200 0.74000 35.23400
H  16.95500 1.15400 35.84400
N  17.89000 -1.96500 28.18400
C  18.63600 -2.56500 29.17800
C  19.44800 -3.65000 28.64900
C  19.14000 -3.72800 27.29800
C  18.33100 -2.49200 26.99000
C  20.40000 -4.57000 29.41500
C  19.48600 -4.73600 26.27500
O  18.96900 -4.78700 25.13300
C  20.38800 -6.03900 26.59700
N  16.58400 -0.08100 26.21500
C  17.36600 -0.79900 25.38900
C  17.32800 -0.33300 23.91500
C  16.25700 0.90000 24.03300
C  15.97400 0.94900 25.57400
C  18.81200 0.17000 23.49500
C  14.98000 0.67800 23.17800
C  14.34300 1.91000 22.46200
N  15.58200 1.50700 28.40800
C  15.04100 2.32400 27.43700
C  14.26800 3.35900 28.03700
C  14.46000 3.22700 29.44400
C  15.28100 2.05400 29.63700
C  13.47000 4.45700 27.36600
C  14.14900 3.70600 30.80300
O  13.54600 4.65200 31.15700
C  14.81200 2.71000 31.82000
C  15.77700 3.49600 32.52600
O  16.88800 3.83500 32.22600
O  15.15200 3.87500 33.70000
C  15.87700 4.86600 34.53200
H  19.18500 -2.72600 31.13600
H  18.71700 -2.40200 25.00100
H  14.76700 2.74200 25.40100
H  17.10400 1.29900 33.26800
H  17.54000 -1.64300 33.17000
H  19.52000 0.48600 33.56600
H  20.01400 -0.47200 32.18400
H  19.73000 -1.31500 33.61100
H  15.84600 -1.04600 34.20700
H  14.60100 -0.12900 33.43500
H  15.20700 0.01800 35.95800
H  14.92000 1.60500 35.25000
H  19.90300 -5.48500 29.73500
H  20.67700 -4.10300 30.36000
H  21.32800 -4.81400 28.89700
H  19.99300 -6.53200 27.48500
H  21.37300 -5.62900 26.82100
H  20.35600 -6.79300 25.81000
H  16.99800 -1.20200 23.34600
H  16.72200 1.85200 23.77900
H  19.50300 0.38200 24.31000
H  18.70100 1.10500 22.94600
H  19.25400 -0.60800 22.87300
H  14.24100 0.29100 23.88000
H  15.21200 0.03800 22.32700
H  14.90900 2.74500 22.87500
H  13.29200 2.06400 22.70700
H  14.48200 1.87100 21.38200
H  12.40000 4.26800 27.29000
H  13.92200 4.68200 26.40000
H  13.55800 5.40200 27.90000
H  14.06100 2.31300 32.50300
H  16.45900 5.66300 34.06900
H  16.52500 4.53600 35.34400
H  15.08500 5.42000 35.03700
Mg 42.01400 41.39300 26.72300
C  41.58400 43.76300 29.19200
C  43.71500 39.41100 28.99000
C  42.81800 39.26800 24.15200
C  41.67000 43.96100 24.15200
N  42.47600 41.47100 28.92700
C  42.08600 42.55500 29.68300
C  42.33500 42.20100 31.19400
C  43.31300 40.89400 31.14200
C  43.22700 40.58500 29.60100
C  44.71800 41.16400 31.76000
C  40.95000 42.15800 31.99200
C  40.74700 42.90200 33.25800
H  40.23800 42.06300 34.40500
N  42.96600 39.52500 26.55800
C  43.58000 38.91800 27.63600
C  43.93300 37.53600 27.19200
C  43.73100 37.47900 25.77500
C  43.13100 38.80400 25.39900
C  44.42600 36.46200 28.19200
C  44.01000 36.35000 24.83500
O  43.82000 36.40200 23.58100
C  44.79600 35.15200 25.33200
N  42.35300 41.63900 24.44100
C  42.50400 40.51100 23.72400
C  42.25200 40.76100 22.27000
C  42.14700 42.34900 22.21000
C  42.05100 42.69000 23.64400
C  43.25200 40.06600 21.30100
C  40.89900 42.82600 21.30400
C  41.20500 43.97400 20.46200
N  41.48700 43.37500 26.60700
C  41.41400 44.29100 25.56100
C  40.94100 45.60000 26.11900
C  40.97300 45.37200 27.53900
C  41.33400 44.05600 27.82300
C  40.49500 46.86300 25.45500
C  40.73600 46.04900 28.85700
O  40.30900 47.12400 29.24400
C  41.05100 44.97000 29.98100
C  42.17300 45.59700 30.79500
O  43.31400 45.71500 30.50100
O  41.65100 45.86100 32.10600
C  42.58300 46.42200 33.09500
H  44.21700 38.82200 29.76100
H  42.85600 38.48000 23.39700
H  41.63100 44.75600 23.40400
H  42.98000 43.01300 31.53100
H  42.93000 39.99600 31.62800
H  45.35600 40.57200 31.10300
H  44.73800 40.89400 32.81600
H  45.05800 42.19300 31.64600
H  40.79600 41.08100 32.06900
H  40.13400 42.27300 31.28000
H  40.11400 43.76000 33.03300
H  41.66400 43.41000 33.55500
H  45.42800 36.33700 27.78000
H  43.90800 35.50400 28.17200
H  44.47000 36.84800 29.21100
H  44.27400 34.63200 26.13500
H  45.75600 35.53300 25.67800
H  44.97500 34.52800 24.45700
H  41.24900 40.47200 21.95700
H  43.08200 42.76500 21.83500
H  43.03600 38.99700 21.31600
H  44.26600 40.29300 21.63000
H  43.21400 40.57000 20.33600
H  40.02900 43.03300 21.92700
H  40.67400 41.98400 20.64900
H  40.50700 44.68600 20.90200
H  41.03500 43.82400 19.39600
H  42.25100 44.27100 20.52900
H  39.88300 46.57000 24.60200
H  41.30500 47.54500 25.19800
H  39.76500 47.30600 26.13300
H  40.26900 44.67300 30.67900
H  42.08400 47.34900 33.37700
H  43.56600 46.73800 32.74500
H  42.47700 45.79700 33.98200

