158

Mg 6.23000 53.71400 39.84000
C  5.66400 50.24800 39.62400
C  9.43600 53.35300 39.11700
C  6.38900 56.99700 39.51900
C  2.57900 53.99700 40.30100
N  7.34200 51.98300 39.35500
C  6.94100 50.63500 39.43800
C  8.18500 49.78200 39.22900
C  9.42900 50.76900 39.50300
C  8.69600 52.11700 39.33700
C  10.17000 50.62000 40.87200
C  8.28400 49.03800 37.84600
C  8.28400 49.97700 36.63600
H  7.43400 49.55600 35.40600
N  7.80600 55.05400 39.46300
C  8.99500 54.65200 39.05400
C  9.84900 55.82300 38.79900
C  8.98900 56.93100 39.04700
C  7.64400 56.39900 39.27000
C  11.31400 55.74500 38.55500
C  9.40600 58.35400 39.08600
O  10.58000 58.58700 38.80000
C  8.46900 59.45700 39.50600
N  4.64900 55.24100 39.81500
C  5.06500 56.53500 39.80300
C  3.96700 57.50700 40.09900
C  2.74300 56.62500 40.28100
C  3.34100 55.17900 40.13500
C  4.28900 58.34700 41.36400
C  1.61400 56.94100 39.20500
C  0.20800 57.28000 39.74800
N  4.43000 52.42200 40.00100
C  3.08400 52.69700 40.26400
C  2.40800 51.44100 40.44100
C  3.31400 50.44100 40.16700
C  4.57100 51.07800 39.89900
C  0.90800 51.28700 40.60700
C  3.53800 49.02500 40.01900
O  2.83200 48.04800 40.05900
C  5.03800 48.86000 39.63800
C  4.82800 48.23500 38.25000
O  4.15200 48.80600 37.38800
O  5.24200 47.00000 38.26800
C  4.74900 46.02300 37.29100
H  10.48700 53.06500 39.04400
H  6.25100 58.06900 39.36000
H  1.52100 54.13400 40.53800
H  8.17100 48.88600 39.84900
H  10.15500 50.66900 38.69600
H  10.01700 51.48100 41.52400
H  11.20800 50.64300 40.54200
H  10.01400 49.74700 41.50500
H  7.56700 48.21800 37.81800
H  9.27200 48.59400 37.96100
H  9.29000 50.09300 36.23400
H  8.03100 51.00000 36.91200
H  11.78700 54.78300 38.35500
H  11.85300 56.15200 39.41000
H  11.74900 56.39100 37.79300
H  8.98600 60.40900 39.38300
H  8.27200 59.37000 40.57400
H  7.54200 59.51700 38.93500
H  3.91400 58.15700 39.22600
H  2.35400 56.61100 41.30000
H  5.24100 58.02200 41.78500
H  3.53300 58.24100 42.14100
H  4.46600 59.38500 41.08000
H  1.50500 56.06300 38.56900
H  1.83300 57.74100 38.49800
H  -0.54300 56.72300 39.18800
H  0.02100 58.34500 39.87900
H  0.07600 56.92400 40.76900
H  0.53600 52.14500 40.04800
H  0.75500 51.24700 41.68500
H  0.49100 50.34400 40.25200
H  5.39500 48.06200 40.28800
H  4.92600 45.11700 37.87100
H  5.32100 46.06300 36.36400
H  3.69400 46.15900 37.05600
Mg 9.58800 47.85800 24.76400
C  7.61400 48.17200 27.63200
C  12.11500 49.44500 26.45900
C  11.46600 47.89700 21.99300
C  6.71000 47.12500 22.92700
N  9.78300 48.76100 26.82100
C  8.88000 48.66100 27.86800
C  9.51800 49.02000 29.24700
C  10.85900 49.78600 28.64600
C  10.96800 49.27800 27.24700
C  10.73900 51.31900 28.58900
C  9.84100 47.78300 30.18000
C  9.22500 47.83000 31.62400
H  9.31700 46.58300 32.53900
N  11.57000 48.39100 24.36400
C  12.48900 48.95100 25.21900
C  13.74200 48.96800 24.55800
C  13.60900 48.34900 23.27500
C  12.14800 48.14600 23.16900
C  14.96800 49.49800 25.24600
C  14.60300 48.11000 22.18100
O  14.32900 47.69900 21.03000
C  16.07800 48.29100 22.47700
N  9.14500 47.67400 22.74500
C  10.10700 47.65600 21.76500
C  9.60800 47.12900 20.42200
C  8.06900 46.80500 20.72100
C  7.92000 47.24600 22.22500
C  9.77100 48.14000 19.18700
C  7.70600 45.32400 20.47700
C  7.93400 44.35400 21.67200
N  7.54500 47.64500 25.12900
C  6.41400 47.36400 24.32100
C  5.21800 47.36700 25.09500
C  5.64300 47.55500 26.39300
C  7.02300 47.77500 26.35800
C  3.93600 46.95800 24.58400
C  5.19700 47.61000 27.76100
O  4.08300 47.41800 28.21200
C  6.45500 47.99100 28.57200
C  6.60300 46.88000 29.60500
O  7.24600 45.83100 29.39200
O  6.04100 47.18600 30.81200
C  5.84700 46.09100 31.77800
H  12.81000 49.98400 27.10700
H  12.09900 47.79200 21.11000
H  5.74200 46.90400 22.47200
H  8.88400 49.67400 29.84400
H  11.70800 49.49900 29.26500
H  10.73500 51.62400 29.63600
H  9.73500 51.62600 28.29700
H  11.54500 51.77400 28.01300
H  10.90500 47.89500 30.38700
H  9.64800 46.86400 29.62600
H  8.15700 47.86500 31.41000
H  9.47900 48.77300 32.10900
H  15.24000 50.37800 24.66300
H  15.68300 48.67700 25.29900
H  14.87700 50.03700 26.18900
H  16.73900 47.84300 21.73500
H  16.37200 47.89300 23.44800
H  16.21900 49.35800 22.65100
H  10.27400 46.30000 20.18000
H  7.39400 47.41300 20.11900
H  8.87200 48.18500 18.57300
H  10.68000 48.01100 18.60000
H  9.78300 49.15700 19.57800
H  8.21300 44.92400 19.59800
H  6.63600 45.42500 20.29300
H  8.72700 44.65700 22.35500
H  8.20200 43.36300 21.30700
H  6.98700 44.27000 22.20600
H  3.71900 47.70700 23.82200
H  3.19200 47.06600 25.37300
H  3.96500 45.92200 24.24800
H  6.20900 48.90400 29.11400
H  6.48400 46.21700 32.65300
H  6.14300 45.14600 31.32200
H  4.81100 45.95400 32.08700

