158

Mg 6.89000 54.47500 41.18300
C  4.59200 51.83800 41.01100
C  9.15900 52.54600 39.82500
C  8.64600 57.26100 40.90000
C  4.02500 56.56200 41.94400
N  6.71100 52.49000 40.25100
C  5.75100 51.50500 40.35200
C  6.22700 50.19500 39.72200
C  7.75300 50.42000 39.58800
C  7.91000 51.93500 39.91200
C  8.61100 49.52500 40.52000
C  5.54700 49.92200 38.34000
C  5.23400 48.47600 38.03200
H  5.71900 47.80800 36.66300
N  8.74400 54.83600 40.53100
C  9.51900 53.89000 40.02000
C  10.81200 54.41400 39.85000
C  10.69200 55.84000 40.04500
C  9.30500 56.08100 40.51100
C  12.05700 53.70600 39.45600
C  11.77100 56.86700 39.72300
O  12.83700 56.46400 39.27000
C  11.50400 58.31900 39.70400
N  6.34000 56.64400 41.36900
C  7.35800 57.56500 41.26900
C  6.87600 59.04300 41.43000
C  5.33900 58.78900 41.49600
C  5.17400 57.21100 41.60200
C  7.53800 59.81500 42.67400
C  4.55400 59.27300 40.26300
C  3.48000 60.39200 40.36500
N  4.75600 54.25000 41.54000
C  3.80000 55.20800 41.86400
C  2.50200 54.53800 42.04800
C  2.82000 53.16500 41.84300
C  4.15700 53.03700 41.45900
C  1.21900 55.10900 42.53300
C  2.26000 51.80500 41.89100
O  1.13400 51.40000 42.19200
C  3.42400 50.90200 41.40500
C  2.84900 49.96100 40.32900
O  2.32600 50.19800 39.26400
O  2.89300 48.68700 40.93900
C  2.44100 47.53400 40.06100
H  9.93200 51.85500 39.48200
H  9.21100 58.19200 40.81800
H  3.21200 57.27800 42.07700
H  6.03700 49.42000 40.46400
H  8.06800 50.22900 38.56200
H  9.34900 48.98700 39.92500
H  7.96100 48.83000 41.05200
H  9.14000 50.17400 41.21800
H  6.18800 50.36500 37.57700
H  4.62300 50.49800 38.39300
H  4.15100 48.58700 37.97900
H  5.50900 47.84200 38.87500
H  12.26300 53.70600 38.38600
H  12.03400 52.68500 39.83900
H  12.89200 54.12700 40.01700
H  10.57900 58.53900 39.17100
H  12.30600 58.80100 39.14500
H  11.54400 58.62700 40.74900
H  7.14100 59.59500 40.52800
H  4.98700 59.23300 42.42700
H  6.79200 60.27400 43.32300
H  8.08700 60.60700 42.16600
H  8.24600 59.18000 43.20700
H  4.15000 58.41100 39.73200
H  5.29700 59.67000 39.57200
H  3.78300 61.25400 39.77100
H  3.30800 60.61800 41.41700
H  2.60200 59.93700 39.90500
H  0.35000 54.71800 42.00200
H  1.34900 56.18700 42.44300
H  1.08200 54.88800 43.59100
H  3.69800 50.28100 42.25800
H  3.26800 46.82900 39.97300
H  2.07700 47.87900 39.09300
H  1.56900 47.14000 40.58400
Mg -1.49600 33.91800 27.27000
C  -3.43300 32.47200 29.88100
C  0.05300 35.91400 29.63000
C  -0.51100 35.93100 24.78300
C  -3.66100 32.27100 24.98500
N  -1.85900 34.33500 29.48100
C  -2.51100 33.45800 30.40100
C  -2.20400 33.85900 31.83700
C  -1.14300 35.03500 31.73100
C  -0.95700 35.06700 30.24800
C  -1.65500 36.37500 32.38900
C  -1.68800 32.72200 32.76100
C  -0.90200 33.01400 34.05700
H  -1.28300 32.25600 35.30700
N  -0.22600 35.54400 27.19100
C  0.39900 36.13400 28.27900
C  1.27700 37.13000 27.79800
C  1.05600 37.26700 26.38900
C  0.06200 36.23100 26.04600
C  2.04500 37.97800 28.70900
C  1.64600 38.21800 25.36600
O  1.41900 38.19000 24.16200
C  2.72700 39.22600 25.86000
N  -2.03200 34.11500 25.24000
C  -1.38300 34.98400 24.37100
C  -1.84800 34.81300 22.91200
C  -2.58000 33.40800 22.98200
C  -2.81300 33.30000 24.50500
C  -2.73700 35.93100 22.38800
C  -1.80600 32.14600 22.52200
C  -0.30000 32.18900 22.76300
N  -3.17300 32.61800 27.32800
C  -3.82600 31.94900 26.32700
C  -4.70200 30.98600 27.00400
C  -4.52900 31.12000 28.36600
C  -3.67000 32.19600 28.53500
C  -5.56300 30.06100 26.27400
C  -4.98100 30.58600 29.62200
O  -5.77400 29.67600 29.89300
C  -4.20800 31.38700 30.66100
C  -5.21200 31.98900 31.62500
O  -6.09000 32.75700 31.34800
O  -5.04500 31.40000 32.85800
C  -6.03100 31.65200 33.90800
H  0.64500 36.41400 30.40000
H  -0.24700 36.51900 23.90100
H  -4.14100 31.65600 24.22000
H  -3.06600 34.26700 32.36400
H  -0.15500 34.73500 32.08100
H  -1.84200 36.94900 31.48200
H  -0.90400 36.92500 32.95600
H  -2.57700 36.22800 32.95200
H  -0.89700 32.18600 32.23700
H  -2.44800 32.03900 33.14000
H  -1.20100 34.03500 34.29400
H  0.18300 32.91400 34.02000
H  2.20900 37.65400 29.73700
H  1.66100 38.99400 28.79800
H  3.00100 38.09600 28.19900
H  3.02500 39.94900 25.10100
H  3.54300 38.51300 25.97800
H  2.46400 39.70000 26.80500
H  -1.09100 34.74500 22.13100
H  -3.51000 33.40800 22.41300
H  -3.69700 35.60900 21.98500
H  -2.23000 36.59900 21.69200
H  -2.90400 36.69200 23.15000
H  -1.98100 32.30300 21.45800
H  -2.31300 31.22500 22.81000
H  0.14900 32.50500 21.82200
H  0.14800 31.20300 22.88800
H  0.08800 32.77700 23.59500
H  -5.99100 30.68800 25.49200
H  -6.22500 29.53300 26.96000
H  -4.96600 29.31100 25.75500
H  -3.56600 30.78400 31.30200
H  -5.56100 32.24500 34.69200
H  -6.55900 30.80200 34.33900
H  -6.90000 32.16600 33.49600

