158

Mg 36.10100 2.79500 30.22200
C  33.65500 3.89400 32.45300
C  38.44900 3.16300 32.86800
C  38.52600 2.02800 28.06800
C  33.78300 2.99600 27.63100
N  36.06200 3.47700 32.40100
C  34.92200 3.75100 33.06800
C  35.15100 3.62200 34.59700
C  36.68000 3.87000 34.66100
C  37.13000 3.47800 33.23500
C  37.12800 5.36300 35.00800
C  34.59600 2.32900 35.24100
C  33.97000 2.41200 36.60600
H  34.62500 3.37200 37.60400
N  38.15600 2.57600 30.42300
C  38.91900 2.76700 31.58900
C  40.31900 2.37200 31.29000
C  40.33100 1.91300 29.91100
C  38.98100 2.19100 29.38400
C  41.43900 2.35100 32.28100
C  41.45400 1.33200 29.09800
O  41.40600 1.15800 27.85500
C  42.78000 1.12500 29.73400
N  36.25900 2.91200 28.14000
C  37.33100 2.37200 27.47700
C  37.07400 2.12200 25.95200
C  35.51300 2.43400 25.85800
C  35.16900 2.84100 27.28100
C  37.91700 3.02200 24.98400
C  34.65000 1.24700 25.39100
C  33.85100 1.37000 24.01000
N  34.17200 3.26000 30.00700
C  33.33700 3.32500 28.89500
C  32.04400 3.70300 29.28300
C  32.10200 3.90600 30.64900
C  33.41600 3.60500 31.03900
C  30.80900 3.85900 28.46600
C  31.28200 4.38300 31.76700
O  30.15000 4.88500 31.82300
C  32.26500 4.13500 33.05700
C  32.20900 5.35400 34.01000
O  32.54400 6.48900 33.74900
O  31.72800 4.93800 35.22500
C  31.47800 5.94900 36.21900
H  39.06900 2.91900 33.73300
H  39.36700 1.62600 27.49800
H  32.99900 3.06200 26.87500
H  34.58000 4.46900 34.97600
H  37.09300 3.18400 35.40000
H  37.85800 5.77400 34.31000
H  37.69100 5.36000 35.94100
H  36.22100 5.96000 34.91500
H  35.42300 1.62800 35.36000
H  33.87300 2.00100 34.49400
H  34.02000 1.43600 37.08800
H  32.91200 2.67400 36.56100
H  42.41700 2.59900 31.86800
H  41.47100 1.39700 32.80600
H  41.21700 3.20100 32.92700
H  43.26100 2.07600 29.96300
H  43.38900 0.58800 29.00700
H  42.63100 0.58100 30.66600
H  37.33600 1.07400 25.81200
H  35.32800 3.27600 25.19200
H  38.12900 3.92100 25.56300
H  37.22100 3.22400 24.17000
H  38.76900 2.43700 24.64000
H  33.93500 0.94700 26.15600
H  35.33000 0.41200 25.22100
H  32.83700 1.70800 24.22400
H  33.91600 0.45300 23.42500
H  34.31100 2.13300 23.38200
H  29.95800 3.76600 29.14000
H  30.70900 3.11700 27.67400
H  30.73800 4.81600 27.94800
H  31.99200 3.20000 33.54500
H  32.26900 5.91000 36.96800
H  30.52500 5.75300 36.71100
H  31.44000 6.95800 35.80900
Mg 47.59500 24.94300 28.03600
C  48.30900 27.17100 30.55300
C  46.47100 22.67900 30.26200
C  46.93000 22.83500 25.45200
C  48.83200 27.26000 25.67500
N  47.23700 25.00200 30.18000
C  47.67000 26.02100 31.02800
C  47.43900 25.58200 32.53100
C  47.06700 24.07000 32.32700
C  46.90900 23.89600 30.83500
C  47.94300 23.01200 32.95700
C  46.32100 26.43700 33.29700
C  46.69700 27.07800 34.59300
H  45.69300 27.07400 35.79100
N  46.92200 23.03700 27.92300
C  46.45700 22.21200 28.96800
C  46.04000 20.96000 28.45000
C  46.39600 20.94300 27.05300
C  46.67800 22.33400 26.75700
C  45.24800 19.99200 29.29900
C  46.42000 19.77800 26.01200
O  46.62500 19.87400 24.77700
C  45.99300 18.38400 26.57200
N  47.82900 25.02600 25.82400
C  47.44600 24.07700 24.97000
C  47.45000 24.59100 23.50300
C  47.93100 26.04500 23.56900
C  48.26000 26.12600 25.11600
C  48.24700 23.68800 22.44100
C  46.91300 27.15800 23.09700
C  47.55400 28.35000 22.28100
N  48.54300 26.73700 28.07400
C  49.01500 27.55500 27.02600
C  49.66800 28.74900 27.59700
C  49.34800 28.61300 28.93900
C  48.60200 27.44000 29.17500
C  50.38500 29.81900 26.90500
C  49.56500 29.30100 30.22200
O  50.11900 30.32500 30.48700
C  49.00600 28.32200 31.28800
C  49.93300 27.79600 32.32500
O  50.82600 27.09600 32.06700
O  49.67000 28.21600 33.61900
C  50.64100 27.79700 34.65600
H  46.19400 21.90600 30.98200
H  46.80000 22.25800 24.53400
H  49.04200 28.01400 24.91400
H  48.41900 25.60300 33.00800
H  46.02700 23.92900 32.62000
H  48.72000 22.77600 32.23000
H  47.28900 22.14500 33.05300
H  48.24800 23.18400 33.99000
H  45.49800 25.76800 33.54800
H  45.93000 27.20600 32.63100
H  46.92200 28.11600 34.34800
H  47.58700 26.57000 34.96500
H  45.76900 19.03400 29.29600
H  44.22700 19.86800 28.93900
H  45.17900 20.22700 30.36100
H  46.66000 18.18900 27.41200
H  46.09600 17.60500 25.81700
H  44.97400 18.38200 26.96000
H  46.42100 24.72900 23.17100
H  48.92900 26.12100 23.13600
H  47.95100 24.07300 21.46600
H  47.98900 22.63800 22.58400
H  49.32700 23.79000 22.54100
H  46.47400 27.63600 23.97300
H  46.09500 26.70900 22.53300
H  48.58500 28.13600 22.00100
H  47.63700 29.14900 23.01700
H  46.86500 28.69100 21.50800
H  51.35300 29.81400 27.40400
H  49.89800 30.79400 26.88500
H  50.51300 29.49300 25.87200
H  48.32100 28.88100 31.92600
H  50.35100 26.79200 34.96400
H  50.54100 28.49300 35.48900
H  51.69400 27.68600 34.40000

