158

Mg 2.27100 -1.75800 44.51600
C  5.39800 -0.74700 43.76400
C  0.99700 0.93000 42.71100
C  -0.87200 -3.25000 44.74100
C  3.59300 -4.71200 46.11700
N  3.08000 -0.14700 43.21200
C  4.42600 0.10000 43.17100
C  4.72400 1.34600 42.35100
C  3.27600 2.03900 42.25400
C  2.38300 0.87100 42.71800
C  3.19800 3.43200 43.11000
C  5.38500 0.93300 40.97000
C  6.21100 2.06600 40.39000
H  6.71400 1.92100 38.92000
N  0.35000 -1.25400 43.84000
C  0.03700 -0.08300 43.16600
C  -1.35500 -0.09200 42.86600
C  -1.92300 -1.29000 43.43900
C  -0.80700 -2.00300 44.04800
C  -2.01700 0.98800 41.95800
C  -3.41200 -1.59400 43.37800
O  -4.22800 -0.72200 43.01800
C  -3.99000 -2.88500 43.91200
N  1.46200 -3.76100 45.26200
C  0.13600 -4.03600 45.26600
C  -0.09000 -5.41900 45.94800
C  1.30200 -5.83500 46.57900
C  2.22000 -4.79300 45.91200
C  -1.27900 -5.58700 46.93000
C  1.70000 -7.32200 46.35500
C  2.18700 -8.10100 47.61600
N  4.10400 -2.63200 44.93500
C  4.48100 -3.73600 45.59800
C  5.97300 -3.72000 45.67900
C  6.37700 -2.56700 45.01500
C  5.21700 -1.95900 44.49700
C  6.77400 -4.73700 46.38700
C  7.45800 -1.80200 44.69500
O  8.70100 -1.85300 44.82100
C  6.88700 -0.48800 44.03600
C  6.91100 0.61300 45.05300
O  6.18400 0.75400 46.02700
O  7.93700 1.45400 44.69900
C  7.89700 2.72700 45.40900
H  0.58700 1.80600 42.20400
H  -1.81500 -3.80000 44.76900
H  4.00500 -5.56200 46.66300
H  5.43400 2.03600 42.80700
H  3.02000 2.38600 41.25300
H  4.20300 3.74100 43.39700
H  2.63000 3.22800 44.01800
H  2.64800 4.19600 42.56100
H  4.50700 0.86000 40.32700
H  5.97300 0.01500 40.96500
H  7.16200 2.11400 40.92200
H  5.67800 3.01000 40.50800
H  -1.25600 1.65200 41.54800
H  -2.77100 1.54900 42.51100
H  -2.42200 0.58000 41.03200
H  -5.07800 -2.93200 43.87600
H  -3.74700 -2.90000 44.97500
H  -3.52900 -3.76200 43.45700
H  -0.29600 -6.15000 45.16600
H  1.26500 -5.57500 47.63700
H  -2.11600 -4.90400 46.78500
H  -1.05200 -5.64300 47.99500
H  -1.69700 -6.58300 46.77800
H  2.49600 -7.26100 45.61300
H  0.84100 -7.85700 45.94900
H  2.51400 -7.37800 48.36300
H  2.95900 -8.79700 47.28700
H  1.38500 -8.71200 48.03000
H  7.13900 -5.65800 45.93100
H  6.20200 -5.07100 47.25300
H  7.69100 -4.27500 46.75400
H  7.40400 -0.22700 43.11300
H  8.40900 3.47000 44.79700
H  8.43400 2.57900 46.34600
H  6.93800 3.23300 45.51400
Mg 24.58800 -5.02500 45.80500
C  26.84500 -2.60800 44.45700
C  22.25700 -3.78100 43.64700
C  22.83000 -7.73300 46.32600
C  27.42900 -6.38600 47.49800
N  24.59600 -3.32400 44.15400
C  25.58600 -2.47700 43.87900
C  25.06100 -1.35900 42.96600
C  23.52300 -1.49900 43.23700
C  23.43500 -2.99100 43.63200
C  22.91800 -0.53300 44.25900
C  25.63800 -1.62500 41.55700
C  25.72300 -0.36500 40.57500
H  25.08000 -0.45800 39.27900
N  22.75400 -5.61000 45.26400
C  21.95300 -4.94200 44.38200
C  20.73200 -5.71000 44.20300
C  20.73000 -6.74000 45.11400
C  22.09900 -6.74900 45.70700
C  19.60500 -5.22800 43.29900
C  19.57200 -7.63900 45.40400
O  18.48500 -7.60200 44.87300
C  19.71200 -8.59200 46.66400
N  25.01400 -6.76800 46.90300
C  24.15400 -7.78700 46.84500
C  24.74000 -9.09800 47.42600
C  26.19800 -8.65500 47.75900
C  26.20400 -7.14500 47.44700
C  23.88500 -9.84100 48.43500
C  27.35200 -9.41000 47.06100
C  28.56700 -9.58500 47.93800
N  26.76900 -4.47000 46.11400
C  27.71600 -5.18000 46.84400
C  28.89500 -4.41800 46.84900
C  28.67600 -3.35900 45.93800
C  27.32800 -3.49400 45.45900
C  30.19300 -4.72800 47.52600
C  29.21000 -2.19800 45.30000
O  30.24200 -1.60700 45.54200
C  28.14200 -1.75200 44.20000
C  27.87300 -0.28200 44.51700
O  27.14400 0.05100 45.45600
O  28.42500 0.51300 43.56400
C  28.36300 1.99600 43.84600
H  21.44400 -3.30700 43.09300
H  22.33700 -8.67800 46.56000
H  28.30600 -6.91400 47.88000
H  25.49800 -0.40300 43.25700
H  22.93300 -1.46800 42.32100
H  22.86500 -0.96400 45.25900
H  21.88300 -0.31000 44.00000
H  23.60600 0.31300 44.27400
H  25.00200 -2.32200 41.01000
H  26.61900 -2.10000 41.55500
H  26.78600 -0.12300 40.55000
H  25.29400 0.49600 41.08800
H  19.38900 -5.78600 42.38800
H  19.56300 -4.14600 43.17500
H  18.65600 -5.38300 43.81200
H  20.22300 -8.15100 47.52000
H  20.16000 -9.51900 46.30500
H  18.75200 -9.02600 46.94000
H  24.84300 -9.80300 46.60000
H  26.25500 -8.79400 48.83800
H  23.13800 -9.10600 48.73400
H  24.42500 -10.09100 49.34800
H  23.43700 -10.73400 47.99700
H  27.73400 -8.89400 46.18000
H  26.98300 -10.38700 46.75100
H  28.54400 -9.21400 48.96300
H  29.44800 -9.09400 47.52700
H  28.86500 -10.62900 48.03900
H  30.66700 -5.53200 46.96300
H  29.84000 -5.18900 48.44900
H  30.79400 -3.84500 47.74000
H  28.59000 -1.84600 43.21100
H  28.41400 2.15500 44.92300
H  27.48600 2.50900 43.45000
H  29.14500 2.41700 43.21300

