158

Mg 43.55100 4.12500 46.76900
C  41.80000 6.93500 46.67900
C  40.67500 2.25800 46.51200
C  45.48600 1.36000 46.39700
C  46.56500 6.08500 46.55000
N  41.49900 4.55700 46.47900
C  40.98400 5.80400 46.68500
C  39.47200 5.78600 46.43500
C  39.11300 4.31500 46.77900
C  40.53500 3.66800 46.61900
C  38.42400 3.93900 48.11200
C  39.08700 6.25800 45.00500
C  40.18000 6.26700 43.91900
H  39.68300 6.16700 42.48200
N  43.09200 2.05800 46.40500
C  41.88100 1.49900 46.42900
C  41.95800 0.07700 46.12000
C  43.33800 -0.24600 46.18300
C  44.05600 1.05700 46.36800
C  40.77900 -0.83300 46.10200
C  43.93100 -1.58400 46.08000
O  43.21300 -2.51100 45.68900
C  45.40000 -1.80100 46.32900
N  45.72100 3.79100 46.56700
C  46.26000 2.51500 46.49300
C  47.80300 2.58200 46.36900
C  48.10700 4.09100 46.44200
C  46.68500 4.73000 46.48300
C  48.63100 1.62800 47.37600
C  48.98100 4.71900 45.32000
C  50.11000 5.73700 45.74800
N  44.16700 6.12100 46.66500
C  45.35500 6.79100 46.54400
C  45.14300 8.24600 46.73100
C  43.75100 8.40400 46.71500
C  43.20700 7.02400 46.66000
C  46.23300 9.27200 46.79000
C  42.65100 9.33300 46.78400
O  42.56300 10.53800 46.82000
C  41.37500 8.40000 46.61700
C  40.49600 8.68300 47.75900
O  40.72800 8.37000 48.89900
O  39.30000 9.34200 47.36400
C  38.28800 9.42900 48.44700
H  39.79100 1.62100 46.43700
H  46.20500 0.58900 46.11400
H  47.42500 6.75300 46.47500
H  39.05100 6.48800 47.15500
H  38.39900 3.88000 46.08000
H  38.11300 4.70100 48.82700
H  39.30600 3.44200 48.51600
H  37.58900 3.26100 47.94000
H  38.83100 7.30900 45.13700
H  38.16800 5.70200 44.82100
H  40.87200 5.43200 44.03200
H  40.72100 7.21100 43.97500
H  39.86500 -0.48700 46.58500
H  40.90100 -1.81800 46.55300
H  40.53200 -0.88100 45.04200
H  45.65700 -1.27000 47.24600
H  45.82300 -1.44900 45.38800
H  45.62000 -2.84700 46.54200
H  47.99900 2.24000 45.35300
H  48.62200 4.33900 47.37100
H  49.26800 0.97600 46.77700
H  47.88200 0.99600 47.85100
H  49.23300 2.19000 48.09100
H  48.35000 5.39700 44.74600
H  49.41600 3.98500 44.64100
H  49.56700 6.22200 46.55900
H  50.34300 6.42100 44.93200
H  51.01500 5.18600 46.00600
H  47.01100 8.99800 46.07700
H  46.64000 9.13800 47.79200
H  45.81400 10.27600 46.72200
H  40.79500 8.65500 45.73000
H  37.33800 9.15700 47.98700
H  38.22400 10.45200 48.81700
H  38.17300 8.70400 49.25200
Mg 6.49700 53.88600 41.51900
C  5.72000 50.47800 41.31100
C  9.63900 53.08900 40.32000
C  7.05200 57.10500 41.03500
C  3.14400 54.46900 42.51000
N  7.50500 51.98900 40.84400
C  6.97800 50.73200 40.71700
C  8.00200 49.70600 40.18000
C  9.33500 50.51800 40.13400
C  8.80600 51.96800 40.45800
C  10.58900 50.02700 41.00400
C  7.50100 49.23700 38.73900
C  8.09100 49.87500 37.49300
H  7.45200 49.47400 36.21100
N  8.09200 54.98600 40.70500
C  9.27600 54.46400 40.34100
C  10.13800 55.53100 39.95800
C  9.39600 56.68000 40.19100
C  8.13500 56.32000 40.65000
C  11.62100 55.25900 39.59200
C  9.91600 58.07600 39.87900
O  11.07700 58.15500 39.39300
C  9.14300 59.36500 40.10500
N  5.19600 55.49300 41.44400
C  5.76600 56.73400 41.39700
C  4.59800 57.72000 41.66100
C  3.32300 56.93200 42.07000
C  3.87300 55.48700 41.87500
C  4.96100 58.74700 42.80500
C  2.00500 57.31900 41.36800
C  1.59200 56.34600 40.26000
N  4.72400 52.78500 41.93000
C  3.48600 53.13200 42.42900
C  2.71200 51.89000 42.79000
C  3.55900 50.86100 42.38500
C  4.78900 51.39500 41.89400
C  1.36500 51.81600 43.34100
C  3.58500 49.47700 42.34700
O  2.78800 48.60700 42.76800
C  4.90100 49.13800 41.55200
C  4.53300 48.56600 40.23600
O  3.83400 49.10000 39.39800
O  5.02800 47.32600 40.15000
C  4.60000 46.58100 39.02500
H  10.68900 52.84000 40.15300
H  7.14800 58.19300 41.06000
H  2.22200 54.83000 42.97000
H  8.02300 48.81000 40.80100
H  9.85800 50.54500 39.17800
H  10.72600 50.77900 41.78200
H  11.48600 49.90000 40.39700
H  10.47500 49.07400 41.52100
H  6.42900 49.37100 38.59100
H  7.78600 48.18800 38.65600
H  9.12200 49.52100 37.47000
H  8.11800 50.95900 37.60900
H  11.65100 54.35900 38.97700
H  12.17300 54.98500 40.49000
H  12.21500 56.07600 39.18200
H  8.22200 59.34000 39.52300
H  9.71300 60.20600 39.71300
H  8.85300 59.47800 41.15000
H  4.48600 58.19200 40.68500
H  3.03300 57.02900 43.11700
H  5.09000 59.77500 42.46400
H  5.90100 58.32500 43.16100
H  4.18400 58.77500 43.56800
H  2.22700 58.32400 41.01000
H  1.16900 57.48800 42.04700
H  1.98400 55.33000 40.29600
H  1.92900 56.83000 39.34300
H  0.50500 56.35000 40.33100
H  0.82500 52.71200 43.03600
H  1.36500 51.94800 44.42300
H  0.75500 50.95100 43.08100
H  5.44100 48.36600 42.10000
H  5.03200 46.97500 38.10500
H  3.53300 46.46100 38.84100
H  4.94200 45.54800 39.09100

