158

Mg 0.19800 44.20800 25.34500
C  2.14500 43.91600 28.27100
C  -2.53100 43.13100 27.16900
C  -1.51800 43.87800 22.46200
C  3.12800 44.64000 23.57700
N  -0.14700 43.65900 27.45600
C  0.77000 43.70800 28.46500
C  0.10200 43.39200 29.81700
C  -1.41700 43.22500 29.42600
C  -1.36500 43.31800 27.93700
C  -2.10600 41.86000 29.98100
C  0.26200 44.71200 30.71400
C  1.05500 44.60900 32.06200
H  0.55800 43.43400 33.01100
N  -1.79500 43.59100 24.86500
C  -2.74700 43.22900 25.78200
C  -3.93800 43.01900 25.03800
C  -3.67700 43.00100 23.69500
C  -2.28900 43.52100 23.58800
C  -5.25600 42.67600 25.74200
C  -4.63500 42.72700 22.50500
O  -4.20900 42.92500 21.33900
C  -6.12000 42.44100 22.74900
N  0.69800 44.51400 23.27400
C  -0.13900 44.19500 22.29100
C  0.54200 44.20800 20.94600
C  1.99800 44.69700 21.34300
C  1.96600 44.63400 22.84200
C  0.51400 42.94100 20.12000
C  2.32800 46.08300 20.59000
C  1.62600 47.33600 21.13500
N  2.24600 44.34000 25.73400
C  3.31300 44.53800 24.91500
C  4.53900 44.66300 25.69400
C  4.10300 44.38000 26.97900
C  2.69200 44.22000 27.03500
C  5.99100 44.88200 25.26100
C  4.61600 44.15000 28.30100
O  5.72700 44.20200 28.75100
C  3.33500 43.97000 29.24500
C  3.54500 42.69100 29.99800
O  3.58600 41.56100 29.51400
O  3.80600 43.00600 31.29000
C  4.44700 41.98300 32.07200
H  -3.42000 42.86200 27.74300
H  -1.98500 43.78600 21.47900
H  4.06100 44.78200 23.02700
H  0.48200 42.49100 30.29700
H  -2.07300 44.00300 29.81500
H  -2.93800 42.17700 30.61000
H  -1.44700 41.21500 30.56100
H  -2.52300 41.27700 29.16000
H  -0.69300 45.15300 31.00200
H  0.66900 45.43900 30.01200
H  0.84300 45.54900 32.57100
H  2.13800 44.56600 31.95000
H  -5.53000 41.62900 25.61800
H  -6.00100 43.27900 25.22400
H  -5.21900 42.95800 26.79500
H  -6.60700 43.31600 23.18100
H  -6.08700 41.55600 23.38500
H  -6.69100 42.14600 21.86800
H  0.03100 44.94900 20.33200
H  2.69700 43.93500 20.99800
H  0.19800 42.14600 20.79700
H  1.49000 42.58600 19.79000
H  -0.23300 42.97400 19.32700
H  2.12000 46.09600 19.52000
H  3.41400 46.13200 20.65900
H  0.67300 47.12400 21.61900
H  1.44200 47.99500 20.28700
H  2.31100 47.87400 21.79000
H  6.49600 45.42200 26.06200
H  6.13000 45.45300 24.34300
H  6.43400 43.89500 25.12700
H  3.05900 44.76800 29.93500
H  5.26400 41.49400 31.54100
H  3.69700 41.23600 32.33400
H  4.72600 42.43800 33.02200
Mg -5.06400 25.46400 25.66500
C  -3.88300 27.03900 28.68400
C  -6.56800 23.10400 27.69400
C  -5.71700 23.86000 22.90300
C  -3.00600 27.84400 23.93000
N  -5.18900 25.16200 27.93600
C  -4.87100 26.00500 28.91700
C  -5.49600 25.68300 30.26200
C  -6.24600 24.35000 29.92200
C  -5.96300 24.14100 28.38800
C  -5.87600 23.17700 30.84000
C  -6.37300 26.86300 30.82300
C  -6.32900 26.99900 32.39700
H  -5.72000 25.86200 33.30400
N  -6.01100 23.68000 25.33700
C  -6.61700 22.89100 26.23800
C  -7.48200 21.93900 25.51600
C  -7.35600 22.28400 24.09200
C  -6.30400 23.25300 24.04500
C  -8.48600 21.06500 26.27000
C  -8.12100 21.65500 22.95200
O  -7.99900 22.03400 21.79600
C  -9.21500 20.75400 23.32200
N  -4.59200 25.93100 23.76900
C  -4.88900 25.01800 22.73000
C  -4.39700 25.51000 21.36300
C  -3.64600 26.79000 21.68900
C  -3.82900 26.90900 23.22400
C  -3.53100 24.44300 20.67700
C  -4.02800 28.06800 20.88800
C  -5.15400 29.03700 21.50800
N  -3.79200 27.26100 26.13400
C  -3.01100 28.01100 25.36200
C  -2.27600 28.95600 26.21700
C  -2.61000 28.63800 27.54500
C  -3.60900 27.58900 27.42800
C  -1.33900 30.03800 25.73800
C  -2.31200 28.93500 28.93400
O  -1.58400 29.76000 29.48000
C  -3.07800 27.85900 29.71500
C  -2.34300 27.01100 30.60300
O  -2.07200 25.82200 30.37100
O  -2.05600 27.69200 31.72100
C  -1.27400 27.01700 32.79000
H  -7.28200 22.57600 28.32900
H  -5.90700 23.35600 21.95300
H  -2.45100 28.43400 23.19700
H  -4.61000 25.52100 30.87600
H  -7.31500 24.51600 30.05300
H  -6.75600 23.03500 31.46800
H  -4.96000 23.35900 31.40200
H  -5.70500 22.29500 30.22300
H  -7.41000 26.70600 30.52600
H  -6.13300 27.81700 30.35400
H  -7.34700 27.08200 32.77600
H  -5.82800 27.94400 32.60800
H  -8.27200 20.04300 25.95800
H  -9.55600 21.27200 26.26900
H  -8.20000 21.04000 27.32100
H  -9.93700 20.58500 22.52400
H  -9.83200 21.27100 24.05800
H  -8.80200 19.84500 23.75800
H  -5.27000 25.72800 20.74800
H  -2.60500 26.54300 21.48100
H  -2.46400 24.65900 20.74100
H  -3.85000 24.31600 19.64300
H  -3.67200 23.52400 21.24600
H  -4.37200 27.78100 19.89500
H  -3.06000 28.57000 20.91800
H  -5.97600 29.08300 20.79400
H  -4.71000 29.98200 21.82200
H  -5.65100 28.71800 22.42500
H  -1.28100 30.14000 24.65400
H  -0.36300 29.75600 26.13400
H  -1.61100 30.96100 26.25000
H  -3.76900 28.50200 30.26100
H  -1.87400 26.22900 33.24600
H  -1.07300 27.78100 33.54100
H  -0.42300 26.46100 32.39800

