158

Mg -1.41700 17.21800 27.28900
C  -1.97600 14.90500 29.85800
C  -2.14900 19.71300 29.51400
C  -1.13100 19.39000 24.67300
C  -1.46300 14.58900 24.99700
N  -1.98200 17.26800 29.46300
C  -1.99400 16.23500 30.37300
C  -2.30200 16.74900 31.81500
C  -2.47900 18.30200 31.59700
C  -2.21600 18.49500 30.10400
C  -3.88900 18.86800 32.15500
C  -1.27700 16.30800 32.88900
C  -1.01400 17.27600 34.06000
H  -0.36200 16.72100 35.32900
N  -1.55100 19.26600 27.15100
C  -1.83700 20.11300 28.17300
C  -1.94500 21.51900 27.63400
C  -1.53700 21.41400 26.27600
C  -1.36000 19.97500 25.95100
C  -2.15900 22.71900 28.47900
C  -1.44000 22.47700 25.27200
O  -0.97800 22.34200 24.13700
C  -1.94700 23.79900 25.58800
N  -1.27100 16.99500 25.11100
C  -1.09300 18.06000 24.31400
C  -0.76800 17.58000 22.83000
C  -0.70200 16.05900 22.97700
C  -1.13800 15.83900 24.43400
C  -1.90900 17.96000 21.80800
C  0.67600 15.46600 22.51500
C  1.93200 15.96400 23.32400
N  -1.68700 15.20800 27.31500
C  -1.63600 14.26400 26.36300
C  -1.84800 12.98800 26.92400
C  -1.91800 13.23100 28.29500
C  -1.79600 14.55000 28.49900
C  -2.06000 11.62800 26.23400
C  -2.13600 12.47000 29.52100
O  -2.33300 11.28600 29.76600
C  -2.14000 13.58300 30.64300
C  -1.04600 13.26300 31.53900
O  0.14500 13.37300 31.28800
O  -1.58200 12.92300 32.74000
C  -0.61600 12.75900 33.81400
H  -2.36200 20.53800 30.19700
H  -1.03800 20.06600 23.82000
H  -1.33200 13.74900 24.31100
H  -3.27400 16.37500 32.13800
H  -1.67600 18.84200 32.10000
H  -4.27700 18.23300 32.95200
H  -4.53100 18.97200 31.28000
H  -3.82100 19.88700 32.53600
H  -0.30300 16.11500 32.43900
H  -1.72600 15.49200 33.45600
H  -1.96400 17.76400 34.27500
H  -0.32200 18.00300 33.63500
H  -3.23600 22.72800 28.64400
H  -1.79500 23.65100 28.04500
H  -1.74800 22.48200 29.46000
H  -2.23000 24.24100 24.63200
H  -1.13400 24.38600 26.01400
H  -2.81100 23.58400 26.21700
H  0.25800 17.81700 22.54900
H  -1.44700 15.63500 22.30400
H  -1.71900 17.65000 20.78000
H  -2.16100 19.01700 21.89800
H  -2.74700 17.40500 22.22900
H  0.72900 15.49500 21.42600
H  0.55000 14.39900 22.69500
H  1.62800 16.71900 24.04900
H  2.55300 16.44300 22.56700
H  2.43500 15.11000 23.77800
H  -1.26800 11.51300 25.49400
H  -3.04600 11.63400 25.76900
H  -1.95300 10.84300 26.98200
H  -3.10100 13.70600 31.14200
H  -1.29800 12.32900 34.54700
H  -0.21000 13.73100 34.09400
H  0.16000 12.00800 33.66000
Mg 16.88800 53.19300 25.96500
C  18.72400 51.86300 28.64800
C  14.29800 53.82500 28.15900
C  15.07500 54.29200 23.45700
C  19.52200 52.17500 23.91500
N  16.50200 52.77700 28.19600
C  17.45900 52.29800 29.08200
C  16.95900 52.37000 30.54600
C  15.51100 52.85000 30.32300
C  15.40500 53.16600 28.83300
C  14.46200 51.82700 30.75700
C  17.70000 53.39400 31.49600
C  17.62000 53.00600 32.96900
H  16.72300 53.75900 33.94400
N  14.96700 54.05000 25.82500
C  14.04900 54.25200 26.82800
C  12.87400 54.84700 26.21600
C  13.00900 54.90400 24.83100
C  14.39700 54.37400 24.64600
C  11.76300 55.27700 27.13600
C  12.01200 55.32700 23.72800
O  12.38100 55.45400 22.55500
C  10.58600 55.66900 24.16400
N  17.18000 53.17000 23.92700
C  16.34600 53.69300 23.07600
C  16.84600 53.63800 21.64500
C  18.38500 53.24800 21.85300
C  18.41100 52.81000 23.31900
C  15.97800 52.76700 20.66100
C  19.31500 54.49600 21.40500
C  19.25800 55.76200 22.22300
N  18.74500 52.19200 26.16700
C  19.72200 51.86500 25.26300
C  20.80400 51.15900 25.82000
C  20.48500 51.16400 27.21800
C  19.18800 51.76900 27.35100
C  21.92600 50.54200 25.04600
C  20.89800 50.75600 28.57200
O  21.79000 50.12300 29.04700
C  19.81400 51.23300 29.50600
C  19.30500 50.14600 30.41500
O  18.65700 49.16500 30.03500
O  19.53800 50.53700 31.72300
C  19.03000 49.60700 32.70500
H  13.53000 54.04600 28.90400
H  14.60100 54.52700 22.50100
H  20.28500 51.85800 23.20100
H  16.97300 51.36000 30.95600
H  15.17100 53.73800 30.85700
H  14.99000 50.99600 31.22500
H  13.88700 51.43700 29.91700
H  13.78200 52.27300 31.48300
H  17.26700 54.38200 31.34100
H  18.73900 53.44400 31.17300
H  18.62600 53.18600 33.34700
H  17.25700 51.98600 33.09800
H  11.01900 54.48200 27.07800
H  11.30200 56.22200 26.84900
H  12.00700 55.49600 28.17600
H  10.71600 56.73600 24.34600
H  10.23300 55.05000 24.98800
H  9.93300 55.47600 23.31300
H  16.79500 54.61000 21.15300
H  18.65900 52.50200 21.10700
H  15.42700 52.07500 21.29900
H  16.50100 52.27800 19.83900
H  15.26000 53.46300 20.22800
H  19.31600 54.52600 20.31600
H  20.32700 54.10100 21.49000
H  18.23000 55.99600 22.49700
H  19.81000 56.49200 21.63100
H  19.83900 55.77600 23.14600
H  21.69600 50.50500 23.98100
H  22.00000 49.52800 25.43800
H  22.93100 50.89500 25.27900
H  20.48700 51.91000 30.03200
H  19.46500 48.60700 32.69100
H  17.94500 49.50500 32.72000
H  19.28000 49.98600 33.69500

