158

Mg 36.29500 49.53400 24.65700
C  36.46400 48.02200 27.81300
C  35.46700 52.56000 26.34500
C  36.02800 50.98900 21.64800
C  36.94900 46.38300 23.14300
N  35.91600 50.18000 26.81300
C  36.10300 49.38900 27.94200
C  35.73400 50.18500 29.19900
C  35.50800 51.64900 28.70400
C  35.63100 51.45200 27.16300
C  34.25500 52.36000 29.17700
C  36.64700 50.02600 30.49700
C  35.96000 49.65500 31.84700
H  34.43400 49.98400 32.05300
N  35.78600 51.51100 24.04400
C  35.54400 52.56600 24.87400
C  35.28100 53.70900 23.95100
C  35.37200 53.22200 22.62600
C  35.76900 51.84700 22.71000
C  35.00800 55.09700 24.48200
C  35.31500 54.10500 21.42100
O  35.44800 53.63100 20.31500
C  35.18700 55.59800 21.47500
N  36.44600 48.81600 22.65900
C  36.24900 49.63800 21.61700
C  36.38200 48.78800 20.30500
C  36.82300 47.34600 20.77000
C  36.80600 47.53600 22.25800
C  35.11500 48.74500 19.45400
C  38.29100 47.03100 20.37100
C  38.48600 45.58200 19.80500
N  36.65100 47.69300 25.24500
C  36.85200 46.47400 24.52700
C  36.92700 45.40500 25.41700
C  36.81100 45.99700 26.69400
C  36.64100 47.39100 26.55000
C  37.06200 43.92900 25.13500
C  36.83800 45.66000 28.12100
O  37.03800 44.62700 28.70300
C  36.44800 46.93300 28.85700
C  35.13800 46.77600 29.50700
O  34.07100 47.21500 29.14600
O  35.27800 45.96200 30.61500
C  34.08700 45.54400 31.27800
H  35.28000 53.49400 26.88000
H  35.91100 51.37900 20.63500
H  37.13300 45.37400 22.76800
H  34.74300 49.83700 29.49200
H  36.34300 52.30800 28.94400
H  33.54400 52.40300 28.35200
H  34.60900 53.30200 29.59500
H  33.81500 51.69000 29.91600
H  37.40900 50.80600 30.51100
H  37.23200 49.14200 30.24400
H  36.40900 50.21100 32.67000
H  36.14900 48.61600 32.11600
H  33.98900 55.28100 24.14100
H  35.73900 55.81200 24.10400
H  34.98900 55.07700 25.57100
H  34.33500 55.94900 22.05700
H  35.00800 55.96200 20.46300
H  36.02400 56.14800 21.90500
H  37.14000 49.30600 19.71600
H  36.12300 46.58800 20.41700
H  34.48200 47.92000 19.77900
H  35.62900 48.48300 18.52900
H  34.69200 49.74100 19.31900
H  38.81500 47.19100 21.31400
H  38.76500 47.73100 19.68300
H  37.62600 44.93200 19.97000
H  39.26600 45.08000 20.37700
H  38.71100 45.58100 18.73900
H  37.86900 43.68000 24.44600
H  36.17200 43.45600 24.72100
H  37.23100 43.36600 26.05300
H  37.17300 47.17800 29.63400
H  33.99100 46.19500 32.14700
H  34.25500 44.55400 31.70400
H  33.16200 45.63600 30.70900
Mg -0.28200 43.18900 26.26600
C  2.20300 42.48500 28.70800
C  -2.65300 41.82400 28.39400
C  -2.37500 43.19400 23.76700
C  2.41100 43.66000 23.90700
N  -0.22400 42.21400 28.36800
C  0.87500 42.24200 29.19300
C  0.44000 41.90400 30.65400
C  -1.06700 41.47200 30.46100
C  -1.37000 41.84900 28.95600
C  -1.26200 39.98500 30.69800
C  0.92100 43.12700 31.47800
C  0.27400 43.31200 32.93700
H  -0.25900 42.05500 33.71600
N  -2.28000 42.80200 26.18000
C  -3.10700 42.29400 27.15700
C  -4.48700 42.46300 26.71200
C  -4.39800 42.70100 25.32000
C  -2.97300 42.90600 25.01400
C  -5.66900 42.00300 27.49600
C  -5.48100 42.79600 24.25300
O  -5.25800 42.94500 23.09300
C  -6.91700 42.53600 24.60200
N  0.05600 43.37500 24.09600
C  -1.06500 43.48100 23.33300
C  -0.64300 44.02900 21.95100
C  0.84000 44.55000 22.11100
C  1.14700 43.82300 23.41100
C  -0.90600 42.81100 20.95100
C  1.09100 46.08300 22.40800
C  1.17700 46.97100 21.19400
N  1.87200 43.11000 26.22500
C  2.77800 43.32600 25.24500
C  4.07100 43.28500 25.83300
C  3.87900 42.83300 27.12400
C  2.56900 42.76800 27.38300
C  5.33100 43.50300 25.07100
C  4.61800 42.48100 28.32600
O  5.84200 42.33800 28.55000
C  3.57200 42.41200 29.45900
C  3.75800 41.09200 30.09900
O  3.43100 40.01800 29.63200
O  4.34600 41.21100 31.35600
C  4.54400 40.04900 32.24600
H  -3.43700 41.58300 29.11500
H  -2.97900 43.25800 22.85900
H  3.28100 43.91000 23.29600
H  1.11300 41.08400 30.90400
H  -1.61000 42.10200 31.16600
H  -0.37200 39.40300 30.93800
H  -1.72900 39.50400 29.83900
H  -1.82300 39.88600 31.62700
H  0.74800 44.02100 30.88000
H  1.99700 43.17200 31.64800
H  -0.50700 44.04300 32.73000
H  0.99700 43.70300 33.65200
H  -5.46500 41.59600 28.48600
H  -6.12100 41.19300 26.92400
H  -6.33300 42.86400 27.57200
H  -7.01300 41.53500 25.02200
H  -7.43100 42.52700 23.64200
H  -7.08800 43.24100 25.41600
H  -1.24600 44.88800 21.65400
H  1.53200 44.00800 21.46700
H  -1.38300 41.95400 21.42600
H  0.03500 42.33600 20.67300
H  -1.38000 43.19600 20.04800
H  1.94700 46.26200 23.05900
H  0.28900 46.51000 23.01000
H  0.88400 46.43200 20.29300
H  2.24300 47.15800 21.05900
H  0.61800 47.90400 21.26200
H  6.14400 43.88700 25.68800
H  5.29700 44.38300 24.42800
H  5.68800 42.65700 24.48500
H  3.60300 43.22200 30.18800
H  5.00800 39.25300 31.66400
H  3.54000 39.66900 32.43600
H  5.13000 40.24400 33.14400

