158

Mg 48.57500 45.42400 43.43100
C  45.28500 45.83500 42.23400
C  48.40700 42.21900 42.08300
C  51.94000 45.22400 43.82800
C  48.64400 48.70500 44.58400
N  47.07700 44.25900 42.16000
C  45.75600 44.61600 41.87200
C  45.00400 43.56400 41.03300
C  45.90500 42.31200 41.35400
C  47.24600 42.94200 41.93000
C  45.16000 41.38200 42.34600
C  44.86200 43.93900 39.51300
C  43.60100 43.48800 38.73000
H  43.80700 42.40800 37.74500
N  50.00600 43.95200 42.90900
C  49.69700 42.67700 42.44200
C  50.98300 41.94200 42.33300
C  51.99100 42.82200 42.82400
C  51.32500 44.02100 43.24800
C  51.00700 40.41300 41.87400
C  53.44500 42.45200 42.87600
O  53.85700 41.41100 42.36300
C  54.47300 43.35300 43.44500
N  50.04500 46.68100 44.30700
C  51.34600 46.43800 44.22100
C  52.19800 47.60200 44.76000
C  51.09700 48.67200 45.01500
C  49.87600 47.94200 44.71700
C  53.06400 47.29800 46.07400
C  51.21800 50.02400 44.15300
C  50.69100 51.27600 44.85100
N  47.14300 46.98000 43.60100
C  47.35200 48.24800 44.12300
C  46.19900 49.00300 43.88900
C  45.32400 48.06100 43.19200
C  45.97700 46.85000 43.00300
C  45.96300 50.40300 44.34700
C  44.02300 47.94600 42.60500
O  43.08300 48.74400 42.56700
C  43.85000 46.56400 41.80300
C  42.67200 45.79600 42.13900
O  41.84700 45.42700 41.27400
O  42.57600 45.53500 43.45000
C  41.36000 44.87800 43.92100
H  48.28000 41.16200 41.83600
H  53.02500 45.34000 43.80300
H  48.54100 49.74800 44.88900
H  43.96600 43.55800 41.36600
H  46.13100 41.80100 40.41700
H  45.23000 40.40500 41.86700
H  44.17400 41.81100 42.52400
H  45.59800 41.39800 43.34400
H  45.72700 43.51900 38.99900
H  45.06800 45.00400 39.41000
H  43.20200 44.39400 38.27400
H  42.86600 43.04300 39.40100
H  51.79500 40.14800 41.16900
H  50.09600 40.06900 41.38400
H  51.04400 39.83700 42.79900
H  54.05300 43.78300 44.35400
H  54.75500 44.17400 42.78600
H  55.30200 42.64800 43.51900
H  53.03300 47.82200 44.09500
H  50.99200 48.83900 46.08700
H  53.80700 48.06500 46.29400
H  53.59800 46.35800 45.93100
H  52.46800 47.10300 46.96500
H  50.72700 49.74400 43.22100
H  52.26300 50.13600 43.86400
H  51.38700 52.11200 44.78500
H  50.44300 50.94100 45.85800
H  49.73900 51.51900 44.37900
H  44.89900 50.61100 44.46200
H  46.43800 51.06600 43.62400
H  46.38300 50.54000 45.34400
H  44.00500 46.70500 40.73400
H  41.39600 43.79000 43.86000
H  40.52200 45.23400 43.32200
H  41.15500 45.05100 44.97800
Mg 48.38500 34.74100 26.71000
C  46.21800 33.54500 29.23300
C  48.79000 37.74900 28.61400
C  49.74500 36.32200 24.08300
C  47.36800 31.99800 24.80200
N  47.65800 35.47800 28.65400
C  46.93600 34.69400 29.55100
C  47.03200 35.34300 30.97500
C  47.45300 36.82600 30.68100
C  47.99300 36.72700 29.22400
C  46.37200 37.89000 30.94700
C  47.99800 34.61500 31.90100
C  47.92300 34.89100 33.35400
H  46.82400 35.83500 33.87600
N  49.26300 36.73700 26.38200
C  49.31800 37.82000 27.33300
C  50.15200 38.81900 26.74800
C  50.36500 38.42100 25.42400
C  49.79100 37.12000 25.25100
C  50.49000 40.07300 27.57900
C  51.06000 39.14000 24.28400
O  51.16100 38.64400 23.12900
C  51.67100 40.54100 24.46500
N  48.60100 34.14300 24.78000
C  49.23900 35.02800 23.92900
C  49.35100 34.27500 22.50500
C  48.78300 32.80000 22.77100
C  48.23300 32.97200 24.15900
C  48.69900 34.97500 21.29100
C  49.72800 31.57000 22.75500
C  50.19600 31.20100 21.39200
N  47.05300 33.06700 26.86400
C  46.76400 32.01400 26.05500
C  45.86100 31.09100 26.67600
C  45.56200 31.68000 27.89200
C  46.30300 32.90900 27.97400
C  45.47800 29.77800 26.06600
C  44.82600 31.43600 29.13300
O  44.14100 30.51100 29.52200
C  45.20100 32.69700 30.09800
C  45.61200 32.26900 31.46800
O  46.55500 31.57900 31.73200
O  44.71900 32.72000 32.40300
C  44.71900 31.99100 33.68400
H  48.95700 38.67000 29.17600
H  49.99200 36.78900 23.12700
H  47.11300 31.11500 24.21100
H  46.01300 35.33200 31.36000
H  48.31200 37.19100 31.24300
H  46.50700 38.65800 31.70800
H  45.46300 37.30200 31.08000
H  46.26500 38.43400 30.00800
H  48.94800 34.96200 31.49500
H  47.93500 33.53700 31.75400
H  48.89700 35.28600 33.64200
H  47.70900 33.95300 33.86500
H  51.54900 40.27800 27.73700
H  50.08700 40.06100 28.59100
H  49.91300 40.88700 27.13900
H  50.80000 41.05800 24.86800
H  51.95000 41.06100 23.54900
H  52.47400 40.62500 25.19600
H  50.42500 34.28600 22.32200
H  47.91100 32.61600 22.14400
H  48.03900 35.75900 21.66300
H  48.12400 34.24400 20.72200
H  49.41700 35.60600 20.76700
H  49.19900 30.75500 23.24800
H  50.56100 31.86600 23.39200
H  51.28000 31.12800 21.47600
H  49.79700 31.76200 20.54700
H  50.03800 30.13300 21.24500
H  44.74100 29.72500 25.26400
H  45.24000 29.12000 26.90200
H  46.37800 29.45700 25.54200
H  44.22300 33.15800 30.23500
H  45.75600 31.80800 33.96600
H  44.07200 31.11400 33.69800
H  44.17900 32.58500 34.42100

