158

Mg 41.51200 8.70400 29.67800
C  43.42600 10.04200 32.05300
C  39.33600 7.47100 31.97700
C  39.54400 7.64200 27.08400
C  43.99700 9.56400 27.30300
N  41.43700 8.80100 31.79500
C  42.31800 9.43800 32.63500
C  41.82200 9.36500 34.07600
C  40.74000 8.21500 33.97400
C  40.46500 8.15300 32.45800
C  41.10800 6.80600 34.59200
C  41.36100 10.73700 34.62700
C  40.75300 10.93700 36.06400
H  41.42200 11.82700 37.11800
N  39.63300 7.80600 29.58100
C  38.87300 7.35800 30.63600
C  37.60100 6.84600 30.15300
C  37.59900 7.03400 28.73200
C  38.97500 7.50700 28.42900
C  36.72600 6.03800 31.00700
C  36.47300 6.74600 27.72800
O  36.48200 6.79900 26.49100
C  35.17800 6.24500 28.29300
N  41.70900 8.68700 27.46300
C  40.81500 8.11700 26.64900
C  41.34900 8.05000 25.16700
C  42.60100 9.00500 25.22500
C  42.82100 9.12700 26.76600
C  41.44700 6.61200 24.68200
C  42.48500 10.43600 24.55500
C  43.68700 10.89300 23.67100
N  43.36600 9.57200 29.67000
C  44.24900 9.84200 28.62200
C  45.40300 10.52200 29.16700
C  45.10000 10.66400 30.51600
C  43.87200 10.05400 30.70900
C  46.57500 11.13400 28.47000
C  45.57700 11.19100 31.82100
O  46.57300 11.79600 32.19800
C  44.42000 10.89200 32.80300
C  45.08100 10.14800 33.96400
O  45.71900 9.11500 33.87300
O  44.97500 10.89400 35.08100
C  45.51100 10.26400 36.29700
H  38.78800 7.01200 32.80200
H  38.82700 7.30300 26.33300
H  44.71300 9.71300 26.49200
H  42.66200 8.96200 34.64200
H  39.85500 8.64200 34.44500
H  42.11800 6.84100 35.00000
H  40.93900 6.00700 33.87000
H  40.49100 6.67200 35.48100
H  40.79700 11.22800 33.83500
H  42.34500 11.20300 34.57100
H  40.63700 9.98500 36.58300
H  39.79500 11.43500 35.91400
H  37.00400 6.03000 32.06100
H  36.66400 5.02800 30.60400
H  35.78800 6.59100 30.95900
H  34.37200 6.29500 27.56100
H  34.90500 6.93900 29.08800
H  35.26300 5.21000 28.62100
H  40.57400 8.53000 24.56900
H  43.50800 8.46700 24.94900
H  41.04800 5.94200 25.44400
H  42.51200 6.40900 24.56500
H  40.84300 6.50600 23.78100
H  42.39900 11.21400 25.31400
H  41.56700 10.54600 23.97800
H  43.39800 11.35000 22.72400
H  44.32200 10.00800 23.65300
H  44.21900 11.69400 24.18500
H  47.00900 10.58300 27.63500
H  47.33400 11.41800 29.19900
H  46.22200 12.08800 28.07700
H  44.00700 11.84500 33.13400
H  44.64400 9.96200 36.88400
H  45.91700 11.12600 36.82600
H  46.34600 9.56600 36.25100
Mg 55.41600 24.42800 45.35700
C  52.63900 26.38600 44.67400
C  53.62300 21.61400 44.50400
C  58.28500 22.66400 45.40500
C  57.10300 27.41300 46.24100
N  53.39100 24.03300 44.55400
C  52.42100 25.00100 44.41200
C  51.15600 24.35500 43.96100
C  51.32400 22.80400 44.25900
C  52.87100 22.77100 44.45200
C  50.73500 22.25500 45.64600
C  50.56900 24.64400 42.50400
C  49.00700 24.59900 42.29400
H  48.45500 24.12200 40.86800
N  55.97000 22.39800 44.92200
C  55.04600 21.37600 44.68200
C  55.75700 20.21700 44.33500
C  57.14600 20.43900 44.64600
C  57.22200 21.87100 45.01600
C  55.02100 19.06700 43.74400
C  58.17500 19.41300 44.69000
O  57.93100 18.23000 44.37400
C  59.58900 19.76000 45.11000
N  57.35800 24.89600 45.67700
C  58.38200 23.98400 45.73500
C  59.66900 24.65000 46.21800
C  59.31200 26.15700 46.24800
C  57.85700 26.20300 45.96000
C  60.27300 24.09700 47.51600
C  60.14200 27.11400 45.26200
C  61.38700 27.67200 45.82400
N  54.95600 26.48900 45.57500
C  55.71900 27.59000 45.92400
C  54.89400 28.81900 45.94000
C  53.67400 28.36600 45.41900
C  53.79600 26.98500 45.19500
C  55.37100 30.11600 46.52600
C  52.33700 28.82800 45.03700
O  51.74800 29.88200 45.16800
C  51.65100 27.54700 44.45800
C  51.45200 27.75800 43.01400
O  52.28600 27.70300 42.08400
O  50.12600 27.95000 42.78600
C  49.88500 28.92100 41.71000
H  53.04000 20.69900 44.38400
H  59.23000 22.13600 45.55400
H  57.56600 28.36500 46.50700
H  50.40400 24.78100 44.62600
H  50.86100 22.18000 43.49500
H  50.08400 23.04300 46.02700
H  51.47800 22.00300 46.40300
H  50.11600 21.37700 45.46400
H  50.88100 23.75100 41.96300
H  50.83700 25.52400 41.91900
H  48.73700 25.64700 42.42600
H  48.59100 23.98600 43.09400
H  54.47300 18.41400 44.42400
H  55.63000 18.38700 43.14900
H  54.27000 19.44300 43.04900
H  59.95600 20.39500 44.30300
H  60.24000 18.88600 45.07400
H  59.53000 20.16600 46.11900
H  60.30700 24.42800 45.36300
H  59.43300 26.49600 47.27700
H  59.91200 23.06900 47.48000
H  59.89000 24.62100 48.39200
H  61.35400 24.19200 47.41200
H  59.39500 27.84400 44.94900
H  60.47000 26.42800 44.48000
H  61.54400 27.32300 46.84500
H  61.35200 28.76100 45.78200
H  62.28300 27.33700 45.30200
H  56.28000 30.45000 46.02500
H  55.47700 29.91100 47.59100
H  54.57700 30.86300 46.52400
H  50.76000 27.29400 45.03300
H  50.59500 29.74200 41.80100
H  48.90600 29.39900 41.74900
H  49.95300 28.45700 40.72600

