158

Mg 24.02900 -5.07800 44.93000
C  25.60400 -2.33900 43.50600
C  21.14200 -4.16900 43.09100
C  22.76500 -8.19900 45.40300
C  27.27000 -6.27500 46.01900
N  23.51400 -3.43900 43.40500
C  24.29600 -2.39700 43.02700
C  23.56200 -1.40500 42.11600
C  22.12700 -1.74800 42.48400
C  22.22900 -3.25100 42.93700
C  21.50700 -0.87800 43.55500
C  23.98000 -1.57300 40.65300
C  24.35500 -0.28600 39.83400
H  25.22500 -0.57900 38.60100
N  22.16800 -6.00200 44.46800
C  21.09400 -5.50300 43.71500
C  20.00900 -6.48800 43.74200
C  20.47100 -7.67600 44.37400
C  21.80700 -7.30300 44.81800
C  18.70700 -6.12200 43.23100
C  19.68600 -8.90300 44.56000
O  18.47700 -8.95100 44.23500
C  20.29700 -10.15900 45.20000
N  24.90500 -6.96800 45.66900
C  24.13400 -8.04300 45.81500
C  24.96000 -9.16300 46.45100
C  26.42500 -8.55700 46.61100
C  26.22400 -7.20100 45.99900
C  24.23800 -9.75600 47.73200
C  27.58200 -9.30700 45.85600
C  28.84600 -9.57900 46.69100
N  26.07100 -4.47300 44.87900
C  27.23700 -4.95500 45.47900
C  28.25400 -4.06800 45.15600
C  27.71400 -3.04600 44.38000
C  26.36000 -3.32600 44.26500
C  29.67700 -4.27300 45.42300
C  27.98700 -1.73700 43.68600
O  29.06700 -1.24500 43.49400
C  26.59700 -1.26200 43.11600
C  26.33000 0.15000 43.62800
O  25.53600 0.45500 44.52900
O  27.19600 1.01800 43.02300
C  26.99800 2.40500 43.56000
H  20.21400 -3.80700 42.64400
H  22.52900 -9.23700 45.64400
H  28.29100 -6.65500 46.10000
H  23.69300 -0.38000 42.46400
H  21.53200 -1.55000 41.59200
H  22.05300 0.05300 43.70400
H  21.44100 -1.48900 44.45600
H  20.51200 -0.48600 43.34400
H  23.05700 -1.86200 40.15100
H  24.76400 -2.31700 40.51400
H  24.80400 0.41900 40.53400
H  23.47600 0.20600 39.41700
H  17.98300 -6.61900 43.87600
H  18.75600 -6.60800 42.25600
H  18.51400 -5.05200 43.30800
H  19.56700 -10.96500 45.13300
H  20.52600 -9.96800 46.24900
H  21.12500 -10.52500 44.59300
H  25.01300 -9.88400 45.63500
H  26.60400 -8.37200 47.67000
H  23.95400 -10.76900 47.44400
H  23.27500 -9.31700 47.99400
H  24.97100 -9.74700 48.53900
H  27.98000 -8.80100 44.97600
H  27.25200 -10.30700 45.57500
H  28.75900 -10.66500 46.71000
H  28.70100 -9.31600 47.73800
H  29.72900 -9.10400 46.26300
H  29.88300 -4.86900 46.31200
H  30.22400 -3.36700 45.68200
H  30.10800 -4.81300 44.58000
H  26.76500 -1.02100 42.06700
H  27.39800 3.10900 42.83000
H  27.57300 2.40800 44.48600
H  25.98300 2.70500 43.82000
Mg 42.36600 41.57000 26.37200
C  41.14800 43.95200 28.79000
C  43.64900 39.78800 28.90200
C  43.65900 39.67400 24.02500
C  41.64900 43.99700 23.82000
N  42.36300 41.85600 28.60200
C  41.82200 42.84200 29.37200
C  42.07200 42.58700 30.91100
C  43.03700 41.37000 30.87100
C  42.98200 40.90000 29.40200
C  44.46000 41.71500 31.31900
C  40.66200 42.34600 31.65400
C  40.39500 43.02700 32.98200
H  41.53400 43.29700 33.94700
N  43.36300 39.83800 26.48000
C  43.85400 39.30100 27.65000
C  44.53300 38.09300 27.32000
C  44.43500 37.89700 25.89700
C  43.80300 39.17200 25.39400
C  45.15600 37.27200 28.33800
C  44.85000 36.71500 24.95400
O  44.50800 36.74300 23.78300
C  45.68600 35.57400 25.54500
N  42.64900 41.81700 24.21800
C  43.09900 40.81400 23.49500
C  43.06400 41.09100 22.00300
C  42.24700 42.42200 21.93400
C  42.25500 42.79000 23.42300
C  44.44100 41.11300 21.24200
C  40.73500 42.25800 21.44800
C  39.76500 41.62000 22.45000
N  41.47500 43.55200 26.25700
C  41.35300 44.38900 25.15600
C  40.64100 45.52000 25.64000
C  40.51800 45.48300 27.05200
C  41.12000 44.25600 27.41800
C  40.15200 46.68800 24.78800
C  40.18800 46.22900 28.28400
O  39.76200 47.34900 28.45800
C  40.51400 45.16300 29.43300
C  41.56400 45.81100 30.45200
O  42.74200 45.78000 30.18900
O  40.96900 46.45100 31.52200
C  41.80700 46.87900 32.55600
H  44.02800 39.16800 29.71800
H  44.00700 38.91900 23.31600
H  41.41700 44.70900 23.02500
H  42.52300 43.50100 31.29800
H  42.66200 40.52600 31.44900
H  44.56600 42.76400 31.59400
H  45.21600 41.38000 30.60800
H  44.62000 41.11100 32.21200
H  40.48700 41.27900 31.79000
H  39.94700 42.79000 30.96200
H  39.63100 42.44200 33.49300
H  40.04300 44.03400 32.75900
H  44.51000 36.54900 28.83600
H  45.67100 37.86900 29.09200
H  45.98100 36.68600 27.93100
H  45.38700 35.20300 26.52500
H  46.67800 36.01100 25.42800
H  45.74200 34.73800 24.84800
H  42.46600 40.30000 21.55100
H  42.71200 43.27000 21.43000
H  45.30500 40.90100 21.87200
H  44.53000 42.00400 20.62200
H  44.34200 40.35800 20.46200
H  40.75400 41.59100 20.58600
H  40.42400 43.25700 21.14000
H  40.04100 41.66200 23.50300
H  39.60900 40.57600 22.17600
H  38.78400 42.04400 22.23300
H  39.31000 46.35700 24.18000
H  40.96000 47.06900 24.16400
H  39.97900 47.52800 25.46100
H  39.60900 44.98700 30.01500
H  41.62600 46.35500 33.49500
H  41.69900 47.92200 32.85600
H  42.85300 46.65000 32.35500

