158

Mg 25.09300 0.87000 29.97000
C  27.18200 0.60400 32.77700
C  22.43800 1.36600 32.20900
C  22.88900 0.52800 27.35500
C  27.66000 -0.33500 27.94800
N  24.85600 1.05100 32.19200
C  25.86200 0.89600 33.10300
C  25.40700 1.23500 34.55200
C  23.83800 1.36200 34.33100
C  23.68900 1.27900 32.80800
C  22.98100 0.28400 35.10600
C  26.10200 2.53400 35.09300
C  26.58300 2.33300 36.54000
H  26.02800 3.20100 37.67800
N  22.98100 0.94600 29.81800
C  22.10300 1.23300 30.87400
C  20.76500 1.31300 30.36800
C  20.90200 0.92400 28.97900
C  22.29100 0.75600 28.65700
C  19.55100 1.59800 31.13700
C  19.74500 0.70700 28.00800
O  19.94000 0.19800 26.90000
C  18.38100 0.94900 28.39300
N  25.24900 0.16900 27.98000
C  24.19200 0.23300 27.06400
C  24.71100 0.04400 25.60100
C  26.24200 0.00200 25.76400
C  26.43900 -0.01900 27.31800
C  24.05100 -1.20900 24.88300
C  27.03100 1.20500 25.13000
C  27.45600 2.46700 25.95800
N  27.08200 0.39500 30.18200
C  27.96300 -0.09200 29.33000
C  29.24800 -0.33200 30.01000
C  28.97800 -0.11600 31.33400
C  27.65300 0.28000 31.43600
C  30.58300 -0.71700 29.29900
C  29.52100 -0.19000 32.63600
O  30.61900 -0.49700 33.05100
C  28.46500 0.40100 33.60700
C  28.26500 -0.55200 34.72800
O  27.61600 -1.58700 34.73900
O  28.97600 -0.12400 35.78000
C  28.67000 -0.80400 37.02800
H  21.60800 1.63100 32.86700
H  22.23600 0.64300 26.48700
H  28.44100 -0.59200 27.22900
H  25.58900 0.42500 35.25900
H  23.42800 2.33800 34.59400
H  22.94400 -0.71000 34.66000
H  21.95200 0.64400 35.11500
H  23.30200 0.04500 36.12000
H  25.39600 3.34800 34.92300
H  27.02300 2.71200 34.53800
H  27.67200 2.29200 36.57600
H  26.27100 1.33100 36.83300
H  19.67100 1.81400 32.19900
H  19.06000 0.62500 31.16700
H  18.94000 2.39700 30.71800
H  17.73500 0.62600 27.57700
H  18.24500 1.98900 28.68800
H  18.15000 0.28100 29.22300
H  24.44800 0.89300 24.97000
H  26.65000 -0.93000 25.37400
H  23.09700 -1.07200 24.37400
H  23.81600 -1.94800 25.64900
H  24.79700 -1.59000 24.18600
H  26.42200 1.67700 24.35900
H  27.91100 0.84700 24.59700
H  28.53500 2.61000 26.02300
H  27.16300 2.30100 26.99500
H  26.87300 3.30400 25.57600
H  30.78300 -0.12900 28.40400
H  30.30500 -1.73600 29.03100
H  31.49300 -0.70300 29.90000
H  28.86900 1.33000 34.00900
H  27.63100 -0.55700 37.24500
H  29.35200 -0.44100 37.79700
H  28.78800 -1.88400 36.93500
Mg 49.70300 45.71800 42.85100
C  46.39800 46.34100 41.89100
C  49.54700 42.75800 41.12100
C  53.19200 45.66800 42.67700
C  49.81400 48.97400 44.04200
N  48.15200 44.68500 41.67400
C  46.83500 45.03500 41.48500
C  46.07200 43.93900 40.69900
C  47.02600 42.71200 40.64900
C  48.36600 43.44900 41.11000
C  46.51500 41.55400 41.57900
C  45.66100 44.52800 39.24500
C  44.30400 44.03500 38.77000
H  44.19600 43.07700 37.59900
N  51.13900 44.33300 42.16600
C  50.85000 43.20100 41.54300
C  52.08600 42.45000 41.37800
C  53.15600 43.18900 42.03800
C  52.49400 44.45700 42.37700
C  52.19200 41.14200 40.76900
C  54.56600 42.76600 42.18800
O  54.93000 41.71800 41.67800
C  55.55200 43.55000 42.89800
N  51.25400 47.10600 43.24000
C  52.61200 46.79500 43.20900
C  53.50300 48.06100 43.53300
C  52.38900 49.05200 44.20000
C  51.05400 48.34600 43.87100
C  54.76800 47.82400 44.42400
C  52.42500 50.55200 43.70200
C  52.10000 51.56200 44.83300
N  48.33700 47.33400 43.07200
C  48.53900 48.55000 43.66300
C  47.35900 49.33700 43.57500
C  46.42600 48.46300 42.91400
C  47.14000 47.22600 42.58800
C  47.20600 50.79800 44.04500
C  45.03700 48.38800 42.44900
O  44.06700 49.10800 42.56100
C  45.01600 47.02100 41.69500
C  43.97700 46.25600 42.42900
O  44.13000 45.90400 43.60900
O  42.87600 46.05000 41.67500
C  41.83200 45.28700 42.31400
H  49.62500 41.74800 40.71400
H  54.26100 45.53900 42.49900
H  49.88200 50.02100 44.34300
H  45.27200 43.65300 41.38300
H  47.02500 42.22900 39.67200
H  47.36900 40.92200 41.82300
H  45.79100 40.96300 41.01800
H  46.02200 41.92400 42.47800
H  46.38900 44.23100 38.48900
H  45.68200 45.61800 39.25600
H  43.66800 44.90000 38.58600
H  43.83200 43.49000 39.58800
H  52.48200 41.20600 39.72000
H  51.24300 40.61300 40.69200
H  52.83500 40.47700 41.34600
H  55.16300 43.78900 43.88800
H  55.88000 44.45200 42.38200
H  56.39500 42.88200 43.07300
H  53.82000 48.39000 42.54400
H  52.49800 48.93100 45.27800
H  54.76200 48.42500 45.33300
H  55.63300 48.15500 43.84900
H  54.93100 46.79000 44.73100
H  51.74300 50.78200 42.88300
H  53.42500 50.65400 43.28100
H  51.24000 52.13300 44.48300
H  53.02200 52.14000 44.76300
H  51.85700 51.11900 45.79900
H  47.93200 51.02200 44.82600
H  46.19000 50.99900 44.38500
H  47.42900 51.46600 43.21300
H  44.87300 47.17300 40.62500
H  41.14900 44.73300 41.67100
H  41.24700 46.08100 42.77800
H  42.25500 44.59300 43.04100

