158

Mg 24.70100 -7.14900 47.32400
C  27.34900 -5.26100 46.29500
C  22.95700 -6.18200 44.66000
C  22.67900 -9.84300 47.75900
C  27.05600 -8.89200 49.50600
N  25.20100 -5.96000 45.66500
C  26.28300 -5.17100 45.41100
C  26.09300 -4.30800 44.18200
C  24.67800 -4.66900 43.69400
C  24.20700 -5.60400 44.78100
C  23.71700 -3.51000 43.39700
C  27.23500 -4.41200 43.09800
C  27.87200 -3.11400 42.61100
H  27.81600 -2.71200 41.19800
N  22.89200 -7.71000 46.59300
C  22.32300 -7.16600 45.44700
C  21.03500 -7.80300 45.20000
C  20.88500 -8.75900 46.24200
C  22.15800 -8.83500 46.96600
C  20.08300 -7.22800 44.11800
C  19.65800 -9.57600 46.44300
O  18.69900 -9.46500 45.75000
C  19.60400 -10.51600 47.56200
N  24.81900 -9.09100 48.47000
C  23.81000 -9.92600 48.46500
C  24.03700 -11.12400 49.38300
C  25.34000 -10.70500 50.10900
C  25.83400 -9.60800 49.19400
C  22.92800 -11.48900 50.36200
C  26.39600 -11.80900 50.24900
C  26.72700 -12.26100 51.65900
N  26.71900 -7.01600 47.98600
C  27.55400 -7.69600 48.83600
C  28.82000 -7.07400 48.91200
C  28.77000 -6.02700 47.98900
C  27.47800 -6.05800 47.41200
C  30.08200 -7.50000 49.66900
C  29.54600 -4.94900 47.38100
O  30.69200 -4.54800 47.57800
C  28.54600 -4.38200 46.31500
C  28.25100 -2.98700 46.76200
O  28.12000 -2.51700 47.92600
O  28.16500 -2.21400 45.64000
C  27.86700 -0.80400 45.86700
H  22.28200 -5.87000 43.86000
H  22.03800 -10.72500 47.69800
H  27.72500 -9.36500 50.22700
H  26.10600 -3.27300 44.52500
H  24.69500 -5.28100 42.79200
H  23.22600 -3.61600 42.43000
H  24.24600 -2.56100 43.31100
H  22.94800 -3.53300 44.16900
H  26.81600 -4.83600 42.18500
H  27.86600 -5.20700 43.49400
H  28.93100 -3.09500 42.87200
H  27.30000 -2.29300 43.04300
H  19.14700 -7.78600 44.07600
H  20.57500 -7.21500 43.14600
H  19.75600 -6.21800 44.36600
H  20.03500 -9.95000 48.38800
H  20.10100 -11.47000 47.38600
H  18.57500 -10.61700 47.90400
H  24.20300 -11.92900 48.66700
H  24.96600 -10.25400 51.02800
H  22.45300 -10.53900 50.61000
H  23.24700 -12.08000 51.22100
H  22.21700 -12.06000 49.76500
H  27.28100 -11.48800 49.69900
H  25.93700 -12.70800 49.83600
H  26.07900 -11.78800 52.39700
H  27.78800 -12.02100 51.72700
H  26.62900 -13.34600 51.63700
H  30.04100 -8.23300 50.47500
H  30.38200 -6.65400 50.28700
H  30.89600 -7.66500 48.96400
H  29.04400 -4.29000 45.35000
H  28.41000 -0.44700 46.74100
H  26.80800 -0.62500 46.05700
H  28.20800 -0.21900 45.01200
Mg 47.19200 24.33300 28.61300
C  48.22400 26.68800 30.99600
C  46.27300 22.22800 31.08300
C  46.87600 21.96700 26.24200
C  48.71100 26.41300 26.06900
N  47.37500 24.40600 30.82400
C  47.64500 25.48600 31.60100
C  47.25200 25.24100 33.06200
C  46.83400 23.72400 33.08600
C  46.77600 23.48700 31.60900
C  47.74800 22.67800 33.91000
C  46.21300 26.26900 33.62600
C  46.47500 26.75300 35.09600
H  45.25300 26.79000 36.04200
N  46.42900 22.41200 28.61300
C  46.19700 21.73300 29.77700
C  45.70800 20.39200 29.39800
C  46.03600 20.23200 28.02600
C  46.47200 21.58100 27.52700
C  45.15400 19.43100 30.44000
C  46.03900 18.99300 27.11700
O  46.34800 18.99300 25.92900
C  45.44600 17.77800 27.66300
N  47.78900 24.20200 26.38200
C  47.37300 23.09900 25.69900
C  47.58000 23.37500 24.22200
C  47.91500 24.91800 24.15900
C  48.15200 25.22200 25.63700
C  48.42400 22.35000 23.47900
C  46.80000 25.73700 23.51600
C  45.51300 25.98700 24.25300
N  48.29000 26.16600 28.46800
C  48.78500 26.88800 27.43900
C  49.42300 28.04200 27.89400
C  49.19200 28.06400 29.29400
C  48.54800 26.83600 29.60300
C  49.89900 29.17900 27.06200
C  49.27300 28.79000 30.55400
O  49.73300 29.92400 30.70800
C  48.62200 27.90700 31.64200
C  49.73400 27.59700 32.62700
O  50.62200 26.77700 32.42300
O  49.59500 28.36400 33.76200
C  50.45400 27.97100 34.88900
H  45.82200 21.61000 31.86200
H  46.71400 21.26500 25.42100
H  48.91900 27.16000 25.30000
H  48.11400 25.41100 33.70700
H  45.85400 23.75900 33.56200
H  47.27400 22.07800 34.68800
H  48.60000 23.15400 34.39500
H  48.25600 22.00300 33.22200
H  45.30900 25.67400 33.75000
H  46.18800 27.19500 33.05100
H  46.89400 27.74800 34.94500
H  47.27100 26.21800 35.61400
H  45.94800 18.81500 30.86400
H  44.32100 18.78100 30.17200
H  44.62100 20.01400 31.19100
H  45.33400 16.96600 26.94400
H  44.44000 17.99800 28.02000
H  46.04100 17.30200 28.44200
H  46.57600 23.17900 23.84400
H  48.83700 25.04100 23.59000
H  47.91900 21.86400 22.64400
H  48.75200 21.50300 24.08200
H  49.37500 22.78600 23.17200
H  46.54400 25.21700 22.59300
H  47.15000 26.75600 23.35200
H  45.63200 26.92600 24.79400
H  45.25600 25.24500 25.00900
H  44.64600 26.14200 23.61100
H  50.35000 28.85900 26.12200
H  50.55800 29.70700 27.75000
H  48.95300 29.67600 26.85100
H  47.81500 28.44600 32.13800
H  50.54400 28.76300 35.63200
H  51.49300 27.71000 34.69200
H  50.07600 27.08300 35.39400

