158

Mg 39.82300 10.17100 30.42200
C  41.86800 11.34600 33.02600
C  37.77800 8.77000 32.80900
C  38.19100 8.65400 28.00700
C  42.34400 11.12500 28.16700
N  39.72900 10.16600 32.64500
C  40.65900 10.76100 33.45200
C  40.20400 10.60500 34.88800
C  39.02900 9.58100 34.86100
C  38.85200 9.49900 33.35100
C  39.32000 8.17000 35.54500
C  39.85200 11.95200 35.53300
C  40.49800 12.51700 36.76000
H  39.61700 12.64800 37.96800
N  38.14700 8.91100 30.40600
C  37.48600 8.48300 31.44400
C  36.36900 7.67200 30.96000
C  36.42400 7.57800 29.53900
C  37.60000 8.40300 29.25900
C  35.44700 7.05400 31.95300
C  35.52300 6.86000 28.55100
O  35.60000 6.96100 27.31200
C  34.38200 6.09800 29.07500
N  40.33500 9.79200 28.41400
C  39.40600 9.22100 27.59700
C  39.75800 9.26600 26.07700
C  41.21000 9.93800 26.17400
C  41.33900 10.34200 27.64500
C  39.73000 7.92600 25.26500
C  41.28100 11.10900 25.20000
C  41.12900 12.58600 25.76800
N  41.68300 11.10900 30.50000
C  42.52900 11.50900 29.51000
C  43.50300 12.33300 30.06300
C  43.29700 12.33900 31.44000
C  42.17500 11.50200 31.68700
C  44.69700 12.99800 29.46400
C  43.85600 12.76400 32.75100
O  44.84600 13.36600 32.95700
C  42.86800 12.12700 33.83400
C  43.59700 11.27500 34.88300
O  43.65200 10.06600 34.91300
O  44.07500 12.17000 35.81000
C  44.92000 11.63000 36.92300
H  37.20100 8.26200 33.58500
H  37.51900 8.24100 27.25100
H  43.04200 11.50400 27.41800
H  40.96500 10.21700 35.56500
H  38.11700 9.79500 35.41900
H  40.34400 7.93300 35.83400
H  38.88000 7.31800 35.02600
H  38.74700 8.31700 36.46000
H  38.81000 11.81700 35.82500
H  39.76400 12.76100 34.80900
H  40.86500 13.53000 36.59400
H  41.32300 11.86200 37.03800
H  34.52600 7.63700 31.93600
H  35.75800 6.85700 32.97900
H  35.17700 6.06200 31.59000
H  33.84300 5.77800 28.18400
H  33.83700 6.76900 29.73900
H  34.73300 5.23200 29.63700
H  39.06800 9.98100 25.62800
H  41.95100 9.15000 26.04000
H  39.75100 7.10300 25.98000
H  40.59800 7.75400 24.63000
H  38.85600 7.91600 24.61400
H  40.76100 10.97900 24.25100
H  42.30900 11.06800 24.83900
H  42.06900 13.12600 25.65300
H  40.66800 12.66200 26.75300
H  40.40000 13.12900 25.16700
H  44.84500 13.88800 30.07700
H  44.37000 13.29000 28.46600
H  45.65700 12.48200 29.46400
H  42.44800 12.98700 34.35700
H  44.30800 11.67100 37.82400
H  45.83900 12.19800 37.06900
H  45.17100 10.58600 36.73400
Mg -11.40000 37.44200 43.16700
C  -9.01900 34.82400 42.68200
C  -9.05100 39.63100 42.08200
C  -13.80200 39.68700 43.06200
C  -13.75000 34.88400 43.75800
N  -9.22000 37.15600 42.49200
C  -8.44800 36.07100 42.46200
C  -7.01200 36.40700 41.87300
C  -7.07600 37.98500 41.87700
C  -8.51200 38.32500 42.20000
C  -6.20500 38.63600 42.87600
C  -6.74100 35.83500 40.39500
C  -5.28800 35.35700 40.11500
H  -4.59900 36.08600 38.90200
N  -11.42400 39.38400 42.59500
C  -10.33900 40.14300 42.31200
C  -10.77500 41.47000 42.03300
C  -12.18600 41.53200 42.24400
C  -12.54700 40.16900 42.64800
C  -9.85000 42.56500 41.50000
C  -13.05700 42.75700 41.91500
O  -12.70600 43.84800 41.49700
C  -14.57100 42.68400 42.16500
N  -13.58200 37.32400 43.34200
C  -14.27800 38.41500 43.39700
C  -15.72900 38.21000 43.80000
C  -15.68900 36.61300 43.69900
C  -14.24100 36.18700 43.67200
C  -16.25700 38.84600 45.13400
C  -16.48900 36.04800 42.46700
C  -17.68200 35.13200 42.93100
N  -11.40700 35.34400 43.43100
C  -12.47100 34.47700 43.57400
C  -12.05300 33.08800 43.55000
C  -10.65500 33.23000 43.27800
C  -10.33300 34.59100 43.12000
C  -12.77500 31.80900 43.80100
C  -9.39900 32.44900 43.10500
O  -9.16000 31.27600 43.23000
C  -8.36600 33.48700 42.59200
C  -7.20300 33.44200 43.57700
O  -7.27800 33.76200 44.76800
O  -6.10800 32.90000 43.04300
C  -5.01800 32.62700 44.09300
H  -8.29700 40.36000 41.77800
H  -14.58900 40.37800 43.36900
H  -14.46800 34.06200 43.81000
H  -6.32800 36.07800 42.65500
H  -6.94200 38.43800 40.89500
H  -5.45500 37.96200 43.29100
H  -6.74900 39.05500 43.72300
H  -5.61200 39.43700 42.43500
H  -6.87200 36.72900 39.78600
H  -7.38200 34.97600 40.20200
H  -5.25000 34.27500 39.99300
H  -4.65200 35.46200 40.99400
H  -8.85000 42.24500 41.21000
H  -9.77600 43.30600 42.29500
H  -10.38000 43.07400 40.69400
H  -15.02800 43.62600 41.86400
H  -14.85400 42.63300 43.21600
H  -14.84100 41.73800 41.69400
H  -16.45300 38.56000 43.06500
H  -16.10600 36.37000 44.67600
H  -17.34400 38.92300 45.11300
H  -15.82700 39.80900 45.40900
H  -15.84000 38.24300 45.94100
H  -15.82500 35.48200 41.81500
H  -16.81300 36.82700 41.77600
H  -17.77100 34.12000 42.53700
H  -18.66700 35.53300 42.69400
H  -17.69500 34.98400 44.01100
H  -13.85700 31.82900 43.66800
H  -12.50900 31.29300 44.72300
H  -12.63600 31.10300 42.98100
H  -8.01400 33.18800 41.60400
H  -5.17900 31.65700 44.56500
H  -4.97600 33.41900 44.84000
H  -4.02100 32.52100 43.66600

