158

Mg -2.01000 17.17800 26.34500
C  -2.58400 14.71100 28.63600
C  -2.58900 19.71600 28.56500
C  -1.69200 19.48900 23.70100
C  -2.36000 14.65100 23.84300
N  -2.68900 17.20000 28.37500
C  -2.76300 16.01400 29.20600
C  -2.92100 16.48200 30.72100
C  -2.97400 18.07100 30.55300
C  -2.73300 18.36800 29.07300
C  -4.25700 18.75900 31.17300
C  -1.81000 15.89500 31.61200
C  -1.61500 16.69100 32.98100
H  -1.06100 15.92300 34.22200
N  -2.11600 19.30800 26.22000
C  -2.28500 20.13100 27.30100
C  -2.19000 21.51600 26.83300
C  -1.88300 21.47100 25.40200
C  -1.86700 20.02500 25.05600
C  -2.39200 22.81200 27.68100
C  -1.75000 22.60500 24.40300
O  -1.36500 22.43300 23.19600
C  -1.89100 24.08200 24.83100
N  -2.00700 17.06600 24.04500
C  -1.84500 18.15800 23.25700
C  -1.93300 17.75400 21.79500
C  -2.37900 16.24400 21.85000
C  -2.20600 15.95000 23.34000
C  -2.83900 18.78700 20.99700
C  -1.61600 15.27300 20.89700
C  -2.48200 14.42200 19.97600
N  -2.13100 15.09400 26.18400
C  -2.23700 14.17800 25.18600
C  -2.40200 12.86400 25.72400
C  -2.49800 13.01400 27.09800
C  -2.37800 14.35500 27.30300
C  -2.44500 11.63700 24.91400
C  -2.59700 12.25800 28.35600
O  -2.62500 11.06400 28.45500
C  -2.59300 13.34800 29.41000
C  -1.36500 13.07700 30.17900
O  -0.20900 13.40900 29.85100
O  -1.63700 12.32900 31.29500
C  -0.64300 12.14600 32.36300
H  -2.76300 20.56900 29.22400
H  -1.56200 20.15300 22.84400
H  -2.69400 14.01900 23.01800
H  -3.86700 16.04500 31.04000
H  -2.05600 18.48000 30.97300
H  -3.76600 19.53100 31.76600
H  -4.67100 18.08100 31.91900
H  -5.02300 18.99200 30.43400
H  -0.86100 15.86900 31.07700
H  -2.08800 14.86800 31.85000
H  -2.58100 17.07200 33.31100
H  -1.00200 17.57900 32.82800
H  -1.45500 23.36700 27.71900
H  -2.74700 22.71100 28.70700
H  -3.05600 23.40700 27.05400
H  -2.87300 24.28400 25.25800
H  -1.77600 24.74900 23.97700
H  -1.13100 24.34400 25.56800
H  -0.92700 17.69600 21.37900
H  -3.42200 16.19900 21.53600
H  -3.29900 19.56300 21.60900
H  -3.50700 18.29400 20.29200
H  -2.05500 19.28400 20.42500
H  -0.86600 14.63500 21.36600
H  -1.08000 15.99300 20.27800
H  -2.77400 15.05500 19.13800
H  -3.36600 14.01700 20.46700
H  -1.95500 13.59300 19.50300
H  -3.25100 11.83700 24.20800
H  -2.66700 10.81300 25.59200
H  -1.47100 11.43300 24.47000
H  -3.37900 13.26800 30.16000
H  0.14500 12.89800 32.34300
H  -0.18200 11.16700 32.49600
H  -1.27100 12.33700 33.23300
Mg 54.41300 24.69100 45.30900
C  51.92000 26.64600 43.84000
C  53.43500 22.07100 43.58900
C  57.34500 23.06900 46.32300
C  55.86900 27.66500 46.59100
N  52.92600 24.44000 43.93200
C  52.02700 25.34100 43.33300
C  51.03100 24.65800 42.34900
C  51.47700 23.18300 42.37400
C  52.68400 23.23200 43.30800
C  50.39100 22.19300 42.81900
C  50.92800 25.31500 40.92700
C  50.76000 24.46600 39.62700
H  51.83700 24.83000 38.60200
N  55.25500 22.80500 45.00000
C  54.64200 21.87800 44.30700
C  55.37100 20.65400 44.50200
C  56.53400 20.86200 45.22900
C  56.43300 22.31400 45.56000
C  54.83300 19.40800 43.97400
C  57.63300 19.88900 45.46500
O  57.64600 18.79900 44.93400
C  58.80600 20.11200 46.50300
N  56.43600 25.31700 46.14300
C  57.39300 24.42900 46.54400
C  58.48300 25.20400 47.39500
C  58.09200 26.67100 47.01300
C  56.64500 26.50000 46.64200
C  58.58100 24.79700 48.84600
C  58.95600 27.50800 45.96100
C  59.51500 28.85100 46.43300
N  54.01100 26.72100 45.31100
C  54.60300 27.80300 45.96300
C  53.74900 28.94500 45.97400
C  52.68500 28.48500 45.19800
C  52.90400 27.19100 44.73600
C  53.93800 30.10900 46.84900
C  51.41700 28.88000 44.68500
O  50.80100 29.90200 44.79900
C  50.89600 27.71600 43.80400
C  50.56700 28.30400 42.49700
O  51.30900 28.57000 41.54100
O  49.15900 28.36400 42.45800
C  48.55500 28.67200 41.14800
H  53.13900 21.17100 43.04600
H  58.21000 22.58700 46.78200
H  56.24600 28.62400 46.95200
H  50.00600 24.70900 42.71800
H  51.99600 22.78200 41.50400
H  50.34800 21.76600 43.82100
H  50.71300 21.32700 42.24100
H  49.45300 22.66400 42.52300
H  51.76000 26.00700 40.79800
H  50.07800 25.99700 40.92700
H  49.73100 24.57700 39.28700
H  50.83800 23.41600 39.91000
H  53.81600 19.20800 44.31100
H  55.31300 18.46900 44.25400
H  54.70800 19.56900 42.90400
H  59.09900 19.13700 46.89200
H  58.32700 20.56700 47.37000
H  59.67800 20.62600 46.09700
H  59.42800 24.91500 46.93300
H  58.13300 27.14400 47.99400
H  58.89700 25.66600 49.42300
H  59.36900 24.07100 49.04900
H  57.62900 24.46900 49.26500
H  58.32900 27.75300 45.10400
H  59.79200 26.88300 45.64800
H  59.17700 29.71300 45.85800
H  60.60300 28.79300 46.45300
H  59.18700 29.03400 47.45700
H  53.03300 30.26800 47.43400
H  54.07800 30.89800 46.11100
H  54.77500 29.98700 47.53700
H  49.93500 27.29500 44.10000
H  48.51900 29.75500 41.02900
H  47.52300 28.32500 41.09600
H  49.02600 28.10200 40.34800

