158

Mg 25.37700 0.99700 29.92300
C  27.56200 0.70400 32.53400
C  22.85700 1.73900 32.06500
C  23.29100 1.03200 27.36600
C  27.99700 0.17900 27.66800
N  25.16800 1.02500 32.14600
C  26.27100 1.12700 32.95500
C  25.81000 1.62400 34.31000
C  24.19400 1.70500 34.26500
C  24.00600 1.50800 32.75200
C  23.32100 0.84300 35.16400
C  26.49900 2.86800 34.75600
C  27.24600 2.70700 36.09600
H  26.90700 3.78900 37.15500
N  23.28600 1.26700 29.69900
C  22.46200 1.56800 30.72700
C  21.09700 1.69000 30.25100
C  21.17900 1.50000 28.79500
C  22.65700 1.29300 28.54300
C  19.93600 1.89200 31.12600
C  20.06500 1.54000 27.77300
O  20.21400 1.29600 26.59900
C  18.67400 1.79600 28.21900
N  25.60200 0.87300 27.82300
C  24.55300 0.89500 26.98100
C  25.10300 0.89300 25.54000
C  26.62800 0.58600 25.63700
C  26.76100 0.58800 27.13000
C  24.37400 -0.09100 24.60000
C  27.56300 1.66600 24.90800
C  28.37000 1.16300 23.73100
N  27.34900 0.46600 30.04400
C  28.33500 0.17100 29.07100
C  29.55500 -0.11800 29.78100
C  29.30500 0.14300 31.18400
C  27.97800 0.44200 31.22100
C  30.84100 -0.41400 29.09100
C  29.95900 0.24700 32.44700
O  31.11800 0.11200 32.73400
C  28.79000 0.58300 33.46200
C  28.67800 -0.55300 34.41000
O  27.77300 -1.41200 34.45700
O  29.60700 -0.35800 35.43800
C  29.54100 -1.14700 36.68300
H  22.20600 2.13400 32.84700
H  22.58700 1.05300 26.53100
H  28.74800 -0.14200 26.94300
H  26.07000 0.81700 34.99600
H  23.80300 2.70400 34.45900
H  22.70000 1.39700 35.86700
H  23.96100 0.12800 35.68200
H  22.63300 0.38200 34.45600
H  25.75200 3.66200 34.73100
H  27.31200 3.10100 34.06800
H  28.30300 2.93200 35.95200
H  27.15000 1.67300 36.42600
H  19.41200 2.77800 30.76800
H  20.29100 2.01900 32.14900
H  19.31000 1.00000 31.13000
H  17.96800 1.70800 27.39400
H  18.76400 2.77900 28.68200
H  18.37600 1.12600 29.02500
H  24.90100 1.88500 25.13800
H  26.90900 -0.36700 25.18700
H  23.72500 -0.76600 25.15900
H  25.03500 -0.74300 24.02900
H  23.75200 0.46100 23.89500
H  28.23800 2.06700 25.66400
H  26.94900 2.38000 24.35900
H  27.80900 1.34500 22.81500
H  28.62300 0.13100 23.97200
H  29.31100 1.71300 23.69500
H  31.67200 0.18100 29.47000
H  30.75400 -0.14200 28.03900
H  31.01000 -1.49000 29.07900
H  29.02500 1.48800 34.02200
H  30.49800 -1.01700 37.18800
H  29.39800 -2.20600 36.46700
H  28.70200 -0.83400 37.30500
Mg -5.06000 24.68200 25.97000
C  -3.59800 25.76200 28.93400
C  -6.89000 22.51800 27.75800
C  -6.13100 23.23900 23.04800
C  -2.63500 26.40600 24.16900
N  -5.18400 24.26800 28.05400
C  -4.58900 24.83500 29.10100
C  -5.07900 24.34200 30.46600
C  -5.90000 23.08900 30.05800
C  -6.04500 23.28300 28.52900
C  -5.25900 21.71200 30.29600
C  -5.98300 25.43900 31.18500
C  -5.61700 25.83500 32.63400
H  -4.98500 24.74300 33.55500
N  -6.52000 23.22600 25.47700
C  -7.21400 22.52200 26.35700
C  -8.21400 21.71100 25.65300
C  -7.93200 21.82200 24.26000
C  -6.84500 22.82000 24.20200
C  -9.23000 20.94400 26.35400
C  -8.61700 21.10300 23.07900
O  -8.20800 21.20700 21.92100
C  -9.92400 20.24400 23.27700
N  -4.50900 24.90000 23.90900
C  -5.08000 24.10400 22.92300
C  -4.29600 24.29300 21.59100
C  -3.33000 25.45500 21.91300
C  -3.44300 25.61600 23.43200
C  -3.68100 23.02000 21.04100
C  -3.55200 26.80300 21.09100
C  -2.41700 27.19800 20.02500
N  -3.51000 25.98900 26.43000
C  -2.63300 26.61800 25.55100
C  -1.81100 27.51700 26.41600
C  -2.12400 27.17400 27.72300
C  -3.18600 26.27300 27.66900
C  -0.71500 28.40100 26.02800
C  -1.87500 27.51700 29.16400
O  -1.11500 28.31500 29.67200
C  -2.78100 26.59200 29.94400
C  -1.97700 25.80400 30.99300
O  -1.50000 24.68600 30.85000
O  -1.90400 26.60500 32.16100
C  -1.01100 26.05900 33.17300
H  -7.56800 21.83200 28.27000
H  -6.53000 22.73300 22.16700
H  -1.83300 26.86300 23.58500
H  -4.13300 24.06600 30.93200
H  -6.89800 23.11200 30.49600
H  -6.06500 21.16800 30.79000
H  -4.41300 21.80700 30.97700
H  -4.82700 21.22400 29.42300
H  -7.02200 25.11300 31.13000
H  -5.82000 26.32600 30.57300
H  -6.56300 26.21200 33.02200
H  -4.96900 26.71200 32.64000
H  -10.15800 21.21700 25.85200
H  -9.32600 21.28000 27.38700
H  -9.02600 19.87900 26.45900
H  -10.58100 20.94400 23.79400
H  -9.73900 19.31900 23.82200
H  -10.34600 19.98800 22.30500
H  -5.02600 24.60200 20.84200
H  -2.27600 25.19200 21.82500
H  -2.60700 23.15300 20.91200
H  -4.13600 22.77800 20.08100
H  -3.73300 22.17800 21.73200
H  -3.51300 27.64500 21.78300
H  -4.50100 26.76600 20.55600
H  -2.00400 28.18400 20.23800
H  -2.77300 27.18400 18.99400
H  -1.54900 26.53900 20.00900
H  -1.14000 29.29400 25.56900
H  -0.18800 27.89100 25.22100
H  -0.02400 28.68600 26.82100
H  -3.40200 27.25000 30.55100
H  -0.06800 25.64900 32.81000
H  -1.54600 25.15100 33.45300
H  -0.82000 26.79500 33.95400

