158

Mg 41.51300 8.67900 30.19600
C  43.71900 10.27000 32.49800
C  39.68600 7.47000 32.90400
C  39.80300 6.61700 28.07200
C  43.89400 9.20700 27.78800
N  41.59400 9.05300 32.50200
C  42.49000 9.83500 33.16800
C  42.24700 9.72400 34.66200
C  41.07900 8.61700 34.78000
C  40.77200 8.31000 33.32600
C  41.59300 7.43800 35.67500
C  41.87100 11.12700 35.28400
C  42.47100 11.37100 36.67800
H  41.34800 11.31300 37.83700
N  39.90800 7.35700 30.40700
C  39.26000 7.02700 31.60100
C  38.14500 6.16800 31.34500
C  38.18400 5.94800 29.86900
C  39.33300 6.67800 29.39300
C  37.22700 5.68000 32.39900
C  37.30000 5.04400 28.99500
O  37.44900 4.89500 27.77400
C  36.22200 4.31800 29.70300
N  41.78900 7.93600 28.26100
C  40.94000 7.22200 27.50900
C  41.40800 7.12300 26.05900
C  42.78600 7.77700 26.04600
C  42.80200 8.45400 27.40400
C  41.39600 5.67600 25.55700
C  42.94400 8.81200 24.89500
C  42.43600 10.25400 25.14600
N  43.29100 9.80300 30.05500
C  44.17700 9.89200 28.99500
C  45.34700 10.58700 29.38700
C  45.25300 10.73000 30.80800
C  43.97100 10.20000 31.16500
C  46.49900 10.95800 28.51000
C  45.91700 11.20700 31.99700
O  47.04600 11.63600 32.06200
C  44.96100 10.90200 33.20000
C  45.54400 9.82600 33.97700
O  45.82500 8.71400 33.62700
O  45.67400 10.30000 35.30000
C  45.90100 9.18400 36.17000
H  38.98800 7.10200 33.65900
H  39.13600 6.16000 27.33800
H  44.68000 9.24000 27.03100
H  43.14800 9.24000 35.04000
H  40.16900 9.09700 35.13800
H  42.26500 7.88100 36.41000
H  42.08400 6.70200 35.03800
H  40.87300 7.02400 36.38000
H  40.79600 11.25000 35.41500
H  42.26700 11.94900 34.68800
H  42.93400 12.35600 36.60700
H  43.16500 10.56400 36.91100
H  36.19000 5.91900 32.16200
H  37.45100 6.08500 33.38600
H  37.40500 4.60900 32.48500
H  35.54100 5.03700 30.15800
H  36.82900 3.83500 30.47000
H  35.77100 3.57000 29.05100
H  40.72700 7.73000 25.46300
H  43.60700 7.06700 25.94400
H  41.04300 5.00800 26.34300
H  42.33000 5.35300 25.09700
H  40.74800 5.66800 24.68100
H  42.53800 8.50700 23.93000
H  44.01200 8.88300 24.68800
H  43.27900 10.91100 25.35800
H  41.75900 10.26300 26.00000
H  41.74600 10.57700 24.36800
H  47.10500 11.62300 29.12600
H  46.03000 11.42900 27.64600
H  47.01300 9.99900 28.45300
H  44.78400 11.84800 33.71000
H  46.86700 8.70100 36.01700
H  45.14200 8.42300 35.98900
H  45.72000 9.32200 37.23600
Mg 55.28300 25.00300 44.03000
C  52.33500 26.73900 43.12800
C  53.97900 22.12600 42.79500
C  58.33600 23.51300 44.47200
C  56.71000 28.06800 45.27100
N  53.47400 24.59300 42.81100
C  52.42400 25.40800 42.62400
C  51.38900 24.70900 41.70400
C  51.66900 23.24500 42.14300
C  53.20800 23.27200 42.49600
C  50.77200 22.84700 43.37100
C  51.75400 24.90700 40.16400
C  50.54000 25.16900 39.24700
H  50.87600 25.90500 37.93400
N  56.01100 23.06200 43.79700
C  55.28200 22.04200 43.38300
C  56.00300 20.76800 43.50200
C  57.29600 21.13200 44.00300
C  57.28900 22.62800 44.09300
C  55.46400 19.44100 43.12900
C  58.43100 20.13400 44.30900
O  58.35000 18.94300 44.08500
C  59.75100 20.54700 44.98300
N  57.29100 25.71900 44.68300
C  58.38600 24.91000 44.70000
C  59.68500 25.71900 45.00900
C  59.09200 27.13000 45.33200
C  57.58300 26.98100 45.13600
C  60.55200 25.10500 46.11800
C  59.80200 28.31800 44.57500
C  60.03600 29.52900 45.56300
N  54.71000 27.06700 44.18100
C  55.34100 28.18600 44.75600
C  54.34200 29.25700 44.89700
C  53.18400 28.73900 44.22200
C  53.43200 27.41200 43.79400
C  54.71700 30.54700 45.57700
C  51.82900 29.09300 43.84600
O  51.12400 30.11100 43.95700
C  51.26300 27.76900 43.10000
C  50.81500 28.17900 41.72200
O  51.51000 28.27500 40.70600
O  49.46300 28.35400 41.79700
C  48.91400 28.71200 40.49400
H  53.60000 21.14800 42.49100
H  59.34200 23.09600 44.54900
H  57.12500 28.87000 45.88500
H  50.37800 25.07100 41.89200
H  51.46500 22.52700 41.34900
H  51.42500 22.80800 44.24300
H  50.42300 21.84100 43.14000
H  49.91000 23.48600 43.56300
H  52.21900 23.96300 39.87900
H  52.50900 25.68000 40.02000
H  49.78100 25.70500 39.81800
H  50.31500 24.18000 38.84700
H  55.42300 19.41200 42.04000
H  54.45600 19.57300 43.52200
H  55.93800 18.59400 43.62500
H  59.52400 21.09600 45.89700
H  60.24100 21.23300 44.29100
H  60.42100 19.71600 45.19900
H  60.39900 25.74100 44.18600
H  59.11800 27.37000 46.39500
H  60.01600 24.28600 46.59600
H  60.80900 25.84700 46.87400
H  61.48300 24.76000 45.66800
H  59.18300 28.52200 43.70200
H  60.78300 28.07100 44.16900
H  60.33800 30.45200 45.06800
H  60.85800 29.16900 46.18100
H  59.14300 29.69000 46.16700
H  55.61800 30.50700 46.19000
H  53.85600 30.80100 46.19500
H  54.94800 31.34300 44.87000
H  50.43200 27.31700 43.64100
H  48.20200 27.92100 40.25900
H  49.58500 28.74000 39.63600
H  48.46100 29.70200 40.55900

