158

Mg 16.99100 52.63600 26.43000
C  18.86000 51.05700 28.90000
C  14.63800 53.33500 28.87900
C  14.94900 53.89600 24.11600
C  19.15400 51.42500 24.00800
N  16.85900 52.38300 28.66800
C  17.72900 51.72400 29.46100
C  17.50100 52.06800 30.93000
C  16.00200 52.48900 30.90200
C  15.77900 52.81200 29.35700
C  15.04800 51.30500 31.37100
C  18.45800 53.11800 31.60600
C  19.01700 52.78700 33.04400
H  17.87400 52.33200 33.93400
N  15.08100 53.49700 26.49200
C  14.26600 53.71800 27.54400
C  13.05400 54.34800 27.14800
C  13.18900 54.64800 25.77500
C  14.48800 54.05400 25.39600
C  11.96200 54.74000 28.13900
C  12.22900 55.36700 24.84900
O  12.45000 55.56800 23.64800
C  10.92500 55.91700 25.36600
N  16.97300 52.47800 24.33100
C  16.13000 53.23300 23.63600
C  16.67500 53.42600 22.14500
C  17.96900 52.69300 22.18800
C  18.07500 52.16600 23.63400
C  15.77600 52.83900 21.01100
C  19.23700 53.54500 21.68600
C  20.22500 54.00100 22.83200
N  18.64600 51.38200 26.36700
C  19.43400 50.94900 25.32400
C  20.49700 50.13500 25.81400
C  20.31900 50.11700 27.22700
C  19.16000 50.89100 27.54100
C  21.57400 49.36800 24.94100
C  20.88200 49.70200 28.47000
O  21.82400 48.97800 28.70600
C  19.96600 50.34200 29.63300
C  19.44900 49.21700 30.45200
O  18.59300 48.42200 30.08200
O  20.18800 49.16700 31.63700
C  19.72200 48.08600 32.47900
H  13.98200 53.54600 29.72700
H  14.40100 54.35600 23.29100
H  19.99000 51.21000 23.33900
H  17.61300 51.15100 31.50900
H  15.79000 53.39900 31.46400
H  15.58500 50.39600 31.64400
H  14.39300 50.95700 30.57200
H  14.50300 51.61700 32.26100
H  17.89900 54.05300 31.61500
H  19.25700 53.25700 30.87700
H  19.53000 53.69400 33.36400
H  19.79200 52.03400 32.90100
H  10.96300 54.53400 27.75600
H  11.98900 55.82500 28.23600
H  12.12600 54.19900 29.07100
H  10.52700 56.51900 24.54900
H  11.13400 56.51200 26.25500
H  10.35200 55.02500 25.61700
H  16.83400 54.50400 22.12400
H  17.89800 51.80100 21.56600
H  14.77000 53.25700 21.02600
H  15.57800 51.81600 21.32900
H  16.18100 52.94800 20.00400
H  18.86800 54.41100 21.13700
H  19.65100 52.79600 21.01100
H  19.68200 54.05000 23.77600
H  20.58400 55.01900 22.68400
H  21.13000 53.39400 22.82900
H  21.03200 48.96000 24.08800
H  22.02400 48.46000 25.34300
H  22.34600 50.09600 24.69200
H  20.55000 51.03200 30.24200
H  18.63700 48.01000 32.55100
H  20.08800 48.22100 33.49600
H  20.08500 47.10900 32.16000
Mg -0.67200 33.91000 27.22500
C  -2.56900 32.17600 29.68700
C  0.78400 35.69300 29.67700
C  0.78500 35.64100 24.76300
C  -2.69400 32.19800 24.77000
N  -1.03600 34.03900 29.36400
C  -1.68800 33.17200 30.18500
C  -1.44500 33.37700 31.64300
C  -0.39600 34.57800 31.64500
C  -0.21600 34.82600 30.10000
C  -0.81500 35.90600 32.34500
C  -0.92800 32.14300 32.39000
C  -1.97400 31.53000 33.42100
H  -1.28200 31.13900 34.73600
N  0.55500 35.46600 27.15900
C  1.07700 36.10600 28.28700
C  1.98400 37.20000 27.93500
C  1.86900 37.23800 26.50400
C  1.06300 36.02600 26.11100
C  2.72800 38.00800 29.02900
C  2.45900 38.23800 25.55100
O  2.35500 38.27900 24.29300
C  3.30400 39.27800 26.17300
N  -0.91300 33.87100 25.02500
C  -0.07300 34.64500 24.26900
C  -0.15300 34.23600 22.77900
C  -1.45700 33.27400 22.75200
C  -1.74700 33.06900 24.28500
C  -0.18900 35.45500 21.75800
C  -1.17300 31.90600 21.97900
C  -0.14600 30.92200 22.53500
N  -2.26900 32.48200 27.18100
C  -2.98900 31.85300 26.11700
C  -3.84600 30.90400 26.69000
C  -3.79600 31.06100 28.10000
C  -2.75900 31.96800 28.32900
C  -4.75800 30.03200 25.95400
C  -4.33700 30.54000 29.33300
O  -5.28200 29.77000 29.45600
C  -3.57600 31.26800 30.43400
C  -4.50000 31.99500 31.36600
O  -5.12500 33.02000 31.10600
O  -4.87900 31.09300 32.29200
C  -5.77900 31.60000 33.32100
H  1.35200 36.08400 30.52400
H  1.28800 36.26600 24.02200
H  -3.13500 31.65800 23.93000
H  -2.39700 33.68300 32.07600
H  0.53000 34.27600 32.13600
H  -1.77200 35.80800 32.85800
H  -0.89200 36.71500 31.61800
H  0.04600 36.13700 32.97200
H  0.02200 32.41100 32.85200
H  -0.75000 31.33900 31.67600
H  -2.46600 30.63400 33.04200
H  -2.78400 32.22700 33.63500
H  2.99200 37.37300 29.87400
H  2.11400 38.85900 29.32500
H  3.67700 38.39200 28.65500
H  2.83900 39.86900 26.96200
H  3.61000 39.93000 25.35400
H  4.19700 38.80600 26.58400
H  0.62000 33.58200 22.37600
H  -2.32400 33.80100 22.35200
H  0.78800 35.47400 21.27500
H  -0.52800 36.37400 22.23500
H  -0.97000 35.21700 21.03500
H  -0.68900 32.22300 21.05500
H  -2.09700 31.34900 21.82300
H  0.11800 31.23200 23.54600
H  0.78400 31.01200 21.97300
H  -0.68400 29.97400 22.50200
H  -4.67600 29.01600 26.33900
H  -4.61500 30.07300 24.87400
H  -5.77100 30.38600 26.14500
H  -3.06500 30.44600 30.93600
H  -6.67100 31.81200 32.73100
H  -5.24700 32.45600 33.73600
H  -5.96900 30.88800 34.12400

