158

Mg 16.59200 -2.42800 28.86700
C  15.50000 -0.41500 31.50400
C  18.37500 -4.24500 31.01900
C  17.59500 -4.20000 26.25300
C  14.95100 -0.20200 26.64700
N  17.01600 -2.20900 31.01500
C  16.40900 -1.36800 31.95600
C  16.93500 -1.59400 33.39900
C  17.89000 -2.82500 33.09800
C  17.71800 -3.16700 31.60300
C  19.35900 -2.57900 33.63800
C  15.84600 -1.84300 34.47800
C  15.94300 -0.89700 35.70400
H  17.32800 -0.37100 36.13200
N  17.82600 -4.11200 28.63500
C  18.49000 -4.67400 29.66000
C  19.11800 -5.90300 29.19300
C  19.01800 -5.87900 27.73600
C  18.15100 -4.69900 27.46100
C  19.87800 -6.86300 30.07300
C  19.61500 -6.78800 26.71600
O  19.29500 -6.65900 25.55100
C  20.51200 -7.87600 27.03600
N  16.31400 -2.23700 26.76300
C  16.76300 -3.10000 25.89300
C  16.36700 -2.70300 24.40200
C  15.29600 -1.63100 24.65900
C  15.50200 -1.33900 26.08500
C  17.49400 -2.36400 23.48800
C  13.84600 -2.10100 24.37100
C  13.60400 -2.42900 22.89900
N  15.48500 -0.65600 28.96200
C  14.93900 0.20800 27.98600
C  14.11400 1.32400 28.61100
C  14.25800 1.05200 29.97200
C  15.15500 -0.11500 30.13300
C  13.19400 2.30400 28.02400
C  13.85900 1.48000 31.31600
O  13.00300 2.28600 31.69100
C  14.84100 0.64600 32.34400
C  15.69700 1.58900 33.02300
O  16.94800 1.65500 32.88600
O  15.01200 2.33500 33.93900
C  15.85400 3.27600 34.68700
H  18.94300 -4.87800 31.70400
H  18.08000 -4.65400 25.38600
H  14.43800 0.36300 25.86700
H  17.57100 -0.73600 33.61400
H  17.73000 -3.70500 33.72200
H  20.09900 -2.88800 32.90000
H  19.47900 -3.26800 34.47300
H  19.58700 -1.57500 33.99700
H  15.78000 -2.85800 34.87000
H  14.92200 -1.74400 33.90700
H  15.49500 -1.47100 36.51500
H  15.35100 0.01100 35.59000
H  19.34200 -6.82100 31.02100
H  20.86900 -6.43100 30.21400
H  19.99500 -7.93300 29.90500
H  21.29400 -7.40800 27.63400
H  20.91000 -8.26900 26.10100
H  20.05300 -8.66600 27.63000
H  15.79000 -3.47500 23.89200
H  15.46600 -0.66700 24.18000
H  18.36600 -2.31300 24.14100
H  17.34000 -1.40700 22.99100
H  17.64900 -3.12800 22.72700
H  13.13400 -1.31700 24.62900
H  13.44700 -2.92200 24.96700
H  12.77300 -1.87000 22.47000
H  13.30600 -3.47200 22.79300
H  14.47400 -2.27900 22.26000
H  12.21900 1.81900 27.96600
H  13.39800 2.66000 27.01500
H  13.30200 3.17100 28.67600
H  14.23500 0.16700 33.11200
H  15.83400 4.21400 34.13300
H  16.88300 3.01200 34.93000
H  15.33000 3.37600 35.63700
Mg 47.08800 15.56500 28.13300
C  44.98600 15.67200 30.94800
C  49.39000 17.44700 29.79400
C  48.64600 16.16300 25.23400
C  44.39100 14.26900 26.31000
N  47.07900 16.51300 30.08200
C  46.22200 16.30400 31.16100
C  46.78400 16.84600 32.49000
C  48.06300 17.67600 32.01700
C  48.25700 17.08700 30.53700
C  47.89400 19.18800 32.02000
C  46.93200 15.70300 33.49100
C  46.21500 16.13700 34.83000
H  46.09300 17.59100 35.31600
N  48.85400 16.61400 27.56700
C  49.71500 17.24600 28.43200
C  50.87700 17.67800 27.63400
C  50.67000 17.31200 26.28400
C  49.32600 16.70100 26.30800
C  51.98300 18.40400 28.33500
C  51.57500 17.43300 25.04800
O  51.26500 17.01100 23.95300
C  52.92800 18.05500 25.26600
N  46.61300 15.21500 26.10200
C  47.42700 15.51100 25.09100
C  46.87200 15.08300 23.71700
C  45.59300 14.34100 24.09100
C  45.58100 14.48900 25.59800
C  46.68700 16.23800 22.78600
C  45.51300 12.87100 23.65000
C  44.45500 12.54400 22.58000
N  45.12800 14.96400 28.54200
C  44.14400 14.53600 27.65600
C  42.93800 14.25000 28.34400
C  43.15400 14.75000 29.64500
C  44.53900 15.12300 29.71100
C  41.66200 13.75600 27.77300
C  42.60200 14.88700 30.98600
O  41.49100 14.61500 31.45500
C  43.77300 15.40500 31.90000
C  43.19100 16.63600 32.45400
O  43.32200 17.73500 31.95100
O  42.49300 16.49600 33.67200
C  41.93600 17.68900 34.24900
H  50.14800 17.92500 30.41700
H  49.00300 16.07700 24.20500
H  43.56700 13.87700 25.71000
H  46.07000 17.56900 32.88400
H  48.92900 17.47700 32.64800
H  48.37500 19.63100 32.89300
H  46.85300 19.47700 32.16100
H  48.23500 19.63000 31.08400
H  47.97600 15.53600 33.75600
H  46.51400 14.81200 33.02300
H  46.62300 15.49500 35.61100
H  45.17000 15.86300 34.68200
H  52.87200 17.87300 27.99500
H  51.90300 18.29800 29.41700
H  52.15600 19.45500 28.10300
H  52.73300 19.06500 25.62800
H  53.45600 18.13600 24.31600
H  53.52900 17.49000 25.97800
H  47.50600 14.38900 23.16600
H  44.75200 14.91900 23.70800
H  45.71600 16.28200 22.29500
H  47.45800 16.19500 22.01700
H  46.77100 17.18700 23.31600
H  45.38200 12.21300 24.50900
H  46.47100 12.63100 23.18900
H  43.99400 11.62200 22.93500
H  44.95400 12.55400 21.61100
H  43.66700 13.29100 22.47600
H  41.69800 12.75700 27.33900
H  41.40600 14.45400 26.97600
H  40.83700 13.75900 28.48600
H  44.04300 14.79600 32.76300
H  41.31200 18.11900 33.46600
H  42.67700 18.47300 34.40200
H  41.34700 17.45000 35.13500

