158

Mg 48.71700 35.83900 28.70100
C  46.51100 34.08800 30.81400
C  48.48100 38.55700 30.83500
C  50.60500 37.69400 26.62900
C  48.28500 33.38600 26.22100
N  47.76500 36.20700 30.66300
C  47.00300 35.27200 31.37900
C  46.49300 35.87200 32.73600
C  46.94500 37.36700 32.59800
C  47.68300 37.42100 31.25200
C  45.72300 38.35900 32.53400
C  47.07100 35.19600 33.98900
C  48.59800 34.81200 34.16300
H  49.64900 35.81800 34.52000
N  49.57500 37.79800 28.78000
C  49.43400 38.66800 29.80000
C  50.24200 39.84600 29.61400
C  50.80500 39.69500 28.31200
C  50.38500 38.35700 27.82600
C  50.33800 40.88000 30.66000
C  51.63000 40.74100 27.52500
O  52.07500 40.50500 26.43000
C  51.97500 42.10900 28.13500
N  49.18500 35.62900 26.68000
C  50.08400 36.46600 26.08400
C  50.43400 36.03100 24.64600
C  49.99000 34.50000 24.69300
C  49.04100 34.50000 25.87300
C  49.70400 36.79400 23.49200
C  51.15000 33.40800 24.80900
C  51.05400 32.20700 23.98100
N  47.61100 34.12200 28.44300
C  47.48400 33.25500 27.36500
C  46.40200 32.25400 27.69500
C  46.09200 32.57600 29.03900
C  46.81200 33.67000 29.48300
C  45.86800 31.18200 26.89500
C  45.25700 32.07200 30.12400
O  44.50000 31.14700 30.08600
C  45.36200 33.16500 31.22400
C  45.65800 32.48200 32.51500
O  46.69000 31.84200 32.69800
O  44.61100 32.57400 33.31300
C  44.58000 31.96000 34.63500
H  48.46500 39.38900 31.54200
H  51.32400 38.26800 26.04100
H  48.11500 32.54100 25.55000
H  45.42400 35.66400 32.68700
H  47.63100 37.66100 33.39200
H  45.70400 38.97800 33.43100
H  44.83600 37.72900 32.46000
H  45.63800 38.87300 31.57700
H  46.41500 34.35200 34.19800
H  46.84300 35.83800 34.84000
H  48.92400 34.36000 33.22600
H  48.70600 34.03200 34.91600
H  50.21500 40.37000 31.61600
H  49.45000 41.50600 30.57500
H  51.32100 41.35200 30.66000
H  51.03900 42.65400 28.25600
H  52.57600 42.65900 27.41100
H  52.45600 42.00300 29.10700
H  51.51500 35.94000 24.53300
H  49.27000 34.28500 23.90200
H  49.51000 37.79000 23.88700
H  48.76500 36.34400 23.16800
H  50.41500 37.03300 22.70100
H  51.25800 32.89600 25.76500
H  52.13100 33.79900 24.53700
H  50.54500 32.44400 23.04700
H  50.53000 31.37000 24.44200
H  52.09400 31.98500 23.74000
H  45.21000 30.59700 27.53800
H  46.67000 30.49000 26.63800
H  45.24900 31.53600 26.07000
H  44.37100 33.61700 31.16900
H  44.65600 32.80300 35.32200
H  45.37200 31.22700 34.78600
H  43.62200 31.47500 34.82200
Mg -2.39100 34.22900 26.62500
C  -3.94300 32.78500 29.45800
C  -1.37200 36.80600 28.69300
C  -1.37500 35.82600 23.85100
C  -3.96400 31.80600 24.63900
N  -2.73800 34.76900 28.80700
C  -3.27100 33.94200 29.77700
C  -3.05900 34.48000 31.23700
C  -2.38200 35.90900 30.95600
C  -2.16600 35.85700 29.41300
C  -3.25500 37.05700 31.44700
C  -2.21900 33.56200 32.15600
C  -2.88400 32.98800 33.39500
H  -1.97300 32.55100 34.54300
N  -1.39500 36.03000 26.28700
C  -1.06300 36.90800 27.25900
C  -0.25200 37.92700 26.61900
C  -0.20100 37.65000 25.26900
C  -0.99100 36.42300 25.08100
C  0.38700 39.03000 27.40700
C  0.51700 38.34200 24.13200
O  0.57900 37.99300 22.96600
C  1.41400 39.49800 24.50600
N  -2.79600 33.94900 24.54700
C  -2.22600 34.71600 23.55800
C  -2.87600 34.49500 22.18700
C  -3.47800 33.02600 22.45100
C  -3.43400 32.87000 23.97900
C  -3.98600 35.48700 21.63600
C  -2.92700 31.86000 21.69900
C  -1.44200 31.58000 21.60100
N  -3.63500 32.55300 26.95600
C  -4.05900 31.66700 26.02700
C  -4.88800 30.70600 26.73800
C  -4.86700 31.09400 28.05800
C  -4.07800 32.26900 28.20700
C  -5.74200 29.56800 26.22000
C  -5.27700 30.71100 29.39300
O  -5.96000 29.71400 29.62000
C  -4.79100 31.84700 30.37800
C  -5.93500 32.39600 31.15000
O  -6.56600 33.43600 30.89500
O  -6.17300 31.55100 32.26000
C  -7.01000 32.00100 33.28600
H  -0.96600 37.57700 29.35100
H  -1.21100 36.49200 23.00200
H  -4.42400 31.00100 24.06200
H  -4.05100 34.63200 31.66300
H  -1.41800 35.98500 31.45900
H  -4.33200 36.90400 31.51300
H  -3.12200 37.91300 30.78600
H  -2.89200 37.46400 32.39100
H  -1.36600 34.17200 32.45300
H  -1.78300 32.78100 31.53300
H  -3.40300 32.08700 33.06800
H  -3.68000 33.65300 33.72900
H  1.44800 38.87300 27.21400
H  0.12500 39.02800 28.46500
H  0.10000 39.99700 26.99400
H  2.17700 39.40000 25.27800
H  0.69900 40.24900 24.84100
H  1.78500 40.02100 23.62400
H  -2.03900 34.45000 21.49000
H  -4.49700 33.04700 22.06600
H  -3.45400 35.90600 20.78100
H  -4.30600 36.37000 22.18900
H  -4.86300 34.96100 21.26000
H  -3.25500 31.95000 20.66300
H  -3.43500 30.94300 21.99500
H  -1.17700 31.71000 20.55200
H  -1.06600 30.59000 21.86000
H  -0.84800 32.31000 22.15100
H  -5.33000 29.27600 25.25400
H  -6.78900 29.76500 25.98600
H  -5.83200 28.73000 26.91100
H  -4.19000 31.36600 31.15000
H  -7.45200 31.07000 33.64100
H  -7.89300 32.53900 32.94100
H  -6.34600 32.44300 34.02800

