158

Mg 47.26300 15.28300 28.24600
C  45.19300 14.88600 31.11600
C  49.41900 17.08300 30.30300
C  49.11500 15.87400 25.58100
C  44.96400 13.26200 26.47000
N  47.26700 15.93900 30.40900
C  46.37300 15.54000 31.33200
C  46.70300 16.05400 32.72300
C  47.88800 17.08200 32.37300
C  48.24800 16.58700 31.00400
C  47.58500 18.60100 32.39300
C  47.00500 14.79000 33.66100
C  46.78300 14.99800 35.15900
H  46.88900 16.39200 35.73400
N  49.00800 16.27600 28.01800
C  49.74300 16.91700 28.94000
C  51.02500 17.25100 28.33300
C  51.01200 16.86800 26.95700
C  49.65200 16.38800 26.78400
C  51.97500 18.07300 29.13500
C  52.05800 17.01600 25.95500
O  51.89500 16.78000 24.75700
C  53.37200 17.50100 26.48200
N  46.97700 14.76200 26.31400
C  47.92300 15.11200 25.35300
C  47.54500 14.59700 23.93300
C  46.47200 13.51000 24.40500
C  46.08100 13.88500 25.79100
C  47.06200 15.65600 22.92500
C  47.03100 12.02200 24.57900
C  46.16700 10.83200 24.34500
N  45.40500 14.25500 28.67100
C  44.62100 13.52000 27.82400
C  43.45800 13.08300 28.63000
C  43.61100 13.66300 29.89800
C  44.83100 14.30100 29.87800
C  42.35100 12.11800 28.15100
C  43.03900 13.82100 31.25200
O  41.92400 13.49400 31.67700
C  44.07700 14.67300 32.06900
C  43.41400 15.87100 32.49400
O  42.85700 16.63300 31.76300
O  43.35700 15.94800 33.84500
C  42.60300 17.02800 34.40500
H  50.15100 17.54600 30.96900
H  49.63800 16.07400 24.64300
H  44.41000 12.61400 25.78700
H  45.90100 16.68300 33.10900
H  48.67300 16.88400 33.10300
H  46.67800 18.75200 32.97700
H  47.39100 18.99400 31.39500
H  48.40200 19.16000 32.84800
H  48.02200 14.49200 33.40600
H  46.42500 13.89800 33.42400
H  47.39300 14.26400 35.68600
H  45.73300 14.71200 35.22300
H  51.40900 18.68400 29.83800
H  52.45900 18.79600 28.47900
H  52.75100 17.44100 29.56600
H  54.19400 17.15600 25.85400
H  53.61500 17.03500 27.43600
H  53.59000 18.56900 26.45600
H  48.34800 14.02200 23.47300
H  45.55500 13.48600 23.81700
H  46.05800 15.40400 22.58300
H  47.75000 15.80100 22.09200
H  47.13200 16.54900 23.54600
H  47.38300 11.83300 25.59300
H  47.82500 11.99400 23.83400
H  45.19600 11.25000 24.08000
H  46.14000 10.19500 25.22900
H  46.41800 10.18400 23.50500
H  42.68200 11.48700 27.32600
H  41.49000 12.73000 27.88000
H  42.08100 11.47700 28.99000
H  44.35000 13.94800 32.83700
H  41.73400 17.20500 33.77200
H  43.23500 17.91400 34.33600
H  42.29800 16.74400 35.41200
Mg -0.65100 44.15800 25.81600
C  1.42200 43.89400 28.65400
C  -3.20500 42.81400 27.90700
C  -2.60600 44.06700 23.16300
C  2.11400 45.16700 23.95000
N  -0.92700 43.66300 28.13300
C  0.04000 43.66800 29.01500
C  -0.39600 43.19500 30.41300
C  -1.83800 42.62000 30.05700
C  -2.01000 43.02200 28.62800
C  -2.07700 41.04100 30.28900
C  -0.40500 44.42000 31.39700
C  -0.07500 44.20100 32.89700
H  -0.22800 42.77200 33.52500
N  -2.63900 43.64100 25.60200
C  -3.48500 43.11000 26.52400
C  -4.73200 42.73500 25.83600
C  -4.59400 42.94800 24.47300
C  -3.22900 43.50700 24.34800
C  -5.96800 42.20600 26.48000
C  -5.54200 42.65800 23.30300
O  -5.19000 42.80400 22.11400
C  -6.86600 42.02000 23.42300
N  -0.30400 44.54400 23.87400
C  -1.31200 44.63600 22.95600
C  -0.79600 45.13700 21.66900
C  0.60800 45.72200 21.98500
C  0.86200 45.13300 23.36300
C  -0.68400 44.09400 20.52900
C  0.50100 47.28800 21.95000
C  1.12200 47.89400 20.76200
N  1.43000 44.45900 26.15500
C  2.41800 44.77700 25.27000
C  3.69900 44.77000 25.97100
C  3.33600 44.38300 27.30600
C  1.94600 44.24100 27.37200
C  5.07600 45.06600 25.44400
C  3.90400 44.16600 28.60000
O  5.08500 44.24200 28.97100
C  2.71100 43.89300 29.53300
C  2.85600 42.57300 30.16500
O  2.83700 41.53400 29.53100
O  3.23900 42.68600 31.46600
C  3.76700 41.46100 32.07700
H  -3.95500 42.26900 28.48500
H  -3.22800 44.31200 22.30000
H  3.00000 45.53300 23.42600
H  0.26100 42.37800 30.71000
H  -2.57600 43.05900 30.72900
H  -2.80000 40.87600 31.08800
H  -1.13000 40.67900 30.69000
H  -2.28100 40.36400 29.45900
H  -1.46000 44.68900 31.43700
H  0.05100 45.30600 30.95400
H  -0.72400 44.90300 33.42000
H  0.94800 44.56400 33.00200
H  -6.72200 42.98800 26.39000
H  -5.73000 41.95400 27.51300
H  -6.44100 41.36100 25.97900
H  -6.85600 41.06000 23.94000
H  -7.03300 41.72000 22.38900
H  -7.68900 42.67400 23.71300
H  -1.43000 45.94200 21.29900
H  1.51300 45.37700 21.48400
H  -0.67800 43.11900 21.01600
H  0.23500 44.26500 19.97000
H  -1.41800 44.17200 19.72700
H  1.10200 47.51600 22.83000
H  -0.46600 47.75600 22.12900
H  2.03200 48.41900 21.05200
H  0.39500 48.51000 20.23100
H  1.39500 47.05800 20.11800
H  5.85300 44.54100 26.00100
H  5.28300 46.13600 25.40600
H  5.11200 44.62900 24.44700
H  2.66800 44.58000 30.37700
H  4.85100 41.49600 31.96600
H  3.41700 40.52100 31.65100
H  3.48400 41.46500 33.12900

