158

Mg -2.55600 17.74100 26.73600
C  -3.02100 15.71400 29.66200
C  -3.23900 20.46200 28.62400
C  -2.46200 19.51600 23.90300
C  -2.57900 14.78100 24.83400
N  -3.10900 18.04100 28.92200
C  -3.12200 17.09400 29.91100
C  -3.23800 17.90100 31.21300
C  -3.73900 19.32000 30.84100
C  -3.39700 19.28200 29.36000
C  -5.24400 19.66500 30.95100
C  -1.92700 18.02800 32.06200
C  -2.26200 18.46400 33.56200
H  -1.64600 17.59000 34.69700
N  -2.69400 19.76600 26.27500
C  -2.91000 20.71400 27.19500
C  -2.89600 22.01800 26.50600
C  -2.60500 21.74400 25.16700
C  -2.58800 20.30700 25.06100
C  -3.08900 23.33700 27.12500
C  -2.28000 22.66000 24.01800
O  -2.09100 22.27900 22.89200
C  -2.22800 24.09900 24.16300
N  -2.21000 17.25600 24.74300
C  -2.38500 18.12800 23.76600
C  -2.34300 17.48100 22.36500
C  -2.03800 16.01700 22.70700
C  -2.31700 15.98600 24.23700
C  -3.65000 17.77400 21.53400
C  -0.54200 15.58600 22.40200
C  0.60900 16.46500 22.98300
N  -2.77900 15.63800 27.11500
C  -2.70500 14.56000 26.23600
C  -2.80600 13.35900 26.93400
C  -2.90200 13.75600 28.29700
C  -2.90500 15.14400 28.37400
C  -2.80600 11.95500 26.35500
C  -3.10500 13.25700 29.65500
O  -3.22700 12.11900 30.07900
C  -3.19100 14.54600 30.58200
C  -2.20100 14.27500 31.63700
O  -1.01600 14.52700 31.56300
O  -2.73600 13.47200 32.64400
C  -1.78000 12.92100 33.61700
H  -3.38000 21.37900 29.19900
H  -2.43600 20.05100 22.95100
H  -2.43700 13.92000 24.17800
H  -3.97900 17.34300 31.78500
H  -3.11500 20.04300 31.36600
H  -5.76500 18.75100 31.23400
H  -5.66600 19.79800 29.95500
H  -5.53200 20.53600 31.54200
H  -1.32900 18.86500 31.70000
H  -1.43200 17.06400 31.94700
H  -3.34100 18.49100 33.71500
H  -1.91600 19.47100 33.79500
H  -3.31500 23.21100 28.18400
H  -3.93800 23.85800 26.68300
H  -2.19600 23.93400 26.94000
H  -1.37100 24.17500 24.83200
H  -3.18700 24.48800 24.50400
H  -1.91200 24.57300 23.23400
H  -1.50700 17.98600 21.88000
H  -2.75600 15.40400 22.16000
H  -4.24500 16.86500 21.62000
H  -3.42600 17.93700 20.48000
H  -4.24500 18.55200 22.01200
H  -0.27300 15.54200 21.34700
H  -0.42900 14.56500 22.76600
H  1.33500 16.79400 22.23900
H  1.00600 15.80600 23.75500
H  0.21600 17.30700 23.55300
H  -2.37000 11.97600 25.35600
H  -3.87300 11.75800 26.24200
H  -2.25300 11.29600 27.02400
H  -4.13900 14.66800 31.10600
H  -0.82700 12.66600 33.15300
H  -2.25800 12.07400 34.10800
H  -1.54000 13.63300 34.40700
Mg 35.99600 48.81000 24.27200
C  36.34400 47.09500 27.30700
C  34.75100 51.53500 25.93900
C  35.69500 50.40000 21.26600
C  37.27900 45.95400 22.58200
N  35.43900 49.18200 26.33700
C  35.69300 48.37400 27.46400
C  35.48900 49.17300 28.79000
C  34.69800 50.48100 28.29000
C  34.98100 50.40500 26.77300
C  33.25100 50.64400 28.71400
C  36.77700 49.43700 29.59000
C  36.74800 49.09100 31.13500
H  35.38400 49.00100 31.91600
N  35.43200 50.74000 23.66500
C  34.93300 51.71000 24.50300
C  34.51900 52.81400 23.70800
C  34.89100 52.55100 22.37700
C  35.36800 51.18100 22.35700
C  33.87700 54.02600 24.31600
C  34.72600 53.48300 21.17300
O  35.20700 53.13900 20.09800
C  34.01400 54.82400 21.25600
N  36.15500 48.12100 22.13100
C  36.07300 49.04400 21.21800
C  36.25400 48.30400 19.85800
C  37.07200 47.02500 20.22000
C  36.80300 47.00100 21.69800
C  34.89400 48.03200 19.20200
C  38.50100 47.08000 19.67500
C  39.74100 47.24600 20.69500
N  36.54700 46.87200 24.80300
C  37.10700 45.85600 24.00200
C  37.70100 44.87100 24.85400
C  37.41700 45.33000 26.18300
C  36.60400 46.49300 26.06200
C  38.44600 43.69400 24.34500
C  37.53300 45.02600 27.63900
O  38.09300 44.09100 28.24800
C  36.87000 46.18100 28.37300
C  35.82900 45.72100 29.38000
O  34.67600 45.50600 29.13900
O  36.45200 45.55100 30.55700
C  35.59400 44.82100 31.57000
H  34.41000 52.40200 26.50900
H  35.51100 50.81100 20.27100
H  37.70800 45.07000 22.10600
H  34.81200 48.60700 29.43000
H  35.13100 51.38000 28.72900
H  32.92800 49.92600 29.46800
H  32.58800 50.51000 27.85900
H  33.03600 51.63600 29.11100
H  37.13400 50.45600 29.44000
H  37.55500 48.72800 29.30600
H  37.32100 49.88200 31.62000
H  37.31800 48.20100 31.40100
H  34.46800 54.91300 24.54100
H  33.49500 53.82300 25.31700
H  33.02900 54.29000 23.68500
H  32.93800 54.68300 21.35500
H  34.16900 55.35800 20.31900
H  34.34100 55.52200 22.02700
H  36.77600 48.99200 19.19300
H  36.52500 46.18100 19.80000
H  34.01800 48.19300 19.83000
H  34.73700 47.04800 18.76000
H  34.81400 48.68500 18.33300
H  38.67300 47.83200 18.90600
H  38.69300 46.16800 19.10900
H  40.36900 46.35600 20.72600
H  39.37000 47.61500 21.65200
H  40.25900 48.14700 20.36700
H  38.94600 43.93500 23.40600
H  37.97700 42.71100 24.29800
H  39.17800 43.43300 25.10800
H  37.70700 46.61300 28.92200
H  35.33000 43.79000 31.33500
H  34.67800 45.36000 31.81300
H  36.15700 44.81200 32.50400

