158

Mg 24.11700 -5.21200 45.22300
C  26.34200 -3.10700 43.53900
C  21.71800 -4.20600 43.01400
C  22.19100 -7.99000 46.01700
C  26.87200 -6.59300 46.88100
N  24.14700 -3.94400 43.41400
C  25.09700 -3.06200 43.04000
C  24.62700 -2.08500 41.90600
C  23.09300 -2.34600 41.97600
C  22.95300 -3.58400 42.82500
C  22.22100 -1.11400 42.45200
C  25.29300 -2.25200 40.49100
C  25.24100 -1.03100 39.61400
H  24.85500 -1.27600 38.09800
N  22.13300 -5.96700 44.64200
C  21.31400 -5.36100 43.74300
C  20.08800 -6.09600 43.70000
C  20.13300 -7.11300 44.69000
C  21.52500 -7.08300 45.17100
C  18.93900 -5.60000 42.78600
C  18.99500 -8.03700 45.11800
O  17.90200 -7.93700 44.52300
C  19.15700 -9.01200 46.27900
N  24.48100 -7.05600 46.13800
C  23.57200 -8.03400 46.45000
C  24.21700 -9.10000 47.28500
C  25.58700 -8.58000 47.74600
C  25.67700 -7.37400 46.78400
C  23.31900 -9.73700 48.44200
C  26.78600 -9.57700 47.61500
C  27.59100 -9.79800 48.90200
N  26.21700 -4.78000 45.39100
C  27.18400 -5.42700 46.13600
C  28.50400 -4.78500 45.96900
C  28.21400 -3.81400 44.92900
C  26.82700 -3.89500 44.62700
C  29.76000 -5.17200 46.60800
C  28.76200 -2.80600 44.04900
O  29.93400 -2.44700 43.93000
C  27.54400 -2.21500 43.21400
C  27.29000 -0.84000 43.69300
O  26.60800 -0.53600 44.65600
O  27.93900 0.13400 42.87500
C  27.87400 1.49600 43.47400
H  20.97500 -3.70400 42.39000
H  21.70700 -8.88300 46.41700
H  27.70200 -7.00300 47.45900
H  24.87100 -1.07000 42.22000
H  22.73600 -2.62900 40.98700
H  22.89100 -0.25600 42.51200
H  21.77600 -1.40300 43.40400
H  21.38200 -0.97500 41.77000
H  24.82600 -3.13000 40.04500
H  26.33400 -2.54700 40.62200
H  26.23100 -0.60600 39.78000
H  24.53300 -0.43300 40.18900
H  18.31300 -4.85000 43.27000
H  18.17900 -6.36600 42.63100
H  19.33000 -5.08300 41.90900
H  18.17000 -9.17900 46.71000
H  19.76400 -8.56800 47.06800
H  19.57400 -9.96000 45.94000
H  24.43400 -9.94700 46.63500
H  25.56800 -8.20400 48.76900
H  24.07400 -10.05200 49.16200
H  22.69100 -10.51800 48.01400
H  22.71900 -8.94200 48.88600
H  27.48000 -9.17700 46.87600
H  26.38700 -10.55200 47.33400
H  28.66800 -9.78900 48.73600
H  27.24100 -10.79100 49.18500
H  27.16400 -9.04500 49.56300
H  30.63000 -4.98400 45.98000
H  29.76000 -6.18000 47.02400
H  29.88900 -4.45500 47.41900
H  27.77500 -2.33200 42.15500
H  27.01600 1.89100 44.01900
H  27.94800 2.22200 42.66400
H  28.68900 1.52600 44.19700
Mg -2.50300 34.26400 26.24500
C  -3.95400 32.64100 28.95700
C  -0.92800 36.51000 28.37700
C  -1.30800 35.85900 23.60500
C  -4.22000 31.98800 24.07000
N  -2.47900 34.51100 28.44100
C  -3.03600 33.67100 29.38900
C  -2.89300 34.25400 30.79600
C  -1.91400 35.48600 30.59900
C  -1.70800 35.50900 29.09900
C  -2.34000 36.72800 31.37400
C  -2.33300 33.24300 31.83500
C  -3.23300 32.90300 33.07900
H  -2.46400 32.64400 34.46700
N  -1.34900 35.92300 26.03100
C  -0.79600 36.72800 27.01600
C  -0.00700 37.74500 26.43400
C  -0.02800 37.53100 25.02800
C  -0.94100 36.39500 24.82500
C  0.70300 38.77400 27.22700
C  0.63800 38.43100 23.90600
O  0.33300 38.28900 22.71200
C  1.67700 39.44300 24.35800
N  -2.88200 34.04700 24.09900
C  -2.14200 34.78200 23.21600
C  -2.51900 34.50300 21.76800
C  -3.26400 33.11300 21.95900
C  -3.50800 33.02300 23.44900
C  -3.37500 35.56000 21.16500
C  -2.46300 31.81500 21.47000
C  -1.04100 31.56300 21.87600
N  -3.80800 32.68500 26.39600
C  -4.37300 31.82400 25.43700
C  -5.11600 30.79800 26.18900
C  -5.02600 31.05100 27.54300
C  -4.19400 32.25800 27.57400
C  -5.88400 29.72700 25.49000
C  -5.39800 30.62200 28.81200
O  -6.09200 29.68500 29.13600
C  -4.86400 31.70000 29.75700
C  -5.84700 32.30100 30.62100
O  -6.44100 33.37500 30.38700
O  -6.01200 31.58000 31.72000
C  -6.96800 32.01200 32.76100
H  -0.47200 37.19000 29.10000
H  -0.91400 36.33200 22.70400
H  -4.58500 31.20600 23.40000
H  -3.89200 34.46000 31.18100
H  -0.97500 35.15300 31.04100
H  -2.38200 37.49500 30.60100
H  -1.54800 37.07000 32.03900
H  -3.31300 36.53700 31.82500
H  -1.27800 33.37100 32.07800
H  -2.24700 32.33300 31.24300
H  -3.87700 32.05100 32.86100
H  -3.89500 33.75000 33.26200
H  1.73400 38.95300 26.92100
H  0.65500 38.61000 28.30300
H  0.04500 39.62600 27.05400
H  1.89600 39.97100 23.43000
H  2.65600 39.01900 24.58100
H  1.25900 40.18500 25.03800
H  -1.60700 34.45100 21.17200
H  -4.27900 33.13200 21.56400
H  -2.83100 35.82800 20.26000
H  -3.33500 36.43800 21.81000
H  -4.39500 35.28900 20.89200
H  -2.51800 31.75400 20.38300
H  -2.93000 30.84500 21.64300
H  -0.95500 30.67900 22.50900
H  -0.67700 32.45900 22.37700
H  -0.44300 31.47800 20.96800
H  -5.26200 28.97000 25.01200
H  -6.49300 30.22000 24.73300
H  -6.52600 29.25000 26.23100
H  -4.23900 31.11900 30.43500
H  -7.02600 31.28900 33.57500
H  -7.98200 32.24100 32.43200
H  -6.52800 32.95500 33.08400

