158

Mg 1.78000 -1.92900 44.12700
C  5.05300 -0.77500 43.74800
C  0.70600 0.91700 42.53000
C  -1.23400 -3.42500 43.80500
C  3.15400 -5.04200 45.28600
N  2.85800 -0.16000 43.20000
C  4.15500 0.10300 43.17000
C  4.44500 1.40400 42.46100
C  3.00000 2.12300 42.48700
C  2.10000 0.89100 42.78400
C  2.90300 3.24800 43.57500
C  5.03700 1.26800 40.99400
C  6.23500 2.18500 40.64500
H  7.01400 1.94900 39.35600
N  0.01300 -1.26500 43.40700
C  -0.21500 -0.08300 42.72700
C  -1.65300 0.01300 42.46100
C  -2.27400 -1.22700 42.97400
C  -1.11500 -2.06100 43.43300
C  -2.29200 1.27900 41.87000
C  -3.82000 -1.47000 42.93600
O  -4.55800 -0.68700 42.36700
C  -4.48900 -2.72400 43.51400
N  0.99500 -3.95100 44.44300
C  -0.33400 -4.23700 44.37100
C  -0.46500 -5.71300 44.81100
C  0.93000 -6.21500 45.16000
C  1.76900 -4.99900 45.02800
C  -1.54700 -5.98400 45.83000
C  1.29000 -7.43800 44.26300
C  1.41900 -8.83500 44.99500
N  3.69400 -2.77500 44.52400
C  4.06900 -4.00200 45.04400
C  5.51800 -3.96500 45.20200
C  5.93400 -2.73500 44.69400
C  4.77800 -2.04600 44.32900
C  6.31900 -5.06000 45.72200
C  7.09500 -1.91000 44.39900
O  8.25200 -2.09300 44.72700
C  6.54400 -0.57800 43.73900
C  6.88600 0.60500 44.60300
O  6.17900 0.97900 45.50200
O  8.14100 1.01800 44.36800
C  8.50300 2.34300 44.95900
H  0.28800 1.78400 42.01400
H  -2.24800 -3.81600 43.69900
H  3.59300 -5.96700 45.66500
H  5.12800 2.04400 43.02100
H  2.77600 2.47600 41.48100
H  3.88700 3.53400 43.94400
H  2.29600 2.87300 44.39900
H  2.42100 4.14800 43.19200
H  4.21700 1.34800 40.28100
H  5.44100 0.26800 40.84000
H  6.93400 2.24900 41.48000
H  5.76100 3.16700 40.65500
H  -3.34600 1.21300 41.60200
H  -1.65200 1.65700 41.07300
H  -2.24600 1.98300 42.70000
H  -4.44900 -3.41000 42.66700
H  -5.48700 -2.30100 43.63300
H  -3.89600 -3.01900 44.37900
H  -0.83800 -6.30900 43.97700
H  0.91400 -6.55300 46.19600
H  -2.02300 -6.87500 45.42200
H  -2.21400 -5.12300 45.88000
H  -1.31400 -6.13800 46.88300
H  2.23000 -7.26600 43.73900
H  0.69200 -7.53200 43.35600
H  2.46600 -9.09800 45.15000
H  0.97300 -9.56000 44.31400
H  1.01200 -8.73400 46.00100
H  5.92900 -5.61700 46.57400
H  7.24200 -4.65800 46.14000
H  6.69000 -5.69900 44.92100
H  6.98100 -0.45900 42.74800
H  7.78800 3.15500 44.82400
H  9.37500 2.86300 44.56200
H  8.79400 2.27000 46.00700
Mg -11.99700 37.68100 42.24900
C  -9.91200 35.02400 41.28200
C  -9.96300 39.97200 40.63500
C  -14.46400 39.97400 42.62700
C  -14.32000 35.25700 43.25000
N  -10.21500 37.45500 41.00700
C  -9.44100 36.31500 40.82600
C  -8.14400 36.57800 40.06000
C  -8.16300 38.17700 39.92200
C  -9.50700 38.62600 40.63700
C  -6.93200 38.99800 40.30500
C  -8.06000 35.79700 38.66700
C  -6.84400 34.95500 38.37200
H  -5.84600 35.52100 37.32900
N  -12.20500 39.70400 41.72200
C  -11.22900 40.49800 41.10600
C  -11.63200 41.86000 41.15800
C  -12.96700 41.91200 41.62900
C  -13.27900 40.49900 41.95500
C  -10.80800 43.04300 40.58800
C  -13.78800 43.19400 41.80500
O  -13.27300 44.23600 41.37500
C  -15.14200 43.14600 42.36400
N  -14.04000 37.59000 42.96700
C  -14.82500 38.67700 43.06300
C  -16.20100 38.37000 43.63200
C  -16.22800 36.83700 43.61600
C  -14.79800 36.51000 43.23500
C  -16.48600 38.98800 45.00200
C  -17.33900 36.33000 42.65900
C  -18.78900 36.43400 43.20800
N  -12.13700 35.54000 42.33100
C  -13.11000 34.75900 42.81300
C  -12.65900 33.36100 42.87500
C  -11.42800 33.40800 42.23500
C  -11.16000 34.77600 41.91000
C  -13.33400 32.09000 43.45500
C  -10.29700 32.63900 41.85700
O  -10.04700 31.46100 41.96700
C  -9.22000 33.72000 41.36100
C  -8.01900 33.67600 42.27000
O  -6.88600 33.29800 41.97900
O  -8.35500 34.01000 43.60800
C  -7.33900 34.08300 44.67000
H  -9.21100 40.70100 40.32500
H  -15.26500 40.70500 42.75500
H  -15.08600 34.50800 43.46100
H  -7.28400 36.39700 40.70500
H  -8.24000 38.38600 38.85500
H  -7.14000 39.82200 40.98900
H  -6.49900 39.45600 39.41600
H  -6.18400 38.29000 40.66100
H  -8.15300 36.42300 37.78000
H  -8.91400 35.12000 38.64800
H  -7.10900 33.91500 38.17900
H  -6.26800 34.95000 39.29800
H  -9.96600 42.64800 40.02100
H  -10.36300 43.75800 41.28000
H  -11.37500 43.61600 39.85400
H  -15.53900 44.14200 42.55900
H  -15.10400 42.79000 43.39300
H  -15.85800 42.60700 41.74300
H  -16.92200 38.79500 42.93400
H  -16.34700 36.46900 44.63500
H  -15.61900 39.53300 45.37400
H  -16.72300 38.25900 45.77700
H  -17.31500 39.68900 44.90500
H  -17.13400 35.31300 42.32500
H  -17.37800 36.86100 41.70800
H  -19.30400 35.47400 43.23900
H  -19.33500 37.26400 42.75900
H  -18.64400 36.56700 44.28000
H  -13.43500 31.33400 42.67700
H  -14.35000 32.31000 43.78200
H  -12.67800 31.71900 44.24300
H  -8.94000 33.44100 40.34500
H  -6.92500 35.08700 44.58600
H  -6.64800 33.24100 44.61500
H  -7.85500 33.89900 45.61200

