158

Mg 34.45400 3.05600 29.71000
C  32.32100 4.01800 32.28900
C  36.99800 2.98900 31.95500
C  36.55000 2.50500 27.09400
C  31.79900 3.75000 27.54800
N  34.60600 3.33000 31.87200
C  33.60500 3.75500 32.63900
C  34.12100 3.82200 34.10800
C  35.63300 3.70800 33.96100
C  35.79000 3.35700 32.49500
C  36.50200 4.98400 34.38800
C  33.51400 2.57200 34.85700
C  33.10700 2.80900 36.31800
H  33.96000 3.77700 37.13200
N  36.45500 2.75400 29.52500
C  37.33100 2.72700 30.59600
C  38.66700 2.53000 30.09200
C  38.51900 2.31900 28.67800
C  37.13700 2.56400 28.37300
C  39.77100 2.19800 31.13900
C  39.62300 1.98700 27.62700
O  39.43300 1.97200 26.40600
C  41.05400 1.74700 28.13400
N  34.18400 3.16300 27.58500
C  35.28500 2.97100 26.74700
C  34.78100 2.95500 25.28200
C  33.21700 3.17500 25.38800
C  33.01500 3.35000 26.94300
C  35.51000 3.98300 24.32200
C  32.37000 1.98800 24.85900
C  32.36100 0.73900 25.81000
N  32.51000 3.75400 29.78500
C  31.51600 3.87100 28.88400
C  30.26700 4.33300 29.45900
C  30.49200 4.24400 30.81800
C  31.85900 3.95600 30.93200
C  29.03900 4.55200 28.81600
C  29.94000 4.52900 32.09600
O  28.80700 4.88400 32.31000
C  31.11400 4.40700 33.09300
C  31.38700 5.76300 33.70200
O  31.69600 6.78100 33.04600
O  31.03000 5.64700 35.00800
C  31.21700 6.92300 35.78200
H  37.84800 3.15400 32.62000
H  37.15900 2.29400 26.21300
H  31.13500 3.88600 26.69200
H  33.94600 4.78400 34.59000
H  36.07000 2.90800 34.55800
H  37.06500 4.83900 35.31000
H  35.96800 5.93400 34.41500
H  37.28600 5.06200 33.63500
H  34.25700 1.77800 34.92500
H  32.57000 2.20400 34.45500
H  33.22900 1.85900 36.83900
H  32.06700 3.08100 36.13900
H  40.78300 1.99300 30.79000
H  39.60100 1.34600 31.79800
H  39.88300 3.06400 31.79100
H  41.56200 2.67600 28.39400
H  41.51200 1.24600 27.28100
H  41.03300 0.98700 28.91400
H  34.99300 1.92500 24.99500
H  32.90500 4.13800 24.98300
H  36.05500 4.74300 24.88200
H  34.80500 4.56000 23.72300
H  36.31700 3.54800 23.73200
H  32.88000 1.72400 23.93200
H  31.35400 2.25200 24.56700
H  32.48400 1.04400 26.84900
H  33.24000 0.10800 25.67400
H  31.36100 0.32600 25.67600
H  28.70100 3.59500 28.41900
H  29.14800 5.19200 27.94100
H  28.29700 5.11700 29.38000
H  30.97200 3.60300 33.81500
H  31.42400 6.64400 36.81500
H  30.33700 7.56200 35.69800
H  32.10100 7.36500 35.32300
Mg -4.44400 24.74000 25.92100
C  -2.96300 26.12100 28.84000
C  -6.40800 22.85300 28.01000
C  -5.26400 22.89700 23.23500
C  -2.05800 26.42900 23.99600
N  -4.55200 24.48100 28.15800
C  -3.92100 25.23700 29.12300
C  -4.55200 25.01500 30.49300
C  -5.35900 23.73800 30.22200
C  -5.49200 23.63600 28.69500
C  -4.81800 22.38500 30.77700
C  -5.38400 26.33500 30.93600
C  -5.54300 26.66700 32.42900
H  -5.10400 25.58900 33.39400
N  -5.71200 23.16300 25.65600
C  -6.50000 22.63000 26.63100
C  -7.36400 21.63700 25.93600
C  -6.91600 21.49800 24.63100
C  -5.94100 22.58900 24.42500
C  -8.58000 21.00300 26.64700
C  -7.32600 20.53900 23.55400
O  -6.80800 20.42200 22.45400
C  -8.30900 19.47600 23.92000
N  -3.63500 24.50500 23.93000
C  -4.27100 23.85600 22.98300
C  -3.43400 23.94000 21.67600
C  -2.59400 25.20500 21.89100
C  -2.77000 25.42000 23.38700
C  -2.67100 22.65300 21.29500
C  -2.94400 26.47900 20.98800
C  -1.68600 27.23300 20.43600
N  -2.87700 26.04200 26.27400
C  -1.97100 26.70000 25.41300
C  -1.14700 27.63400 26.16400
C  -1.50300 27.45200 27.53300
C  -2.52200 26.44300 27.53600
C  -0.18200 28.63200 25.58400
C  -1.18500 27.82400 28.84800
O  -0.27800 28.49100 29.35200
C  -2.14500 27.03000 29.77100
C  -1.44900 26.40900 30.83200
O  -0.63000 25.50600 30.67500
O  -1.73700 26.97200 32.05300
C  -1.10500 26.25800 33.22500
H  -7.13300 22.32700 28.63500
H  -5.40400 22.29300 22.33600
H  -1.35400 26.92400 23.32500
H  -3.77400 24.77000 31.21600
H  -6.32800 24.01200 30.64000
H  -3.99300 22.71700 31.40700
H  -4.35900 21.77400 30.00000
H  -5.46900 21.79400 31.42100
H  -6.35700 26.23500 30.45500
H  -5.00600 27.28500 30.55600
H  -6.53400 27.05300 32.66800
H  -4.97700 27.57100 32.65000
H  -9.35700 20.94300 25.88400
H  -8.79700 21.63900 27.50500
H  -8.26700 20.02000 26.99800
H  -8.14700 18.93500 24.85200
H  -8.30700 18.73500 23.12100
H  -9.26100 19.99200 24.04900
H  -4.09600 24.09500 20.82400
H  -1.56700 24.84900 21.81400
H  -1.59400 22.78000 21.18200
H  -2.96600 22.20600 20.34600
H  -2.67400 21.93000 22.11100
H  -3.48500 27.16500 21.64000
H  -3.58000 26.12700 20.17600
H  -1.68400 28.09000 21.11000
H  -1.87400 27.65700 19.44900
H  -0.82500 26.58600 20.60300
H  0.58200 28.81800 26.33900
H  -0.53200 29.61300 25.26100
H  0.29400 28.23700 24.68700
H  -2.81800 27.79900 30.15200
H  -1.47100 26.63800 34.17900
H  -0.02400 26.36700 33.14300
H  -1.31900 25.19300 33.13100

