158

Mg 48.38500 35.26000 27.43900
C  46.40500 33.98400 30.07400
C  49.02200 38.03100 29.39700
C  49.47200 36.83200 24.71400
C  47.60600 32.42500 25.61600
N  47.84100 35.84300 29.52000
C  47.11000 35.13700 30.36000
C  47.38700 35.66700 31.82000
C  47.72700 37.19100 31.52600
C  48.26800 37.04600 30.06200
C  46.55000 38.12400 31.79200
C  48.62900 34.94600 32.51800
C  48.68300 35.18000 34.02000
H  47.60500 36.09600 34.65000
N  49.17800 37.18000 27.08900
C  49.32700 38.10500 27.97300
C  49.85900 39.27200 27.37100
C  50.05400 38.95700 25.98600
C  49.55700 37.63600 25.86100
C  50.19800 40.53200 28.11100
C  50.74200 39.69900 24.93000
O  50.82000 39.25900 23.77600
C  51.29900 40.99100 25.29000
N  48.67500 34.66000 25.55200
C  49.10900 35.46300 24.54000
C  49.44400 34.51800 23.31300
C  49.11400 33.05200 23.75700
C  48.36400 33.38600 25.03600
C  48.82800 34.96000 21.99500
C  50.37400 32.08200 24.08500
C  50.14000 30.64600 23.54400
N  47.29000 33.61300 27.70600
C  47.06600 32.52400 26.90700
C  46.20900 31.57000 27.52200
C  45.91200 32.08700 28.76600
C  46.58600 33.31300 28.79500
C  45.85100 30.23600 27.01400
C  45.18600 31.89800 29.95500
O  44.48200 30.96000 30.27500
C  45.39700 33.10200 30.88100
C  45.67200 32.76600 32.30700
O  46.76300 32.30300 32.72800
O  44.60200 32.97700 33.07800
C  44.65000 32.58300 34.49700
H  49.25300 38.90000 30.01700
H  49.87700 37.21500 23.77500
H  47.43100 31.51700 25.03400
H  46.45200 35.50700 32.35700
H  48.55400 37.50000 32.16500
H  45.87000 37.64600 32.49600
H  46.02200 38.40000 30.87900
H  47.02600 38.96700 32.29400
H  49.56000 35.35700 32.12600
H  48.67300 33.86900 32.35600
H  49.71700 35.45100 34.23300
H  48.56400 34.21200 34.50800
H  51.26700 40.73400 28.04400
H  49.85400 40.52200 29.14500
H  49.75700 41.40200 27.62600
H  50.59200 41.67700 25.75700
H  51.62800 41.45900 24.36200
H  52.16300 40.77700 25.91900
H  50.51900 34.67800 23.23300
H  48.39800 32.56500 23.09400
H  49.64700 34.90300 21.27800
H  48.27900 35.90200 22.01000
H  48.18100 34.29300 21.42500
H  50.80300 32.19000 25.08100
H  51.03400 32.51400 23.33400
H  49.12800 30.52800 23.15800
H  50.18500 29.94000 24.37300
H  50.88600 30.33000 22.81400
H  45.74800 30.14900 25.93200
H  44.87600 30.07700 27.47500
H  46.53700 29.49800 27.43000
H  44.46400 33.66400 30.90300
H  44.28800 33.35600 35.17500
H  45.67300 32.49100 34.86000
H  44.08200 31.66300 34.63200
Mg 7.02900 53.33200 41.18300
C  5.82000 50.04100 40.97100
C  10.09200 52.18500 40.24300
C  7.97600 56.57100 40.46700
C  3.82100 54.48500 41.82600
N  7.78600 51.32800 40.54500
C  7.16000 50.13500 40.65400
C  8.15100 48.91900 40.62400
C  9.57100 49.70900 40.62700
C  9.10000 51.19300 40.48300
C  10.50000 49.55500 41.84100
C  8.02900 47.87000 39.53200
C  8.50800 48.22200 38.09800
H  7.63700 47.65700 36.93400
N  8.82400 54.24700 40.36900
C  10.00500 53.57900 40.10400
C  11.02400 54.54400 39.83100
C  10.41400 55.85500 39.82100
C  8.98600 55.60000 40.23700
C  12.46200 54.15600 39.56400
C  11.13700 57.18400 39.39600
O  12.33300 57.19800 39.00300
C  10.34400 58.40900 39.17300
N  6.06900 55.27300 41.21200
C  6.67800 56.43800 40.87900
C  5.83600 57.68500 41.30000
C  4.49700 56.98100 41.72700
C  4.76800 55.49100 41.53300
C  6.42600 58.64100 42.28300
C  3.16300 57.51700 41.00200
C  2.81300 59.03100 41.10100
N  5.17200 52.50100 41.37400
C  3.91300 53.08800 41.57200
C  2.91600 52.11500 41.55000
C  3.63200 50.90300 41.37400
C  4.99600 51.18600 41.25300
C  1.38100 52.24600 41.82500
C  3.43500 49.48700 41.30500
O  2.43000 48.81900 41.38200
C  4.87100 48.82800 40.99800
C  4.72300 47.93000 39.70700
O  4.57800 48.34200 38.55600
O  4.69800 46.58300 40.00900
C  4.82100 45.64000 38.86100
H  11.10500 51.83000 40.03700
H  8.36400 57.58200 40.32700
H  2.82600 54.74400 42.19400
H  8.06900 48.42900 41.59500
H  10.10100 49.48900 39.70100
H  10.44000 50.46500 42.43700
H  11.51000 49.39400 41.46300
H  10.36200 48.66000 42.44800
H  7.11500 47.28600 39.62900
H  8.67700 47.04100 39.81800
H  9.54700 47.99700 37.85600
H  8.41400 49.30000 37.96700
H  12.55300 53.19800 39.05300
H  13.03200 53.99200 40.47900
H  13.04100 54.88000 38.99100
H  9.48600 58.09900 38.57500
H  10.86100 59.10700 38.51500
H  10.14000 58.94600 40.09900
H  5.77900 58.30700 40.40700
H  4.52600 57.22400 42.79000
H  7.34500 58.19900 42.66800
H  5.73000 58.79700 43.10600
H  6.76800 59.51600 41.73000
H  2.29300 56.90200 41.23300
H  3.35500 57.25300 39.96200
H  3.60500 59.46600 41.71100
H  1.85300 59.20300 41.58700
H  2.72300 59.45300 40.10000
H  0.79300 51.46600 41.34300
H  1.10400 53.23900 41.47300
H  1.23100 52.14400 42.90000
H  5.24100 48.17900 41.79200
H  5.37400 46.07800 38.03000
H  3.85800 45.19100 38.61700
H  5.42600 44.82600 39.26100

