158

Mg 0.97500 7.79300 25.22600
C  1.51500 9.68400 28.24400
C  1.40400 4.98700 27.25500
C  0.89400 5.93400 22.41100
C  1.16200 10.73600 23.43400
N  1.51600 7.41400 27.50000
C  1.57400 8.29400 28.51000
C  1.74100 7.65400 29.92000
C  1.73800 6.11000 29.57300
C  1.59700 6.12900 28.02100
C  3.07700 5.41900 29.95000
C  0.53100 7.97100 30.94300
C  1.00200 8.27300 32.46500
H  2.15500 7.50100 32.97000
N  1.05300 5.72400 24.87700
C  1.13700 4.79500 25.88800
C  0.86500 3.50700 25.27900
C  0.63300 3.72700 23.87400
C  0.84300 5.12900 23.61600
C  0.60100 2.22600 26.10400
C  0.23300 2.82200 22.77000
O  -0.03500 3.21400 21.62300
C  0.03400 1.32300 22.92500
N  1.22200 8.24300 23.18900
C  1.07700 7.31000 22.18400
C  0.82100 8.02700 20.83100
C  1.09700 9.51000 21.13900
C  1.12300 9.55100 22.66300
C  1.44500 7.40800 19.54100
C  0.10000 10.44300 20.45800
C  -1.27800 10.66400 21.24200
N  1.33600 9.81800 25.63300
C  1.28300 10.90300 24.80300
C  1.44300 12.14200 25.54600
C  1.50600 11.67300 26.90800
C  1.34700 10.26900 26.91600
C  1.76200 13.49700 24.94300
C  1.82800 12.12400 28.25000
O  2.08100 13.20900 28.66200
C  1.67700 10.81000 29.15000
C  2.78200 10.81600 30.09100
O  3.88500 10.23400 29.92100
O  2.43300 11.44200 31.25800
C  3.49900 11.48600 32.25100
H  1.50000 4.09900 27.88300
H  0.75400 5.47500 21.43000
H  1.03200 11.67500 22.89100
H  2.74200 7.95900 30.22500
H  0.83400 5.67200 29.99600
H  3.14300 5.75900 30.98300
H  3.98900 5.67900 29.41200
H  3.09700 4.33000 29.90600
H  -0.28600 7.26200 30.80900
H  0.16800 8.90500 30.51500
H  0.13800 7.93000 33.03400
H  1.10500 9.35300 32.57500
H  -0.46600 2.00200 26.11000
H  0.71900 2.48500 27.15700
H  1.14400 1.35200 25.74600
H  0.80700 0.91200 23.57500
H  0.02800 0.82100 21.95700
H  -0.87400 1.16000 23.50600
H  -0.24400 7.95700 20.61100
H  2.07100 9.81600 20.75800
H  2.15400 6.62500 19.80800
H  1.94200 8.15800 18.92500
H  0.70100 6.90200 18.92500
H  -0.18500 10.25200 19.42400
H  0.52900 11.44300 20.52400
H  -2.06900 11.12600 20.65100
H  -1.23200 11.41400 22.03200
H  -1.60600 9.75000 21.73700
H  2.71700 13.33600 24.44300
H  2.04400 14.07300 25.82500
H  0.85700 13.79900 24.41700
H  0.83600 10.93900 29.83200
H  3.95400 10.51900 32.46600
H  3.08500 11.82000 33.20300
H  4.31900 12.10900 31.89300
Mg 26.17000 0.53100 28.31200
C  28.13000 0.29000 31.31300
C  23.47600 1.30000 30.33100
C  24.50700 0.89400 25.60600
C  29.00300 -0.50300 26.54900
N  25.84300 0.64000 30.61000
C  26.83500 0.75500 31.56300
C  26.17900 0.90800 32.93300
C  24.72100 1.31200 32.64900
C  24.64400 1.00900 31.10500
C  23.69600 0.67700 33.63100
C  26.86300 2.00300 33.78400
C  27.33800 1.70000 35.21500
H  27.53200 2.84900 36.26200
N  24.21300 0.90900 27.99800
C  23.26200 1.17100 28.93700
C  22.02400 1.41300 28.20000
C  22.30200 1.38800 26.83700
C  23.70600 0.90700 26.75400
C  20.67700 1.63000 28.97300
C  21.37500 1.72300 25.71000
O  21.69700 1.68500 24.50700
C  19.95800 2.11500 26.03300
N  26.70800 0.21300 26.32800
C  25.82100 0.61400 25.39100
C  26.39500 0.28000 23.99600
C  27.85300 -0.20500 24.28100
C  27.93600 -0.11800 25.85300
C  25.55500 -0.68000 23.12500
C  28.80100 0.67000 23.54600
C  29.00100 2.08300 24.05700
N  28.18500 0.00500 28.76800
C  29.17100 -0.47500 27.92500
C  30.36600 -0.81800 28.74800
C  30.00100 -0.58200 30.07100
C  28.65300 0.02500 30.04500
C  31.61600 -1.47700 28.19300
C  30.44400 -0.70800 31.46900
O  31.45500 -1.17400 31.97200
C  29.26900 -0.09100 32.29700
C  28.77900 -1.07200 33.28900
O  27.91100 -1.92300 33.08100
O  29.46900 -0.96600 34.47700
C  29.00500 -1.71100 35.59300
H  22.62200 1.69300 30.88700
H  23.96800 1.15800 24.69400
H  29.91500 -0.94300 26.14000
H  26.25500 -0.05100 33.44600
H  24.53100 2.37500 32.79600
H  22.85500 0.22400 33.10600
H  23.38600 1.39100 34.39500
H  24.25900 -0.08400 34.17100
H  26.20700 2.87300 33.81000
H  27.76300 2.37100 33.29200
H  28.37000 1.35800 35.14100
H  26.95100 0.76300 35.61600
H  20.56300 1.15400 29.94700
H  19.91700 1.07100 28.42600
H  20.31400 2.65700 28.99800
H  19.41600 1.25700 26.43000
H  19.40100 2.34200 25.12400
H  20.12000 2.94900 26.71500
H  26.39100 1.22600 23.45600
H  28.08800 -1.23100 23.99700
H  25.73000 -0.35000 22.10100
H  24.48400 -0.57700 23.30200
H  25.89300 -1.70000 23.30900
H  28.33200 0.74000 22.56500
H  29.72300 0.08800 23.56100
H  29.18200 2.74000 23.20700
H  29.83600 2.11400 24.75700
H  28.12000 2.32900 24.65000
H  31.96500 -1.26400 27.18200
H  31.43800 -2.54900 28.28500
H  32.49400 -1.18200 28.76800
H  29.69000 0.76700 32.82200
H  27.93000 -1.67300 35.76800
H  29.59600 -1.53000 36.49100
H  29.13200 -2.72700 35.22100

