158

Mg 26.58700 52.26400 25.80100
C  24.00100 53.04000 28.19800
C  28.58400 51.66100 28.40900
C  29.07800 51.82700 23.59800
C  24.47100 53.45600 23.33600
N  26.32400 52.54500 28.12600
C  25.16300 52.73300 28.83800
C  25.41500 52.35900 30.35100
C  26.93900 51.97400 30.32000
C  27.34100 52.05100 28.85100
C  27.92900 52.78700 31.31300
C  24.50100 51.20200 30.83200
C  23.56800 51.55500 32.02300
H  23.62500 50.62100 33.25400
N  28.60300 51.70700 26.00100
C  29.22000 51.53500 27.17500
C  30.52200 51.05000 26.94600
C  30.73300 51.08600 25.49000
C  29.49800 51.52500 24.96200
C  31.42700 50.46500 27.99700
C  31.84800 50.54100 24.66200
O  31.83800 50.60300 23.43900
C  32.92900 49.73500 25.30900
N  26.75500 52.52200 23.78600
C  27.93000 52.29500 23.12300
C  27.74800 52.67000 21.66700
C  26.27400 53.21300 21.52600
C  25.78300 53.04600 22.92000
C  28.92000 53.50800 21.07100
C  25.41400 52.66600 20.35200
C  25.30700 53.43200 19.00500
N  24.58900 53.04200 25.77800
C  23.86700 53.42200 24.66200
C  22.48600 53.75700 25.01600
C  22.49600 53.60400 26.42900
C  23.76600 53.19800 26.78200
C  21.34300 54.09700 24.08400
C  21.73100 53.68100 27.68400
O  20.57900 53.92900 27.87700
C  22.65500 53.42800 28.83400
C  22.78600 54.78800 29.47400
O  23.03000 55.82300 28.91000
O  22.69600 54.68900 30.80800
C  22.60000 55.97600 31.51500
H  29.33000 51.32800 29.13300
H  29.81000 51.65200 22.80700
H  23.76200 53.68800 22.53900
H  25.34800 53.18800 31.05500
H  27.02700 50.94600 30.67100
H  28.85500 53.09500 30.82900
H  28.34500 52.05900 32.00900
H  27.48200 53.50300 32.00300
H  25.08800 50.32100 31.09400
H  23.80200 51.02400 30.01600
H  22.49400 51.55500 31.83500
H  23.88000 52.52700 32.40400
H  31.37700 49.40200 27.76000
H  31.14000 50.64900 29.03200
H  32.45500 50.80200 27.86700
H  32.54000 48.90700 25.90200
H  33.50900 50.32700 26.01700
H  33.55100 49.28100 24.53800
H  27.77000 51.73000 21.11600
H  26.23900 54.28900 21.36000
H  29.57200 54.04400 21.76000
H  28.52200 54.25200 20.38100
H  29.56600 52.85000 20.49000
H  24.38900 52.41400 20.62700
H  25.88000 51.74600 20.00000
H  24.33800 53.27300 18.53200
H  25.96000 53.20400 18.16300
H  25.54800 54.47800 19.19400
H  20.40900 54.01700 24.64100
H  21.29200 53.27400 23.37200
H  21.49100 55.04200 23.56100
H  22.26900 52.67300 29.51800
H  23.59900 56.32000 31.78200
H  22.01400 55.68400 32.38700
H  22.04200 56.77800 31.03300
Mg -5.01700 25.10800 26.73200
C  -3.43900 26.58500 29.56000
C  -6.42200 22.92400 28.89900
C  -6.45700 23.70400 24.15000
C  -2.94000 27.21700 24.62200
N  -4.94100 24.81000 29.02200
C  -4.31300 25.58600 29.95500
C  -4.71300 25.19400 31.38400
C  -5.14300 23.66000 31.00600
C  -5.55100 23.77900 29.57800
C  -3.85500 22.72900 31.17800
C  -5.80800 26.16500 32.02000
C  -5.48200 26.91100 33.31300
H  -4.80600 26.05200 34.42900
N  -6.36200 23.62600 26.55600
C  -6.94100 22.84900 27.58100
C  -7.82700 21.81800 27.06100
C  -7.85400 22.10800 25.69300
C  -6.87200 23.17400 25.39500
C  -8.57800 20.75100 27.84100
C  -8.79900 21.51200 24.63300
O  -8.69800 21.81500 23.46600
C  -9.88100 20.42500 24.93100
N  -4.67300 25.38500 24.73700
C  -5.57300 24.76100 23.83900
C  -5.37800 25.30400 22.46600
C  -4.23600 26.42200 22.59900
C  -3.87400 26.36400 24.08300
C  -5.11200 24.25900 21.33300
C  -4.60000 27.89100 22.03400
C  -3.58300 28.49700 20.98100
N  -3.51700 26.65400 26.96100
C  -2.72800 27.35400 26.04600
C  -1.81500 28.16500 26.73100
C  -2.10700 27.92800 28.12200
C  -3.12900 26.96900 28.20400
C  -0.85300 29.21100 26.07000
C  -1.65300 28.23000 29.43600
O  -0.69500 28.90100 29.77400
C  -2.65500 27.44700 30.44300
C  -1.68200 26.81800 31.39200
O  -1.29900 25.65400 31.22900
O  -1.35300 27.64800 32.45900
C  -0.44200 27.01000 33.41600
H  -6.90200 22.18000 29.53800
H  -7.07000 23.51100 23.26700
H  -2.43500 27.85100 23.89000
H  -3.77700 25.24400 31.93900
H  -5.96500 23.41500 31.67900
H  -3.97500 22.28200 32.16500
H  -2.96000 23.35000 31.21900
H  -3.82000 21.88800 30.48500
H  -6.76300 25.66500 32.17900
H  -5.96200 26.80700 31.15300
H  -6.38700 27.36000 33.72100
H  -4.71700 27.64300 33.05600
H  -8.29200 20.80400 28.89200
H  -8.39100 19.71600 27.55800
H  -9.65500 20.91300 27.88300
H  -9.39900 19.46000 25.08800
H  -10.47900 20.40800 24.02000
H  -10.41000 20.68800 25.84700
H  -6.28100 25.85400 22.20100
H  -3.39300 26.05200 22.01700
H  -4.63500 24.62800 20.42500
H  -6.05900 24.04200 20.83800
H  -4.78300 23.28400 21.69300
H  -4.82000 28.64100 22.79500
H  -5.55500 27.80800 21.51500
H  -3.49300 29.58000 21.06600
H  -4.08100 28.22600 20.05000
H  -2.54200 28.17300 20.98500
H  -0.66600 28.93500 25.03200
H  0.06200 29.26800 26.66000
H  -1.20600 30.24100 26.01700
H  -3.22500 28.09200 31.11100
H  0.38400 26.60200 32.83400
H  -1.01000 26.28000 33.99300
H  -0.14800 27.78600 34.12200

