158

Mg 41.42100 8.65200 29.73900
C  43.06700 9.49400 32.73500
C  39.22100 6.70100 31.70400
C  39.88200 7.57200 26.89700
C  43.96000 9.93700 27.89300
N  41.30600 8.09400 31.93300
C  41.92400 8.70800 32.97700
C  41.36600 8.35800 34.35600
C  40.26400 7.20000 34.00000
C  40.25700 7.31300 32.42200
C  40.65100 5.74900 34.45800
C  40.90800 9.63100 35.10300
C  41.22100 9.77300 36.58100
H  41.48500 11.10800 37.20400
N  39.73900 7.40000 29.35500
C  38.96600 6.73400 30.32500
C  37.80500 6.15900 29.68800
C  37.91200 6.46300 28.28000
C  39.22800 7.13600 28.09800
C  36.70200 5.32500 30.38000
C  37.01100 6.17600 27.19000
O  37.30700 6.38500 26.06100
C  35.62800 5.61300 27.50900
N  41.83300 8.77700 27.77400
C  41.05800 8.33200 26.80000
C  41.68600 8.59900 25.49300
C  42.86500 9.51000 25.74800
C  42.85900 9.45400 27.25200
C  42.08700 7.26300 24.79800
C  42.60500 10.94800 25.31900
C  41.32400 11.67600 25.65600
N  43.15300 9.53800 30.15100
C  44.17400 9.96400 29.29000
C  45.23200 10.50700 30.01400
C  44.80900 10.45200 31.34500
C  43.63600 9.76800 31.38700
C  46.54700 11.01700 29.52000
C  45.07800 10.88400 32.75600
O  46.06400 11.45200 33.23300
C  43.87200 10.29900 33.60200
C  44.52300 9.61300 34.78000
O  45.01900 8.51700 34.73300
O  44.58500 10.41500 35.94900
C  45.50000 10.02800 37.04500
H  38.48000 6.12000 32.25700
H  39.42100 7.28000 25.95100
H  44.67500 10.53000 27.31900
H  42.19400 7.93600 34.92500
H  39.25300 7.37100 34.36800
H  41.64100 5.63900 34.90000
H  40.73300 4.94700 33.72400
H  39.89900 5.26500 35.08200
H  39.81900 9.60700 35.06700
H  41.17800 10.55900 34.59900
H  42.13000 9.20800 36.78600
H  40.30000 9.41700 37.04200
H  36.68900 5.23900 31.46600
H  36.54100 4.30100 30.04400
H  35.71500 5.76100 30.22500
H  35.14500 6.23600 28.26100
H  35.77200 4.60400 27.89500
H  35.07100 5.60100 26.57200
H  41.01600 9.15700 24.84000
H  43.80800 9.25000 25.26800
H  41.89200 6.38800 25.41800
H  43.14700 7.31700 24.55000
H  41.48500 7.18200 23.89300
H  42.62900 11.02400 24.23200
H  43.36100 11.63800 25.69300
H  40.72600 11.19800 26.43200
H  40.70500 11.81500 24.76900
H  41.73500 12.62900 25.98900
H  46.82000 11.97400 29.96500
H  46.58300 11.14300 28.43800
H  47.30900 10.26300 29.71800
H  43.29500 11.15700 33.94800
H  45.99300 9.07800 36.83900
H  44.92300 9.89600 37.96000
H  46.31100 10.74500 37.17000
Mg 47.46300 24.32100 28.09600
C  48.54000 26.68500 30.44000
C  47.12400 21.99200 30.45300
C  46.86500 22.24700 25.64800
C  48.49000 26.70300 25.50800
N  47.71500 24.36500 30.27800
C  48.01500 25.48300 31.08700
C  47.95400 25.03300 32.55800
C  47.52000 23.54000 32.51700
C  47.52100 23.24800 30.98600
C  48.30500 22.55700 33.44300
C  47.11800 26.00000 33.29800
C  46.50600 25.52700 34.58000
H  46.33600 26.58800 35.66400
N  46.93900 22.39700 28.08400
C  46.84600 21.54800 29.14800
C  46.53000 20.19300 28.68400
C  46.43900 20.28600 27.34500
C  46.75600 21.73100 26.98300
C  46.49600 19.03600 29.63000
C  46.29300 19.07800 26.35300
O  46.38900 19.19200 25.13100
C  45.87900 17.63200 26.86400
N  47.78000 24.48900 25.90200
C  47.28300 23.49800 25.16600
C  47.42300 23.68800 23.57800
C  47.85900 25.18900 23.56500
C  48.07800 25.41400 25.03700
C  48.55500 22.68100 22.94400
C  46.87500 26.15400 22.87500
C  47.54300 27.32900 22.12600
N  48.38500 26.29400 27.95200
C  48.58300 27.10100 26.85800
C  49.06200 28.33700 27.42600
C  49.15200 28.25300 28.82500
C  48.68400 26.95400 29.09300
C  49.57200 29.51400 26.56200
C  49.44600 28.95700 30.10400
O  49.91500 30.11600 30.33200
C  48.97200 27.92300 31.14200
C  49.94800 27.77600 32.37100
O  50.87900 27.03000 32.52400
O  49.71700 28.80700 33.30000
C  49.98000 28.51300 34.69500
H  46.95700 21.21800 31.20500
H  46.66800 21.59200 24.79700
H  48.61700 27.56000 24.84300
H  48.96400 25.08100 32.96300
H  46.52300 23.40800 32.93700
H  47.69900 21.72900 33.81100
H  48.73100 23.08400 34.29700
H  49.15300 22.17700 32.87400
H  46.29900 26.31100 32.64800
H  47.77500 26.85500 33.45700
H  47.18800 24.80500 35.03000
H  45.53900 25.13600 34.26500
H  47.44100 18.49300 29.65100
H  45.61100 18.41500 29.49000
H  46.49700 19.47300 30.62900
H  45.97500 16.90300 26.05900
H  44.85800 17.61700 27.24600
H  46.58300 17.29400 27.62400
H  46.41600 23.49500 23.20500
H  48.84600 25.38900 23.14700
H  48.84500 21.97600 23.72300
H  49.40300 23.19500 22.49100
H  48.00500 22.29800 22.08400
H  46.09400 26.50300 23.55100
H  46.43200 25.54900 22.08400
H  47.46500 27.10800 21.06200
H  48.58400 27.61700 22.27500
H  46.94800 28.20100 22.40000
H  49.02800 29.57500 25.62000
H  50.63100 29.34300 26.36600
H  49.55600 30.47800 27.07100
H  48.06400 28.35700 31.56100
H  49.10100 28.71800 35.30400
H  50.70300 29.27500 34.98600
H  50.36400 27.51800 34.91800

