158

Mg -1.74800 17.51400 26.96000
C  -2.53300 15.43400 29.84500
C  -2.21800 20.12000 29.06000
C  -1.18900 19.36100 24.36800
C  -2.19700 14.70200 25.00200
N  -2.11300 17.65000 29.30100
C  -2.45000 16.73100 30.26400
C  -2.65700 17.35000 31.63200
C  -2.79400 18.88600 31.21000
C  -2.35900 18.92100 29.74000
C  -4.15800 19.49500 31.63200
C  -1.56000 17.15900 32.70800
C  -2.02700 16.75100 34.15400
H  -1.29900 17.25700 35.40000
N  -1.68300 19.52400 26.75400
C  -1.90400 20.51300 27.71000
C  -1.66100 21.78200 27.18600
C  -1.24800 21.56000 25.81300
C  -1.35900 20.13000 25.57500
C  -1.82600 23.02600 27.99300
C  -0.77300 22.52100 24.75700
O  -0.33300 22.20300 23.61200
C  -0.74200 24.04700 24.98100
N  -1.68200 17.09900 24.98900
C  -1.45000 18.01800 24.06400
C  -1.48200 17.46600 22.60000
C  -1.84900 15.98100 22.83000
C  -1.86600 15.88700 24.39400
C  -2.46000 18.12800 21.71700
C  -0.81800 15.10600 22.15800
C  0.63800 15.25500 22.68800
N  -2.17100 15.46400 27.28300
C  -2.33700 14.45400 26.35700
C  -2.54100 13.20500 27.03800
C  -2.69800 13.58600 28.40800
C  -2.46900 14.94000 28.49600
C  -2.73000 11.86100 26.35100
C  -2.96900 13.01300 29.71800
O  -3.31200 11.89400 30.01600
C  -2.72800 14.19000 30.67600
C  -1.49300 13.84400 31.47600
O  -0.35600 14.03800 31.14000
O  -1.81000 13.22000 32.66400
C  -0.64100 12.57200 33.38000
H  -2.52800 20.99500 29.63600
H  -1.07400 20.00100 23.49100
H  -2.39800 13.77900 24.45400
H  -3.58400 17.00200 32.08700
H  -2.10100 19.59000 31.67100
H  -4.53400 20.12700 30.82700
H  -4.05500 20.20600 32.45200
H  -4.79300 18.66900 31.95300
H  -0.87000 18.00300 32.73200
H  -0.86300 16.39500 32.36400
H  -2.00700 15.66200 34.20800
H  -3.06600 17.08000 34.14500
H  -0.99500 23.27500 28.65300
H  -2.69900 22.98600 28.64500
H  -1.98500 23.96000 27.45400
H  -0.33600 24.16600 25.98600
H  -1.78200 24.26800 24.74200
H  -0.03000 24.61300 24.38200
H  -0.48400 17.46100 22.16300
H  -2.81000 15.61500 22.47100
H  -3.30700 18.31700 22.37700
H  -2.64400 17.57900 20.79400
H  -1.97900 19.06200 21.42600
H  -0.80800 15.26800 21.08100
H  -1.18200 14.08100 22.23600
H  0.65000 16.01300 23.47200
H  1.20400 15.71800 21.87800
H  1.02800 14.35000 23.15400
H  -3.04300 11.10200 27.06800
H  -1.80700 11.49400 25.90100
H  -3.54900 11.93500 25.63500
H  -3.49100 14.27500 31.45000
H  -0.67600 12.78900 34.44800
H  0.38900 12.82900 33.13100
H  -0.74400 11.48900 33.30600
Mg 39.74500 9.67900 29.47200
C  41.71200 10.81700 32.24500
C  37.68700 8.06400 31.64600
C  38.23900 8.43800 26.90300
C  42.40400 10.79300 27.39200
N  39.70900 9.49000 31.70200
C  40.58300 10.06000 32.60400
C  40.16400 9.72600 34.04300
C  38.96400 8.76000 33.82800
C  38.71400 8.74800 32.28900
C  39.12800 7.32500 34.32100
C  39.61500 10.97700 34.75000
C  39.85000 10.96400 36.29700
H  40.40900 12.22500 37.06900
N  38.08200 8.56500 29.28600
C  37.36500 8.00800 30.26200
C  36.16600 7.32300 29.69200
C  36.34200 7.52100 28.29700
C  37.63600 8.21400 28.10500
C  34.98800 6.75200 30.53600
C  35.36700 7.08600 27.19300
O  35.65600 7.19700 26.00000
C  33.97200 6.59200 27.53100
N  40.11000 9.76300 27.40600
C  39.35900 9.16500 26.53000
C  39.91600 9.31000 25.05300
C  41.13600 10.21400 25.27500
C  41.19100 10.34000 26.81600
C  40.16200 7.90700 24.39700
C  41.22300 11.48200 24.49900
C  39.99500 12.43500 24.46100
N  41.74000 10.63500 29.67600
C  42.70000 10.98800 28.72800
C  43.74500 11.72900 29.35200
C  43.28100 11.73600 30.69900
C  42.11000 11.01100 30.87100
C  45.01500 12.22700 28.75800
C  43.69300 12.31600 32.06600
O  44.63500 12.97600 32.42300
C  42.71300 11.57900 33.07100
C  43.45400 10.76600 34.00500
O  43.51300 9.51800 33.97600
O  43.68100 11.58500 35.11000
C  44.15900 10.84700 36.34700
H  36.94200 7.60700 32.30200
H  37.66300 8.09300 26.04200
H  43.23300 11.12700 26.76500
H  41.00900 9.26500 34.55400
H  38.04700 9.11100 34.30200
H  39.05900 6.65600 33.46400
H  38.41300 7.09300 35.11000
H  40.15300 7.26700 34.68700
H  38.57700 11.06400 34.42800
H  40.05700 11.91000 34.39900
H  40.48500 10.11500 36.54800
H  38.88400 10.85900 36.79100
H  35.10200 6.99100 31.59400
H  34.80200 5.67800 30.50900
H  34.10700 7.28500 30.17800
H  33.86400 5.57900 27.91900
H  33.45100 6.54700 26.57500
H  33.36600 7.25700 28.14500
H  39.02400 9.77800 24.63600
H  42.01300 9.65700 24.94500
H  40.03100 7.07600 25.09000
H  41.12000 7.78200 23.89400
H  39.43000 7.87500 23.58900
H  41.54200 11.29400 23.47400
H  41.98300 12.05200 25.03500
H  40.15900 13.45900 24.79500
H  39.26400 11.96000 25.11600
H  39.43000 12.29300 23.54000
H  45.10800 11.63000 27.85100
H  45.92300 11.90400 29.26600
H  44.95400 13.31500 28.71500
H  42.10300 12.18400 33.74100
H  44.98400 11.36600 36.83700
H  44.58400 9.87600 36.09500
H  43.34800 10.62900 37.04100

