158

Mg 0.17700 -2.57200 44.39500
C  3.68900 -2.23200 44.30300
C  -0.02800 0.24100 42.48700
C  -3.06000 -3.21900 44.11100
C  0.61900 -5.69500 45.85200
N  1.78400 -1.20000 43.35100
C  3.09800 -1.16500 43.53000
C  3.76700 0.02200 42.75500
C  2.50600 0.88100 42.41500
C  1.32000 -0.08800 42.73000
C  2.39300 2.18700 43.18700
C  4.64400 -0.43100 41.55100
C  5.62400 0.61500 40.97100
H  5.25500 1.09800 39.60500
N  -1.26100 -1.60800 43.43000
C  -1.20000 -0.46600 42.72500
C  -2.51000 -0.03000 42.31700
C  -3.41700 -1.08700 42.62000
C  -2.59400 -2.01400 43.49200
C  -2.69100 1.07900 41.33200
C  -4.77200 -1.17600 42.05500
O  -5.26000 -0.32300 41.31000
C  -5.53900 -2.42400 42.24900
N  -1.06800 -4.10100 45.00400
C  -2.36300 -4.15100 44.82400
C  -3.03200 -5.43800 45.23400
C  -1.85300 -6.27900 45.80500
C  -0.68000 -5.32200 45.48500
C  -4.23800 -5.28100 46.19000
C  -1.77400 -7.76600 45.28500
C  -1.55900 -8.87400 46.33600
N  1.74500 -3.69300 45.07300
C  1.75400 -4.92800 45.67000
C  3.15400 -5.29400 45.94400
C  3.89400 -4.21600 45.42200
C  3.02000 -3.31800 44.82200
C  3.65100 -6.43900 46.66200
C  5.28500 -3.70600 45.28700
O  6.34600 -4.12500 45.74500
C  5.15900 -2.52200 44.35000
C  5.98500 -1.34900 44.85500
O  5.74400 -0.59300 45.76800
O  7.03800 -1.07400 43.90800
C  8.02000 -0.05000 44.29400
H  -0.14000 1.19100 41.96000
H  -4.11600 -3.48600 44.18700
H  0.74800 -6.65800 46.35000
H  4.38400 0.54100 43.48800
H  2.53700 1.32900 41.42200
H  3.33600 2.69600 43.38600
H  1.77500 2.15400 44.08400
H  1.95800 2.91800 42.50600
H  3.91700 -0.63000 40.76400
H  5.23600 -1.29000 41.86600
H  6.60700 0.14500 40.97800
H  5.72800 1.42900 41.68800
H  -2.33500 0.79800 40.34100
H  -2.18000 1.98800 41.64900
H  -3.72000 1.40700 41.18300
H  -4.94900 -3.30400 41.99300
H  -6.35700 -2.33800 41.53300
H  -5.94500 -2.32000 43.25600
H  -3.26700 -5.94500 44.29800
H  -1.96100 -6.48100 46.87100
H  -4.01100 -5.59800 47.20800
H  -4.88200 -6.03800 45.74200
H  -4.55100 -4.24200 46.29100
H  -0.94500 -7.76300 44.57700
H  -2.70900 -8.04500 44.80000
H  -0.59000 -9.35900 46.22300
H  -2.26700 -9.68800 46.17600
H  -1.58800 -8.50600 47.36100
H  3.12800 -6.56700 47.60900
H  4.70000 -6.22400 46.86800
H  3.48800 -7.33600 46.06400
H  5.48600 -3.02800 43.44200
H  7.42600 0.64100 44.89300
H  8.33600 0.47800 43.39400
H  8.79100 -0.57500 44.85700
Mg 26.99500 49.35000 26.38800
C  24.67700 50.44500 28.72800
C  29.15000 48.71600 29.09000
C  29.26800 48.35500 24.29000
C  24.91000 50.46500 23.85300
N  26.93600 49.69100 28.67800
C  25.80600 49.93600 29.35200
C  25.98100 49.71600 30.93700
C  27.50400 49.28300 30.96200
C  27.87200 49.18800 29.49700
C  28.38100 50.41000 31.61500
C  24.98800 48.66100 31.52300
C  24.12300 48.93600 32.73200
H  24.76700 49.67800 33.96600
N  28.90900 48.70100 26.66200
C  29.61600 48.46900 27.82500
C  30.87800 47.90700 27.54900
C  31.02800 47.93400 26.19200
C  29.69700 48.31300 25.62800
C  31.94500 47.51800 28.58300
C  32.26400 47.55200 25.28900
O  32.34300 47.66900 24.06300
C  33.60200 47.12800 25.88700
N  27.14400 49.53800 24.33900
C  28.14400 48.87900 23.69000
C  27.86300 48.80000 22.22600
C  26.39100 49.35400 22.02100
C  26.17400 49.87800 23.49500
C  28.90800 49.50400 21.33000
C  25.39100 48.20900 21.54900
C  24.62400 47.36500 22.58800
N  25.13900 50.24700 26.26100
C  24.41300 50.67000 25.10800
C  23.18500 51.29400 25.57500
C  23.19400 51.16000 26.92600
C  24.43100 50.56800 27.37100
C  22.16400 51.99500 24.69300
C  22.40800 51.34800 28.16400
O  21.27400 51.80500 28.30800
C  23.28500 50.83300 29.39700
C  23.41600 51.96700 30.40900
O  24.36500 52.73600 30.46700
O  22.47200 51.80100 31.37900
C  22.49400 52.76300 32.39300
H  29.77900 48.34800 29.90300
H  29.97500 47.89700 23.59600
H  24.20600 50.69800 23.05200
H  25.75900 50.62300 31.49900
H  27.69300 48.35600 31.50300
H  29.32500 50.49900 31.07700
H  28.57000 50.13700 32.65300
H  27.89400 51.38300 31.54300
H  25.65000 47.84100 31.80000
H  24.42000 48.23100 30.69800
H  23.81700 47.92900 33.01500
H  23.28200 49.56500 32.44000
H  32.17600 46.46600 28.41300
H  31.57200 47.53700 29.60700
H  32.90700 48.02700 28.63100
H  34.12300 46.67100 25.04600
H  33.32400 46.38700 26.63700
H  34.11200 47.98400 26.32700
H  27.97500 47.74700 21.96500
H  26.29600 50.27200 21.44200
H  29.45300 48.75800 20.75200
H  29.50500 50.15600 21.96700
H  28.44300 50.21400 20.64500
H  26.01000 47.60400 20.88600
H  24.64300 48.74600 20.96600
H  24.92700 46.39500 22.19400
H  23.53800 47.44100 22.62300
H  25.06600 47.43400 23.58200
H  22.01000 51.49000 23.74000
H  22.50200 53.01200 24.49600
H  21.26000 52.05500 25.29900
H  22.74900 50.01300 29.87600
H  22.58700 53.79000 32.04200
H  23.23900 52.50500 33.14600
H  21.47900 52.70400 32.78500

