158

Mg 35.69700 0.92700 29.80100
C  33.29700 1.65800 32.31400
C  38.13500 1.52000 32.19000
C  37.92000 0.42500 27.45500
C  33.07300 1.13100 27.38300
N  35.57600 1.31700 32.04100
C  34.58500 1.45400 32.82500
C  34.99200 1.83600 34.22000
C  36.51400 2.19700 34.00000
C  36.80700 1.65900 32.61900
C  36.97200 3.64700 34.07900
C  34.67400 0.78500 35.26100
C  34.16100 1.40200 36.55100
H  35.03400 2.39000 37.28400
N  37.77300 0.79300 29.85200
C  38.62500 1.07900 30.85600
C  39.97900 1.02900 30.45200
C  39.89700 0.56900 29.09100
C  38.52100 0.61400 28.75800
C  41.11600 1.36800 31.43700
C  41.03400 0.36000 28.05900
O  40.83000 0.02800 26.89500
C  42.38700 0.32200 28.48600
N  35.51700 0.80400 27.80600
C  36.60400 0.49000 27.03900
C  36.19300 0.34700 25.57300
C  34.67700 0.50000 25.62600
C  34.37700 0.78700 27.04900
C  36.97500 1.21000 24.56300
C  33.87100 -0.65400 25.04100
C  33.76100 -1.96600 25.88900
N  33.61600 1.42700 29.78800
C  32.77400 1.45600 28.74800
C  31.49100 1.94200 29.24700
C  31.63200 1.98700 30.66300
C  32.94200 1.63300 30.92900
C  30.30800 2.37600 28.45800
C  30.98600 2.31000 31.86500
O  29.92600 2.85400 32.04100
C  32.05700 2.11800 33.01500
C  32.31300 3.38400 33.73000
O  33.09400 4.26100 33.33500
O  31.64200 3.42300 34.98900
C  31.85900 4.63700 35.83500
H  38.90600 1.86300 32.88200
H  38.51600 0.08700 26.60400
H  32.34700 1.28600 26.58300
H  34.56200 2.79400 34.51200
H  37.14300 1.65800 34.70800
H  36.15900 4.29300 34.41100
H  37.27900 4.05100 33.11400
H  37.77300 3.77000 34.80800
H  35.52000 0.14900 35.52200
H  33.85000 0.14800 34.94000
H  33.99700 0.60400 37.27500
H  33.23000 1.91600 36.31100
H  41.17000 2.45300 31.53200
H  42.10900 1.05100 31.11800
H  40.87900 0.91700 32.40000
H  42.94300 -0.15400 27.67800
H  42.40000 -0.34500 29.34800
H  42.71500 1.32500 28.75800
H  36.37500 -0.68800 25.28400
H  34.40800 1.41700 25.10200
H  36.37900 2.10200 24.36800
H  37.30600 0.71800 23.64800
H  37.92600 1.50000 25.00800
H  34.11100 -0.87500 24.00100
H  32.82200 -0.35800 25.05300
H  34.57200 -1.91400 26.61600
H  33.92700 -2.83700 25.25500
H  32.79600 -2.06200 26.38600
H  30.55500 3.18700 27.77300
H  29.44100 2.62900 29.06800
H  30.05400 1.49600 27.86800
H  31.58400 1.41900 33.70400
H  32.21000 5.47900 35.23900
H  32.64200 4.33700 36.53100
H  30.94000 4.90200 36.35800
Mg 46.64200 24.92900 28.71600
C  47.15700 27.26900 31.51900
C  45.38600 22.77100 30.77600
C  46.76900 22.93900 26.16000
C  48.00400 27.53100 26.61400
N  46.49600 24.99800 30.92600
C  46.59900 26.00800 31.81700
C  46.01300 25.60600 33.18000
C  45.45500 24.14400 32.91300
C  45.73300 24.00500 31.41600
C  46.21100 23.11400 33.82000
C  44.96000 26.55100 33.78700
C  45.23500 26.89600 35.19400
H  44.12200 27.00600 36.24700
N  46.25400 23.01500 28.55900
C  45.75200 22.23100 29.55400
C  45.37200 20.95800 28.93800
C  45.82100 20.93800 27.53000
C  46.30700 22.32300 27.34800
C  44.58800 19.93500 29.73500
C  45.70600 19.85400 26.52700
O  46.05700 20.06400 25.42700
C  44.97600 18.53900 26.84400
N  47.35500 25.23900 26.66000
C  47.19400 24.23200 25.80400
C  47.47000 24.62100 24.36200
C  47.68100 26.14300 24.45900
C  47.66300 26.34900 25.97700
C  48.65000 23.87900 23.71300
C  46.70400 27.11500 23.76900
C  45.29100 26.97400 24.39900
N  47.47600 26.94500 28.92800
C  47.98300 27.85300 28.04700
C  48.39700 29.09700 28.73500
C  48.00000 28.91600 30.09100
C  47.56600 27.56200 30.18200
C  48.95000 30.35900 28.06100
C  47.81800 29.56700 31.37800
O  47.97900 30.72000 31.74700
C  47.42900 28.45100 32.40100
C  48.58500 28.13800 33.23100
O  49.71400 28.33700 32.95000
O  48.11900 27.75200 34.44900
C  49.20600 27.44400 35.45700
H  44.82100 22.06700 31.39200
H  46.66900 22.23900 25.32800
H  48.41100 28.27200 25.92400
H  46.85300 25.48500 33.86300
H  44.42500 24.10500 33.26800
H  46.12500 23.54600 34.81800
H  47.29200 23.10000 33.67900
H  45.86600 22.08200 33.75800
H  43.99700 26.05200 33.89500
H  44.86400 27.44300 33.16700
H  45.62400 27.91300 35.24900
H  46.06600 26.32000 35.60100
H  43.76700 19.44300 29.21200
H  44.23000 20.30500 30.69600
H  45.32400 19.18900 30.03200
H  45.41900 17.98700 27.67300
H  44.96200 17.84500 26.00300
H  43.90800 18.69300 27.00100
H  46.55800 24.44000 23.79400
H  48.66600 26.42200 24.08600
H  49.34900 23.63500 24.51300
H  48.96300 24.49900 22.87300
H  48.27600 22.89900 23.41300
H  46.56800 26.95000 22.70000
H  47.04700 28.14000 23.90600
H  44.55500 27.17000 23.62000
H  45.18200 27.83100 25.06500
H  45.06600 26.03300 24.90100
H  48.33200 31.19500 28.38800
H  48.88500 30.11400 27.00000
H  49.98700 30.51900 28.35600
H  46.65600 28.86000 33.05100
H  48.74900 27.19900 36.41500
H  49.97600 28.21100 35.53800
H  49.83000 26.63900 35.06900

