158

Mg 2.40000 -1.76600 45.61300
C  5.71400 -0.86800 44.93700
C  1.37400 0.84900 43.70300
C  -0.70400 -2.91500 45.98700
C  3.72200 -4.56700 47.20500
N  3.42000 -0.33700 44.13800
C  4.75300 -0.05900 44.22500
C  5.05500 1.24000 43.40800
C  3.65000 1.86100 43.33900
C  2.75500 0.71300 43.69600
C  3.47300 3.10600 44.17600
C  5.67400 0.82100 42.08100
C  6.58100 1.88000 41.50400
H  6.00800 2.60800 40.15200
N  0.59200 -1.10000 44.95700
C  0.41400 0.02900 44.27000
C  -1.01200 0.26900 44.12400
C  -1.71600 -0.90000 44.66600
C  -0.60200 -1.68700 45.28600
C  -1.65000 1.37900 43.41500
C  -3.18200 -1.26100 44.63800
O  -3.91900 -0.39300 44.20200
C  -3.83200 -2.41700 45.25900
N  1.67000 -3.61100 46.27700
C  0.34400 -3.80400 46.37300
C  0.11400 -5.14400 47.09400
C  1.43700 -5.41100 47.84000
C  2.36400 -4.50800 47.04300
C  -1.21000 -5.38200 47.98200
C  1.81300 -6.90900 47.83400
C  2.35600 -7.52900 49.07800
N  4.36300 -2.58800 45.96200
C  4.66900 -3.74200 46.64600
C  6.10300 -3.91300 46.62900
C  6.58500 -2.67800 46.08100
C  5.44800 -1.99600 45.62700
C  6.86500 -5.05300 47.28800
C  7.78400 -1.89000 45.83900
O  8.97600 -2.08700 46.05400
C  7.22100 -0.66400 45.01300
C  7.60800 0.63000 45.65100
O  7.38100 0.92300 46.78600
O  8.32700 1.38500 44.78800
C  8.90500 2.64700 45.19700
H  1.10900 1.86000 43.38600
H  -1.71900 -3.22200 46.24600
H  4.14400 -5.42700 47.73000
H  5.72500 1.92300 43.93000
H  3.46400 2.15100 42.30500
H  3.29200 4.00600 43.58700
H  4.26000 3.30400 44.90400
H  2.56600 3.04900 44.77700
H  4.85900 0.58100 41.39800
H  6.12800 -0.13800 42.33100
H  7.51200 1.37600 41.24600
H  6.85300 2.63600 42.24000
H  -2.68600 1.55400 43.70600
H  -1.57200 1.26400 42.33400
H  -1.07900 2.27500 43.66000
H  -3.35300 -3.24400 44.73500
H  -4.89400 -2.31000 45.03700
H  -3.75200 -2.55200 46.33800
H  -0.08400 -5.76500 46.22000
H  1.34400 -5.01500 48.85200
H  -0.89600 -5.59700 49.00400
H  -1.72400 -6.22700 47.52500
H  -1.87100 -4.51800 48.05200
H  2.56300 -6.89500 47.04300
H  0.90900 -7.40600 47.48300
H  3.43600 -7.53900 48.93100
H  2.10200 -8.58000 49.21500
H  2.09600 -6.96300 49.97200
H  7.07500 -5.84900 46.57300
H  6.35500 -5.60200 48.08000
H  7.74900 -4.60200 47.73800
H  7.65600 -0.73000 44.01600
H  9.84900 2.76300 44.66500
H  9.15100 2.72300 46.25700
H  8.14600 3.39100 44.95800
Mg 25.46300 1.83000 29.58800
C  27.90000 1.40000 32.39400
C  23.15700 1.95900 32.00000
C  23.29100 2.04100 27.15800
C  28.14800 1.16700 27.44300
N  25.51500 1.60000 31.96300
C  26.58600 1.57900 32.86500
C  26.04400 1.79200 34.32600
C  24.48300 1.70900 34.14700
C  24.34200 1.74000 32.60400
C  23.98000 0.39800 34.90600
C  26.62700 3.07400 35.07700
C  26.91300 2.96500 36.52000
H  26.26900 4.15500 37.43000
N  23.51200 2.06500 29.50000
C  22.75300 2.19100 30.64800
C  21.37300 2.50200 30.24700
C  21.34000 2.44900 28.82700
C  22.71100 2.13500 28.44000
C  20.21500 2.68200 31.21000
C  20.04800 2.44500 27.91700
O  20.15100 2.38200 26.70100
C  18.81300 2.69400 28.44000
N  25.68600 1.43800 27.59400
C  24.66100 1.81800 26.72900
C  25.15300 1.80100 25.29300
C  26.73900 1.71400 25.44400
C  26.89000 1.37900 26.90100
C  24.44400 0.65300 24.40900
C  27.61600 2.96000 24.98800
C  27.23300 4.30100 25.64400
N  27.52900 1.24500 29.78800
C  28.42700 0.99700 28.79700
C  29.72000 0.82800 29.34800
C  29.54100 0.86800 30.71000
C  28.18300 1.21300 30.93900
C  30.98300 0.56300 28.56000
C  30.24000 0.80100 31.99600
O  31.35200 0.53200 32.23200
C  29.19300 1.17900 33.10900
C  29.05600 0.15800 34.17100
O  28.27900 -0.79900 34.19100
O  29.93200 0.42300 35.22300
C  29.79600 -0.52700 36.35700
H  22.30700 2.08600 32.67300
H  22.69100 2.37200 26.30700
H  28.93200 1.15800 26.68300
H  26.44700 0.89100 34.78900
H  24.00900 2.60000 34.55800
H  24.61400 0.29700 35.78700
H  23.85200 -0.43200 34.21200
H  22.97100 0.72400 35.15700
H  25.90200 3.87100 34.91200
H  27.47200 3.51200 34.54600
H  27.98400 2.77400 36.59900
H  26.42900 2.08500 36.94300
H  19.82300 3.66800 30.96100
H  20.44200 2.63700 32.27600
H  19.54600 1.87300 30.91600
H  18.26400 1.87400 28.90200
H  18.16400 2.97900 27.61100
H  18.86700 3.49600 29.17600
H  25.04900 2.77600 24.81500
H  27.06700 0.89900 24.79900
H  23.58100 0.24600 24.93600
H  25.24200 -0.02100 24.09900
H  24.06500 1.06800 23.47500
H  27.54400 3.08600 23.90700
H  28.65800 2.73400 25.21400
H  28.02100 4.70700 26.27900
H  26.37500 4.26600 26.31600
H  27.01500 5.04400 24.87600
H  31.79400 0.83700 29.23500
H  31.06900 1.14900 27.64400
H  31.07300 -0.51300 28.40900
H  29.67200 2.01600 33.61700
H  28.90600 -0.15500 36.86500
H  30.68400 -0.51500 36.98800
H  29.55900 -1.54900 36.06000

