158

Mg 16.11200 52.45300 25.46600
C  18.28400 51.51500 27.92500
C  13.79200 53.31300 27.73900
C  13.92200 53.42500 22.94600
C  18.35500 51.40600 23.07700
N  16.08600 52.44500 27.63500
C  17.10500 51.99500 28.44500
C  16.70800 52.25200 29.99500
C  15.19000 52.69900 29.85600
C  15.02100 52.86600 28.34700
C  14.15200 51.72100 30.43700
C  17.57700 53.35600 30.70300
C  17.61500 53.38400 32.26300
H  16.67200 52.57800 33.18100
N  14.17300 53.43000 25.35200
C  13.32500 53.63500 26.41100
C  12.13000 54.25400 25.97200
C  12.21000 54.34200 24.54400
C  13.52100 53.82000 24.19400
C  10.93400 54.66900 26.90300
C  11.11400 54.71000 23.51100
O  11.27900 54.67700 22.28100
C  9.68500 55.03200 24.00200
N  16.16600 52.59600 23.30900
C  15.14100 52.89000 22.56200
C  15.48700 52.55800 21.06200
C  16.88200 52.03400 21.11900
C  17.17900 51.99100 22.60100
C  14.44500 51.62200 20.31700
C  17.97700 52.81400 20.30100
C  18.65500 51.99300 19.18000
N  17.97700 51.72800 25.40500
C  18.78200 51.41300 24.35500
C  19.94100 50.77100 24.86900
C  19.84500 50.85400 26.22000
C  18.62800 51.46500 26.52400
C  21.00600 50.02600 24.10200
C  20.44500 50.36100 27.46100
O  21.42000 49.63800 27.64400
C  19.54400 50.92700 28.60500
C  19.22100 49.83600 29.56900
O  18.68700 48.79400 29.42000
O  19.70800 50.16000 30.76600
C  19.42400 49.29900 31.94800
H  13.12800 53.58200 28.56400
H  13.42300 53.86800 22.08200
H  18.73700 50.82500 22.23500
H  16.81800 51.29900 30.51300
H  15.06900 53.67600 30.32400
H  14.67900 50.81500 30.73500
H  13.52300 51.38800 29.61200
H  13.61800 52.04200 31.33100
H  17.17800 54.31800 30.38200
H  18.61800 53.31100 30.38300
H  17.70200 54.39000 32.67200
H  18.56500 52.85100 32.29600
H  10.05800 54.02100 26.90200
H  10.54700 55.67900 26.77000
H  11.39800 54.64100 27.88900
H  9.06400 54.95800 23.10900
H  9.83400 56.04700 24.36900
H  9.32900 54.36700 24.78900
H  15.42500 53.52900 20.57200
H  16.94300 50.99500 20.79400
H  14.85400 50.76800 19.77600
H  13.83900 52.14000 19.57400
H  13.81900 51.19900 21.10300
H  18.76100 53.15300 20.97800
H  17.49800 53.71800 19.92600
H  18.79000 52.51500 18.23200
H  18.06800 51.11700 18.90100
H  19.64400 51.66700 19.50000
H  21.46800 50.81100 23.50300
H  20.53300 49.34100 23.39800
H  21.69900 49.52700 24.77900
H  20.11700 51.75100 29.02900
H  18.34400 49.18100 32.04400
H  19.96500 49.74200 32.78400
H  19.82500 48.28900 31.86700
Mg 8.68400 48.49400 27.87800
C  7.09900 47.68500 30.88100
C  11.62500 48.64400 29.70700
C  10.35500 49.66400 25.20300
C  5.73000 48.80300 26.36200
N  9.23500 48.22600 30.06500
C  8.45500 47.85300 31.13500
C  9.19100 47.88400 32.50800
C  10.67300 48.27200 32.01800
C  10.50700 48.40300 30.53500
C  11.25800 49.59600 32.66000
C  9.07000 46.68200 33.44100
C  8.74200 46.99000 34.90200
H  9.48300 46.03200 35.87700
N  10.72400 48.95600 27.44100
C  11.76000 48.83900 28.33900
C  12.96700 49.01200 27.64700
C  12.66600 49.31400 26.30100
C  11.19500 49.39500 26.25600
C  14.37700 48.85900 28.29000
C  13.56300 49.75700 25.09200
O  13.15800 50.14600 24.02600
C  15.06400 49.43900 25.18800
N  8.11700 49.11000 26.04200
C  9.00100 49.61800 25.07100
C  8.18800 50.15100 23.87400
C  6.72900 49.75400 24.24300
C  6.85300 49.08800 25.60400
C  8.39500 51.67400 23.60400
C  6.07400 48.78700 23.23100
C  6.73200 47.45800 22.75300
N  6.80000 48.05300 28.39900
C  5.65100 48.21300 27.66000
C  4.44900 47.89400 28.47400
C  5.00000 47.75000 29.72600
C  6.42600 47.83700 29.69100
C  2.97500 47.79300 27.98000
C  4.65300 47.38100 31.13800
O  3.55200 47.08100 31.54700
C  5.97700 47.27600 31.88300
C  6.05100 45.78200 32.24200
O  6.51800 44.95000 31.54100
O  5.39800 45.54000 33.46200
C  5.52000 44.16900 34.07200
H  12.57800 48.67200 30.23900
H  10.84700 50.07100 24.31700
H  4.78300 48.95100 25.83800
H  8.77700 48.75100 33.02400
H  11.32900 47.40200 32.03100
H  12.34200 49.51500 32.58300
H  10.91900 49.83200 33.66800
H  11.09800 50.41300 31.95600
H  10.03400 46.18100 33.52600
H  8.51300 45.92300 32.89100
H  7.68800 46.73700 35.01600
H  8.82800 48.05900 35.09600
H  14.82700 47.92300 27.96100
H  14.32900 48.94600 29.37500
H  14.99400 49.68100 27.92700
H  15.66500 50.18200 25.71200
H  15.42800 49.27800 24.17300
H  15.08400 48.50700 25.75300
H  8.55500 49.70800 22.94800
H  6.09600 50.63900 24.31100
H  9.21100 51.78000 22.89000
H  8.62400 52.08400 24.58700
H  7.58100 52.32200 23.27800
H  5.97600 49.36900 22.31500
H  5.04800 48.51200 23.47400
H  7.35900 47.63200 21.87800
H  5.91300 46.76300 22.56600
H  7.45300 47.08200 23.47900
H  2.57600 48.77500 27.72600
H  2.36700 47.35700 28.77300
H  2.97100 47.16100 27.09100
H  6.03200 47.86000 32.80200
H  6.33900 44.11800 34.79000
H  5.54700 43.35300 33.35000
H  4.62500 44.08300 34.68900

