158

Mg 29.69600 58.78600 41.47000
C  27.23600 56.82800 39.92300
C  32.13900 56.47900 40.13700
C  32.32200 60.93300 41.90600
C  27.32400 61.16400 42.25100
N  29.61700 56.88700 40.10800
C  28.50800 56.29000 39.68200
C  28.85800 55.06400 38.80300
C  30.24700 54.74300 39.38900
C  30.79200 56.11100 39.92400
C  30.38100 53.61300 40.42300
C  28.78600 55.34700 37.25300
C  28.08200 54.34500 36.39700
H  27.27900 54.88400 35.21100
N  31.89000 58.70800 41.14200
C  32.60500 57.75400 40.56700
C  33.95600 58.05100 40.43500
C  34.12600 59.27500 41.06500
C  32.73900 59.67300 41.55100
C  35.00900 57.14200 39.77200
C  35.39200 60.03800 41.10300
O  36.47500 59.55700 40.74600
C  35.40800 61.37100 41.66500
N  29.78400 60.79300 41.99000
C  30.99900 61.39400 42.25400
C  30.73200 62.83800 42.70800
C  29.13000 62.94200 42.88900
C  28.66700 61.54500 42.39100
C  31.56800 63.20000 43.97800
C  28.35200 64.15300 42.12600
C  27.14600 64.66800 43.07100
N  27.71600 58.93300 41.26900
C  26.88600 59.94600 41.67900
C  25.47500 59.57000 41.43300
C  25.55100 58.36900 40.67500
C  26.94600 58.02100 40.62900
C  24.20200 60.31900 41.69200
C  24.84200 57.38700 39.98700
O  23.60200 57.28900 39.75900
C  25.86900 56.30600 39.48600
C  25.51100 54.95500 40.09000
O  25.19100 54.72700 41.24900
O  25.53800 54.02400 39.06500
C  25.13400 52.67400 39.53000
H  32.78100 55.64100 39.85900
H  33.00100 61.78300 41.81000
H  26.55600 61.85000 42.61500
H  28.26700 54.21400 39.14300
H  30.93700 54.49200 38.58400
H  29.41400 53.48000 40.90900
H  31.07100 54.09200 41.11800
H  30.76600 52.70700 39.95500
H  29.75900 55.44100 36.77100
H  28.33600 56.34000 37.22900
H  27.41400 53.75100 37.02200
H  28.83300 53.64800 36.02500
H  35.86000 57.61600 39.28300
H  34.54800 56.55400 38.97900
H  35.37000 56.34100 40.41700
H  36.46400 61.60800 41.78600
H  34.78600 61.34000 42.56000
H  34.89200 61.91800 40.87600
H  31.02500 63.52800 41.91700
H  28.95400 62.89000 43.96300
H  32.15100 62.31400 44.23100
H  30.96200 63.53800 44.81800
H  32.25400 64.04000 43.86700
H  28.03000 63.77200 41.15700
H  29.07600 64.95000 41.95400
H  26.27600 64.31700 42.51600
H  26.95400 65.73700 43.15100
H  27.10200 64.14700 44.02800
H  23.60300 59.92900 42.51500
H  23.65200 60.12800 40.77000
H  24.40400 61.39000 41.72200
H  25.88100 56.23300 38.39900
H  24.09100 52.64500 39.84600
H  25.69600 52.48200 40.44400
H  25.18100 51.97700 38.69300
Mg 1.26900 43.16500 25.57400
C  2.83300 43.51300 28.72900
C  -1.54600 41.98900 27.13400
C  0.13300 42.22400 22.54600
C  4.25600 44.24900 24.12900
N  0.65700 42.84500 27.70100
C  1.44900 43.13700 28.82600
C  0.68700 42.84000 30.10900
C  -0.68500 42.30200 29.61900
C  -0.56400 42.38800 28.04300
C  -0.98400 40.84100 30.06000
C  0.49200 44.09000 30.97500
C  0.57100 43.92600 32.51900
H  0.28700 42.56500 33.12300
N  -0.44100 42.33600 24.93000
C  -1.49600 41.97700 25.70600
C  -2.52300 41.46400 24.89800
C  -2.16700 41.63100 23.51700
C  -0.76400 42.11100 23.57000
C  -3.85300 40.90200 25.45000
C  -2.98200 41.35200 22.32400
O  -2.46400 41.56600 21.25800
C  -4.40900 40.73300 22.31100
N  2.04200 43.29400 23.63100
C  1.42100 42.78000 22.51300
C  2.27500 43.01400 21.28400
C  3.39800 43.97400 21.76800
C  3.23800 43.88800 23.27200
C  2.81700 41.68600 20.67800
C  3.30600 45.44900 21.23900
C  1.96500 46.14300 21.35900
N  3.17200 43.76500 26.23500
C  4.29900 44.14400 25.50500
C  5.36300 44.42000 26.34900
C  4.79700 44.19500 27.68300
C  3.48600 43.82400 27.52800
C  6.77000 44.64700 25.97600
C  5.09800 44.00400 29.05200
O  6.13200 44.03500 29.69500
C  3.79300 43.77200 29.76700
C  4.13900 42.64400 30.71100
O  4.25800 41.43800 30.42000
O  4.28600 43.06000 31.98200
C  4.34300 42.09700 33.16000
H  -2.46200 41.75800 27.68200
H  -0.16300 41.80300 21.58400
H  5.18900 44.52300 23.63200
H  1.38300 42.31000 30.75900
H  -1.53500 42.95500 29.82100
H  -0.26900 40.55500 30.83100
H  -0.87500 40.07300 29.29400
H  -2.00700 40.86100 30.43600
H  -0.35900 44.68000 30.63600
H  1.37500 44.71400 30.83200
H  -0.09700 44.66800 32.95700
H  1.56000 44.20700 32.88000
H  -4.69600 41.30400 24.88700
H  -3.99800 41.22700 26.48000
H  -3.82200 39.81300 25.48200
H  -4.38500 39.86900 22.97500
H  -4.67400 40.52500 21.27400
H  -5.05100 41.52200 22.70200
H  1.76100 43.56400 20.49500
H  4.36000 43.48800 21.60400
H  2.84800 41.82600 19.59700
H  2.09900 40.88200 20.83800
H  3.81300 41.40100 21.01500
H  3.82900 45.39500 20.28400
H  4.03100 45.99300 21.84400
H  1.24100 45.42700 21.74900
H  1.58400 46.41500 20.37500
H  1.95500 47.07000 21.93200
H  6.80800 44.86600 24.90800
H  7.28900 43.73900 26.28000
H  7.11300 45.47600 26.59500
H  3.57400 44.66500 30.35200
H  3.85200 42.41600 34.08000
H  5.36400 41.88900 33.47900
H  4.02100 41.10700 32.83600

