158

Mg 7.82500 2.04200 28.08100
C  9.24000 0.79500 31.17100
C  5.75500 3.97300 30.01000
C  6.25100 2.78800 25.35000
C  9.47700 -0.52400 26.47200
N  7.53400 2.28100 30.30900
C  8.31000 1.81600 31.36400
C  8.00800 2.57200 32.73500
C  6.73000 3.36600 32.30500
C  6.63800 3.27100 30.77000
C  5.41300 2.71000 32.89100
C  9.24800 3.47800 33.14000
C  9.54500 3.60300 34.68100
H  8.58200 3.06500 35.76000
N  6.21900 3.23400 27.68200
C  5.51800 4.03000 28.57800
C  4.69200 5.02900 27.83800
C  4.80800 4.68600 26.46700
C  5.72100 3.49900 26.46300
C  3.91900 6.18600 28.60100
C  4.39900 5.40600 25.16300
O  4.65200 5.07200 23.97500
C  3.30800 6.49900 25.34500
N  7.73200 1.12400 26.18000
C  7.12600 1.67700 25.19500
C  7.25600 0.98900 23.81300
C  8.26500 -0.11800 24.31200
C  8.53100 0.16200 25.74800
C  5.92500 0.50300 23.32200
C  9.54200 -0.29000 23.33700
C  10.60100 0.80300 23.45000
N  9.09500 0.37200 28.66600
C  9.75300 -0.49200 27.86600
C  10.75600 -1.21600 28.63300
C  10.50700 -0.81200 29.94800
C  9.44100 0.12300 29.97600
C  11.74200 -2.14000 28.17400
C  11.03100 -0.98800 31.33500
O  11.85200 -1.84500 31.76600
C  10.22900 0.07700 32.17400
C  9.53100 -0.66600 33.29700
O  8.59800 -1.46600 33.15700
O  10.00700 -0.28500 34.55700
C  9.30600 -1.04400 35.65100
H  5.20700 4.66600 30.65300
H  5.72400 3.05700 24.43200
H  10.08300 -1.31100 26.01800
H  7.88800 1.84200 33.53600
H  6.94700 4.39200 32.60100
H  4.79700 3.43400 33.42400
H  5.70000 1.94700 33.61400
H  4.73600 2.17800 32.22200
H  9.08700 4.48400 32.75300
H  10.03400 3.05700 32.51300
H  9.65200 4.67000 34.87700
H  10.56100 3.20800 34.67600
H  2.85600 5.95600 28.66800
H  4.01000 7.09500 28.00500
H  4.40100 6.42000 29.55000
H  2.66700 6.67800 24.48200
H  3.89900 7.36600 25.63800
H  2.75100 6.41800 26.27900
H  7.73000 1.63400 23.07400
H  7.81800 -1.10900 24.22500
H  5.08000 0.48800 24.01000
H  5.87100 -0.51200 22.92700
H  5.66700 1.19800 22.52300
H  9.22500 -0.43800 22.30500
H  9.88100 -1.26000 23.70200
H  10.35000 1.54600 24.20800
H  10.93000 1.34000 22.56000
H  11.49600 0.43300 23.95000
H  12.57000 -2.09200 28.88100
H  11.94800 -1.87400 27.13700
H  11.33800 -3.15200 28.13900
H  10.86700 0.72800 32.77200
H  9.96400 -1.85900 35.95400
H  8.25200 -1.32100 35.61100
H  9.12500 -0.37800 36.49400
Mg 16.55000 -2.37900 28.78000
C  15.32400 -0.00500 31.09800
C  18.76700 -3.59000 31.18400
C  18.07600 -3.91500 26.39000
C  14.67700 -0.62200 26.38000
N  16.95800 -1.77900 30.91700
C  16.32200 -0.89400 31.66500
C  16.71600 -1.04400 33.18900
C  18.08000 -1.74300 33.05300
C  17.95100 -2.44500 31.60500
C  19.32200 -0.82400 33.06400
C  15.68100 -1.87600 34.13600
C  15.34100 -1.36400 35.60800
H  16.36400 -0.51600 36.32200
N  17.98700 -3.81600 28.82300
C  18.81500 -4.13500 29.84900
C  19.68100 -5.27400 29.36400
C  19.55000 -5.35000 27.93000
C  18.48100 -4.33900 27.66300
C  20.60000 -6.07700 30.35800
C  20.25200 -6.28100 26.93600
O  19.96600 -6.28400 25.73100
C  21.33000 -7.29900 27.28800
N  16.52700 -2.11900 26.67000
C  17.20900 -2.90900 25.88500
C  17.06000 -2.54900 24.39900
C  15.74700 -1.77000 24.50000
C  15.61600 -1.47200 25.90700
C  18.35600 -1.75000 23.87400
C  14.48200 -2.36300 23.76800
C  13.84100 -1.47300 22.69500
N  15.27500 -0.65600 28.69500
C  14.54200 -0.10500 27.63400
C  13.65900 0.94500 28.14400
C  13.95800 1.07600 29.50700
C  14.99300 0.10500 29.74900
C  12.69800 1.74900 27.23800
C  13.57800 1.74100 30.72100
O  12.77200 2.67700 30.85500
C  14.52900 1.02200 31.78700
C  15.27700 2.14600 32.38800
O  15.87500 2.94500 31.69300
O  15.07600 2.35800 33.71400
C  15.70800 3.48100 34.43800
H  19.47000 -3.99100 31.91600
H  18.43500 -4.42800 25.49500
H  14.00300 -0.31000 25.58000
H  16.88600 -0.04700 33.59400
H  18.06800 -2.45600 33.87700
H  19.89000 -0.83000 32.13400
H  19.98500 -1.12700 33.87500
H  19.06400 0.21100 33.28800
H  15.95300 -2.93000 34.19500
H  14.72900 -1.94200 33.60800
H  15.09900 -2.19600 36.27000
H  14.42100 -0.78100 35.56300
H  21.27900 -6.77100 29.86300
H  19.86300 -6.73000 30.82600
H  21.02100 -5.36500 31.06700
H  22.11200 -6.78900 27.85000
H  21.77700 -7.65800 26.36000
H  20.90600 -8.12400 27.85900
H  16.91400 -3.48400 23.85700
H  15.83500 -0.80400 24.00300
H  18.85700 -1.29700 24.72900
H  18.07100 -0.91100 23.23800
H  19.07700 -2.37100 23.34100
H  13.80500 -2.73900 24.53500
H  14.80200 -3.30600 23.32500
H  13.08500 -2.10800 22.23300
H  14.66500 -1.07500 22.10300
H  13.15000 -0.80300 23.20700
H  12.27800 0.93800 26.64300
H  13.30900 2.38500 26.59700
H  11.91200 2.24000 27.81200
H  13.72000 0.59100 32.37800
H  15.94000 4.31500 33.77600
H  16.64300 3.12400 34.87000
H  14.97900 3.89300 35.13500

