158

Mg 17.12100 53.39500 26.22600
C  18.88100 51.75300 28.83100
C  14.61100 53.91700 28.55600
C  15.50400 54.92000 23.87500
C  19.47600 52.20500 24.00200
N  16.90000 53.00500 28.50800
C  17.68900 52.36700 29.31800
C  17.25200 52.54200 30.76400
C  15.75300 52.99300 30.62900
C  15.70100 53.28400 29.14700
C  14.70100 51.95800 31.17100
C  18.10700 53.65400 31.46800
C  18.29600 53.35900 32.93900
H  17.25600 52.52500 33.75200
N  15.39500 54.44000 26.26600
C  14.48400 54.53100 27.29400
C  13.49400 55.44000 26.92100
C  13.72300 55.87000 25.56000
C  14.88200 55.03200 25.16200
C  12.31400 55.85600 27.85500
C  12.88400 56.72300 24.66400
O  13.24000 56.91800 23.50600
C  11.80500 57.57700 25.31600
N  17.19600 53.21000 24.07000
C  16.53400 54.06900 23.34300
C  17.09500 54.00800 21.91300
C  18.42500 53.21300 21.97300
C  18.41100 52.84100 23.49100
C  16.08600 53.38300 20.87500
C  19.66000 54.17400 21.65800
C  20.72900 53.70900 20.73300
N  18.80600 52.13900 26.28200
C  19.69200 51.81100 25.34500
C  20.72500 50.95500 25.86600
C  20.36600 50.79200 27.20100
C  19.23800 51.63200 27.43900
C  21.89900 50.22000 25.08600
C  20.77100 50.20900 28.47300
O  21.62100 49.34600 28.74400
C  19.95300 50.94800 29.57700
C  19.45200 50.00600 30.67700
O  18.79200 49.02100 30.48300
O  19.81400 50.44800 31.91000
C  19.57400 49.43800 33.01200
H  13.79300 54.04000 29.26900
H  15.08600 55.54600 23.08500
H  20.20800 51.90400 23.25000
H  17.36500 51.61000 31.31700
H  15.47200 53.85200 31.23700
H  14.14600 51.49500 30.35500
H  13.92900 52.51000 31.70600
H  15.21400 51.27000 31.84300
H  17.52500 54.56100 31.30600
H  19.04600 53.85000 30.95000
H  18.48700 54.28600 33.48000
H  19.16500 52.73700 33.15400
H  11.35900 55.63800 27.37600
H  12.44300 56.91700 28.07200
H  12.31800 55.24500 28.75700
H  10.96900 56.98200 25.68400
H  11.39200 58.19300 24.51700
H  12.27900 58.20500 26.07000
H  17.16400 55.04200 21.57600
H  18.52800 52.28000 21.41900
H  15.90700 54.30000 20.31400
H  15.13900 53.16200 21.36700
H  16.51000 52.59200 20.25600
H  20.11700 54.58100 22.56000
H  19.25600 55.05800 21.16500
H  20.57500 52.71100 20.32200
H  21.69900 53.89600 21.19400
H  20.61000 54.25900 19.80000
H  22.68900 50.91200 24.79300
H  21.53400 49.67900 24.21300
H  22.33800 49.47400 25.74800
H  20.52800 51.59700 30.23800
H  20.01700 49.88300 33.90300
H  19.97000 48.45800 32.74700
H  18.50700 49.27500 33.16600
Mg -0.04700 34.43500 26.85100
C  -2.23700 32.83000 29.17400
C  0.61700 36.78600 29.49000
C  1.47000 36.31700 24.63700
C  -1.48500 32.50200 24.22900
N  -0.71700 34.76000 29.04700
C  -1.52000 33.86600 29.75000
C  -1.54700 34.20700 31.21800
C  -0.70600 35.53400 31.28300
C  -0.27700 35.75300 29.83600
C  -1.51800 36.71900 31.89000
C  -1.04600 33.06800 32.07100
C  -1.88800 32.69000 33.25000
H  -1.44600 33.33900 34.64800
N  1.04300 36.15700 27.06200
C  1.22400 36.99800 28.20400
C  2.14800 38.07400 27.78800
C  2.50000 37.89100 26.41100
C  1.65900 36.75900 25.98500
C  2.58500 39.10300 28.81200
C  3.40800 38.67900 25.52700
O  3.56200 38.45000 24.33300
C  4.30300 39.69700 26.08800
N  -0.04000 34.41100 24.69700
C  0.80000 35.24400 24.07300
C  0.69800 34.99300 22.50200
C  -0.21200 33.67400 22.41500
C  -0.62700 33.51000 23.83900
C  0.06400 36.22400 21.79100
C  0.57300 32.49200 21.81200
C  1.51100 31.79800 22.71200
N  -1.47100 32.94900 26.70500
C  -1.90700 32.22400 25.57100
C  -2.83000 31.16600 26.05300
C  -2.94800 31.36600 27.46500
C  -2.19300 32.52300 27.76900
C  -3.63300 30.11000 25.25800
C  -3.67100 30.87500 28.63600
O  -4.56400 30.03300 28.69800
C  -3.11800 31.72300 29.79900
C  -4.36700 32.23900 30.46200
O  -5.06200 33.17200 30.08800
O  -4.48000 31.64200 31.68200
C  -5.55100 32.01700 32.56600
H  1.00600 37.50300 30.21500
H  1.94900 37.00500 23.93800
H  -1.91100 31.89600 23.42600
H  -2.60800 34.29100 31.45500
H  0.11800 35.39300 31.98100
H  -2.31200 36.43900 32.58200
H  -1.78400 37.35300 31.04400
H  -0.77300 37.14800 32.56000
H  -0.06800 33.35000 32.46200
H  -0.88100 32.21200 31.41600
H  -1.98200 31.60900 33.34800
H  -2.88600 33.07300 33.03500
H  1.73300 39.64000 29.22900
H  3.36300 39.78200 28.46200
H  2.90600 38.52600 29.67900
H  3.61700 40.49600 26.37200
H  4.98400 40.02900 25.30500
H  4.86300 39.41400 26.98000
H  1.63900 34.76000 22.00400
H  -1.06900 33.89500 21.77900
H  -0.52400 36.68900 22.58200
H  -0.61000 36.02400 20.95800
H  0.83900 36.92600 21.48200
H  1.16900 32.84600 20.97100
H  -0.12800 31.77600 21.38200
H  1.75700 32.28400 23.65600
H  2.50500 31.64700 22.29000
H  1.11600 30.79300 22.86500
H  -3.90200 29.32800 25.96800
H  -3.12400 29.80200 24.34500
H  -4.55300 30.59900 24.93600
H  -2.53800 31.12600 30.50300
H  -5.21300 32.73000 33.31800
H  -6.02000 31.14000 33.01200
H  -6.30500 32.48600 31.93300

