158

Mg 0.82000 7.42400 25.21200
C  1.77400 9.12500 28.13900
C  0.85400 4.34300 27.01800
C  0.25500 5.88000 22.37100
C  1.41200 10.39200 23.42600
N  1.22300 6.84300 27.27700
C  1.55600 7.70700 28.32300
C  1.50300 6.87200 29.67500
C  1.43100 5.42600 29.25000
C  1.11700 5.54800 27.74700
C  2.61600 4.51400 29.59300
C  0.30600 7.42100 30.51400
C  0.57000 7.49300 32.03100
H  1.72300 6.62800 32.61400
N  0.63300 5.33600 24.75800
C  0.61900 4.26300 25.61300
C  0.33800 3.06600 24.77800
C  0.22200 3.50100 23.43700
C  0.26500 4.98200 23.46500
C  0.11100 1.72900 25.38000
C  0.10400 2.63300 22.14700
O  -0.05200 3.10300 21.04000
C  0.16600 1.13800 22.25100
N  0.86500 8.05800 23.16300
C  0.54500 7.17800 22.23000
C  0.34900 7.83200 20.86300
C  0.68500 9.34600 21.11800
C  0.95700 9.27200 22.63000
C  1.11500 7.19700 19.65800
C  -0.57000 10.31100 20.88700
C  -0.24400 11.31300 19.79000
N  1.52200 9.37300 25.58700
C  1.58800 10.47000 24.79200
C  1.75400 11.65900 25.54900
C  1.87300 11.19400 26.86600
C  1.71600 9.80300 26.86300
C  1.74400 13.09600 25.13000
C  2.05900 11.59600 28.20400
O  2.36900 12.63400 28.68100
C  1.85100 10.33000 29.11000
C  2.97800 10.07800 29.94400
O  4.03100 9.56800 29.66300
O  2.75200 10.63200 31.21300
C  3.89600 10.85400 32.07600
H  0.67600 3.45600 27.62900
H  -0.16700 5.44700 21.46200
H  1.54000 11.24500 22.75600
H  2.38700 7.06600 30.28200
H  0.63600 4.84600 29.71800
H  2.32800 3.83800 30.39800
H  3.52800 4.95400 29.99800
H  2.94800 3.96600 28.71100
H  -0.53400 6.74100 30.37300
H  -0.03700 8.36200 30.08300
H  -0.32900 7.29400 32.61400
H  0.81200 8.54800 32.15900
H  1.04000 1.16500 25.47300
H  -0.61500 1.14600 24.81400
H  -0.31900 1.75300 26.38200
H  0.42800 0.81000 21.24500
H  -0.82000 0.78200 22.55200
H  0.86000 0.76100 23.00200
H  -0.70600 7.64100 20.66600
H  1.64500 9.76300 20.81400
H  1.92900 7.86000 19.36300
H  0.38300 7.05100 18.86400
H  1.54400 6.21400 19.85500
H  -0.89200 10.91100 21.73800
H  -1.36700 9.61900 20.61500
H  -0.67000 10.88600 18.88300
H  0.81800 11.45200 19.59000
H  -0.69900 12.28200 19.99700
H  2.60300 13.31700 24.49600
H  1.76100 13.72300 26.02200
H  0.96900 13.51800 24.49200
H  0.92800 10.35800 29.68900
H  4.30300 11.79500 31.70500
H  4.74200 10.17200 31.99700
H  3.58400 10.90000 33.11900
Mg 17.41300 -1.81300 27.89000
C  16.32200 0.38200 30.50800
C  19.22700 -3.54800 30.15900
C  18.77400 -3.24000 25.37600
C  15.44000 0.29400 25.69000
N  17.82700 -1.47200 30.11800
C  17.12600 -0.68300 30.94100
C  17.49500 -1.07300 32.38700
C  18.64800 -2.21600 32.24400
C  18.60500 -2.45700 30.78400
C  20.02100 -1.79700 32.74500
C  16.26800 -1.50900 33.27400
C  16.17000 -1.02300 34.77700
H  17.29000 -0.37600 35.41700
N  18.77000 -3.24800 27.80900
C  19.39000 -3.91700 28.82100
C  20.07900 -5.06800 28.27000
C  19.99500 -4.94300 26.83500
C  19.15600 -3.75400 26.59600
C  20.72500 -6.08000 29.13500
C  20.57200 -5.84600 25.77400
O  20.37000 -5.65400 24.55100
C  21.40800 -7.11700 26.16500
N  17.12600 -1.50500 25.82400
C  17.85500 -2.20600 24.98500
C  17.64200 -1.77500 23.50300
C  16.48600 -0.75400 23.62700
C  16.28800 -0.64800 25.14900
C  18.88400 -1.18700 22.76000
C  15.19000 -1.11900 22.85400
C  14.07600 -1.81700 23.60300
N  16.19500 0.04600 28.01200
C  15.48500 0.69600 27.03200
C  14.78900 1.77500 27.66900
C  15.16800 1.71600 29.05700
C  16.03500 0.65600 29.19600
C  13.67900 2.66600 27.02500
C  15.00600 2.39500 30.31400
O  14.40100 3.45600 30.62600
C  15.74300 1.55800 31.33200
C  16.73300 2.46100 31.97600
O  17.70300 3.05700 31.50800
O  16.17200 2.75100 33.21900
C  16.92000 3.61800 34.08900
H  19.66300 -4.23400 30.88800
H  19.25500 -3.64800 24.48400
H  14.79800 0.83100 24.98800
H  17.90500 -0.17200 32.84500
H  18.36300 -3.15400 32.72000
H  20.10500 -0.71500 32.84400
H  20.69600 -2.16200 31.97100
H  20.37600 -2.29100 33.64900
H  16.06300 -2.57800 33.21000
H  15.36700 -1.12800 32.79300
H  15.80100 -1.95400 35.20700
H  15.32100 -0.34500 34.86400
H  20.30900 -6.98200 28.68600
H  20.36800 -6.12800 30.16300
H  21.80600 -6.09600 28.99700
H  22.34300 -7.00700 26.71500
H  21.69000 -7.47400 25.17500
H  20.72100 -7.70300 26.77600
H  17.24200 -2.70400 23.09800
H  16.93000 0.22700 23.45800
H  19.63500 -0.86800 23.48200
H  18.71300 -0.27900 22.18200
H  19.34600 -1.97600 22.16700
H  15.43400 -1.67800 21.95000
H  14.82400 -0.19400 22.40700
H  13.29600 -1.09300 23.83800
H  14.52000 -2.26700 24.49100
H  13.59000 -2.64900 23.09300
H  12.64300 2.43000 27.26800
H  13.74700 2.81600 25.94700
H  13.77200 3.69200 27.37900
H  15.03700 1.28300 32.11500
H  17.98400 3.46500 33.91000
H  16.69900 3.44700 35.14200
H  16.76600 4.66900 33.84800

