158

Mg 31.01700 58.67200 38.97800
C  28.20000 56.76900 38.15700
C  33.10000 56.05400 38.44900
C  33.65300 60.72300 39.35100
C  28.90700 61.46500 39.03600
N  30.64700 56.65500 38.16400
C  29.39500 56.08500 38.07500
C  29.60500 54.54200 37.72000
C  31.19400 54.36600 37.82700
C  31.70800 55.76400 38.20500
C  31.66300 53.10100 38.70700
C  29.02900 54.04000 36.35400
C  29.45300 54.71800 35.04600
H  28.33300 55.33900 34.14900
N  33.06200 58.43300 39.00700
C  33.77100 57.29700 38.76900
C  35.21400 57.56200 38.92300
C  35.35700 58.93200 39.23000
C  33.97100 59.44600 39.15000
C  36.22500 56.48700 38.66100
C  36.68900 59.53500 39.59600
O  37.72400 58.82000 39.56000
C  36.91200 61.06200 39.90800
N  31.32000 60.84400 39.01400
C  32.45600 61.40400 39.25100
C  32.37400 62.94300 39.23100
C  30.89800 63.13600 39.60800
C  30.29200 61.73000 39.29900
C  33.32900 63.72000 40.14000
C  30.21200 64.33100 38.81700
C  29.11300 65.09500 39.45000
N  28.98300 59.12900 38.67300
C  28.26500 60.27600 38.78200
C  26.81900 60.05300 38.52500
C  26.74500 58.65200 38.30200
C  28.13500 58.15000 38.34700
C  25.69600 61.08500 38.62500
C  25.82000 57.56400 38.13700
O  24.59900 57.53600 38.09800
C  26.74500 56.24000 38.00000
C  26.35600 55.19800 39.08900
O  26.90800 55.09500 40.18600
O  25.34700 54.40200 38.60300
C  24.73800 53.33100 39.39900
H  33.75900 55.19800 38.28800
H  34.48000 61.38900 39.09400
H  28.30600 62.37100 39.13200
H  29.22900 54.02500 38.60300
H  31.55400 54.09300 36.83500
H  32.35900 52.43800 38.19300
H  30.89000 52.46300 39.13600
H  32.17200 53.44700 39.60700
H  27.98800 54.35800 36.40900
H  29.03600 52.95100 36.31500
H  29.93500 53.99800 34.38500
H  30.22200 55.45000 35.29200
H  37.11600 56.87200 38.16500
H  35.81100 55.71300 38.01500
H  36.53700 55.98800 39.57900
H  36.11100 61.36700 40.58000
H  36.90700 61.59700 38.95800
H  37.90800 61.03900 40.35100
H  32.65700 63.10100 38.19000
H  30.81000 63.24200 40.68900
H  34.37400 63.56800 39.86900
H  33.08600 63.50000 41.18000
H  33.13000 64.77900 39.97700
H  29.89900 64.00300 37.82600
H  31.00000 65.04400 38.57100
H  29.13000 65.15200 40.53900
H  28.19600 64.59700 39.13400
H  29.50300 66.07000 39.15900
H  25.05700 61.11000 37.74300
H  26.19800 62.03500 38.81000
H  25.03500 60.81800 39.44900
H  26.58600 55.73200 37.04900
H  24.90000 52.30200 39.07700
H  23.68400 53.49500 39.62100
H  25.19400 53.39200 40.38800
Mg 10.20300 47.67000 25.38600
C  7.84600 47.81300 28.12200
C  12.65400 48.79500 27.53400
C  12.29500 47.76400 22.77100
C  7.45200 47.08400 23.23500
N  10.20400 48.25700 27.67600
C  9.14000 48.20900 28.57500
C  9.65100 48.65400 29.96800
C  11.08600 49.23700 29.66000
C  11.40100 48.73100 28.20100
C  11.00900 50.82400 29.70900
C  9.67800 47.51500 30.96900
C  9.42800 47.95100 32.45900
H  9.49100 46.80900 33.50000
N  12.26500 48.04600 25.19300
C  13.14500 48.49000 26.20400
C  14.40000 48.69000 25.66500
C  14.34300 48.25400 24.27000
C  12.92800 47.97800 24.04000
C  15.54700 49.25400 26.50900
C  15.40500 48.21800 23.23700
O  15.28100 47.89600 22.06500
C  16.85300 48.55800 23.62900
N  9.93900 47.42800 23.32100
C  10.98000 47.47100 22.45300
C  10.53000 47.06100 21.09100
C  9.01100 46.62000 21.25900
C  8.76100 47.12600 22.68200
C  10.66700 48.14800 19.97200
C  8.66900 45.06700 20.99400
C  8.96600 44.17900 22.20500
N  8.07200 47.51800 25.55000
C  7.13400 47.25000 24.61000
C  5.82600 47.22100 25.22000
C  6.07000 47.40700 26.60700
C  7.46000 47.55200 26.77700
C  4.46700 47.00100 24.60600
C  5.39800 47.52900 27.89300
O  4.19100 47.53000 28.18100
C  6.51100 47.89300 28.90100
C  6.27100 46.99900 30.13800
O  6.54600 45.81000 30.30000
O  5.51500 47.77500 30.97600
C  5.18100 47.12500 32.23000
H  13.38700 49.22700 28.21900
H  12.95000 47.75300 21.89700
H  6.70400 46.75900 22.50900
H  8.99800 49.45600 30.31200
H  11.79100 48.84200 30.39100
H  10.29400 51.24600 30.41500
H  10.71600 51.30700 28.77700
H  11.99600 51.17700 30.01000
H  10.61000 46.95400 30.89100
H  8.84800 46.91800 30.59300
H  8.42700 48.37500 32.54700
H  10.10900 48.75600 32.73500
H  15.97400 50.07800 25.93600
H  16.44600 48.63900 26.52900
H  15.31300 49.66900 27.49000
H  17.47100 48.18800 22.81100
H  17.04600 47.87700 24.45700
H  16.90400 49.60900 23.91400
H  11.14700 46.18900 20.87500
H  8.35100 47.12400 20.55300
H  10.01800 48.98900 20.21700
H  10.64000 47.74100 18.96200
H  11.65600 48.60400 20.01800
H  9.39500 44.78800 20.23000
H  7.64400 44.90700 20.66000
H  9.01700 44.59700 23.21000
H  9.91100 43.65200 22.07600
H  8.36500 43.27000 22.20800
H  4.45600 46.01000 24.15400
H  4.22000 47.88800 24.02200
H  3.80500 46.90800 25.46600
H  6.37700 48.91100 29.26700
H  4.72800 47.84400 32.91200
H  6.04100 46.74100 32.77900
H  4.48600 46.29500 32.10100

