158

Mg 8.38900 2.91200 27.95700
C  9.83100 1.66900 30.80100
C  6.27800 4.82500 29.93700
C  6.67000 3.69300 25.12100
C  9.96400 0.22000 26.11400
N  8.10200 3.20700 30.14000
C  8.97500 2.71200 31.08200
C  8.65500 3.36800 32.41400
C  7.33400 4.16300 32.17400
C  7.24200 4.12000 30.63000
C  6.11400 3.58600 32.89000
C  9.97600 4.11700 32.96300
C  10.72600 3.50600 34.24800
H  11.03700 4.48700 35.46200
N  6.71600 4.16600 27.56600
C  6.03200 4.85300 28.51700
C  5.11600 5.79600 27.73900
C  5.29200 5.50400 26.36400
C  6.21500 4.37900 26.29900
C  4.18600 6.82300 28.43300
C  4.74900 6.23500 25.16100
O  4.96100 5.97200 23.96800
C  3.82100 7.37900 25.36100
N  8.35800 2.06700 25.93000
C  7.57900 2.61800 24.94900
C  7.62200 1.90400 23.60000
C  8.78300 0.81400 23.86500
C  9.07300 1.01000 25.39200
C  6.21400 1.25500 23.28600
C  10.09700 0.97000 23.01000
C  10.33200 -0.14600 22.02500
N  9.72600 1.34300 28.27800
C  10.32800 0.38100 27.51300
C  11.23500 -0.40600 28.25200
C  11.07900 0.11700 29.58200
C  10.10600 1.14200 29.49900
C  11.95400 -1.55000 27.84600
C  11.48200 -0.07900 30.95000
O  12.23100 -0.97700 31.36300
C  10.76400 1.01600 31.76500
C  10.02800 0.39400 32.90500
O  8.89600 -0.11500 32.89400
O  10.76200 0.43300 34.07800
C  10.10200 0.03500 35.34900
H  5.70200 5.54200 30.52600
H  6.29200 4.13300 24.19500
H  10.36000 -0.61000 25.52600
H  8.46100 2.57200 33.13200
H  7.50800 5.18600 32.50700
H  6.07100 2.61100 33.37600
H  5.39800 3.58600 32.06800
H  5.80900 4.32600 33.63000
H  9.64300 5.10200 33.29200
H  10.71600 4.16800 32.16500
H  11.53200 2.80500 34.03300
H  10.00300 2.78900 34.63800
H  4.59300 7.82400 28.57300
H  4.12600 6.51000 29.47500
H  3.20700 6.80800 27.95400
H  2.89600 7.03700 25.82500
H  3.60700 7.85100 24.40300
H  4.22100 8.11100 26.06300
H  8.01200 2.66200 22.92000
H  8.41400 -0.19800 23.70000
H  5.75000 1.95700 22.59300
H  5.50000 1.05700 24.08500
H  6.38000 0.33700 22.72300
H  10.99600 1.18300 23.58900
H  10.06600 1.87200 22.39900
H  10.89500 0.17000 21.14700
H  9.34600 -0.49200 21.71600
H  11.03900 -0.89300 22.38700
H  12.21200 -1.51300 26.78800
H  11.49400 -2.47300 28.19800
H  12.93900 -1.65000 28.30300
H  11.42100 1.76200 32.21300
H  9.83600 -1.01700 35.25100
H  9.14700 0.54400 35.47800
H  10.70400 0.19000 36.24500
Mg 25.56300 1.65000 29.83300
C  27.65800 1.44200 32.52600
C  22.78100 1.99800 32.06500
C  23.47100 1.34400 27.32000
C  28.31200 0.73500 27.68700
N  25.28700 1.62700 32.00400
C  26.28700 1.69000 32.89400
C  25.85500 2.14800 34.33600
C  24.29900 1.84500 34.17700
C  24.06400 1.87400 32.71500
C  23.92700 0.39300 34.74100
C  26.15900 3.65200 34.63100
C  27.31700 3.80800 35.66200
H  27.09300 4.44600 37.01900
N  23.44600 1.78400 29.70800
C  22.50700 1.93200 30.69900
C  21.22100 1.96100 30.08800
C  21.36200 1.62300 28.73000
C  22.78000 1.56300 28.54100
C  19.92600 2.20900 30.80900
C  20.33500 1.50100 27.67900
O  20.53500 1.50700 26.47700
C  18.90700 1.35800 28.05700
N  25.85900 1.13300 27.84000
C  24.82100 1.19500 26.92800
C  25.24000 0.88700 25.48400
C  26.81300 0.84600 25.63200
C  27.01500 0.98700 27.12600
C  24.68400 -0.41900 24.89400
C  27.45800 2.00400 24.87100
C  27.36200 3.42800 25.46200
N  27.52300 1.18100 30.02800
C  28.49200 0.83300 29.06100
C  29.69400 0.44100 29.69100
C  29.48500 0.79900 31.04700
C  28.12400 1.14500 31.18100
C  30.99800 -0.09000 29.04400
C  30.10300 0.83700 32.40500
O  31.22600 0.53500 32.79600
C  28.94800 1.37800 33.35400
C  28.85300 0.63400 34.62700
O  28.06000 -0.24700 34.87400
O  29.76700 1.13400 35.54500
C  29.80000 0.54900 36.88600
H  21.94100 2.13700 32.74800
H  22.86200 1.14600 26.43500
H  29.17600 0.39900 27.11000
H  26.25500 1.45900 35.08000
H  23.76200 2.65900 34.66300
H  23.52900 -0.28700 33.98800
H  23.21200 0.58300 35.54100
H  24.77100 -0.16400 35.14700
H  25.25800 4.21300 34.88000
H  26.53800 4.20700 33.77300
H  28.08700 4.37000 35.13400
H  27.74000 2.86000 35.99500
H  19.38600 3.01500 30.31300
H  20.18600 2.51000 31.82400
H  19.39700 1.25900 30.87900
H  18.74200 0.61500 28.83800
H  18.38000 1.01900 27.16500
H  18.48700 2.26100 28.50000
H  24.90800 1.69300 24.83000
H  27.43700 -0.01100 25.38100
H  24.09300 -0.84200 25.70700
H  25.52000 -1.03300 24.55900
H  23.98700 -0.16400 24.09600
H  26.97600 2.09400 23.89700
H  28.52100 1.77600 24.80400
H  26.98200 4.09700 24.69000
H  28.34300 3.75700 25.80400
H  26.65300 3.37700 26.28900
H  31.21800 0.11000 27.99500
H  31.09700 -1.16400 29.20000
H  31.78200 0.42300 29.60100
H  29.25900 2.37800 33.65600
H  29.50400 -0.49700 36.80500
H  29.08900 1.02400 37.56200
H  30.82500 0.72400 37.21300

