158

Mg 43.86900 43.04600 26.81000
C  42.54600 44.88200 29.46500
C  45.37200 40.99000 28.87300
C  45.08100 41.43700 23.96500
C  42.42500 45.56400 24.61200
N  43.90500 43.00000 28.88300
C  43.25500 43.77700 29.84600
C  43.67900 43.20900 31.27300
C  44.76700 42.12800 31.02600
C  44.68900 42.08300 29.43300
C  46.17800 42.37400 31.63100
C  42.38100 42.65000 32.07000
C  42.31100 43.15200 33.48900
H  41.02400 42.84000 34.29200
N  45.12500 41.44400 26.52300
C  45.61600 40.66300 27.48700
C  46.32400 39.50300 26.96400
C  46.17600 39.63900 25.49900
C  45.49300 40.87000 25.25300
C  47.11500 38.60800 27.88700
C  46.48800 38.68900 24.45500
O  46.11900 38.81100 23.30500
C  47.20900 37.41700 24.85500
N  43.82500 43.45500 24.65600
C  44.31200 42.59200 23.72100
C  44.02100 43.07000 22.29500
C  42.88100 44.13300 22.50200
C  42.98400 44.45200 24.04800
C  45.16000 43.67800 21.50600
C  41.43200 43.68100 22.02100
C  40.82800 42.56600 22.84200
N  42.84100 44.92100 27.01000
C  42.26900 45.78100 26.02100
C  41.64600 46.89600 26.69500
C  41.64600 46.52900 28.02900
C  42.36100 45.32100 28.14500
C  40.97500 48.04500 25.97700
C  41.28600 46.97800 29.35200
O  40.66600 47.97200 29.68700
C  41.79500 45.93200 30.32400
C  42.61500 46.61300 31.37300
O  43.77500 46.84300 31.30700
O  41.82900 46.96100 32.44000
C  42.49700 47.59000 33.60000
H  45.71000 40.27900 29.63000
H  45.41000 41.01000 23.01500
H  41.92000 46.29100 23.97200
H  44.07600 44.07200 31.80900
H  44.42000 41.15700 31.38000
H  46.94000 42.40700 30.85100
H  46.27000 41.52700 32.31100
H  46.19200 43.28700 32.22600
H  42.30200 41.56300 32.07900
H  41.49200 43.08300 31.61100
H  42.45400 44.23200 33.43600
H  43.13400 42.58500 33.92400
H  46.47200 38.19900 28.66700
H  47.73600 39.36200 28.37000
H  47.67400 37.80000 27.41600
H  46.73800 36.80900 25.62700
H  48.15400 37.87500 25.14400
H  47.27700 36.72400 24.01700
H  43.47000 42.29200 21.76600
H  43.04200 45.00500 21.86800
H  46.07800 43.15900 21.78300
H  45.27700 44.76000 21.57200
H  44.97900 43.39900 20.46900
H  41.49500 43.33800 20.98800
H  40.84800 44.58700 22.17800
H  41.43200 42.24500 23.69100
H  40.66100 41.77700 22.10900
H  39.88800 42.81800 23.33400
H  40.74000 47.88400 24.92500
H  41.58600 48.93900 26.09900
H  40.01300 48.36600 26.37800
H  41.04800 45.39100 30.90500
H  42.22100 46.84200 34.34400
H  42.18600 48.61400 33.80800
H  43.57200 47.74700 33.51700
Mg 17.13700 50.67700 26.30600
C  18.75600 49.50800 29.14900
C  14.58000 51.93300 28.18800
C  15.56100 51.81900 23.40100
C  19.69700 49.31600 24.24200
N  16.77800 50.74500 28.38200
C  17.60800 50.36200 29.42000
C  17.01000 50.79500 30.83800
C  15.52600 51.07900 30.42800
C  15.61000 51.29600 28.86200
C  14.47700 50.01100 30.92700
C  17.85200 51.82700 31.55500
C  18.20200 51.56200 33.04500
H  17.21900 50.84900 33.98300
N  15.33200 51.67600 25.85000
C  14.45900 52.20100 26.79100
C  13.47800 53.07700 26.10500
C  13.83500 53.10900 24.75500
C  14.94900 52.11100 24.65900
C  12.38200 53.76500 26.89600
C  13.35400 54.01800 23.53400
O  13.71200 53.87900 22.33900
C  12.38700 55.24600 23.87600
N  17.55100 50.57000 24.17900
C  16.74900 51.07700 23.16400
C  17.19700 50.53200 21.78200
C  18.68100 50.26400 22.07900
C  18.70400 50.06500 23.56200
C  16.29900 49.33200 21.29600
C  19.72900 51.25700 21.55900
C  19.87600 52.57600 22.30200
N  18.88200 49.61000 26.53200
C  19.85000 49.10400 25.63000
C  20.96900 48.50800 26.41100
C  20.52300 48.52800 27.76900
C  19.31500 49.26700 27.81800
C  22.20900 47.75000 25.84900
C  20.91500 48.15500 29.11000
O  21.86200 47.50500 29.60900
C  19.80100 48.84700 30.04500
C  19.16600 47.88300 31.01900
O  18.27900 47.04300 30.75200
O  19.78700 48.00300 32.27200
C  19.39100 47.16400 33.31800
H  13.92500 52.42500 28.90900
H  15.01600 51.96600 22.46600
H  20.50900 48.86300 23.67000
H  17.12400 49.94200 31.50700
H  15.24000 52.08300 30.73900
H  15.05300 49.25100 31.45500
H  13.79400 49.69700 30.13800
H  13.82500 50.51200 31.64200
H  17.22200 52.71600 31.52200
H  18.70800 51.96300 30.89400
H  18.35100 52.58800 33.38200
H  19.21700 51.18600 33.17600
H  11.51100 53.91100 26.25600
H  12.72400 54.76900 27.14900
H  12.02300 53.20800 27.76100
H  11.30800 55.08800 23.87200
H  12.59900 56.03100 23.14900
H  12.61600 55.82600 24.77000
H  17.13800 51.33200 21.04400
H  18.92800 49.32600 21.58200
H  16.87200 48.45600 20.99500
H  15.61500 49.71700 20.53900
H  15.63400 49.01400 22.09900
H  19.54600 51.59200 20.53800
H  20.68800 50.73900 21.57300
H  19.18000 52.54900 23.14100
H  19.65200 53.39700 21.62100
H  20.88000 52.75200 22.68700
H  21.95900 47.48700 24.82100
H  22.45300 46.77800 26.27700
H  23.02800 48.45200 26.01000
H  20.41900 49.54000 30.61500
H  19.49900 47.70600 34.25800
H  19.98800 46.27100 33.13500
H  18.33000 46.95000 33.44600

