158

Mg 16.34900 -1.19400 27.99500
C  15.69300 0.92700 30.62600
C  18.77300 -2.80900 30.06700
C  17.67800 -2.86600 25.33600
C  14.87300 1.09500 25.90100
N  16.95600 -1.11300 30.17300
C  16.48100 -0.19100 31.07900
C  17.16000 -0.33900 32.49500
C  18.28100 -1.44100 32.20700
C  18.02100 -1.77900 30.72900
C  19.77100 -1.00500 32.63300
C  16.09500 -0.67600 33.52700
C  16.23100 -0.03300 34.90100
H  17.59700 0.50400 35.32000
N  17.91400 -2.72500 27.74400
C  18.72500 -3.24100 28.77200
C  19.30000 -4.49100 28.25800
C  18.97400 -4.65000 26.84900
C  18.18600 -3.39800 26.58600
C  20.02900 -5.47600 29.15800
C  19.33100 -5.76100 25.88900
O  19.16300 -5.65200 24.66800
C  19.89000 -7.02600 26.35200
N  16.14500 -1.01600 25.91000
C  16.80200 -1.74500 24.96100
C  16.45900 -1.18800 23.49000
C  15.24700 -0.20700 23.78600
C  15.41900 -0.06000 25.28300
C  17.68300 -0.52900 22.78800
C  13.86000 -0.85200 23.62200
C  12.83600 0.10400 23.00100
N  15.23700 0.53700 28.15600
C  14.72700 1.36700 27.24300
C  14.16100 2.49100 27.88700
C  14.55100 2.46200 29.20800
C  15.22600 1.20800 29.30400
C  13.51900 3.70400 27.25100
C  14.50300 3.17500 30.45000
O  13.83700 4.14600 30.76200
C  15.26300 2.21900 31.43700
C  16.42900 2.94000 31.99500
O  17.57800 2.98800 31.59900
O  15.98600 3.62300 33.07900
C  16.86400 4.56700 33.77700
H  19.55600 -3.21300 30.71200
H  18.07100 -3.34300 24.43600
H  14.30900 1.75900 25.24300
H  17.59700 0.61200 32.79900
H  18.24500 -2.34400 32.81600
H  19.75300 -0.13000 33.28200
H  20.35100 -0.75700 31.74400
H  20.27400 -1.83200 33.13500
H  16.01700 -1.74600 33.72300
H  15.18900 -0.32900 33.03000
H  15.98600 -0.75300 35.68100
H  15.54700 0.81500 34.91100
H  20.84600 -5.96800 28.63000
H  19.34700 -6.22500 29.55900
H  20.63100 -5.01300 29.94000
H  19.36100 -7.32300 27.25800
H  20.96900 -6.87700 26.35100
H  19.80300 -7.85900 25.65400
H  16.20200 -2.14900 23.04500
H  15.37500 0.75200 23.28500
H  17.73800 0.52600 23.05800
H  17.39900 -0.40900 21.74200
H  18.64500 -1.02300 22.92100
H  13.42200 -1.23200 24.54600
H  13.90500 -1.74100 22.99200
H  12.42800 -0.25800 22.05800
H  13.31200 1.07400 22.85700
H  11.98400 0.24400 23.66600
H  14.04500 4.57400 27.64300
H  12.49300 3.56800 27.59400
H  13.65600 3.50500 26.18800
H  14.53200 1.99800 32.21500
H  16.74800 5.54300 33.30700
H  17.90900 4.27400 33.67300
H  16.61600 4.55200 34.83800
Mg 42.55300 41.45000 26.49900
C  41.58000 43.91900 28.91400
C  43.35800 39.36300 29.12400
C  43.84600 39.34900 24.24000
C  42.12100 43.91900 24.02100
N  42.56200 41.68400 28.78900
C  42.02600 42.69400 29.54600
C  41.94700 42.31000 31.07500
C  42.75100 41.02900 31.07400
C  42.89400 40.60000 29.58800
C  44.15100 41.11100 31.79200
C  40.41500 42.21500 31.41200
C  39.96700 43.18500 32.47600
H  39.14200 42.64200 33.63400
N  43.37900 39.56300 26.69200
C  43.70300 38.91300 27.86700
C  44.22000 37.55200 27.51100
C  44.34700 37.52500 26.07300
C  43.83500 38.86500 25.58700
C  44.60500 36.64900 28.60300
C  44.93200 36.43400 25.14500
O  44.93100 36.56500 23.93000
C  45.57500 35.25200 25.75200
N  42.90900 41.63600 24.47700
C  43.40400 40.56600 23.76100
C  43.49700 40.92000 22.26400
C  42.84600 42.36600 22.07400
C  42.62500 42.66200 23.60100
C  44.84400 40.77200 21.62900
C  41.46900 42.43400 21.41900
C  41.28900 43.70000 20.58300
N  42.07200 43.49300 26.46000
C  41.90400 44.38100 25.36700
C  41.32600 45.65500 25.80800
C  41.16400 45.48600 27.18600
C  41.64500 44.19800 27.54800
C  40.93300 46.83100 25.06300
C  40.71300 46.18100 28.35700
O  40.24400 47.34600 28.44300
C  40.92400 45.15300 29.53900
C  41.64600 45.82800 30.68400
O  42.85000 45.98400 30.73400
O  40.72900 46.41000 31.59900
C  41.31900 47.10100 32.80400
H  43.76400 38.70600 29.89600
H  44.28800 38.74300 23.44600
H  41.84300 44.57000 23.18900
H  42.49500 43.12100 31.55500
H  42.30900 40.20600 31.63500
H  43.88800 41.00100 32.84400
H  44.59100 42.07000 31.51800
H  44.87900 40.36400 31.47500
H  40.27800 41.27200 31.94100
H  39.68000 42.41100 30.63200
H  39.32600 43.87800 31.93200
H  40.76200 43.78100 32.92400
H  45.67900 36.50700 28.48200
H  44.06900 35.74000 28.32700
H  44.19800 36.83500 29.59700
H  45.67900 34.41200 25.06500
H  44.97700 34.85700 26.57400
H  46.48700 35.54800 26.27100
H  42.87700 40.20000 21.72900
H  43.49300 43.14500 21.67200
H  44.91800 39.83400 21.07800
H  45.72300 40.91600 22.25600
H  44.83600 41.53600 20.85200
H  40.65100 42.26200 22.11800
H  41.43600 41.60500 20.71200
H  42.18000 43.84200 19.97200
H  41.11400 44.58300 21.19800
H  40.49900 43.62900 19.83500
H  40.28100 46.63500 24.21100
H  41.88600 47.25900 24.75100
H  40.42500 47.49000 25.76700
H  39.92800 44.88500 29.89400
H  40.68600 47.98200 32.90600
H  42.30100 47.54900 32.64800
H  41.32400 46.35100 33.59600

