158

Mg 47.35400 24.99100 29.18800
C  48.21100 27.43300 31.41200
C  46.61000 22.90200 31.76800
C  46.70100 22.56300 26.87300
C  49.01700 26.76800 26.68000
N  47.41200 25.19200 31.34200
C  47.59800 26.36300 32.01700
C  47.27800 26.08600 33.51700
C  47.18500 24.54500 33.69000
C  47.01900 24.19100 32.15500
C  48.41300 23.80800 34.27000
C  45.98400 26.86600 34.05500
C  46.06800 27.64800 35.39700
H  46.12900 26.74400 36.63700
N  46.48600 23.16000 29.27000
C  46.22200 22.44000 30.40100
C  45.58600 21.16300 30.04000
C  45.53400 21.09000 28.60400
C  46.24200 22.29200 28.19800
C  45.01500 20.17100 30.96500
C  44.99900 19.98400 27.63100
O  44.85100 20.22300 26.43600
C  44.44200 18.61600 28.07700
N  47.75200 24.68300 27.06500
C  47.39700 23.64900 26.31400
C  47.84400 23.76400 24.84100
C  48.45000 25.19600 24.77700
C  48.49100 25.54600 26.27300
C  48.78300 22.66300 24.30200
C  47.60300 26.16800 23.91500
C  48.33100 27.03700 22.88200
N  48.49700 26.71700 29.01500
C  48.97900 27.45200 27.93600
C  49.51700 28.77000 28.41700
C  49.18600 28.75200 29.78500
C  48.66200 27.47600 30.06800
C  50.15300 29.80100 27.58600
C  49.26000 29.58300 30.97100
O  49.71000 30.70500 31.08400
C  48.78000 28.71700 32.06600
C  49.95000 28.43800 32.90300
O  51.07500 28.06300 32.48400
O  49.65500 28.64500 34.27300
C  50.64300 28.25300 35.31500
H  46.32600 22.22900 32.57900
H  46.45800 21.75600 26.17900
H  49.49200 27.30400 25.85500
H  48.17800 26.51600 33.95700
H  46.29100 24.34300 34.27900
H  48.04000 23.22700 35.11300
H  49.18600 24.47700 34.64900
H  48.79200 23.22400 33.43100
H  45.20700 26.10600 33.97300
H  45.75500 27.52700 33.21900
H  45.21400 28.32200 35.46900
H  46.91400 28.32800 35.29700
H  45.23100 19.16600 30.60200
H  43.93900 20.33800 30.99800
H  45.26500 20.38700 32.00400
H  43.59700 18.82400 28.73300
H  45.25200 18.08100 28.57200
H  44.13000 17.98600 27.24400
H  46.92700 23.76100 24.25100
H  49.45000 25.10700 24.35100
H  48.96600 22.73600 23.23000
H  48.44200 21.64300 24.48000
H  49.63700 22.77400 24.96900
H  47.04400 26.81600 24.59000
H  46.83200 25.78400 23.24700
H  47.70600 27.06500 21.99000
H  49.37800 26.78500 22.71400
H  48.43600 28.03300 23.31400
H  49.44900 30.33800 26.95000
H  50.84300 29.24200 26.95400
H  50.76700 30.46400 28.19600
H  48.10300 29.31900 32.67100
H  50.47200 28.96600 36.12100
H  51.64700 28.37900 34.91000
H  50.52500 27.21300 35.61900
Mg -11.20300 16.46200 42.03500
C  -7.93000 14.95500 41.58400
C  -9.87700 19.27200 40.60600
C  -14.23300 17.47300 41.63700
C  -12.23300 13.35100 43.16100
N  -9.09400 16.95800 41.10500
C  -7.95300 16.25700 41.09100
C  -6.84800 17.07700 40.56400
C  -7.38700 18.55400 40.70000
C  -8.89200 18.25200 40.79200
C  -6.94500 19.49700 41.88900
C  -6.42300 16.68800 39.07000
C  -4.83700 16.36500 38.97200
H  -4.10800 16.75100 37.63900
N  -11.98000 18.23700 41.36500
C  -11.34800 19.29000 40.78700
C  -12.22200 20.34500 40.33200
C  -13.50600 19.76100 40.52300
C  -13.27300 18.41900 41.17000
C  -11.69500 21.59700 39.65000
C  -14.86500 20.49600 40.26400
O  -14.83500 21.62500 39.72400
C  -16.20800 19.89100 40.63700
N  -12.93300 15.53400 42.31700
C  -14.07700 16.17400 42.16200
C  -15.30200 15.33200 42.54200
C  -14.58600 14.22600 43.37500
C  -13.20100 14.29600 42.80900
C  -16.41100 16.06100 43.32200
C  -15.28600 12.86100 43.03600
C  -15.72000 11.97700 44.21700
N  -10.27200 14.47700 42.30800
C  -10.86500 13.30700 42.82000
C  -9.84500 12.30500 43.02500
C  -8.64800 12.91900 42.52600
C  -8.97400 14.24800 42.13700
C  -10.13300 10.94600 43.62400
C  -7.22000 12.69900 42.28400
O  -6.45800 11.76000 42.51200
C  -6.65900 14.07500 41.81900
C  -5.78500 14.62600 42.89700
O  -6.10100 14.98200 44.04500
O  -4.51500 14.88100 42.33200
C  -3.59100 15.59100 43.22200
H  -9.39000 20.22400 40.38500
H  -15.26500 17.82800 41.66000
H  -12.63300 12.42200 43.57300
H  -5.96000 16.99700 41.19100
H  -7.18000 19.05200 39.75300
H  -6.99100 18.98900 42.85300
H  -7.62000 20.35200 41.87700
H  -5.93800 19.73400 41.54600
H  -6.58300 17.36700 38.23200
H  -6.78600 15.71000 38.75400
H  -4.67500 15.29200 39.07600
H  -4.20300 16.85400 39.71200
H  -12.00600 22.42300 40.29000
H  -12.10000 21.78900 38.65600
H  -10.62600 21.67200 39.45000
H  -17.06800 20.51100 40.38600
H  -16.35500 19.87600 41.71700
H  -16.39900 18.92500 40.17000
H  -15.57200 14.95400 41.55600
H  -14.69700 14.44900 44.43600
H  -16.98500 15.32800 43.88800
H  -16.99700 16.64500 42.61200
H  -16.07200 16.78700 44.06200
H  -14.60300 12.34500 42.36000
H  -16.17800 12.98600 42.42200
H  -16.78000 11.73300 44.14400
H  -15.54200 12.44300 45.18700
H  -15.25500 10.99500 44.13000
H  -9.15900 10.45900 43.67800
H  -10.77600 10.30300 43.02400
H  -10.58600 11.13200 44.59800
H  -6.15800 13.90700 40.86500
H  -3.10100 14.89900 43.90700
H  -4.08600 16.27200 43.91500
H  -2.80000 16.21000 42.80000

