158

Mg 26.83500 51.50300 26.32700
C  24.88400 52.28500 28.98800
C  29.42100 50.64300 28.60300
C  28.89800 50.65200 23.73000
C  24.55200 52.61900 24.13000
N  27.13700 51.56400 28.49800
C  26.12500 51.78400 29.41200
C  26.49200 51.42200 30.85500
C  27.93800 51.07100 30.66300
C  28.20100 51.04600 29.17300
C  28.93800 52.10600 31.40800
C  25.64800 50.32800 31.55700
C  25.04800 50.83000 32.90100
H  25.95100 50.79300 34.15000
N  28.85500 50.80100 26.22400
C  29.75600 50.49200 27.23400
C  31.02500 50.01100 26.77300
C  30.81400 49.81700 25.39700
C  29.45800 50.38800 25.06800
C  32.17600 49.80900 27.71400
C  31.68700 48.99100 24.45900
O  31.44900 48.96300 23.22700
C  32.84600 48.21000 24.83700
N  26.81700 51.73600 24.09700
C  27.77200 51.29300 23.24300
C  27.25700 51.36500 21.80400
C  25.83000 51.95700 21.92300
C  25.73600 52.16500 23.46200
C  28.31900 52.14300 20.92100
C  24.66700 51.24000 21.30000
C  24.22500 49.99800 22.01100
N  25.13400 52.44800 26.48300
C  24.26900 52.77300 25.49500
C  23.02500 53.30100 26.07100
C  23.20300 53.10900 27.43300
C  24.54600 52.59400 27.65700
C  21.80500 53.72900 25.30700
C  22.62700 53.24500 28.69800
O  21.53200 53.65100 28.96700
C  23.64700 52.68800 29.75000
C  23.94800 53.85100 30.61800
O  24.75500 54.70800 30.36100
O  23.20700 53.80300 31.81500
C  23.62500 54.75100 32.91600
H  30.23500 50.23500 29.20600
H  29.49900 50.29700 22.89100
H  23.71400 52.92700 23.50000
H  26.47500 52.29000 31.51300
H  28.15600 50.07400 31.04500
H  29.28800 52.78300 30.62900
H  29.67000 51.54800 31.99200
H  28.54800 52.81300 32.14100
H  26.20100 49.42500 31.81500
H  24.76200 50.10400 30.96200
H  24.05000 50.40400 33.00600
H  24.79200 51.87000 32.69700
H  33.07000 50.10200 27.16500
H  32.15100 48.77200 28.04900
H  32.04200 50.54200 28.50900
H  33.47800 48.81800 25.48500
H  33.37600 48.10800 23.89000
H  32.54000 47.28700 25.32900
H  27.25900 50.34600 21.41800
H  25.67700 52.96500 21.53600
H  28.54100 51.56900 20.02100
H  29.23100 52.30800 21.49500
H  27.89600 53.08900 20.58100
H  24.84700 50.93100 20.27000
H  23.77600 51.86700 21.28000
H  24.43100 49.21500 21.28100
H  23.14800 50.11200 22.13600
H  24.71700 49.75400 22.95200
H  21.00500 53.75000 26.04700
H  21.62300 53.05100 24.47300
H  21.99800 54.74200 24.95400
H  23.04300 51.96300 30.29600
H  23.85900 55.75100 32.55200
H  24.60600 54.49400 33.31400
H  22.85600 54.88400 33.67700
Mg -4.31300 26.02600 25.83700
C  -3.10700 27.47700 28.82800
C  -6.19500 23.86900 27.82800
C  -5.13800 24.09300 23.09200
C  -2.10900 27.92300 23.99900
N  -4.51800 25.67700 28.08800
C  -3.99500 26.43500 29.03400
C  -4.60700 26.07800 30.39200
C  -5.31700 24.66600 30.12400
C  -5.44900 24.76600 28.56900
C  -4.57900 23.40600 30.56900
C  -5.59800 27.23100 30.94100
C  -5.47500 27.45900 32.53100
H  -4.99500 26.32100 33.40100
N  -5.66700 24.40300 25.48300
C  -6.29300 23.68000 26.46900
C  -7.17700 22.69500 25.78300
C  -6.87600 22.70200 24.39300
C  -5.88700 23.76900 24.23500
C  -8.17300 21.77000 26.59900
C  -7.34100 21.77500 23.32800
O  -6.88000 21.91600 22.17000
C  -8.44700 20.71000 23.49600
N  -3.62400 25.91800 23.89000
C  -4.10000 25.01300 22.91800
C  -3.39100 25.32800 21.53500
C  -2.32700 26.52600 21.90100
C  -2.66700 26.82300 23.32300
C  -2.85400 24.02800 20.77800
C  -2.29300 27.67900 20.88900
C  -3.15200 28.91700 21.18600
N  -2.91900 27.45000 26.22300
C  -2.21200 28.21700 25.38200
C  -1.47800 29.20300 26.15400
C  -1.79100 28.89400 27.51600
C  -2.66900 27.80000 27.51300
C  -0.58800 30.32400 25.67500
C  -1.55300 29.29300 28.87600
O  -1.05600 30.28000 29.37900
C  -2.39500 28.27700 29.75000
C  -1.51300 27.39500 30.45000
O  -0.56500 26.72900 29.97100
O  -1.87700 27.54000 31.77000
C  -0.86800 26.88300 32.61900
H  -6.91000 23.29200 28.41700
H  -5.16500 23.41400 22.23700
H  -1.42400 28.57800 23.45500
H  -3.84800 25.88700 31.15000
H  -6.21800 24.61900 30.73600
H  -4.64700 22.65600 29.78200
H  -5.07000 23.00200 31.45400
H  -3.51400 23.52100 30.77400
H  -6.63200 27.02000 30.66600
H  -5.30700 28.14000 30.41400
H  -6.43000 27.83900 32.89600
H  -4.71200 28.17700 32.83100
H  -7.84700 21.56200 27.61900
H  -8.23500 20.78800 26.13000
H  -9.14000 22.27200 26.62200
H  -8.06200 19.75000 23.83900
H  -8.83000 20.50100 22.49600
H  -9.22900 21.04500 24.17700
H  -4.23600 25.72700 20.97400
H  -1.29900 26.18000 22.00200
H  -1.83800 24.31100 20.50300
H  -3.52600 23.87600 19.93400
H  -2.85900 23.19000 21.47600
H  -2.70000 27.18100 20.00900
H  -1.28700 27.94200 20.56500
H  -2.52000 29.68000 21.64100
H  -3.88900 28.53100 21.89000
H  -3.62100 29.26400 20.26500
H  0.09800 30.59400 26.47800
H  -1.18800 31.21400 25.48400
H  -0.09900 29.96900 24.76800
H  -2.97700 28.94100 30.38900
H  0.08700 27.40300 32.53300
H  -0.76800 25.83200 32.34900
H  -1.18900 26.95200 33.65800

