158

Mg 8.41200 3.15900 27.03600
C  9.86300 1.85300 29.83600
C  6.64300 5.35800 28.98400
C  6.92900 4.23800 24.19000
C  10.11700 0.70500 25.09800
N  8.14000 3.44800 29.20600
C  8.88000 2.85600 30.17700
C  8.66800 3.51600 31.49300
C  7.64700 4.60200 31.18400
C  7.44600 4.48500 29.71100
C  6.42300 4.50100 32.09500
C  10.06800 4.05800 32.10000
C  10.33800 3.78500 33.63300
H  10.26100 4.82400 34.70500
N  6.85800 4.49700 26.63200
C  6.23100 5.28000 27.58900
C  5.34900 6.18400 26.90500
C  5.41600 5.98800 25.49600
C  6.41200 4.81600 25.36700
C  4.54800 7.28200 27.67800
C  4.74400 6.59400 24.29200
O  5.05900 6.29000 23.18000
C  3.54500 7.45900 24.43800
N  8.59100 2.56300 25.01600
C  7.95800 3.23300 23.99200
C  8.29200 2.81400 22.51400
C  9.23100 1.58700 22.81100
C  9.37300 1.66600 24.40700
C  7.07300 2.42100 21.57200
C  10.52600 1.54500 21.98000
C  10.56300 0.71800 20.65000
N  9.74700 1.53200 27.36300
C  10.36300 0.66800 26.47400
C  11.12300 -0.26800 27.29400
C  11.01700 0.19300 28.60800
C  10.16200 1.32400 28.58800
C  11.99300 -1.37900 26.71600
C  11.43800 -0.03100 29.95800
O  12.19600 -0.91500 30.40000
C  10.66300 0.99500 30.82800
C  9.90100 0.20500 31.90100
O  8.83900 -0.32300 31.76200
O  10.56700 0.26300 33.07300
C  9.89300 -0.33300 34.24500
H  6.24200 6.05300 29.72400
H  6.72700 4.72800 23.23500
H  10.50600 -0.14100 24.52800
H  8.20000 2.79700 32.16500
H  8.08700 5.59800 31.22800
H  5.46800 4.60300 31.58000
H  6.49300 5.40000 32.70800
H  6.42600 3.60100 32.70900
H  10.06100 5.14000 31.97000
H  10.89300 3.84900 31.41900
H  11.32300 3.31900 33.59100
H  9.61500 3.03900 33.96300
H  4.85000 7.45000 28.71200
H  3.51300 6.94100 27.67100
H  4.67800 8.29100 27.28500
H  2.79600 6.93800 25.03400
H  3.20300 7.74800 23.44500
H  3.90600 8.36600 24.92400
H  8.84800 3.71400 22.25300
H  8.61400 0.71100 22.61200
H  6.14000 2.31400 22.12500
H  7.17900 1.50000 20.99800
H  6.94600 3.21800 20.83900
H  11.27400 1.08400 22.62600
H  10.87200 2.56600 21.81800
H  11.26700 1.10100 19.91100
H  9.59700 0.45800 20.21500
H  10.93300 -0.26700 20.93300
H  12.99100 -1.41200 27.15300
H  12.13200 -1.32500 25.63700
H  11.48500 -2.32500 26.90300
H  11.43200 1.57600 31.33700
H  8.98400 -0.89400 34.02600
H  9.72400 0.42400 35.01200
H  10.51800 -1.13200 34.64400
Mg 9.71400 47.67900 25.69600
C  7.88600 48.04300 28.65800
C  12.39000 49.06000 27.35200
C  11.40900 47.33400 22.88900
C  6.86600 46.70300 24.08300
N  10.10200 48.38600 27.83100
C  9.24400 48.35300 28.92000
C  9.95000 48.84200 30.26200
C  11.24100 49.39900 29.64700
C  11.28800 48.84900 28.19800
C  11.28300 50.95800 29.68500
C  10.22200 47.63400 31.28500
C  9.56400 47.84700 32.71700
H  9.17900 46.67000 33.60800
N  11.65200 48.11900 25.15000
C  12.59300 48.67500 25.98600
C  13.86700 48.82800 25.28900
C  13.61400 48.28200 23.95700
C  12.20100 47.85300 23.94600
C  15.14200 49.24400 25.94000
C  14.57500 48.17500 22.80900
O  14.35200 47.77500 21.64100
C  15.98900 48.70300 22.99400
N  9.14500 47.16500 23.77500
C  10.08500 46.99100 22.74600
C  9.47800 46.45000 21.46900
C  8.09100 46.02600 21.94200
C  8.01300 46.59300 23.37900
C  9.58400 47.60300 20.43900
C  7.92600 44.47600 22.13500
C  8.87600 43.62300 23.00000
N  7.79100 47.44900 26.23000
C  6.66700 47.09900 25.42500
C  5.44300 47.28600 26.16300
C  5.88100 47.58600 27.47900
C  7.32700 47.73300 27.47300
C  4.01300 47.08700 25.71500
C  5.46500 47.88700 28.89600
O  4.35800 47.93100 29.33600
C  6.71900 48.18600 29.66000
C  6.67100 47.15900 30.71800
O  7.24300 46.02700 30.60500
O  5.98500 47.64200 31.81000
C  5.41500 46.64500 32.65100
H  13.23300 49.51500 27.87600
H  11.92300 47.19600 21.93500
H  5.95800 46.35700 23.58400
H  9.35800 49.60400 30.76800
H  12.10500 49.04400 30.20800
H  10.38100 51.27600 30.20900
H  11.24900 51.29600 28.65000
H  12.19300 51.29900 30.17900
H  11.27800 47.54400 31.53700
H  9.89700 46.71200 30.80300
H  8.60100 48.32500 32.53400
H  10.33500 48.52300 33.08800
H  15.86400 48.44600 26.11400
H  14.94100 49.50000 26.98000
H  15.75100 50.01900 25.47500
H  15.92000 49.75900 23.25600
H  16.64400 48.59700 22.12900
H  16.47200 48.16900 23.81300
H  10.07300 45.59000 21.16100
H  7.30500 46.49100 21.34800
H  10.15800 48.41300 20.88900
H  8.54800 47.82800 20.18700
H  10.10300 47.18200 19.57700
H  8.23100 44.04900 21.17900
H  6.87900 44.20000 22.26300
H  9.42900 42.90400 22.39600
H  8.31700 43.11100 23.78300
H  9.67400 44.17200 23.50000
H  3.39300 47.97500 25.58900
H  3.48200 46.58500 26.52400
H  4.09200 46.38400 24.88600
H  6.69400 49.17800 30.10900
H  4.86000 47.04400 33.49900
H  6.27000 46.12100 33.07800
H  4.79500 45.96900 32.06300

