158

Mg 47.45200 24.81800 28.37100
C  48.36100 27.07100 31.00900
C  46.21500 22.70300 30.75600
C  46.72600 22.67200 25.86700
C  48.99100 26.93800 26.17200
N  47.31100 24.93600 30.63500
C  47.70900 25.94000 31.48700
C  47.34500 25.65300 32.92700
C  46.78100 24.18700 32.86600
C  46.79800 23.88800 31.35500
C  47.78800 23.17300 33.55400
C  46.39900 26.70200 33.54000
C  46.75700 27.32500 34.89900
H  47.43600 26.45200 35.99800
N  46.62300 22.86600 28.28100
C  46.11200 22.16100 29.35700
C  45.64600 20.89700 28.93700
C  45.70500 20.87700 27.44300
C  46.34800 22.16500 27.14500
C  45.08600 19.87500 29.81500
C  45.28500 19.86600 26.47600
O  45.45100 19.96900 25.27000
C  44.60700 18.69600 26.93600
N  47.91800 24.73500 26.30800
C  47.34800 23.83600 25.50900
C  47.83300 24.18100 24.02600
C  48.32100 25.60600 24.08200
C  48.51800 25.73600 25.60700
C  48.90400 23.22900 23.58100
C  47.29000 26.66700 23.58300
C  45.89900 26.76300 24.13800
N  48.47800 26.61400 28.46700
C  49.01600 27.41100 27.48800
C  49.60800 28.60000 27.99400
C  49.28600 28.53600 29.39700
C  48.64900 27.27000 29.62000
C  50.32100 29.57300 27.22600
C  49.42000 29.23900 30.67400
O  50.03000 30.26400 30.93900
C  48.81500 28.24900 31.79900
C  49.91200 27.89200 32.76400
O  50.65100 26.93600 32.66600
O  49.90800 28.78800 33.73900
C  50.70300 28.50400 34.97400
H  45.79100 22.08500 31.55000
H  46.41700 22.08500 25.00000
H  49.52000 27.61600 25.49900
H  48.27500 25.75200 33.48700
H  45.79700 24.00900 33.29900
H  47.27300 22.62400 34.34200
H  48.55800 23.75500 34.06100
H  48.07100 22.33100 32.92200
H  45.39400 26.35900 33.78700
H  46.19300 27.40700 32.73400
H  45.87600 27.81500 35.31400
H  47.44100 28.15100 34.70200
H  45.55100 18.89600 29.69900
H  44.06900 19.79100 29.43300
H  44.93300 20.19500 30.84500
H  44.19800 18.22400 26.04200
H  43.71400 18.88000 27.53400
H  45.32600 18.09800 27.49400
H  46.99400 24.05000 23.34300
H  49.30700 25.70000 23.62600
H  48.97100 23.43300 22.51300
H  48.69300 22.19400 23.85400
H  49.80300 23.57600 24.09000
H  47.29100 26.47300 22.51100
H  47.69600 27.67600 23.64700
H  45.76400 27.80200 24.43800
H  45.78100 26.14500 25.02700
H  45.26400 26.46000 23.30500
H  50.92700 29.14400 26.42800
H  50.97100 30.11000 27.91700
H  49.59900 30.28500 26.82600
H  47.95900 28.68200 32.31700
H  50.02300 28.05700 35.69800
H  50.94000 29.50300 35.34200
H  51.64800 27.96100 34.98300
Mg 8.83100 48.28200 26.69700
C  6.74400 47.98800 29.42400
C  11.50500 48.81700 28.85500
C  10.88800 48.46100 23.98800
C  6.11900 47.94400 24.60400
N  9.13700 48.43400 28.95200
C  8.07600 48.24500 29.80600
C  8.66900 48.28500 31.25100
C  10.16900 48.71800 31.08900
C  10.34000 48.60900 29.59100
C  10.60700 50.09700 31.68200
C  8.45500 46.98900 32.17600
C  9.31800 46.65000 33.32400
H  8.70800 45.84100 34.53700
N  10.85400 48.81600 26.47400
C  11.77500 49.00200 27.47400
C  13.07700 49.35800 26.87500
C  12.98500 48.99000 25.51600
C  11.52700 48.76800 25.22600
C  14.24800 49.87300 27.66900
C  14.12800 48.72700 24.56100
O  13.93600 48.37600 23.39100
C  15.53800 48.71800 25.03900
N  8.54800 48.27700 24.59100
C  9.52700 48.33700 23.63300
C  9.08600 47.79800 22.25600
C  7.53000 47.89100 22.43500
C  7.35200 48.00600 23.96900
C  9.71500 48.59300 21.03400
C  6.69900 46.84600 21.67800
C  5.84500 47.37700 20.51900
N  6.77900 48.06500 26.90800
C  5.79500 47.92300 25.98800
C  4.52400 47.80900 26.60700
C  4.85900 47.79600 27.96700
C  6.25500 47.91500 28.09800
C  3.22500 47.83400 25.89700
C  4.25900 47.66500 29.23600
O  3.09600 47.61900 29.60500
C  5.48500 47.64500 30.24300
C  5.55100 46.24200 30.83900
O  6.03400 45.23300 30.29800
O  4.80800 46.28700 31.98300
C  4.58900 44.96200 32.56000
H  12.41800 48.96600 29.43500
H  11.59000 48.40600 23.15300
H  5.30800 47.66800 23.92700
H  8.01800 49.03100 31.70600
H  10.80100 47.98100 31.58500
H  10.65400 50.79400 30.84500
H  11.56700 50.08200 32.19700
H  9.87700 50.46700 32.40200
H  8.54800 46.11200 31.53500
H  7.42600 47.04800 32.53200
H  9.71800 47.60500 33.66400
H  10.13300 46.02200 32.96500
H  14.65900 50.76600 27.19800
H  14.94600 49.09500 27.98000
H  13.86600 50.25600 28.61600
H  16.24400 48.32300 24.30900
H  15.55400 48.00500 25.86400
H  15.82200 49.71400 25.37800
H  9.37800 46.74800 22.28500
H  7.25100 48.91000 22.16800
H  10.58100 49.20900 21.27500
H  8.85200 49.13800 20.65300
H  10.12100 47.82900 20.37100
H  6.13100 46.12900 22.27100
H  7.43800 46.17500 21.24100
H  4.83200 47.20000 20.88100
H  5.99900 46.77500 19.62300
H  5.86100 48.43900 20.27400
H  3.01800 46.78500 25.68400
H  3.19900 48.37100 24.94900
H  2.32400 48.08100 26.45700
H  5.39000 48.36800 31.05300
H  4.97200 44.90900 33.57900
H  5.05200 44.11100 32.06100
H  3.52600 44.73500 32.63800

