158

Mg 2.13500 -1.41800 43.99900
C  5.38200 -0.23500 43.78100
C  1.04500 1.42700 42.62300
C  -0.78700 -2.97700 43.24000
C  3.49600 -4.59800 44.74800
N  3.10600 0.40900 43.33700
C  4.46900 0.66700 43.33300
C  4.72600 2.11400 42.98600
C  3.20600 2.73600 43.18000
C  2.38400 1.50000 42.97900
C  2.93900 3.45500 44.59200
C  5.32300 2.29000 41.60000
C  6.70900 2.90700 41.48200
H  7.76600 2.32900 40.47800
N  0.36200 -0.80700 43.10900
C  0.12200 0.39800 42.56200
C  -1.25300 0.51600 42.18200
C  -1.85600 -0.66400 42.41200
C  -0.80200 -1.60400 42.99400
C  -1.85600 1.85400 41.69300
C  -3.33300 -1.02400 42.19000
O  -4.05400 -0.18700 41.66700
C  -3.83000 -2.25300 42.66900
N  1.43100 -3.46100 44.06400
C  0.15400 -3.82600 43.81700
C  -0.04600 -5.31600 43.97200
C  1.27500 -5.81900 44.57600
C  2.16800 -4.57300 44.48200
C  -1.25400 -5.77000 44.81400
C  1.90500 -7.16100 43.93900
C  1.80900 -8.37700 44.95800
N  4.00300 -2.28800 44.37900
C  4.42400 -3.56100 44.67000
C  5.85600 -3.56300 44.93900
C  6.27500 -2.30700 44.51700
C  5.06800 -1.59700 44.18200
C  6.75700 -4.65600 45.53700
C  7.43500 -1.44400 44.41100
O  8.57200 -1.67300 44.66100
C  6.90800 -0.10200 43.96200
C  7.31800 0.91800 44.92600
O  6.59200 1.19900 45.88400
O  8.43400 1.64500 44.50300
C  8.83200 2.91300 45.15500
H  0.63200 2.37700 42.27900
H  -1.73200 -3.52200 43.18900
H  3.96000 -5.54800 45.02200
H  5.34100 2.57200 43.76100
H  2.98100 3.47000 42.40600
H  3.08800 4.53500 44.58000
H  3.57400 3.08800 45.39800
H  1.86700 3.33900 44.75300
H  4.61000 2.85300 40.99800
H  5.32100 1.35400 41.04000
H  7.17300 2.80800 42.46400
H  6.53200 3.95800 41.25600
H  -2.59500 1.73800 40.90000
H  -1.09000 2.48600 41.24400
H  -2.26500 2.32800 42.58500
H  -3.54000 -2.27000 43.72000
H  -3.39700 -3.07400 42.09900
H  -4.89900 -2.20800 42.45900
H  -0.17800 -5.66400 42.94800
H  1.19400 -5.95200 45.65500
H  -0.89200 -6.42400 45.60700
H  -1.88000 -6.43200 44.21600
H  -1.81200 -4.93800 45.24400
H  2.98900 -7.05300 43.90100
H  1.45500 -7.45000 42.98900
H  2.78700 -8.53500 45.41100
H  1.43000 -9.26900 44.45800
H  1.10700 -8.19300 45.77200
H  6.70100 -5.46000 44.80300
H  6.48800 -5.10500 46.49300
H  7.78400 -4.30500 45.43800
H  7.41100 0.05900 43.00900
H  7.99500 3.36000 45.69100
H  9.32700 3.59200 44.46000
H  9.44700 2.63800 46.01100
Mg 25.73800 1.74700 29.55400
C  27.75300 1.15500 32.49100
C  23.14300 2.12800 31.53400
C  23.89100 1.66100 26.76300
C  28.58600 0.57300 27.63800
N  25.55900 1.65400 31.77300
C  26.42100 1.53500 32.82000
C  25.75300 1.70700 34.21200
C  24.31800 1.72300 33.79800
C  24.29900 1.86900 32.23800
C  23.36300 0.56900 34.40100
C  26.22500 3.00400 35.07400
C  26.65500 2.72700 36.41500
H  26.57600 3.73000 37.54000
N  23.74800 2.18000 29.18200
C  22.83200 2.32100 30.12900
C  21.53500 2.55200 29.49000
C  21.71500 2.35100 28.07800
C  23.15500 1.96900 27.99300
C  20.32500 2.96500 30.27100
C  20.74500 2.45900 26.91600
O  21.12300 2.27700 25.76500
C  19.32500 2.76000 27.14200
N  26.14300 1.02300 27.58200
C  25.21800 1.27200 26.56800
C  25.87100 1.23900 25.14500
C  27.40300 1.09600 25.47300
C  27.40900 0.79700 26.97000
C  25.23700 0.19600 24.10400
C  28.28900 2.29800 24.95500
C  28.82700 2.23000 23.58600
N  27.73000 0.98700 29.96600
C  28.75000 0.61300 29.07500
C  29.99800 0.47100 29.84400
C  29.61300 0.61800 31.14500
C  28.25400 0.87200 31.22500
C  31.33900 0.04700 29.23400
C  30.13100 0.50000 32.52200
O  31.24600 0.24900 32.99700
C  28.92300 0.96900 33.39800
C  28.72000 -0.05600 34.46800
O  27.90500 -0.92900 34.55200
O  29.64700 0.20100 35.45800
C  29.51200 -0.58700 36.66100
H  22.26600 1.86200 32.12800
H  23.31900 1.79600 25.84200
H  29.40900 0.36400 26.95100
H  25.94300 0.83800 34.84200
H  23.87700 2.63300 34.20400
H  23.96800 -0.30400 34.64900
H  22.56200 0.28800 33.71700
H  23.01900 0.96600 35.35600
H  25.47500 3.79500 35.06400
H  27.11500 3.19500 34.47400
H  27.72900 2.68000 36.23500
H  26.39100 1.72300 36.74800
H  19.98300 3.95600 29.97200
H  20.62800 2.90200 31.31600
H  19.42400 2.36800 30.12900
H  18.77800 2.52900 26.22800
H  19.06300 3.77700 27.43100
H  18.92500 2.01200 27.82800
H  25.61600 2.17900 24.65700
H  27.74000 0.23100 24.90300
H  24.22400 -0.07000 24.40600
H  25.87300 -0.68000 23.98200
H  25.13200 0.69100 23.13800
H  29.00800 2.69100 25.67400
H  27.50200 3.02900 24.76800
H  28.60300 1.28200 23.09700
H  29.89200 2.44100 23.68200
H  28.50000 3.14200 23.08600
H  31.35400 -0.74100 28.48100
H  31.87700 -0.39900 30.07100
H  31.99600 0.86900 28.95000
H  29.04000 1.89200 33.96600
H  28.45800 -0.62900 36.93400
H  30.19100 -0.14700 37.39200
H  29.87000 -1.58500 36.40900

