158

Mg 1.05400 8.17500 26.23100
C  1.92500 9.91700 29.18300
C  1.42200 5.20500 28.19800
C  0.63100 6.42100 23.46800
C  1.29100 11.11700 24.45000
N  1.57800 7.67000 28.37700
C  1.78800 8.56200 29.39600
C  1.75500 7.86300 30.77100
C  2.00200 6.37600 30.40200
C  1.61900 6.37600 28.93000
C  3.44000 5.96500 30.69000
C  0.34700 8.19500 31.47900
C  0.27500 8.03500 32.99200
H  1.48300 7.54800 33.80900
N  0.84000 6.13000 25.94100
C  0.99500 5.06900 26.79400
C  0.69000 3.84300 26.13300
C  0.25300 4.16400 24.83100
C  0.56300 5.61000 24.68100
C  0.67800 2.54000 26.73100
C  -0.26400 3.21300 23.64400
O  -0.42000 3.54400 22.47800
C  -0.66000 1.78500 23.98100
N  1.11600 8.69700 24.21100
C  0.81800 7.82000 23.26200
C  0.86700 8.54900 21.87000
C  0.63600 10.06500 22.29900
C  0.95800 9.95600 23.76600
C  2.21300 8.38400 21.08100
C  -0.85800 10.46600 22.14800
C  -1.28600 11.56700 21.14200
N  1.48600 10.17000 26.66100
C  1.45800 11.29700 25.80400
C  1.63400 12.51600 26.58800
C  1.85400 12.02000 27.91700
C  1.82900 10.57700 27.90200
C  1.36200 13.94400 26.14300
C  2.19500 12.36600 29.21700
O  2.48100 13.46600 29.56700
C  2.01400 11.09100 30.13600
C  3.09400 10.92800 31.09300
O  4.27100 10.96000 30.71900
O  2.66600 10.90100 32.35300
C  3.78400 11.18400 33.25000
H  1.62200 4.30200 28.77900
H  0.37000 5.89800 22.54600
H  1.16400 12.04800 23.89200
H  2.64000 8.24700 31.28000
H  1.34800 5.64600 30.87900
H  4.05600 6.63100 31.29500
H  3.86900 5.81600 29.70000
H  3.41600 4.95900 31.10800
H  -0.47300 7.79200 30.88500
H  0.19600 9.24600 31.23400
H  -0.59700 7.42400 33.22600
H  0.02700 8.96700 33.50000
H  1.25200 2.44900 27.65300
H  1.15700 1.80500 26.08500
H  -0.36400 2.22500 26.79800
H  -1.34200 1.72000 24.83000
H  0.25300 1.22900 24.19700
H  -1.14000 1.34300 23.10800
H  0.07300 8.18300 21.21800
H  1.29800 10.71200 21.72400
H  2.92600 8.03900 21.83000
H  2.60600 9.34700 20.75400
H  2.10500 7.60000 20.33100
H  -1.24200 10.50600 23.16700
H  -1.36300 9.59700 21.72600
H  -0.46900 11.95800 20.53600
H  -1.68200 12.38100 21.74800
H  -1.96600 11.03200 20.47900
H  1.31200 14.12300 25.06900
H  2.28400 14.42100 26.47500
H  0.54600 14.42600 26.68200
H  1.05100 11.37900 30.55700
H  4.57300 10.43400 33.19700
H  3.39300 11.12800 34.26600
H  4.13600 12.17900 32.98100
Mg -9.39000 39.16400 40.39300
C  -8.00900 36.09400 39.08500
C  -6.32100 40.54300 39.72600
C  -10.96000 42.20400 40.29400
C  -12.60600 37.71900 40.03700
N  -7.34900 38.27900 39.65500
C  -7.01800 37.09000 39.22000
C  -5.56800 36.92800 38.85700
C  -5.02200 38.36800 39.39400
C  -6.29200 39.11800 39.68200
C  -4.05400 38.46600 40.56900
C  -5.22900 36.60600 37.38900
C  -5.75700 37.30100 36.10200
H  -6.58300 36.43200 35.10200
N  -8.66900 41.13200 40.23200
C  -7.39300 41.47700 39.97800
C  -7.31700 42.89900 39.80500
C  -8.58800 43.37400 40.21400
C  -9.47600 42.22400 40.29900
C  -6.15300 43.58800 39.41400
C  -8.92200 44.80500 40.49200
O  -8.12100 45.62900 40.12500
C  -10.16300 45.29800 41.24100
N  -11.57500 39.85000 40.29600
C  -11.92700 41.14600 40.32000
C  -13.38500 41.35400 40.50300
C  -13.96800 39.91400 40.31900
C  -12.65500 39.11000 40.27900
C  -13.74300 42.18000 41.74200
C  -14.77500 39.77500 39.00900
C  -14.14800 39.14400 37.77600
N  -10.14500 37.21200 39.98600
C  -11.45700 36.84400 39.85500
C  -11.55300 35.46500 39.58700
C  -10.19800 35.14900 39.28100
C  -9.41400 36.26800 39.46200
C  -12.84700 34.62800 39.55000
C  -9.31000 34.04100 38.95500
O  -9.56400 32.87000 38.76000
C  -7.81800 34.60700 38.78000
C  -6.95800 33.87000 39.67400
O  -7.18800 33.83800 40.88800
O  -5.79800 33.50300 38.98800
C  -4.76600 32.68200 39.62300
H  -5.34100 41.01400 39.62800
H  -11.53900 43.12900 40.32700
H  -13.61400 37.30000 40.05200
H  -5.11100 36.23500 39.56300
H  -4.52800 38.93700 38.60700
H  -3.30900 37.69400 40.37600
H  -4.41200 38.21100 41.56600
H  -3.61700 39.45000 40.74100
H  -5.24900 35.51600 37.39900
H  -4.14800 36.73600 37.33100
H  -4.98500 37.86400 35.57800
H  -6.52600 37.97000 36.48800
H  -6.39400 44.19400 38.54100
H  -5.37700 42.89200 39.09400
H  -5.82500 44.20700 40.24900
H  -10.72300 44.62400 41.88800
H  -10.84500 45.76900 40.53300
H  -9.80900 46.02400 41.97200
H  -13.69500 42.03000 39.70600
H  -14.61800 39.62000 41.14300
H  -14.47700 41.76200 42.43200
H  -14.11300 43.19100 41.56800
H  -12.86600 42.38400 42.35600
H  -15.06300 40.78200 38.70600
H  -15.58000 39.10800 39.31700
H  -13.09000 39.40500 37.79600
H  -14.60700 39.61600 36.90700
H  -14.16600 38.07600 37.55900
H  -12.61800 33.59800 39.27800
H  -13.50800 34.99200 38.76400
H  -13.28000 34.70600 40.54800
H  -7.40000 34.45200 37.78500
H  -5.29500 32.09300 40.37100
H  -3.95300 33.20300 40.12800
H  -4.42100 31.96500 38.87800

