158

Mg 17.40700 51.85900 26.00900
C  19.32800 50.25000 28.45700
C  15.03200 52.57100 28.21300
C  15.67900 53.21800 23.39500
C  19.64200 50.45800 23.62200
N  17.20600 51.40200 28.02000
C  18.18300 50.88800 28.92800
C  17.83000 51.20400 30.35600
C  16.38200 51.71800 30.25300
C  16.24000 52.01900 28.75100
C  15.18500 50.87000 30.69700
C  18.75500 52.24100 31.04700
C  18.76200 52.27000 32.58800
H  17.72800 51.38600 33.35300
N  15.48700 52.61200 25.85800
C  14.67700 52.90500 26.87300
C  13.42900 53.43500 26.44300
C  13.66900 53.64600 24.99800
C  14.99400 53.20500 24.67100
C  12.21500 53.72000 27.26000
C  12.70300 54.32100 24.00400
O  13.01100 54.57300 22.87600
C  11.29300 54.91300 24.43400
N  17.85500 52.08100 23.81800
C  16.84600 52.53000 22.98300
C  17.11900 52.21500 21.50700
C  18.61900 51.64400 21.51400
C  18.79600 51.41800 23.03300
C  16.08400 51.48500 20.80800
C  19.64800 52.41900 20.67100
C  20.90400 53.12400 21.38600
N  19.14400 50.70100 26.01100
C  19.93000 50.23700 25.02500
C  21.02500 49.38700 25.55200
C  20.77400 49.36400 26.89800
C  19.66400 50.21100 27.12100
C  22.01100 48.56200 24.87800
C  21.47600 48.94200 28.08200
O  22.59100 48.50300 28.27700
C  20.50800 49.57900 29.20500
C  19.94700 48.59500 30.11900
O  19.00900 47.86300 29.94900
O  20.58400 48.74400 31.33300
C  20.20700 47.82800 32.39900
H  14.31800 52.90500 28.96900
H  15.11800 53.48400 22.49600
H  20.31600 49.86700 22.99900
H  17.83300 50.32500 31.00100
H  16.24800 52.70100 30.70400
H  14.74900 50.22800 29.93100
H  14.31600 51.39700 31.09000
H  15.54300 50.27600 31.53800
H  18.37600 53.23100 30.79200
H  19.79400 52.11800 30.74300
H  18.69600 53.33700 32.80400
H  19.77000 52.13700 32.98000
H  11.35000 53.29900 26.74800
H  12.22700 54.79200 27.45600
H  12.27000 53.18300 28.20700
H  10.73900 54.01800 24.71500
H  10.79100 55.49900 23.66400
H  11.43600 55.53600 25.31600
H  17.19600 53.20700 21.06300
H  18.58600 50.63700 21.09800
H  15.02800 51.57500 21.06600
H  16.19200 50.40000 20.80700
H  16.06900 51.77100 19.75600
H  19.14400 53.27600 20.22500
H  19.95100 51.79900 19.82700
H  21.79700 52.58700 21.06500
H  20.83100 53.11600 22.47400
H  21.06500 54.13700 21.01700
H  22.95300 49.10200 24.79400
H  21.56600 48.23300 23.93900
H  22.11400 47.75700 25.60600
H  21.05700 50.29600 29.81400
H  20.41200 46.80900 32.07200
H  19.14800 47.96600 32.62000
H  20.83200 48.08300 33.25500
Mg 10.08400 47.36900 25.94800
C  8.21600 47.14200 28.76300
C  12.68900 48.86300 27.62100
C  11.85800 47.28600 23.10600
C  7.16600 46.56200 24.10300
N  10.35100 47.95100 27.99200
C  9.51700 47.66700 29.01800
C  10.12100 48.13000 30.34700
C  11.39500 48.96700 29.84900
C  11.48100 48.62200 28.36500
C  11.23300 50.49800 30.13300
C  10.50100 47.09100 31.42300
C  9.84100 47.14200 32.86600
H  9.93100 45.95100 33.75700
N  12.16100 47.97700 25.40500
C  13.03800 48.39700 26.32700
C  14.32800 48.56700 25.62900
C  14.12500 48.15000 24.26100
C  12.66200 47.78200 24.18700
C  15.55000 49.11100 26.37200
C  15.08900 47.95900 23.13800
O  14.70600 47.47100 22.07000
C  16.55400 48.24900 23.39800
N  9.58900 47.00900 23.82500
C  10.51900 46.93300 22.82400
C  9.90700 46.62700 21.43000
C  8.41300 46.50600 21.79200
C  8.34500 46.79900 23.32600
C  10.15800 47.62100 20.34200
C  7.75400 45.20200 21.34200
C  7.23200 45.19400 19.92200
N  8.09700 46.81800 26.30900
C  7.08200 46.53500 25.47400
C  5.89200 46.32900 26.20100
C  6.31000 46.47500 27.55200
C  7.65300 46.89900 27.52300
C  4.45000 46.26400 25.68300
C  5.85400 46.55000 28.92200
O  4.77200 46.34900 29.41800
C  7.11400 46.97700 29.83400
C  7.40700 45.77900 30.70400
O  8.08300 44.81200 30.39000
O  6.62700 45.79000 31.85100
C  6.69600 44.70500 32.77500
H  13.54100 49.17100 28.23100
H  12.37400 47.02800 22.17900
H  6.24200 46.42800 23.53800
H  9.52300 48.84500 30.91300
H  12.22500 48.46700 30.34900
H  10.67400 51.09300 29.41100
H  12.22700 50.91900 30.28100
H  10.78100 50.58400 31.12100
H  11.57300 47.12400 31.62100
H  10.33400 46.07100 31.07800
H  8.84900 47.59000 32.80300
H  10.51800 47.86300 33.32300
H  16.18900 48.23900 26.51300
H  15.29500 49.51300 27.35300
H  16.10400 49.88000 25.83500
H  16.75900 47.76900 24.35400
H  16.65900 49.28800 23.71100
H  17.23900 48.01100 22.58300
H  10.20100 45.69100 20.95600
H  8.00900 47.36700 21.25900
H  10.02900 48.64500 20.69400
H  9.42700 47.32000 19.59200
H  11.15900 47.34700 20.00900
H  6.95500 44.84600 21.99300
H  8.47300 44.38900 21.43300
H  7.96700 44.79900 19.22000
H  7.06300 46.20200 19.54200
H  6.30900 44.62000 19.99800
H  4.37200 45.55900 24.85500
H  4.17500 47.25900 25.33200
H  3.75800 45.99600 26.48200
H  6.99800 47.89700 30.40600
H  7.17400 45.19400 33.62400
H  7.26000 43.83500 32.44100
H  5.69200 44.47100 33.13100

