158

Mg -3.35900 16.96400 26.79100
C  -3.38800 14.96800 29.59000
C  -3.72000 19.83400 28.62500
C  -3.30900 18.73500 23.91000
C  -3.57400 13.94900 24.86300
N  -3.46900 17.26800 28.84300
C  -3.51300 16.34300 29.90200
C  -3.48300 16.99100 31.29600
C  -3.63200 18.49600 30.87100
C  -3.66300 18.56500 29.34700
C  -4.59100 19.37000 31.69700
C  -2.28300 16.59000 32.22600
C  -1.67700 17.45100 33.32700
H  -1.41400 16.87600 34.72000
N  -3.35200 19.02000 26.35900
C  -3.48300 20.05900 27.29600
C  -3.35400 21.37000 26.63400
C  -3.12300 21.05200 25.22200
C  -3.26200 19.57300 25.12100
C  -3.52500 22.75600 27.32300
C  -2.93400 22.02800 24.06500
O  -3.07000 21.61600 22.89200
C  -2.68300 23.43100 24.35700
N  -3.54300 16.35500 24.65000
C  -3.41900 17.36600 23.72600
C  -3.43200 16.78000 22.30400
C  -3.33300 15.21800 22.59700
C  -3.50600 15.10400 24.09500
C  -4.76400 17.30600 21.73300
C  -1.90400 14.84100 21.99400
C  -0.77000 15.33000 22.93000
N  -3.53100 14.93800 27.05200
C  -3.54700 13.83000 26.20800
C  -3.46600 12.52700 26.95800
C  -3.47400 12.97700 28.29200
C  -3.46500 14.39600 28.29000
C  -3.49000 11.14500 26.43400
C  -3.38300 12.56100 29.69100
O  -3.32000 11.45600 30.14000
C  -3.30900 13.75600 30.48400
C  -2.02500 13.60300 31.21400
O  -0.89300 14.05700 30.87500
O  -2.30700 13.11400 32.45200
C  -1.15000 12.96900 33.34500
H  -3.79300 20.67600 29.31700
H  -3.30000 19.22900 22.93600
H  -3.53000 13.06400 24.22300
H  -4.41700 16.71400 31.78500
H  -2.66700 18.94300 31.11100
H  -5.36200 19.90900 31.14600
H  -4.06600 20.21700 32.13700
H  -5.05900 18.84900 32.53300
H  -1.49100 16.44300 31.49100
H  -2.64700 15.68800 32.71800
H  -2.09500 18.45700 33.37200
H  -0.68100 17.69300 32.95900
H  -2.63900 23.36800 27.15100
H  -3.56800 22.56900 28.39600
H  -4.36700 23.31900 26.91800
H  -3.58100 23.86900 24.79000
H  -2.43800 23.95200 23.43100
H  -1.84500 23.57800 25.03800
H  -2.65800 17.20200 21.66300
H  -4.15200 14.66300 22.14000
H  -5.41400 16.49000 21.41600
H  -4.42100 17.83700 20.84400
H  -5.19700 18.07500 22.37200
H  -1.73000 15.37700 21.06100
H  -1.86600 13.77700 21.76000
H  -0.06000 14.51900 23.09300
H  -1.01200 15.60000 23.95800
H  -0.25500 16.17100 22.46700
H  -3.56800 11.08200 25.34800
H  -4.29500 10.55300 26.86900
H  -2.56000 10.59500 26.57900
H  -4.09300 13.67600 31.23600
H  -0.99400 13.81600 34.01300
H  -0.22800 12.73700 32.81200
H  -1.54100 12.15800 33.96000
Mg 1.88300 -1.97700 43.79900
C  5.05400 -0.62500 43.25900
C  0.63300 0.78800 42.07200
C  -1.11800 -3.48700 43.80300
C  3.36900 -4.74700 45.14800
N  2.74500 -0.21400 42.69900
C  4.04900 0.16600 42.67600
C  4.26700 1.50800 41.93900
C  2.78800 2.11500 42.08500
C  2.02100 0.84700 42.22600
C  2.59200 3.18500 43.20400
C  4.78600 1.37900 40.49100
C  5.46200 2.64400 39.83600
H  5.58900 2.63700 38.28000
N  -0.00500 -1.39200 43.13000
C  -0.27500 -0.27600 42.37100
C  -1.75400 -0.22100 42.11100
C  -2.29400 -1.38000 42.70200
C  -1.13000 -2.19000 43.24600
C  -2.45700 0.92400 41.43300
C  -3.73800 -1.87400 42.77300
O  -4.64700 -1.23500 42.19800
C  -4.22300 -3.12100 43.49200
N  1.18100 -3.85200 44.41100
C  -0.11900 -4.27400 44.39900
C  -0.29100 -5.72800 44.90200
C  1.21800 -6.10100 45.38200
C  1.97200 -4.77400 45.05400
C  -1.37800 -5.93400 45.97400
C  1.71200 -7.27000 44.48600
C  1.48300 -8.63800 45.15500
N  3.77200 -2.60700 44.18700
C  4.20000 -3.75700 44.73100
C  5.62900 -3.73200 44.87200
C  6.01300 -2.53100 44.32900
C  4.83400 -1.88400 43.90100
C  6.43400 -4.78700 45.59300
C  7.10700 -1.65900 44.03600
O  8.30000 -1.87300 44.19700
C  6.53300 -0.39700 43.30800
C  6.82400 0.73100 44.27700
O  6.38800 0.83500 45.40400
O  7.85800 1.52100 43.80200
C  8.34400 2.55900 44.65400
H  0.16100 1.69500 41.68800
H  -1.98100 -4.13100 43.62100
H  3.90100 -5.62800 45.51200
H  4.87400 2.17700 42.54800
H  2.37100 2.56500 41.18400
H  3.50300 3.59100 43.64600
H  1.99300 2.75100 44.00500
H  1.91200 3.95000 42.83200
H  4.00400 1.00200 39.83100
H  5.63100 0.68900 40.49000
H  6.52900 2.53900 40.03000
H  5.01800 3.50800 40.33100
H  -2.27300 0.79600 40.36600
H  -2.20400 1.85200 41.94600
H  -3.54300 0.86900 41.51100
H  -4.10200 -3.96800 42.81600
H  -5.24500 -2.92100 43.81500
H  -3.68600 -3.31000 44.42100
H  -0.61600 -6.41000 44.11600
H  1.32400 -6.30900 46.44700
H  -2.12300 -5.14000 46.01900
H  -1.01100 -6.11300 46.98400
H  -1.78700 -6.92200 45.76100
H  2.75400 -7.11400 44.20600
H  1.13600 -7.29000 43.56100
H  0.83500 -8.76500 46.02300
H  2.52100 -8.92200 45.32200
H  0.92500 -9.31800 44.51200
H  5.95400 -5.16100 46.49800
H  7.44800 -4.49000 45.86100
H  6.48100 -5.62200 44.89400
H  7.10600 -0.24800 42.39300
H  9.01900 2.24800 45.45200
H  7.47800 3.02500 45.12300
H  8.86400 3.23300 43.97400

