158

Mg 44.96600 3.09200 47.20900
C  42.99900 5.97000 46.77200
C  42.07800 1.14500 46.74300
C  46.99400 0.36900 46.61200
C  47.85000 5.18400 46.72500
N  42.80700 3.53800 46.80000
C  42.27400 4.76900 46.78900
C  40.74500 4.64000 46.39800
C  40.38500 3.09000 46.62400
C  41.83300 2.52200 46.79800
C  39.54000 2.97000 47.94500
C  40.40500 5.17400 44.94400
C  39.21200 6.20800 44.81400
H  38.29500 6.04200 43.68700
N  44.57500 1.08400 46.96500
C  43.34500 0.47200 46.89100
C  43.55300 -0.99600 46.83800
C  44.94800 -1.25200 46.81700
C  45.59700 0.09900 46.87400
C  42.34700 -1.93100 46.76500
C  45.59800 -2.63500 46.65900
O  44.92100 -3.65700 46.86100
C  46.90200 -2.81700 46.24100
N  47.10100 2.81900 46.72400
C  47.67000 1.59400 46.62100
C  49.22000 1.73600 46.38600
C  49.51200 3.25000 46.40200
C  48.06600 3.78800 46.63500
C  50.00000 0.90800 47.38900
C  50.13600 3.80500 45.08000
C  51.04100 4.94800 45.19200
N  45.45900 5.14500 47.04200
C  46.63600 5.86900 46.93500
C  46.35300 7.33700 46.82900
C  44.92000 7.40800 46.77700
C  44.42600 6.05400 46.88000
C  47.29800 8.41400 46.52400
C  43.70900 8.28100 46.60600
O  43.61500 9.49200 46.54500
C  42.46800 7.40500 46.52400
C  41.64300 7.90600 47.68700
O  41.75900 7.49600 48.79500
O  40.84500 8.99600 47.22500
C  40.15600 9.74400 48.33100
H  41.19000 0.52200 46.61700
H  47.74800 -0.39100 46.40000
H  48.77100 5.71100 46.46700
H  40.08700 5.25800 47.00900
H  39.93900 2.66500 45.72600
H  40.15700 2.53200 48.73100
H  38.69200 2.36900 47.61800
H  39.24300 3.95400 48.30900
H  40.10500 4.32600 44.32900
H  41.31900 5.66700 44.61100
H  39.54300 7.24200 44.71800
H  38.63500 6.19200 45.73900
H  42.63100 -2.70600 46.05300
H  41.39300 -1.54700 46.40300
H  42.24400 -2.41700 47.73500
H  47.11600 -2.24500 45.33900
H  47.12500 -3.84400 45.95200
H  47.60500 -2.55700 47.03200
H  49.25400 1.35400 45.36600
H  50.14600 3.47100 47.26100
H  49.35500 0.25500 47.97700
H  50.61800 1.49500 48.06800
H  50.59400 0.15400 46.87200
H  49.36600 4.00200 44.33400
H  50.61200 2.92300 44.65100
H  50.92200 5.37900 46.18600
H  50.62100 5.79600 44.65000
H  52.04500 4.66700 44.87300
H  48.10900 8.48800 47.24900
H  46.73700 9.34800 46.54900
H  47.69100 8.32500 45.51200
H  41.97200 7.45900 45.55400
H  39.24700 9.22500 48.63500
H  39.86500 10.74000 47.99700
H  40.74400 9.84600 49.24300
Mg 47.22900 34.30300 27.25000
C  45.58400 33.20100 30.14400
C  47.93000 37.27700 29.02100
C  48.27300 35.84900 24.46300
C  45.94500 31.69900 25.60300
N  46.88800 35.08400 29.35700
C  46.27400 34.39500 30.39200
C  46.34300 35.23500 31.70000
C  46.78100 36.61200 31.12400
C  47.19000 36.33300 29.72600
C  45.82200 37.81000 31.29000
C  47.34700 34.56900 32.63400
C  46.90200 34.50500 34.09600
H  47.99200 34.59800 35.18000
N  48.25100 36.18700 26.85100
C  48.47700 37.22400 27.73900
C  49.18100 38.26200 27.03800
C  49.21100 37.88600 25.64700
C  48.61300 36.60800 25.60100
C  49.73100 39.52000 27.67700
C  49.81800 38.55100 24.45800
O  49.97700 37.99300 23.36200
C  50.31700 39.96100 24.67800
N  47.09600 33.90100 25.29800
C  47.75800 34.58800 24.32700
C  47.58700 33.93700 23.03500
C  46.94100 32.52800 23.29200
C  46.62700 32.69400 24.79100
C  46.94500 34.64100 21.86100
C  47.77100 31.28000 22.86100
C  48.88900 30.96500 23.78900
N  46.06900 32.76500 27.77100
C  45.62200 31.71500 26.99100
C  44.95200 30.68900 27.76000
C  44.79500 31.32200 28.99100
C  45.58400 32.50900 28.95700
C  44.35200 29.40700 27.26600
C  44.17800 31.21700 30.24700
O  43.43400 30.36200 30.68800
C  44.55400 32.43300 31.03200
C  45.06400 31.94100 32.33100
O  46.14200 31.49800 32.61000
O  43.95100 31.82100 33.13200
C  44.08100 30.89900 34.28900
H  48.20300 38.17900 29.57300
H  48.71300 36.20100 23.52800
H  45.62000 30.81400 25.05300
H  45.32400 35.27500 32.08300
H  47.68200 36.94600 31.63900
H  45.29800 37.53300 32.20500
H  45.17800 37.92300 30.41800
H  46.30300 38.77900 31.42000
H  48.29900 35.09400 32.71100
H  47.57200 33.58100 32.23200
H  46.40000 33.54100 34.17600
H  46.28400 35.39000 34.25300
H  49.02500 40.29500 27.37600
H  50.75300 39.83200 27.46300
H  49.58100 39.46600 28.75500
H  49.62700 40.59300 25.23700
H  50.41200 40.34600 23.66200
H  51.29100 39.92000 25.16400
H  48.63800 33.77100 22.79700
H  45.94300 32.48000 22.85600
H  46.22300 35.28300 22.36500
H  46.47400 33.89100 21.22700
H  47.51400 35.42100 21.35400
H  48.04900 31.36000 21.81000
H  46.98300 30.52700 22.88700
H  48.94300 31.69500 24.59700
H  49.82600 30.76700 23.26900
H  48.62400 30.08000 24.36800
H  44.11000 28.84400 28.16800
H  44.87300 28.78000 26.54200
H  43.35500 29.62600 26.88300
H  43.66300 33.03100 31.22300
H  43.17700 30.34400 34.54200
H  44.14500 31.60800 35.11400
H  45.01500 30.33700 34.30400

