158

Mg 24.28400 -6.43300 47.47100
C  26.96700 -4.37900 46.55400
C  22.26200 -4.90700 45.14100
C  22.03200 -8.73900 48.06700
C  26.67500 -8.34100 49.38100
N  24.66600 -4.89100 46.02500
C  25.80600 -4.12500 45.83300
C  25.54500 -3.15900 44.59700
C  23.97400 -3.13400 44.51200
C  23.53100 -4.42000 45.29000
C  23.37500 -1.90800 45.15000
C  26.33300 -3.73100 43.34800
C  26.76500 -2.60100 42.47700
H  25.99600 -2.36100 41.20300
N  22.33000 -6.71300 46.76300
C  21.65300 -5.98300 45.85200
C  20.27800 -6.38100 45.80100
C  20.12800 -7.59400 46.70800
C  21.50900 -7.77400 47.18500
C  19.14900 -5.63300 45.06500
C  18.92200 -8.44700 46.86600
O  17.94200 -8.18600 46.21900
C  18.88500 -9.53200 47.79700
N  24.34400 -8.32000 48.43500
C  23.25800 -8.96700 48.67800
C  23.47000 -10.26100 49.61700
C  24.96400 -10.02600 50.18400
C  25.37300 -8.84900 49.24400
C  22.34500 -10.54500 50.65400
C  25.79700 -11.28700 50.36100
C  26.60500 -11.73500 49.14600
N  26.33500 -6.36700 48.04000
C  27.15400 -7.19900 48.77900
C  28.53500 -6.69900 48.72900
C  28.45200 -5.52300 47.97600
C  27.13900 -5.45500 47.47700
C  29.65900 -7.29800 49.49100
C  29.23300 -4.44100 47.50900
O  30.42800 -4.17900 47.71300
C  28.28300 -3.59200 46.50700
C  28.08800 -2.22000 46.93600
O  27.37400 -1.81100 47.86100
O  28.68300 -1.42500 45.98100
C  28.03100 -0.14300 45.91000
H  21.74200 -4.20400 44.48800
H  21.36900 -9.54400 48.39000
H  27.36200 -8.87400 50.04100
H  25.99800 -2.20400 44.86300
H  23.65400 -3.27400 43.48000
H  24.00700 -1.51700 45.94800
H  22.36300 -1.93700 45.55300
H  23.32000 -1.20500 44.31800
H  25.67600 -4.40800 42.80200
H  27.24000 -4.25800 43.64300
H  27.74900 -2.92900 42.14300
H  26.99000 -1.68900 43.02900
H  18.60500 -6.25700 44.35600
H  19.45900 -4.72200 44.55400
H  18.36300 -5.28300 45.73500
H  19.22700 -9.24900 48.79300
H  19.48200 -10.40800 47.54700
H  17.83800 -9.82400 47.87800
H  23.35900 -11.10100 48.93100
H  24.81800 -9.69800 51.21300
H  22.70900 -10.71300 51.66700
H  21.85000 -11.50900 50.53900
H  21.59800 -9.75100 50.68600
H  25.14600 -12.12500 50.60900
H  26.34600 -11.08600 51.28100
H  26.25200 -11.19600 48.26700
H  26.36600 -12.76100 48.86600
H  27.66600 -11.49800 49.22400
H  30.62200 -6.85400 49.23900
H  29.70500 -8.38200 49.39100
H  29.34600 -7.10900 50.51800
H  28.67200 -3.59300 45.48900
H  28.39800 0.42500 46.76400
H  26.95000 -0.21100 45.78800
H  28.32600 0.30900 44.96300
Mg -2.45700 34.30600 26.31800
C  -4.04000 32.45600 28.96200
C  -1.36100 36.58900 28.72000
C  -1.16500 36.25200 23.75100
C  -4.16700 32.35800 24.01000
N  -2.87500 34.56100 28.49900
C  -3.42200 33.67500 29.42100
C  -3.25100 34.14500 30.90500
C  -2.71700 35.62400 30.73900
C  -2.19400 35.58700 29.22400
C  -3.78100 36.73800 31.02300
C  -2.37900 33.16900 31.68900
C  -3.00600 32.54600 32.94200
H  -2.18900 32.46600 34.24300
N  -1.30000 36.03300 26.18400
C  -0.96000 36.77900 27.29300
C  0.01300 37.69000 26.88000
C  0.07400 37.71200 25.48800
C  -0.79500 36.64600 25.03900
C  0.75400 38.58600 27.92100
C  0.78300 38.60500 24.48400
O  0.76800 38.43100 23.27300
C  1.54800 39.82700 25.01200
N  -2.71000 34.35200 24.16400
C  -2.02000 35.15600 23.35600
C  -2.34100 34.86800 21.89700
C  -3.02300 33.48400 22.02200
C  -3.39400 33.41100 23.47600
C  -3.38600 35.95500 21.22700
C  -2.00100 32.41200 21.63300
C  -0.88500 31.88600 22.61100
N  -3.74900 32.71600 26.43000
C  -4.23500 31.97000 25.40100
C  -5.06400 30.87100 25.93900
C  -4.96600 31.03900 27.31100
C  -4.15200 32.11200 27.60500
C  -5.91800 29.84700 25.29600
C  -5.39600 30.44800 28.52800
O  -6.11100 29.47800 28.74800
C  -4.75600 31.32400 29.73700
C  -5.78900 31.73600 30.62400
O  -6.56600 32.65300 30.43400
O  -5.85000 30.88900 31.61800
C  -6.87800 31.26100 32.61400
H  -0.75500 37.02100 29.51900
H  -0.85400 36.85200 22.89300
H  -4.62600 31.56600 23.41400
H  -4.25000 34.11700 31.34000
H  -1.81300 35.82100 31.31400
H  -3.53700 36.99600 32.05400
H  -4.76000 36.26400 30.94400
H  -3.61600 37.62200 30.40900
H  -1.49200 33.68700 32.05600
H  -2.12600 32.34400 31.02300
H  -3.26800 31.50200 32.76800
H  -3.92600 33.09600 33.13900
H  1.82800 38.59800 27.73100
H  0.59500 38.25600 28.94700
H  0.43100 39.62300 27.82800
H  0.82300 40.46600 25.51600
H  2.01700 40.35400 24.18100
H  2.25300 39.53900 25.79100
H  -1.46000 34.92800 21.25800
H  -3.93500 33.35300 21.43900
H  -3.44900 36.87400 21.81000
H  -4.39500 35.58500 21.04600
H  -2.93900 36.09600 20.24200
H  -1.48000 32.90100 20.81000
H  -2.57200 31.55600 21.27300
H  0.06300 32.27000 22.23400
H  -0.80300 30.80400 22.50100
H  -1.09100 32.22000 23.62800
H  -5.89100 29.62700 24.22900
H  -6.96100 30.12800 25.44400
H  -5.65500 28.97900 25.90100
H  -4.03000 30.77800 30.33900
H  -6.35800 31.83200 33.38300
H  -7.12500 30.31500 33.09500
H  -7.81000 31.71800 32.28400

