158

Mg 46.90200 34.87100 26.90400
C  45.73300 33.49000 29.85400
C  47.29200 37.81300 28.53700
C  47.41600 36.38000 23.87800
C  46.27700 31.80400 25.26900
N  46.66700 35.50900 28.95600
C  46.32700 34.74300 30.00800
C  46.69300 35.43900 31.34900
C  46.87500 36.93900 30.90400
C  46.96400 36.76000 29.33700
C  45.74700 37.97000 31.34400
C  47.97700 34.80700 31.89200
C  48.37800 35.23900 33.35100
H  47.40700 36.11900 34.20000
N  47.26100 36.86200 26.33400
C  47.47300 37.90200 27.13800
C  47.81500 39.09800 26.39400
C  47.82200 38.68900 25.03200
C  47.44900 37.27300 25.01500
C  48.19800 40.33200 27.14200
C  48.21700 39.46200 23.74700
O  48.12400 38.98400 22.63200
C  48.88400 40.79900 23.93300
N  46.98200 34.17100 24.96500
C  47.20700 34.96300 23.89500
C  47.33200 34.07300 22.61100
C  47.10300 32.64100 23.04200
C  46.81100 32.84600 24.51600
C  46.50900 34.52500 21.34500
C  48.21300 31.65300 22.65200
C  49.58600 31.86500 23.35100
N  46.00200 33.04600 27.36700
C  45.84400 31.86400 26.68100
C  45.37300 30.80500 27.52700
C  45.23900 31.37600 28.79500
C  45.67600 32.76200 28.66800
C  45.11100 29.44100 27.07400
C  44.86000 31.18100 30.18300
O  44.50400 30.13100 30.72800
C  44.95000 32.60700 30.87100
C  45.33500 32.51700 32.30200
O  46.14200 31.74800 32.66500
O  44.58800 33.33600 33.06200
C  44.71500 32.96000 34.47400
H  47.41600 38.79200 29.00400
H  47.64100 36.67700 22.85100
H  46.33100 30.82700 24.78500
H  45.90400 35.38800 32.09900
H  47.79700 37.36300 31.30200
H  46.33400 38.83100 31.66400
H  45.24400 37.58300 32.23000
H  45.00000 38.25000 30.60100
H  48.81600 35.10000 31.26100
H  47.85000 33.72500 31.86100
H  49.38200 35.66200 33.31400
H  48.42100 34.31100 33.92100
H  47.33900 40.69400 27.70700
H  48.51300 41.17100 26.52100
H  48.99700 39.92900 27.76400
H  49.35100 41.07300 22.98700
H  49.71400 40.74400 24.63800
H  48.10300 41.55200 24.03800
H  48.38100 34.11500 22.31700
H  46.15100 32.19700 22.75000
H  46.00800 33.65200 20.92700
H  47.11200 35.03600 20.59400
H  45.71500 35.20700 21.64900
H  48.37400 31.70800 21.57500
H  47.91800 30.61000 22.76800
H  50.35000 31.97800 22.58300
H  49.67200 31.02300 24.03800
H  49.42300 32.75000 23.96700
H  45.92100 29.23500 26.37400
H  44.14300 29.49900 26.57600
H  45.21900 28.75400 27.91200
H  43.91400 32.94800 30.85800
H  44.52400 31.89400 34.60000
H  43.89200 33.46800 34.97800
H  45.64600 33.32900 34.90300
Mg 9.05100 47.72300 27.43000
C  6.85800 47.57100 30.10900
C  11.66200 48.44300 29.65800
C  11.02800 48.12400 24.79400
C  6.27600 47.86100 25.23800
N  9.21200 47.95800 29.67700
C  8.19200 47.77900 30.58900
C  8.77300 47.74800 32.02200
C  10.27500 48.11400 31.85600
C  10.41400 48.20100 30.32400
C  10.65800 49.53900 32.49700
C  8.47900 46.34700 32.63900
C  9.34800 45.85300 33.79100
H  8.66700 45.40200 35.07700
N  11.07500 48.13900 27.24300
C  11.99400 48.34200 28.24500
C  13.30300 48.48500 27.62800
C  13.14900 48.25500 26.21900
C  11.68600 48.04800 26.05800
C  14.52800 48.84900 28.42600
C  14.15400 48.14900 25.16700
O  13.83000 48.07900 23.96500
C  15.56900 48.20700 25.47900
N  8.68800 48.17300 25.25800
C  9.64800 48.18500 24.43500
C  9.13100 48.31600 22.95400
C  7.59400 48.27600 23.12200
C  7.49600 48.00100 24.58900
C  9.60100 49.55100 22.19800
C  6.79900 47.29100 22.19700
C  7.42500 46.55300 21.00200
N  7.01300 47.60300 27.58900
C  6.01300 47.64500 26.61800
C  4.71000 47.50900 27.21300
C  4.95200 47.48300 28.60400
C  6.35600 47.57300 28.75200
C  3.31800 47.56200 26.45600
C  4.40200 47.43500 29.97900
O  3.23900 47.31900 30.34400
C  5.59800 47.45600 31.01200
C  5.46900 46.18800 31.67900
O  5.95900 45.11700 31.26100
O  4.71700 46.25200 32.84600
C  4.69000 45.07000 33.68000
H  12.54000 48.64300 30.27600
H  11.60400 48.13300 23.86600
H  5.31500 47.71600 24.74000
H  8.17500 48.33200 32.72200
H  10.80500 47.22700 32.20200
H  11.69700 49.48300 32.82100
H  9.98000 49.78100 33.31500
H  10.60900 50.31800 31.73700
H  8.39900 45.57800 31.87100
H  7.50300 46.56900 33.07100
H  10.06900 46.63300 34.03200
H  9.86600 44.96500 33.42800
H  15.25400 48.06400 28.63500
H  14.30100 49.32000 29.38300
H  15.09200 49.56300 27.82600
H  16.09400 48.05800 24.53500
H  15.79000 47.55800 26.32600
H  15.73700 49.24500 25.76700
H  9.49700 47.46500 22.37900
H  7.16900 49.26800 22.96900
H  10.03500 50.23300 22.93000
H  8.73000 49.98400 21.70700
H  10.37200 49.20900 21.50700
H  6.01100 47.95400 21.84200
H  6.40400 46.47300 22.79900
H  6.78500 46.53100 20.11900
H  7.59200 45.51600 21.29200
H  8.39300 46.94500 20.69100
H  2.94200 46.56600 26.22400
H  3.35300 48.08500 25.50000
H  2.54800 48.07500 27.03200
H  5.46900 48.29200 31.69900
H  4.81900 45.44100 34.69600
H  5.48800 44.34500 33.51900
H  3.68400 44.68800 33.50100

