158

Mg 41.17800 7.18700 29.29000
C  42.53800 8.82000 32.10100
C  38.75300 5.87300 31.27600
C  40.03800 5.66400 26.61500
C  44.19500 7.99700 27.58800
N  40.71400 7.27200 31.48000
C  41.31000 8.10800 32.32900
C  40.62600 7.93100 33.68600
C  39.58800 6.83300 33.50600
C  39.66400 6.65400 32.04800
C  39.83200 5.57200 34.32800
C  39.98800 9.19100 34.38700
C  40.19100 9.17200 35.98400
H  40.67700 10.49000 36.62300
N  39.60900 6.01700 28.96500
C  38.73300 5.59500 29.87200
C  37.62800 4.97000 29.17000
C  37.81800 5.03500 27.80400
C  39.22600 5.57700 27.68300
C  36.49900 4.29600 29.91300
C  36.89800 4.75700 26.63600
O  37.30600 4.69200 25.46400
C  35.48900 4.49600 26.98300
N  42.05300 6.75100 27.42500
C  41.34300 6.09900 26.50500
C  42.04800 6.20300 25.10600
C  43.23800 7.10100 25.38400
C  43.22000 7.26900 26.88300
C  42.44300 4.76000 24.52600
C  43.07500 8.48200 24.57300
C  42.16700 9.56000 25.19500
N  43.00200 8.17900 29.67600
C  44.09600 8.41700 28.90300
C  45.00600 9.23700 29.60600
C  44.43300 9.49000 30.86400
C  43.19000 8.72900 30.85100
C  46.31500 9.65300 29.19100
C  44.63300 10.11600 32.13000
O  45.52000 10.86600 32.48800
C  43.45400 9.66200 33.05100
C  44.07700 8.96900 34.25000
O  44.65500 7.85400 34.17300
O  43.67600 9.62500 35.43000
C  44.11700 8.87700 36.59500
H  38.03300 5.41000 31.95300
H  39.53400 5.36300 25.69300
H  45.04700 8.32600 26.99000
H  41.46500 7.64800 34.32000
H  38.57100 7.18500 33.67900
H  39.78300 4.63700 33.77000
H  39.07100 5.44400 35.09700
H  40.72800 5.57700 34.94900
H  38.90300 9.08500 34.38900
H  40.27700 10.16400 33.99000
H  40.79900 8.33100 36.31700
H  39.32000 8.76000 36.49500
H  36.64400 4.10300 30.97600
H  36.38800 3.30300 29.47800
H  35.52300 4.75000 29.74500
H  35.15400 5.28100 27.66100
H  35.27100 3.49100 27.34300
H  34.93800 4.63400 26.05200
H  41.34600 6.70200 24.43800
H  44.21600 6.67300 25.16800
H  42.30300 3.92700 25.21600
H  43.48100 4.69400 24.20000
H  41.83800 4.59400 23.63500
H  42.56600 8.18100 23.65700
H  44.07200 8.87700 24.37900
H  41.88100 9.29200 26.21200
H  41.33500 9.74700 24.51600
H  42.71800 10.49400 25.08500
H  46.64700 8.92700 28.44800
H  47.10300 9.62600 29.94300
H  46.20400 10.62900 28.71900
H  43.03300 10.61100 33.38200
H  43.92700 7.80400 36.55700
H  43.59200 9.19800 37.49500
H  45.16000 9.11700 36.80000
Mg 15.90900 51.63400 25.89600
C  17.85700 50.67500 28.59200
C  13.35300 52.48100 27.91100
C  13.92700 52.27200 23.09900
C  18.42300 50.48200 23.71200
N  15.58000 51.51700 28.09200
C  16.58200 51.21600 29.02500
C  16.07600 51.50600 30.42200
C  14.59500 51.94800 30.20600
C  14.48800 52.07300 28.65600
C  13.56300 50.86300 30.81200
C  17.04400 52.55700 31.08500
C  17.18000 52.49800 32.60500
H  16.32800 51.44900 33.35700
N  13.93800 52.51700 25.58700
C  12.99700 52.64400 26.58500
C  11.78000 53.02100 25.95700
C  11.98600 53.13800 24.59000
C  13.39100 52.71800 24.33000
C  10.58900 53.30600 26.80200
C  10.92700 53.57700 23.52600
O  11.16200 53.71900 22.31000
C  9.58800 54.12400 23.87800
N  16.15900 51.57000 23.71400
C  15.16700 51.82800 22.80200
C  15.55900 51.48100 21.35600
C  17.08200 51.14400 21.56900
C  17.30300 51.05900 23.10200
C  14.62800 50.41800 20.78800
C  18.10900 52.03100 20.83900
C  18.34100 53.44300 21.35000
N  17.69500 50.69000 26.10500
C  18.66300 50.35700 25.11500
C  19.74000 49.80500 25.77000
C  19.52900 49.85100 27.13400
C  18.24500 50.45400 27.29200
C  20.99600 49.30200 25.10500
C  19.97300 49.52800 28.40500
O  20.97000 48.89900 28.75100
C  18.92900 50.05100 29.48200
C  18.48700 48.94100 30.40700
O  17.76800 48.00900 30.03100
O  19.03500 49.12600 31.64900
C  18.66600 48.03100 32.59500
H  12.47200 52.63900 28.53700
H  13.24900 52.25200 22.24300
H  19.13500 50.12300 22.96600
H  16.14600 50.56700 30.97100
H  14.40400 52.87200 30.75200
H  12.74300 50.72300 30.10800
H  13.04500 51.36600 31.62900
H  14.02500 49.96300 31.21800
H  16.65000 53.51300 30.74100
H  18.02400 52.51700 30.60700
H  16.99600 53.50200 32.98600
H  18.20600 52.19100 32.81000
H  10.67200 52.75700 27.74000
H  9.62000 53.02700 26.38800
H  10.56300 54.36800 27.04800
H  9.73000 55.01300 24.49100
H  8.94900 53.43500 24.43100
H  9.18900 54.46600 22.92300
H  15.40200 52.40400 20.79600
H  17.21700 50.11600 21.23200
H  15.25600 49.67900 20.28900
H  14.01000 50.88300 20.02000
H  13.87900 49.97900 21.44700
H  17.72300 52.11300 19.82200
H  19.02800 51.46500 20.68300
H  18.25400 54.22700 20.59800
H  19.32000 53.58800 21.80700
H  17.66400 53.76400 22.14200
H  21.31200 49.90400 24.25300
H  20.92000 48.26100 24.79200
H  21.79000 49.40900 25.84500
H  19.39200 50.85600 30.05200
H  18.02600 47.19400 32.31700
H  18.25600 48.44800 33.51600
H  19.53700 47.57500 33.06500

