158

Mg -2.26200 17.73400 27.38300
C  -3.04600 15.60600 30.09100
C  -2.94400 20.40200 29.49700
C  -2.43700 19.77900 24.70800
C  -2.18200 14.96100 25.32700
N  -2.77500 17.94600 29.54600
C  -2.97900 16.95100 30.44700
C  -3.17600 17.57800 31.86600
C  -3.60800 19.04000 31.56100
C  -3.05800 19.15300 30.13900
C  -5.13600 19.33200 31.56600
C  -1.99900 17.35600 32.89900
C  -1.94200 18.18300 34.23100
H  -1.45400 17.61000 35.54300
N  -2.55400 19.79200 27.14100
C  -2.71700 20.70000 28.12300
C  -2.66300 22.09700 27.60200
C  -2.60700 21.91700 26.21400
C  -2.56400 20.48700 25.95300
C  -2.94200 23.28500 28.41900
C  -2.70200 22.95500 25.13200
O  -2.82900 22.76900 23.93200
C  -2.55900 24.37900 25.57200
N  -2.32200 17.37900 25.24700
C  -2.25300 18.41600 24.40100
C  -2.08300 17.83100 22.99300
C  -1.65100 16.33600 23.20300
C  -2.06500 16.18600 24.68900
C  -3.34800 18.05500 22.16100
C  -0.13000 16.19500 22.94800
C  0.81200 17.06100 23.76900
N  -2.51300 15.64100 27.58000
C  -2.51200 14.64600 26.60200
C  -2.73700 13.41000 27.23500
C  -2.95900 13.78900 28.61200
C  -2.81300 15.13300 28.79400
C  -2.64900 12.02100 26.68800
C  -3.28400 13.23000 29.91900
O  -3.54300 12.09800 30.25900
C  -3.27200 14.41500 30.94200
C  -2.07200 14.14000 31.79000
O  -0.87100 14.03600 31.48400
O  -2.50900 13.89200 33.09100
C  -1.50700 13.32600 34.04500
H  -3.24200 21.27800 30.07700
H  -2.35500 20.43600 23.84000
H  -1.85000 14.19000 24.62800
H  -4.06100 17.07800 32.26000
H  -3.18700 19.84200 32.16700
H  -5.44300 20.05000 32.32600
H  -5.67700 18.38600 31.55100
H  -5.50700 19.94100 30.74200
H  -1.08300 17.63800 32.37900
H  -1.87700 16.29800 33.12700
H  -2.89300 18.69900 34.36100
H  -1.21200 18.98200 34.10200
H  -3.20900 23.12800 29.46400
H  -3.92300 23.57800 28.04400
H  -2.22900 24.10900 28.38900
H  -3.46600 24.69900 26.08600
H  -2.61300 24.98200 24.66600
H  -1.66000 24.70100 26.09600
H  -1.28600 18.40400 22.52000
H  -2.26000 15.78600 22.48600
H  -4.09100 18.63600 22.70700
H  -3.91400 17.12400 22.14400
H  -3.21100 18.43900 21.15000
H  0.08800 16.41500 21.90300
H  0.20300 15.17400 23.13600
H  1.13900 16.51300 24.65300
H  0.32800 17.95900 24.15300
H  1.77800 17.20400 23.28600
H  -3.16300 11.98600 25.72700
H  -3.17000 11.38200 27.40000
H  -1.59500 11.74700 26.63400
H  -4.18900 14.29800 31.51900
H  -0.66200 13.99300 34.21700
H  -1.19300 12.40200 33.56000
H  -2.03500 12.98700 34.93700
Mg 48.28500 15.47300 28.71100
C  46.40800 15.55200 31.68000
C  50.75300 17.23400 30.32000
C  49.67000 15.97400 25.73800
C  45.47800 14.15700 27.11300
N  48.50100 16.41700 30.74400
C  47.65900 16.17100 31.81200
C  48.28000 16.63200 33.15400
C  49.53800 17.41300 32.63200
C  49.62000 17.00700 31.12700
C  49.55300 18.92600 32.68000
C  48.55200 15.39600 34.09900
C  48.29300 15.59000 35.59600
H  48.07000 16.98600 36.17200
N  50.04400 16.35800 28.16400
C  50.97500 16.88900 29.00400
C  52.17200 17.15000 28.18100
C  51.94400 16.74300 26.85000
C  50.50900 16.34000 26.86500
C  53.32100 17.89400 28.81700
C  52.88900 16.80500 25.65800
O  52.52400 16.44200 24.54500
C  54.33000 17.38400 25.79300
N  47.60300 15.11600 26.66000
C  48.41400 15.51200 25.62100
C  47.70600 15.23700 24.21900
C  46.24700 14.63500 24.70100
C  46.42000 14.60800 26.23100
C  47.69000 16.32300 23.09800
C  46.02400 13.26300 24.09700
C  44.89300 13.02200 23.05000
N  46.33600 14.84300 29.20200
C  45.32400 14.36700 28.50000
C  44.12700 14.16400 29.33700
C  44.54000 14.53700 30.59500
C  45.86300 15.06600 30.49600
C  42.77100 13.67400 28.81700
C  44.18100 14.65800 31.98900
O  43.06200 14.44700 32.43000
C  45.34700 15.30200 32.75800
C  44.78300 16.58100 33.35100
O  44.83900 17.68000 32.78200
O  44.13100 16.32000 34.49600
C  43.72800 17.41500 35.28100
H  51.58200 17.76300 30.79600
H  50.17100 16.06400 24.77200
H  44.59000 13.67000 26.70600
H  47.41400 17.13300 33.58700
H  50.40200 17.04000 33.18200
H  49.79600 19.44000 31.75000
H  50.32100 19.20600 33.40100
H  48.56200 19.24400 33.00500
H  49.59500 15.16000 33.88800
H  47.85900 14.61000 33.79800
H  49.12100 15.10100 36.10900
H  47.34700 15.05300 35.67000
H  53.71500 18.69800 28.19500
H  54.08800 17.20300 29.16900
H  52.92900 18.43900 29.67600
H  54.92500 17.18500 24.90200
H  54.90100 16.85400 26.55500
H  54.27700 18.44600 26.03000
H  48.28100 14.39900 23.82600
H  45.47000 15.29900 24.32300
H  46.85100 16.17700 22.41700
H  48.56700 16.20400 22.46100
H  47.64700 17.23300 23.69600
H  45.62300 12.62200 24.88200
H  46.92100 12.83500 23.65000
H  44.39500 13.98000 22.89800
H  44.29800 12.15600 23.34300
H  45.36000 12.83300 22.08300
H  42.64500 13.81200 27.74300
H  41.99800 14.35300 29.17600
H  42.46300 12.67600 29.12900
H  45.61600 14.64700 33.58700
H  42.91900 17.95900 34.79400
H  44.60200 18.03300 35.48600
H  43.38600 17.09900 36.26700

