158

Mg 44.76200 3.87400 47.18600
C  42.43200 6.51700 46.70400
C  42.09800 1.71100 46.97600
C  46.85800 1.40900 46.55300
C  47.22000 6.14500 46.97300
N  42.51400 4.12100 46.63700
C  41.85500 5.25900 46.55700
C  40.39300 5.03800 46.37000
C  40.18400 3.61200 46.97700
C  41.68100 3.09300 46.88800
C  39.63800 3.59400 48.48000
C  39.90100 5.22100 44.89100
C  38.69100 6.19700 44.72500
H  38.00000 6.25600 43.35200
N  44.51400 1.78800 46.82200
C  43.34200 1.09700 46.83000
C  43.60200 -0.32300 46.74000
C  44.96000 -0.42700 46.52200
C  45.51100 0.94200 46.67700
C  42.54600 -1.38000 46.89600
C  45.75600 -1.69200 46.22200
O  45.14600 -2.73800 46.35800
C  47.17500 -1.70900 45.89000
N  46.78600 3.76300 46.61300
C  47.49100 2.61500 46.62000
C  48.97000 2.81900 46.76800
C  49.08700 4.41000 47.08600
C  47.56500 4.78800 46.92300
C  49.72800 1.83300 47.70100
C  50.07500 5.10300 46.06500
C  51.10000 6.04300 46.69800
N  44.84300 5.95400 46.95300
C  45.95700 6.71000 46.94400
C  45.58000 8.17600 46.87800
C  44.15600 8.12800 46.87400
C  43.78600 6.77500 46.83200
C  46.40800 9.41900 46.92300
C  42.95100 8.92800 46.87900
O  42.88100 10.17300 47.02700
C  41.81100 7.93700 46.74700
C  40.96100 7.95500 48.00400
O  41.14300 7.30400 48.99900
O  39.91600 8.89300 47.86300
C  38.77000 8.80900 48.86900
H  41.30500 0.98100 47.15500
H  47.62000 0.62800 46.52600
H  47.94300 6.95100 47.11400
H  40.07000 5.80800 47.07100
H  39.61600 2.99100 46.28400
H  38.68400 3.06700 48.47500
H  39.46300 4.59200 48.88400
H  40.36100 3.11400 49.14000
H  39.67300 4.24800 44.45600
H  40.70500 5.75600 44.38500
H  39.06000 7.18200 45.01400
H  37.96700 5.96900 45.50800
H  42.70600 -1.91700 47.83100
H  42.67900 -2.10500 46.09300
H  41.48200 -1.14400 46.86300
H  47.43600 -2.75700 45.74300
H  47.75300 -1.49600 46.79000
H  47.43100 -1.19800 44.96200
H  49.26000 2.65900 45.72900
H  49.47600 4.60200 48.08600
H  50.47800 2.38100 48.27100
H  50.18800 1.09400 47.04500
H  49.04500 1.33700 48.39100
H  49.51300 5.66400 45.31900
H  50.53600 4.33800 45.44100
H  52.07300 5.55400 46.73300
H  50.90500 6.41000 47.70600
H  51.24400 6.94400 46.10200
H  46.44400 9.81400 45.90800
H  47.42200 9.29900 47.30400
H  45.88300 10.14500 47.54400
H  41.24700 8.11600 45.83200
H  37.87800 8.95900 48.26100
H  38.87200 9.59700 49.61500
H  38.78300 7.86900 49.42100
Mg 48.67000 45.81000 43.07000
C  45.22300 46.35200 42.12100
C  48.43200 42.82900 41.41800
C  51.88100 45.63900 43.38400
C  48.65200 49.21700 44.14800
N  46.98100 44.81700 41.87500
C  45.74000 45.23800 41.54700
C  45.00000 44.21000 40.57200
C  45.98700 42.98300 40.73000
C  47.23000 43.59900 41.37600
C  45.45800 41.77100 41.48800
C  44.80100 44.76200 39.16800
C  43.36800 44.51700 38.65500
H  43.22400 44.40700 37.13200
N  50.00800 44.43000 42.53700
C  49.70400 43.22100 41.90700
C  50.90400 42.38900 41.91900
C  51.92400 43.28700 42.44300
C  51.28900 44.51400 42.84300
C  51.09700 40.98200 41.48100
C  53.40900 42.84700 42.60300
O  53.81800 41.73100 42.25200
C  54.42400 43.65300 43.23200
N  50.08000 47.25800 43.68000
C  51.38100 46.90000 43.74100
C  52.23500 48.06800 44.37100
C  51.11500 49.14900 44.75700
C  49.90300 48.56000 44.06400
C  53.11700 47.50200 45.44800
C  51.40000 50.66500 44.58000
C  51.35400 51.49600 45.85500
N  47.24500 47.40100 43.26800
C  47.39900 48.70500 43.73000
C  46.13600 49.37600 43.66700
C  45.21400 48.42000 43.09200
C  45.99200 47.29000 42.82400
C  45.94400 50.74400 44.17700
C  43.81900 48.19400 42.71500
O  42.82200 48.92700 42.77600
C  43.90100 46.92300 41.88600
C  42.76400 46.05900 42.45300
O  41.71500 45.81100 41.83400
O  43.08300 45.57200 43.70000
C  42.11300 44.65200 44.33500
H  48.45600 41.90000 40.84300
H  52.95800 45.62500 43.56200
H  48.64700 50.18400 44.65500
H  44.04000 44.07200 41.07000
H  46.25900 42.67800 39.72000
H  44.88400 42.11700 42.34800
H  46.26600 41.05400 41.63700
H  44.85000 41.17800 40.80400
H  45.54000 44.56800 38.39000
H  44.94600 45.82000 39.39100
H  42.83800 45.38200 39.05300
H  42.87700 43.65900 39.11600
H  50.09600 40.55600 41.41100
H  51.57000 40.32900 42.21400
H  51.57500 40.88300 40.50600
H  54.25500 44.07700 44.22100
H  54.50800 44.53100 42.59200
H  55.39200 43.15100 43.23900
H  52.73500 48.38200 43.45500
H  50.87500 48.96100 45.80400
H  52.80200 48.03100 46.34800
H  54.11500 47.92000 45.31600
H  53.22900 46.43000 45.60800
H  50.84400 51.15600 43.78100
H  52.44400 50.67900 44.26600
H  51.39500 50.86900 46.74500
H  50.44500 52.08700 45.96300
H  52.20700 52.17300 45.80200
H  46.52300 50.86000 45.09300
H  44.90300 50.98600 44.39000
H  46.22100 51.50500 43.44600
H  43.73400 47.24300 40.85700
H  42.48500 44.25400 45.27900
H  41.96300 43.80800 43.66200
H  41.11700 45.08100 44.43900

