158

Mg 8.81000 2.70300 27.88100
C  10.17700 1.16700 30.80600
C  7.01300 4.77300 29.93100
C  7.64100 4.19900 25.14600
C  10.45400 0.32800 25.91700
N  8.70400 2.98500 30.18600
C  9.40000 2.32400 31.13400
C  9.04300 2.86100 32.50100
C  7.96300 3.91100 32.18200
C  7.73800 3.78600 30.67200
C  6.60600 3.65100 32.91400
C  10.27400 3.27600 33.30200
C  10.10200 4.11700 34.55800
H  10.94500 3.65400 35.77000
N  7.42200 4.25500 27.57500
C  6.79500 4.99400 28.52600
C  5.95900 6.06100 27.91500
C  6.09100 5.91200 26.51800
C  7.11100 4.76800 26.35100
C  5.25000 7.12200 28.70700
C  5.39400 6.71100 25.36400
O  5.68700 6.54500 24.17400
C  4.22300 7.51200 25.70700
N  9.05400 2.33100 25.83100
C  8.43700 3.14100 24.84900
C  8.88500 2.73600 23.41900
C  9.54700 1.33200 23.67900
C  9.78700 1.32900 25.21300
C  7.67000 2.51400 22.44500
C  10.95900 1.13300 22.93000
C  11.03100 0.34500 21.62300
N  9.95700 0.99800 28.23500
C  10.64900 0.21600 27.32900
C  11.27900 -0.89000 28.04800
C  11.20000 -0.46500 29.39800
C  10.37200 0.64500 29.52300
C  12.08300 -2.10500 27.55800
C  11.69400 -0.76800 30.74300
O  12.49600 -1.55600 31.16200
C  11.00400 0.25900 31.73000
C  10.00900 -0.48300 32.59100
O  9.11800 -1.29200 32.17500
O  10.39900 -0.45700 33.89600
C  9.74100 -1.34800 34.80300
H  6.69100 5.64800 30.50000
H  7.45900 4.83800 24.28000
H  10.79500 -0.41400 25.19200
H  8.57300 2.09900 33.12200
H  8.38100 4.87000 32.48800
H  5.80100 3.52800 32.19000
H  6.33600 4.51700 33.51900
H  6.65100 2.82100 33.61900
H  10.86700 3.84500 32.58500
H  10.95500 2.45900 33.53800
H  9.10400 4.34200 34.93600
H  10.50700 5.07800 34.24300
H  5.39600 8.11500 28.28200
H  5.40200 7.07100 29.78500
H  4.19900 6.85700 28.59100
H  4.48600 8.42000 26.24800
H  3.64000 6.90900 26.40300
H  3.54400 7.81700 24.91000
H  9.56800 3.43000 22.92900
H  8.97300 0.44700 23.40400
H  7.56000 1.45400 22.21700
H  7.68900 3.29600 21.68500
H  6.73700 2.75600 22.95600
H  11.62900 0.72600 23.68800
H  11.37500 2.10300 22.65500
H  10.07800 0.48900 21.11300
H  11.06700 -0.73300 21.78300
H  11.93000 0.48000 21.02200
H  13.12100 -1.80900 27.71200
H  11.89900 -2.00600 26.48800
H  11.72900 -3.03700 27.99800
H  11.73400 0.81800 32.31600
H  9.02000 -0.77600 35.38700
H  10.56500 -1.54300 35.48800
H  9.40200 -2.28300 34.35600
Mg 16.34100 51.79100 25.62800
C  18.00200 50.30600 28.50600
C  14.08500 53.03200 27.89200
C  14.62900 52.57900 22.99400
C  18.78700 50.08300 23.67800
N  16.14000 51.71700 27.90700
C  16.89600 51.04600 28.85000
C  16.55400 51.43800 30.28800
C  15.19400 52.12500 30.07700
C  15.11000 52.28400 28.51400
C  13.85400 51.54200 30.64300
C  17.53000 52.56000 30.83600
C  17.86400 52.46400 32.31100
H  16.96000 51.65400 33.29000
N  14.62300 52.65000 25.43100
C  13.77500 53.20300 26.44600
C  12.68100 53.87400 25.88200
C  12.82300 53.76000 24.49500
C  14.03800 52.94200 24.20900
C  11.68100 54.62600 26.69700
C  11.86000 54.15800 23.33700
O  12.14000 53.91000 22.14400
C  10.61600 54.93100 23.58000
N  16.61500 51.32900 23.63500
C  15.81100 51.91900 22.75100
C  16.30200 51.68200 21.34900
C  17.70900 51.13800 21.55800
C  17.72900 50.78400 23.03600
C  15.26800 50.68400 20.63600
C  18.82700 52.17000 21.33700
C  19.85100 51.86600 20.29500
N  18.11800 50.53400 25.97300
C  18.94700 49.90300 25.08100
C  20.03400 49.27500 25.82300
C  19.66200 49.42600 27.16600
C  18.46400 50.11400 27.18100
C  21.22500 48.50300 25.33900
C  20.07900 49.06900 28.51100
O  21.09300 48.47500 28.82800
C  19.01700 49.63900 29.49200
C  18.49700 48.46700 30.25600
O  17.48800 47.80500 30.02000
O  19.34300 48.19800 31.29700
C  19.01400 46.99300 32.09200
H  13.39800 53.47200 28.61800
H  14.09900 52.81800 22.06900
H  19.65300 49.75300 23.10200
H  16.55300 50.56700 30.94300
H  15.09900 53.06500 30.62000
H  14.12400 50.63300 31.17900
H  13.16500 51.23800 29.85500
H  13.32300 52.19600 31.33400
H  17.26300 53.56500 30.50900
H  18.43300 52.43800 30.23700
H  17.78500 53.47900 32.70100
H  18.91100 52.18500 32.43500
H  11.40600 55.53700 26.16600
H  11.99100 54.85500 27.71700
H  10.77700 54.01700 26.71200
H  9.92500 55.07500 22.74900
H  10.99500 55.92200 23.83000
H  10.09700 54.60200 24.48000
H  16.14200 52.59100 20.76900
H  17.87300 50.18900 21.04800
H  14.79500 49.99900 21.34000
H  15.81000 50.04200 19.94300
H  14.54100 51.29900 20.10600
H  19.35300 52.36700 22.27100
H  18.39900 53.12900 21.04400
H  20.27800 52.73700 19.79900
H  19.57700 51.17900 19.49400
H  20.64200 51.43500 20.90800
H  22.04200 49.17500 25.07500
H  21.03200 47.85500 24.48400
H  21.46100 47.72800 26.06700
H  19.56700 50.31600 30.14500
H  19.77800 46.78500 32.84100
H  19.02200 46.20900 31.33400
H  18.08500 47.20800 32.62000

