158

Mg 47.46300 24.32100 28.09600
C  48.54000 26.68500 30.44000
C  47.12400 21.99200 30.45300
C  46.86500 22.24700 25.64800
C  48.49000 26.70300 25.50800
N  47.71500 24.36500 30.27800
C  48.01500 25.48300 31.08700
C  47.95400 25.03300 32.55800
C  47.52000 23.54000 32.51700
C  47.52100 23.24800 30.98600
C  48.30500 22.55700 33.44300
C  47.11800 26.00000 33.29800
C  46.50600 25.52700 34.58000
H  46.33600 26.58800 35.66400
N  46.93900 22.39700 28.08400
C  46.84600 21.54800 29.14800
C  46.53000 20.19300 28.68400
C  46.43900 20.28600 27.34500
C  46.75600 21.73100 26.98300
C  46.49600 19.03600 29.63000
C  46.29300 19.07800 26.35300
O  46.38900 19.19200 25.13100
C  45.87900 17.63200 26.86400
N  47.78000 24.48900 25.90200
C  47.28300 23.49800 25.16600
C  47.42300 23.68800 23.57800
C  47.85900 25.18900 23.56500
C  48.07800 25.41400 25.03700
C  48.55500 22.68100 22.94400
C  46.87500 26.15400 22.87500
C  47.54300 27.32900 22.12600
N  48.38500 26.29400 27.95200
C  48.58300 27.10100 26.85800
C  49.06200 28.33700 27.42600
C  49.15200 28.25300 28.82500
C  48.68400 26.95400 29.09300
C  49.57200 29.51400 26.56200
C  49.44600 28.95700 30.10400
O  49.91500 30.11600 30.33200
C  48.97200 27.92300 31.14200
C  49.94800 27.77600 32.37100
O  50.87900 27.03000 32.52400
O  49.71700 28.80700 33.30000
C  49.98000 28.51300 34.69500
H  46.95700 21.21800 31.20500
H  46.66800 21.59200 24.79700
H  48.61700 27.56000 24.84300
H  48.96400 25.08100 32.96300
H  46.52300 23.40800 32.93700
H  47.69900 21.72900 33.81100
H  48.73100 23.08400 34.29700
H  49.15300 22.17700 32.87400
H  46.29900 26.31100 32.64800
H  47.77500 26.85500 33.45700
H  47.18800 24.80500 35.03000
H  45.53900 25.13600 34.26500
H  47.44100 18.49300 29.65100
H  45.61100 18.41500 29.49000
H  46.49700 19.47300 30.62900
H  45.97500 16.90300 26.05900
H  44.85800 17.61700 27.24600
H  46.58300 17.29400 27.62400
H  46.41600 23.49500 23.20500
H  48.84600 25.38900 23.14700
H  48.84500 21.97600 23.72300
H  49.40300 23.19500 22.49100
H  48.00500 22.29800 22.08400
H  46.09400 26.50300 23.55100
H  46.43200 25.54900 22.08400
H  47.46500 27.10800 21.06200
H  48.58400 27.61700 22.27500
H  46.94800 28.20100 22.40000
H  49.02800 29.57500 25.62000
H  50.63100 29.34300 26.36600
H  49.55600 30.47800 27.07100
H  48.06400 28.35700 31.56100
H  49.10100 28.71800 35.30400
H  50.70300 29.27500 34.98600
H  50.36400 27.51800 34.91800
Mg 48.87400 34.20000 26.41900
C  46.70100 33.01500 28.81300
C  49.42600 37.11400 28.23200
C  50.57100 35.39100 23.77300
C  47.86400 31.46300 24.38100
N  48.10900 35.00600 28.29200
C  47.40400 34.22800 29.21200
C  47.66200 34.74700 30.61600
C  48.00700 36.25200 30.31400
C  48.58000 36.12800 28.87400
C  46.79000 37.29200 30.47300
C  48.72600 34.07400 31.51200
C  48.35300 33.82200 32.92600
H  47.35900 34.73200 33.70000
N  49.96300 36.02400 26.04400
C  50.11700 37.05700 26.95000
C  50.89900 38.08000 26.26700
C  51.24500 37.60300 25.04200
C  50.62000 36.25700 24.92800
C  51.22100 39.43300 26.89100
C  52.14900 38.13700 23.97700
O  52.56500 37.50300 22.97900
C  52.60300 39.57200 24.13300
N  49.06800 33.60300 24.31000
C  49.94200 34.20900 23.53500
C  50.17900 33.47300 22.19200
C  49.37500 32.13200 22.46800
C  48.73200 32.44000 23.80300
C  49.72600 34.32600 20.95400
C  50.10300 30.76500 22.48500
C  51.38800 30.64100 21.59200
N  47.65700 32.51400 26.53500
C  47.26800 31.49300 25.65400
C  46.41900 30.56500 26.34700
C  46.10100 31.15600 27.57600
C  46.90800 32.32500 27.64200
C  46.07300 29.20700 25.82300
C  45.38300 31.01600 28.76800
O  44.74000 30.05900 29.19200
C  45.73500 32.23300 29.61600
C  46.26200 31.66500 30.86400
O  47.33500 31.11700 31.07900
O  45.28700 31.84700 31.82400
C  45.39100 31.03100 33.02400
H  49.71600 37.97400 28.83900
H  51.11200 35.78100 22.90800
H  47.62200 30.56200 23.81400
H  46.74600 34.61600 31.19300
H  48.78700 36.52600 31.02400
H  45.92500 36.90800 31.01300
H  46.50600 37.55500 29.45400
H  47.19100 38.11300 31.06800
H  49.64100 34.66000 31.59900
H  49.07100 33.18100 30.99000
H  49.30500 33.62500 33.42000
H  48.01500 32.79000 33.01500
H  50.87500 39.52600 27.92100
H  50.76600 40.15300 26.21100
H  52.26300 39.75400 26.91800
H  53.55800 39.63100 24.65500
H  51.87700 40.27000 24.55000
H  52.71500 40.00100 23.13700
H  51.25400 33.30700 22.13000
H  48.61500 32.02900 21.69400
H  49.38400 35.32300 21.23000
H  48.97800 33.76800 20.39000
H  50.59500 34.30900 20.29600
H  49.51800 29.88700 22.20600
H  50.44200 30.74700 23.52100
H  52.30700 30.94200 22.09400
H  51.27500 31.09700 20.60800
H  51.55600 29.58800 21.36500
H  45.01000 29.20100 25.58100
H  46.27100 28.56900 26.68500
H  46.83900 28.97500 25.08400
H  44.85700 32.85900 29.77400
H  45.74600 30.05300 32.69800
H  44.57200 30.93000 33.73600
H  46.15900 31.41600 33.69500

