158

Mg 9.23800 3.79600 27.12200
C  10.29300 2.13700 30.09400
C  6.83100 5.27600 29.10900
C  7.86900 4.97700 24.37300
C  10.96700 1.46800 25.29700
N  8.84500 4.02400 29.40800
C  9.44200 3.18400 30.33100
C  8.88700 3.67000 31.75400
C  7.64700 4.54300 31.40600
C  7.73100 4.64200 29.89200
C  6.31200 4.13800 31.96000
C  10.04300 4.37200 32.57600
C  10.43000 3.68600 33.94200
H  10.77200 4.55500 35.13500
N  7.68400 5.03600 26.74900
C  6.82600 5.54700 27.72600
C  5.80900 6.43000 27.06200
C  6.18900 6.45500 25.69800
C  7.29000 5.49100 25.52400
C  4.58500 7.08000 27.69500
C  5.55200 7.16500 24.59200
O  5.82200 7.07300 23.39400
C  4.42200 8.21100 24.90200
N  9.32200 3.25100 25.12000
C  8.80400 3.94200 24.13600
C  9.38400 3.56200 22.70300
C  10.23200 2.29400 23.03500
C  10.21200 2.38200 24.58700
C  8.33700 3.44700 21.62900
C  11.56400 2.26900 22.39600
C  11.77400 0.89100 21.61900
N  10.36500 2.09000 27.56400
C  11.04300 1.24300 26.68600
C  11.76800 0.25300 27.39100
C  11.47800 0.54200 28.73900
C  10.69200 1.70800 28.79300
C  12.45800 -0.95500 26.78000
C  11.67400 0.11900 30.15200
O  12.23700 -0.84400 30.66700
C  10.91300 1.15700 31.08100
C  9.95600 0.26400 31.75700
O  8.81600 -0.06400 31.35300
O  10.37400 0.08200 33.07300
C  9.36000 -0.57000 33.94600
H  5.99200 5.62000 29.71800
H  7.50500 5.43900 23.45300
H  11.55900 0.66000 24.86100
H  8.74700 2.70600 32.24300
H  7.77400 5.54400 31.81800
H  6.52900 3.48400 32.80500
H  5.81500 3.51900 31.21400
H  5.78700 5.00600 32.35900
H  9.70100 5.36300 32.87200
H  10.87800 4.52700 31.89200
H  11.26500 3.01100 33.74900
H  9.69800 2.90800 34.16000
H  4.78300 8.14600 27.58700
H  4.57000 6.86700 28.76400
H  3.66200 6.86000 27.15900
H  3.53700 7.60000 25.08200
H  4.22400 8.74100 23.97000
H  4.73200 8.91200 25.67800
H  9.93100 4.43200 22.34000
H  9.67800 1.38000 22.81900
H  7.33500 3.51500 22.05400
H  8.45800 2.40700 21.32600
H  8.37700 4.21900 20.86100
H  12.25500 2.54700 23.19100
H  11.64400 3.04300 21.63300
H  11.96500 1.12300 20.57100
H  10.85500 0.30700 21.58300
H  12.55000 0.24000 22.02300
H  11.86600 -1.47400 26.02700
H  12.63000 -1.61100 27.63300
H  13.46400 -0.78100 26.40000
H  11.69800 1.59700 31.69600
H  8.40800 -0.05700 33.81500
H  9.75800 -0.45700 34.95500
H  9.20900 -1.64500 33.84800
Mg 35.91300 2.04100 30.52900
C  33.24900 3.11000 32.59400
C  38.04800 2.73000 33.10900
C  38.40500 1.02100 28.44900
C  33.61000 2.05100 27.78800
N  35.65400 2.80200 32.60600
C  34.46600 3.15800 33.28000
C  34.70300 3.26700 34.84000
C  36.25100 3.31300 34.89400
C  36.71400 2.92000 33.46400
C  36.89600 4.69100 35.35800
C  34.09000 2.10300 35.63200
C  33.80700 2.24900 37.11300
H  34.21000 3.57800 37.76000
N  37.91100 1.86800 30.72100
C  38.59300 2.09200 31.91400
C  39.90400 1.57100 31.76400
C  40.08700 1.20500 30.36300
C  38.77300 1.39900 29.76500
C  40.96900 1.50400 32.85900
C  41.29400 0.70900 29.65200
O  41.29700 0.66200 28.43700
C  42.71700 0.41200 30.32900
N  36.02200 1.60500 28.48300
C  37.16600 1.11900 27.86900
C  36.81200 0.74500 26.39900
C  35.34500 1.10900 26.21100
C  34.91800 1.60900 27.60600
C  37.76300 1.24800 25.30800
C  34.42600 -0.14100 25.76600
C  33.21400 0.11200 24.89400
N  33.75900 2.43000 30.20500
C  33.02300 2.43600 29.03400
C  31.56300 2.77200 29.37500
C  31.68100 3.02700 30.73300
C  33.01200 2.90800 31.18800
C  30.30000 2.78900 28.47000
C  30.88500 3.33900 31.94500
O  29.68800 3.51900 32.11400
C  31.89400 3.42300 33.08300
C  31.74400 4.75600 33.72200
O  32.19600 5.86000 33.34400
O  31.17900 4.49200 34.95200
C  30.88900 5.69700 35.71400
H  38.77200 2.74000 33.92600
H  39.19000 0.74300 27.74300
H  33.14900 2.18900 26.80800
H  34.39200 4.23500 35.23200
H  36.56300 2.45300 35.48600
H  36.13500 5.44100 35.57500
H  37.50000 5.12700 34.56100
H  37.66000 4.59400 36.12900
H  34.71500 1.22500 35.46700
H  33.10500 2.04300 35.16800
H  34.27500 1.46100 37.70400
H  32.74600 2.00700 37.17500
H  41.54300 0.57900 32.90800
H  40.50600 1.90000 33.76300
H  41.71100 2.25700 32.59300
H  43.39400 0.46800 29.47600
H  42.66000 -0.53600 30.86300
H  43.04500 1.19700 31.01100
H  36.84800 -0.33500 26.53900
H  35.21100 1.97600 25.56500
H  38.73900 1.68100 25.52500
H  37.17900 1.96100 24.72600
H  38.02800 0.39900 24.67800
H  34.06000 -0.67700 26.64100
H  35.09100 -0.77100 25.17600
H  33.39800 -0.37400 23.93500
H  32.95200 1.15500 24.71600
H  32.36800 -0.38900 25.36500
H  30.11500 1.84300 27.96100
H  30.36500 3.59300 27.73700
H  29.45500 2.99000 29.12900
H  31.61100 2.64600 33.79400
H  31.71200 6.41100 35.73300
H  30.63400 5.53300 36.76100
H  29.96700 6.11000 35.30500

