158

Mg 8.27900 3.84200 28.45700
C  9.94000 2.38900 31.23900
C  6.30300 5.44300 30.71500
C  6.84800 5.29400 25.85000
C  9.86000 1.58500 26.40700
N  8.07200 3.84700 30.81400
C  8.92600 3.26200 31.65400
C  8.66100 3.77300 33.15900
C  7.28800 4.39100 32.97000
C  7.25500 4.66000 31.42500
C  6.19000 3.43700 33.54900
C  9.74800 4.77400 33.53800
C  10.08700 4.93200 35.09900
H  9.21800 4.41800 36.19400
N  6.90900 5.30400 28.28700
C  6.19800 5.82700 29.32300
C  5.23900 6.82200 28.84000
C  5.51900 6.96700 27.42300
C  6.52300 5.86900 27.09200
C  4.19900 7.50200 29.66500
C  4.91100 7.91500 26.45000
O  5.28700 7.97300 25.28000
C  3.90000 8.98000 26.91300
N  8.09400 3.31200 26.33000
C  7.59700 4.21200 25.52100
C  7.83400 3.69400 24.04300
C  9.06300 2.67400 24.23800
C  9.00900 2.51900 25.77500
C  6.55600 3.04000 23.34200
C  10.38900 3.13100 23.68400
C  11.19700 4.21000 24.55600
N  9.54900 2.28000 28.70700
C  10.15400 1.47100 27.74900
C  11.16500 0.55000 28.36300
C  11.13700 0.94700 29.72700
C  10.16400 1.93700 29.89600
C  11.88500 -0.52200 27.56600
C  11.75200 0.70600 31.01300
O  12.66100 -0.02800 31.39400
C  10.97700 1.57600 32.06200
C  10.33500 0.79200 33.10900
O  9.55600 -0.07000 32.77800
O  10.90900 1.08100 34.30300
C  10.43400 0.08800 35.35000
H  5.64100 5.99300 31.38700
H  6.35700 5.87800 25.06900
H  10.49200 1.03800 25.70400
H  8.68400 2.93800 33.85800
H  7.24600 5.36100 33.46500
H  5.21700 3.92000 33.45900
H  6.34000 3.17300 34.59600
H  6.15600 2.55400 32.91100
H  9.54100 5.73400 33.06500
H  10.64500 4.36300 33.07500
H  10.21200 6.01500 35.10200
H  11.08200 4.50400 35.22400
H  4.45400 8.55300 29.79800
H  4.06200 6.96800 30.60600
H  3.19500 7.43700 29.24600
H  2.96000 8.60700 27.31900
H  3.62600 9.56100 26.03200
H  4.29400 9.64000 27.68600
H  8.09700 4.56900 23.44800
H  8.78400 1.71500 23.80000
H  6.36000 3.66000 22.46800
H  5.68500 3.17100 23.98400
H  6.65700 1.99900 23.03500
H  10.23900 3.70800 22.77200
H  11.11200 2.33900 23.48700
H  12.02300 3.82300 25.15100
H  10.59300 4.74300 25.29000
H  11.60300 4.93500 23.85000
H  11.59400 -0.56900 26.51700
H  11.66500 -1.50100 27.99200
H  12.94900 -0.31800 27.68700
H  11.65800 2.33300 32.44900
H  10.03000 -0.80700 34.87800
H  9.70900 0.56600 36.00900
H  11.22300 -0.19300 36.04700
Mg 45.03800 5.38300 47.89400
C  43.17600 8.32700 47.28900
C  42.23500 3.58800 46.72700
C  46.93800 2.61700 47.64100
C  47.84700 7.40700 48.28400
N  42.94700 5.92300 47.22300
C  42.48300 7.17100 46.98600
C  41.03200 7.09000 46.42300
C  40.63400 5.57200 46.50600
C  42.04000 4.98900 46.84200
C  39.55700 5.25000 47.58800
C  41.04400 7.50900 44.94700
C  40.12200 8.66900 44.61000
H  39.20700 8.37600 43.37300
N  44.64300 3.31000 47.39200
C  43.39300 2.81500 46.95500
C  43.53900 1.42700 46.82900
C  44.92200 1.05300 47.00500
C  45.59300 2.31100 47.34300
C  42.40400 0.44400 46.43800
C  45.48600 -0.31100 46.65400
O  44.69900 -1.22500 46.30700
C  46.96500 -0.67300 46.67700
N  47.09100 5.06600 48.08700
C  47.62100 3.76100 48.00600
C  49.13500 3.79500 48.23900
C  49.48700 5.33800 48.11800
C  48.11900 6.00000 48.23800
C  49.55000 3.13400 49.59400
C  50.18800 5.75300 46.78100
C  51.59400 6.27500 46.86300
N  45.32700 7.48000 48.16400
C  46.61100 8.09800 48.18200
C  46.37700 9.48900 48.06900
C  45.06100 9.64200 47.65500
C  44.54100 8.35100 47.69400
C  47.38200 10.57900 48.19000
C  44.04000 10.68000 47.23100
O  44.16100 11.89900 47.01500
C  42.68000 9.73300 47.17900
C  41.63700 10.06800 48.16900
O  41.41000 9.44200 49.18300
O  40.79800 10.99900 47.69400
C  39.59100 11.27400 48.54000
H  41.36600 3.11500 46.26500
H  47.48100 1.67400 47.73300
H  48.68200 8.11000 48.27500
H  40.35200 7.65800 47.05600
H  40.20900 5.28500 45.54400
H  39.12800 6.13400 48.06100
H  39.93600 4.89800 48.54700
H  38.66200 4.78700 47.17200
H  40.70400 6.75800 44.23300
H  42.08100 7.75000 44.71200
H  40.75800 9.53700 44.43600
H  39.54500 9.00800 45.47000
H  42.29600 -0.32700 47.20100
H  42.57300 0.02000 45.44900
H  41.48300 1.02600 46.39600
H  47.53000 -0.04600 45.98600
H  47.10100 -1.73100 46.45500
H  47.41900 -0.43400 47.63800
H  49.67900 3.23300 47.48000
H  50.11100 5.64800 48.95600
H  48.61700 3.04700 50.15000
H  50.33600 3.69600 50.09800
H  49.88800 2.11200 49.42400
H  49.52100 6.44200 46.26200
H  50.27100 4.83200 46.20500
H  51.52300 7.36000 46.78200
H  52.26100 5.87300 46.10100
H  52.02900 6.08000 47.84300
H  48.10100 10.58300 47.37100
H  48.00600 10.51300 49.08200
H  46.75100 11.45900 48.06500
H  42.25400 9.75200 46.17600
H  39.20200 12.27200 48.33800
H  39.67100 11.01600 49.59600
H  38.77000 10.62700 48.23100

