158

Mg 1.64100 8.18500 25.52600
C  2.33500 10.29200 28.41000
C  1.54300 5.56800 27.56700
C  0.81100 6.33100 22.82500
C  1.82900 11.05700 23.53600
N  2.16000 7.94500 27.65800
C  2.20500 8.92200 28.71800
C  2.24700 8.25300 30.07900
C  2.30000 6.72000 29.66200
C  1.98700 6.73000 28.18700
C  3.60700 5.92900 30.01500
C  1.11700 8.72500 30.98900
C  1.33000 8.81400 32.42900
H  2.38000 7.91000 33.12500
N  1.07300 6.22900 25.24800
C  1.16400 5.33000 26.26700
C  0.69600 4.03700 25.70300
C  0.35300 4.30100 24.32500
C  0.77900 5.65700 24.08200
C  0.51500 2.69100 26.57400
C  -0.23400 3.33400 23.31600
O  -0.52600 3.73400 22.22900
C  -0.67300 1.88800 23.69800
N  1.53500 8.65300 23.53600
C  1.10900 7.67600 22.62200
C  0.84000 8.34500 21.21100
C  0.75700 9.84400 21.60100
C  1.49100 9.84900 22.98900
C  1.90800 8.10300 20.15200
C  -0.62600 10.35600 21.65700
C  -1.04900 10.98700 20.28300
N  2.01000 10.21200 25.89000
C  2.07200 11.24800 24.94000
C  2.36900 12.49800 25.63900
C  2.39300 12.17000 26.99600
C  2.29100 10.76400 27.09300
C  2.40300 13.89900 25.00900
C  2.64400 12.72000 28.29300
O  2.95200 13.85100 28.59100
C  2.52800 11.52600 29.28600
C  3.66700 11.50700 30.25600
O  4.72600 10.95500 29.96000
O  3.41700 12.17000 31.40300
C  4.39000 11.97700 32.46100
H  1.56300 4.65800 28.17000
H  0.58800 5.83100 21.88100
H  1.70000 11.95200 22.92400
H  3.26700 8.51900 30.35300
H  1.44800 6.18800 30.08700
H  4.40500 6.51200 30.47400
H  3.95300 5.34300 29.16300
H  3.33900 5.22300 30.80100
H  0.45600 7.86000 30.93900
H  0.68800 9.65200 30.60800
H  0.36300 8.71000 32.92000
H  1.68700 9.81000 32.68900
H  1.47100 2.18500 26.70200
H  -0.29900 2.07100 26.19700
H  0.28200 3.02200 27.58700
H  -1.61100 2.04100 24.23200
H  0.05300 1.29700 24.25600
H  -0.79000 1.35800 22.75300
H  -0.14400 7.95500 20.94800
H  1.45200 10.40000 20.97200
H  2.86800 8.20400 20.65800
H  1.68000 8.90100 19.44500
H  1.79900 7.13100 19.67000
H  -0.64300 11.03300 22.51100
H  -1.31600 9.57500 21.97600
H  -0.23400 10.86300 19.57000
H  -1.14900 12.06900 20.36500
H  -1.92700 10.50000 19.85700
H  1.36800 14.15700 24.78300
H  2.99200 13.80600 24.09700
H  2.73800 14.65900 25.71500
H  1.67400 11.68300 29.94600
H  5.42900 12.17900 32.19700
H  4.42000 10.96600 32.86600
H  4.08600 12.61100 33.29400
Mg 47.79400 14.61800 28.85400
C  45.67200 14.63400 31.59200
C  49.93300 16.80600 30.68000
C  49.34800 15.63000 26.02800
C  45.32200 12.93400 27.00300
N  47.77000 15.64700 30.91500
C  46.86700 15.38900 31.89300
C  47.32700 15.98400 33.18300
C  48.50100 16.91300 32.78500
C  48.71600 16.52000 31.34100
C  48.25600 18.49700 32.98100
C  47.66500 14.98100 34.36000
C  46.96200 15.25300 35.70700
H  47.46700 16.46700 36.51600
N  49.49600 15.94700 28.36300
C  50.24700 16.60000 29.33400
C  51.38100 17.19100 28.62800
C  51.24000 16.97900 27.19800
C  50.01600 16.14200 27.08700
C  52.51600 17.95500 29.39700
C  52.10700 17.46800 26.06700
O  51.90500 17.26700 24.89100
C  53.38800 18.26800 26.29200
N  47.42700 14.34600 26.84500
C  48.19900 14.89800 25.89200
C  47.81000 14.30100 24.51700
C  46.70400 13.25400 24.92700
C  46.44000 13.47300 26.35400
C  47.42200 15.46000 23.46100
C  47.12800 11.74000 24.68800
C  47.89300 11.10300 25.85200
N  45.85700 13.95800 29.13700
C  44.94300 13.25400 28.29200
C  43.76600 12.85700 29.09700
C  44.00700 13.36400 30.39500
C  45.28700 14.02500 30.38100
C  42.65200 12.04100 28.69500
C  43.39400 13.60600 31.67800
O  42.35900 13.27800 32.22000
C  44.56200 14.28800 32.54100
C  44.00800 15.40200 33.25300
O  43.98700 16.58500 32.85000
O  43.48400 15.01800 34.42200
C  42.44100 16.02000 34.97400
H  50.67200 17.37300 31.24900
H  49.78400 15.97700 25.08900
H  44.59000 12.29400 26.50700
H  46.46600 16.53900 33.55600
H  49.43600 16.71500 33.30900
H  48.95100 18.95500 33.68500
H  47.26100 18.59100 33.41600
H  48.33800 19.04800 32.04500
H  48.74300 14.96600 34.52500
H  47.42800 13.93400 34.17100
H  47.24900 14.39000 36.30700
H  45.88600 15.39100 35.59500
H  52.58400 18.91000 28.87800
H  53.43600 17.37900 29.29200
H  52.35300 18.25200 30.43300
H  53.25500 19.32000 26.54100
H  54.03800 18.19700 25.42000
H  53.80900 17.68800 27.11300
H  48.63500 13.68500 24.16100
H  45.75300 13.49900 24.45500
H  46.34500 15.38800 23.30800
H  47.90800 15.26300 22.50500
H  47.80900 16.43400 23.76000
H  47.61700 11.63400 23.72000
H  46.20200 11.18500 24.53200
H  48.50900 11.89300 26.28300
H  48.68700 10.49800 25.41600
H  47.23800 10.78600 26.66400
H  42.62200 11.85200 27.62200
H  41.80200 12.58200 29.11000
H  42.64300 11.10300 29.25000
H  44.88900 13.55100 33.27400
H  42.52500 17.01400 34.53400
H  42.56200 16.06900 36.05600
H  41.41800 15.70500 34.76600

