158

Mg 25.97700 1.52000 28.75200
C  28.09000 1.33200 31.76800
C  23.30400 1.57800 30.89300
C  24.20400 2.06600 26.08400
C  28.84200 1.28400 26.97200
N  25.77200 1.55800 31.06700
C  26.71700 1.64700 32.08300
C  26.04000 1.73100 33.50300
C  24.49600 1.74700 33.12200
C  24.51100 1.60600 31.62000
C  23.60000 0.66900 33.81600
C  26.59100 3.00300 34.16100
C  27.38300 2.89500 35.53900
H  26.98700 3.80700 36.73100
N  24.05200 1.55400 28.51800
C  23.06100 1.57300 29.50300
C  21.86400 1.58100 28.89000
C  22.04700 1.74200 27.50700
C  23.50200 1.84300 27.30600
C  20.61200 1.45900 29.65200
C  21.02900 1.97800 26.44800
O  21.40900 2.29700 25.30500
C  19.59000 1.82100 26.79300
N  26.45000 1.54400 26.76500
C  25.54000 1.92800 25.81300
C  26.17600 1.83500 24.40900
C  27.72400 1.68900 24.78000
C  27.71100 1.42600 26.25900
C  25.54200 0.70600 23.51700
C  28.52600 2.98200 24.35800
C  30.01300 2.78700 24.02600
N  28.05800 1.18700 29.17000
C  29.05300 1.10600 28.30100
C  30.31000 0.74100 29.07200
C  29.95200 0.93000 30.42500
C  28.56700 1.16700 30.43100
C  31.65400 0.48900 28.43700
C  30.50000 0.88500 31.77600
O  31.56400 0.53100 32.22700
C  29.28500 1.23700 32.66600
C  29.13400 0.06100 33.59600
O  28.39000 -0.87800 33.36200
O  29.87300 0.23900 34.68800
C  29.68000 -0.72900 35.74000
H  22.41900 1.67300 31.52500
H  23.65500 2.46700 25.23000
H  29.76000 1.17800 26.39100
H  26.25700 0.87000 34.13500
H  24.11000 2.74500 33.32900
H  23.34100 -0.13400 33.12600
H  22.74800 1.27800 34.11600
H  24.17700 0.30700 34.66700
H  25.78000 3.69300 34.39900
H  27.17100 3.57100 33.43500
H  28.43800 3.11500 35.37500
H  27.19800 1.88800 35.91300
H  20.12600 2.43500 29.62500
H  20.61800 1.30700 30.73100
H  19.90100 0.76500 29.20400
H  18.96800 1.90000 25.90100
H  19.39400 2.58900 27.54100
H  19.59300 0.80600 27.18900
H  25.87600 2.78500 23.96600
H  28.04700 0.86500 24.14400
H  26.24300 -0.04700 23.15700
H  25.07800 1.17600 22.64900
H  24.85400 0.20100 24.19500
H  28.32000 3.81300 25.03300
H  28.09100 3.33500 23.42200
H  30.24000 2.94500 22.97100
H  30.26800 1.76600 24.30900
H  30.56200 3.51500 24.62300
H  31.92700 1.11500 27.58700
H  31.50300 -0.55500 28.16400
H  32.47200 0.49400 29.15700
H  29.33700 2.14200 33.27100
H  28.86600 -0.27500 36.30600
H  30.59400 -0.70800 36.33400
H  29.44400 -1.74800 35.43600
Mg -11.86400 38.80700 41.90300
C  -9.50900 36.22200 41.26700
C  -9.78900 40.83400 40.25600
C  -14.34100 40.97100 41.91100
C  -14.11000 36.21900 42.78200
N  -10.05200 38.45600 40.54700
C  -9.23600 37.37000 40.55100
C  -8.07400 37.59600 39.56900
C  -8.08400 39.12700 39.34000
C  -9.43000 39.51800 40.02800
C  -6.91100 39.96900 40.02400
C  -8.27300 36.70700 38.28200
C  -6.97800 36.06100 37.77100
H  -6.19900 36.79200 36.73400
N  -11.95100 40.70400 41.27300
C  -10.93200 41.42200 40.75600
C  -11.22200 42.79500 40.68400
C  -12.60900 42.82000 41.02900
C  -13.05700 41.42700 41.45900
C  -10.34900 43.99100 40.22200
C  -13.51000 44.02900 40.96300
O  -13.01500 45.09700 40.64300
C  -14.95500 44.09800 41.38600
N  -13.92100 38.57400 42.20800
C  -14.68100 39.69400 42.24800
C  -16.13800 39.35400 42.55700
C  -16.09100 37.84500 42.78900
C  -14.64200 37.48200 42.58700
C  -16.70300 40.30600 43.67900
C  -17.03600 36.96600 41.89500
C  -17.56800 35.56700 42.50700
N  -11.83700 36.62300 42.07400
C  -12.78400 35.76500 42.53800
C  -12.25900 34.45900 42.73900
C  -10.89900 34.58300 42.29100
C  -10.76600 35.87000 41.77900
C  -13.01500 33.26500 43.52100
C  -9.60200 33.94000 42.20600
O  -9.27300 32.81200 42.46900
C  -8.64700 34.89900 41.36900
C  -7.38800 34.98900 42.11300
O  -6.61400 34.01200 42.14600
O  -7.18400 36.27200 42.59000
C  -6.05200 36.45100 43.50600
H  -9.12600 41.60600 39.85900
H  -15.10000 41.74100 42.06500
H  -14.73400 35.35500 43.01800
H  -7.20900 37.43100 40.21200
H  -8.20000 39.47100 38.31300
H  -7.10900 40.36000 41.02200
H  -6.71500 40.75100 39.29100
H  -5.98200 39.40000 40.02400
H  -8.60900 37.34100 37.46200
H  -8.90500 35.83400 38.44600
H  -7.24300 35.03100 37.53000
H  -6.27600 35.98000 38.60100
H  -10.76000 44.57100 39.39500
H  -9.36100 43.63200 39.93200
H  -10.00900 44.68400 40.99100
H  -15.30200 45.12300 41.25900
H  -15.00900 43.81900 42.43800
H  -15.49400 43.35100 40.80200
H  -16.58300 39.63500 41.60200
H  -16.47500 37.54200 43.76300
H  -17.20800 41.21900 43.36300
H  -15.88800 40.56300 44.35500
H  -17.36800 39.69400 44.28800
H  -16.34800 36.80200 41.06600
H  -17.81300 37.59800 41.46400
H  -18.65000 35.50000 42.39500
H  -17.27600 35.39900 43.54400
H  -17.30100 34.74400 41.84400
H  -12.35100 32.51100 43.94300
H  -13.74500 32.81500 42.84800
H  -13.45600 33.72800 44.40300
H  -8.48600 34.46700 40.38200
H  -5.26600 36.90300 42.90100
H  -5.63000 35.49100 43.80200
H  -6.30800 37.08000 44.35800

