158

Mg 5.16500 53.64600 41.89400
C  4.66800 50.24400 41.12300
C  7.99500 53.64500 40.16300
C  5.38900 57.09100 42.51000
C  1.94300 53.64300 43.30900
N  6.12900 52.11300 40.59500
C  5.77800 50.88000 40.49300
C  6.71800 50.18100 39.50400
C  7.98200 51.04700 39.69500
C  7.35900 52.39900 40.11000
C  9.07200 50.60000 40.67800
C  6.16100 50.05600 38.03200
C  6.74700 48.95700 37.16100
H  5.97000 48.34900 36.04700
N  6.51600 55.12900 41.46700
C  7.60900 54.90100 40.68200
C  8.46000 56.06000 40.61600
C  7.74300 57.08100 41.38500
C  6.46800 56.44200 41.83100
C  9.79200 56.18300 39.88200
C  8.27300 58.43000 41.74500
O  9.43500 58.76100 41.45300
C  7.45400 59.50200 42.56300
N  3.73800 55.33100 42.55700
C  4.12900 56.55000 42.86800
C  2.98100 57.26400 43.60600
C  1.93200 56.18000 43.80300
C  2.52000 54.96000 43.20600
C  3.56400 57.83400 44.89700
C  0.50600 56.62500 43.25700
C  -0.69500 56.64500 44.27100
N  3.55000 52.32800 42.03400
C  2.43400 52.41300 42.77600
C  1.79600 51.16700 42.81900
C  2.68200 50.26300 42.28900
C  3.69500 51.03500 41.74200
C  0.37400 50.82600 43.12100
C  2.95000 48.84900 42.02800
O  2.43100 47.80900 42.22600
C  4.33500 48.79600 41.24800
C  4.20400 48.09600 39.96900
O  3.43000 48.42800 39.08300
O  4.90100 46.98300 39.94300
C  4.47400 45.94000 38.98400
H  9.02000 53.66100 39.78400
H  5.50000 58.14200 42.78500
H  0.96000 53.77900 43.76400
H  6.91800 49.15700 39.82100
H  8.50000 51.16400 38.74300
H  8.88500 49.59100 41.04300
H  9.15700 51.29900 41.51000
H  10.00200 50.48500 40.12100
H  6.60600 50.97500 37.64900
H  5.08600 50.23200 37.99100
H  6.88900 48.10700 37.82800
H  7.67000 49.34500 36.73100
H  9.83800 57.15500 39.39300
H  9.90100 55.37200 39.16200
H  10.54600 56.16100 40.66900
H  8.13700 60.33700 42.71500
H  7.26200 59.22300 43.59900
H  6.55700 59.82900 42.03600
H  2.52300 58.11500 43.10100
H  1.79200 55.83800 44.82900
H  4.46700 57.25200 45.08200
H  2.98400 57.61000 45.79200
H  3.79800 58.89300 44.79000
H  0.20800 55.80900 42.59900
H  0.61700 57.47800 42.58700
H  -0.30700 56.29400 45.22700
H  -1.39400 55.87000 43.95500
H  -1.06100 57.63600 44.53700
H  -0.14400 51.28600 43.96300
H  0.12600 49.77800 43.28900
H  -0.17500 51.22500 42.26700
H  4.97600 48.25600 41.94500
H  5.34700 45.43100 38.57600
H  3.96100 46.32900 38.10500
H  3.95600 45.26100 39.66200
Mg 0.64800 42.63400 25.75500
C  1.87500 42.68600 29.03400
C  -2.31300 41.46700 27.01500
C  -0.48100 42.18900 22.64600
C  3.85000 43.40700 24.58400
N  -0.17500 42.35500 27.78700
C  0.53500 42.58800 28.97400
C  -0.38600 42.27200 30.16600
C  -1.77600 41.81500 29.50400
C  -1.42500 41.88900 27.98900
C  -2.33500 40.39400 29.90100
C  -0.54900 43.63500 31.02900
C  -0.97900 43.49000 32.47200
H  -1.41000 42.07100 33.05600
N  -1.21800 42.01500 24.94400
C  -2.28700 41.57600 25.62900
C  -3.37100 41.36600 24.66000
C  -2.84200 41.41100 23.32100
C  -1.42400 41.81200 23.54900
C  -4.67400 40.71800 25.03200
C  -3.43100 41.08900 22.05300
O  -2.92300 41.15700 20.95600
C  -4.79900 40.49300 22.00400
N  1.60000 42.63200 23.91500
C  0.84500 42.61900 22.77900
C  1.64500 43.03000 21.52400
C  3.00300 43.45500 22.19000
C  2.78700 43.23300 23.67300
C  1.72300 41.89900 20.45900
C  3.65500 44.78900 21.73900
C  2.89300 46.14700 21.59000
N  2.52900 42.96600 26.62300
C  3.76300 43.21800 26.02200
C  4.74500 43.15900 27.06700
C  4.09800 43.01600 28.27600
C  2.72000 42.91000 27.94600
C  6.18300 43.40600 26.89100
C  4.25900 42.99800 29.75600
O  5.25300 43.26500 30.35500
C  2.84400 42.59200 30.30000
C  2.91900 41.24100 30.74400
O  3.42600 40.31500 30.10800
O  2.33700 41.10200 31.96200
C  1.98700 39.76600 32.47400
H  -3.23700 41.03400 27.40500
H  -0.83100 42.05800 21.62000
H  4.87600 43.65900 24.30600
H  -0.15500 41.40600 30.78700
H  -2.59600 42.48900 29.75300
H  -1.61600 39.91300 30.56500
H  -2.51300 39.79200 29.01000
H  -3.18700 40.53000 30.56800
H  -1.29400 44.32100 30.62900
H  0.37500 44.21300 31.06200
H  -1.81700 44.10500 32.80000
H  -0.11500 43.72100 33.09500
H  -5.02900 39.94700 24.34900
H  -5.46300 41.47100 25.02700
H  -4.59800 40.09200 25.92100
H  -5.55600 41.08000 22.52400
H  -4.88600 39.44400 22.28800
H  -5.12100 40.48700 20.96300
H  1.15100 43.93000 21.16000
H  3.76500 42.71100 21.95500
H  1.13100 42.25200 19.61400
H  1.28600 41.00100 20.89400
H  2.77000 41.69600 20.23200
H  4.08900 44.49600 20.78300
H  4.47500 44.95100 22.43900
H  2.92600 46.42800 20.53800
H  3.44500 46.95800 22.06600
H  1.86300 46.05000 21.93200
H  6.33900 44.48000 26.98300
H  6.63200 43.11400 25.94200
H  6.65200 42.81400 27.67800
H  2.50700 43.24500 31.10500
H  2.26800 39.57100 33.50900
H  2.47500 38.95900 31.92800
H  0.89900 39.72000 32.45100

