158

Mg 47.10600 44.91200 43.11500
C  43.64800 44.14000 43.13900
C  47.67500 41.47700 43.02800
C  50.33800 45.64300 42.30200
C  46.23400 48.26500 42.58900
N  45.76500 43.05700 42.94600
C  44.39900 42.96800 43.04400
C  43.97600 41.56100 42.86800
C  45.25500 40.71400 43.02500
C  46.32700 41.79200 43.05600
C  45.27700 39.91100 44.38200
C  43.19200 41.26000 41.53800
C  43.81900 41.82600 40.32000
H  43.14500 41.56600 38.96400
N  48.84400 43.77100 42.90600
C  48.87600 42.33400 42.97500
C  50.28700 41.97100 42.75500
C  51.12100 43.13800 42.63300
C  50.12900 44.26200 42.69500
C  50.61800 40.48600 42.50200
C  52.58800 43.18800 42.45500
O  53.16300 42.11900 42.32700
C  53.32800 44.43300 42.40600
N  48.10300 46.65200 42.36600
C  49.41800 46.69100 42.22100
C  49.88600 48.07900 41.73600
C  48.59700 48.94900 41.85000
C  47.54700 47.91000 42.34800
C  51.19100 48.63000 42.40500
C  48.18300 49.80800 40.55800
C  47.93400 51.25700 40.91200
N  45.37100 46.01700 42.95600
C  45.18100 47.34600 42.76500
C  43.70600 47.57800 42.75500
C  43.05200 46.40900 43.00500
C  44.11100 45.46700 43.01600
C  42.96500 48.89100 42.36600
C  41.81500 45.76200 43.18100
O  40.70300 46.17100 43.19000
C  42.13700 44.24700 43.21600
C  41.66200 43.53700 44.32900
O  40.78000 42.71600 44.22800
O  42.27100 43.88400 45.56700
C  41.83100 43.05600 46.69500
H  47.88800 40.40900 43.11600
H  51.29300 45.83400 41.80800
H  45.99600 49.33000 42.62600
H  43.27600 41.39500 43.68700
H  45.43700 40.01300 42.21000
H  45.52000 40.57000 45.21500
H  46.11100 39.23900 44.18100
H  44.30400 39.45300 44.56200
H  42.15300 41.54400 41.70500
H  43.13900 40.17400 41.45800
H  44.84600 41.52000 40.12200
H  43.80800 42.91500 40.36100
H  51.67800 40.26200 42.61700
H  50.33300 40.02800 41.55400
H  50.03900 39.95900 43.26000
H  53.08000 44.92200 41.46400
H  54.40100 44.24300 42.38000
H  53.10900 45.08700 43.25000
H  50.23300 47.88900 40.72100
H  48.71700 49.62000 42.70000
H  51.17700 49.69300 42.64700
H  51.99200 48.47100 41.68300
H  51.45600 48.08900 43.31300
H  47.26100 49.41600 40.12900
H  48.97500 49.74100 39.81200
H  47.09500 51.71700 40.39000
H  48.80400 51.89800 40.76800
H  47.57100 51.29100 41.93900
H  43.68600 49.69400 42.52300
H  42.11200 48.98100 43.03900
H  42.70200 48.90500 41.30900
H  41.70600 43.78000 42.33000
H  40.91400 43.54100 47.03000
H  42.62800 43.15600 47.43100
H  41.59300 42.06500 46.30900
Mg 8.70300 47.51700 27.90900
C  7.10500 46.99500 30.83500
C  11.59600 47.87000 29.71700
C  10.28300 48.63900 25.13300
C  5.69800 47.74700 26.20800
N  9.26000 47.59100 30.09600
C  8.48200 47.21100 31.10000
C  9.21500 47.25700 32.43100
C  10.60400 47.95600 32.05600
C  10.53000 47.74400 30.53500
C  10.78300 49.41000 32.50400
C  9.23500 45.96500 33.24100
C  8.92400 46.02800 34.77400
H  9.46300 44.93600 35.68300
N  10.73800 47.89400 27.45000
C  11.78400 48.00600 28.27600
C  13.02300 48.28500 27.53300
C  12.59100 48.51100 26.20300
C  11.15000 48.37600 26.22900
C  14.43100 48.28300 28.11800
C  13.39900 48.83100 24.91800
O  12.89000 48.85600 23.78800
C  14.83600 48.84800 24.88300
N  8.06700 48.05700 25.94300
C  8.93300 48.54700 25.00300
C  8.20000 48.98700 23.73100
C  6.75000 48.38600 24.04100
C  6.83100 47.98200 25.49500
C  8.30200 50.50700 23.51000
C  6.29600 47.17000 23.07300
C  6.27900 47.54500 21.56900
N  6.71800 47.56900 28.36600
C  5.61200 47.54000 27.58000
C  4.45700 47.28800 28.42300
C  4.96400 47.00000 29.66200
C  6.36100 47.20700 29.58800
C  3.08700 47.18400 27.88400
C  4.66100 46.70500 31.04700
O  3.55100 46.54600 31.55100
C  6.08200 46.59400 31.81000
C  6.18200 45.31100 32.45700
O  6.59100 44.27600 31.96500
O  5.76400 45.34300 33.78500
C  5.74600 43.98200 34.46200
H  12.59600 48.05500 30.11400
H  10.70100 49.12200 24.24700
H  4.76100 47.75400 25.64800
H  8.59700 48.02100 32.90300
H  11.40700 47.30300 32.39800
H  10.04700 49.55300 33.29600
H  10.53400 50.12100 31.71700
H  11.76400 49.54000 32.96100
H  10.26200 45.61500 33.14200
H  8.51800 45.28700 32.77800
H  7.85300 45.93700 34.95500
H  9.25700 47.02200 35.07000
H  14.36700 48.05100 29.18200
H  14.91500 49.25800 28.07400
H  15.07100 47.62500 27.53100
H  15.11000 49.70300 25.50100
H  15.13700 49.04600 23.85400
H  15.20900 47.89200 25.24900
H  8.58900 48.42800 22.88000
H  6.01000 49.18300 23.97000
H  7.35300 50.83300 23.93600
H  8.27600 50.63800 22.42800
H  9.22900 50.91600 23.91200
H  5.33600 46.80900 23.44200
H  6.97800 46.33900 23.25500
H  6.54300 48.58100 21.36000
H  5.26300 47.46100 21.18200
H  6.91700 46.86500 21.00400
H  2.67300 48.18800 27.79400
H  2.52500 46.71700 28.69400
H  3.08800 46.68300 26.91600
H  6.01600 47.30000 32.63700
H  5.89500 44.12400 35.53200
H  6.60300 43.42100 34.08900
H  4.80300 43.50300 34.19700

