158

Mg 47.04000 16.32700 28.94100
C  44.92400 15.57600 31.79500
C  49.16500 17.95300 30.94500
C  48.54600 17.17100 26.23500
C  44.20700 15.00300 27.00700
N  47.04400 16.68100 31.13000
C  46.15400 16.20300 32.13100
C  46.54600 16.67500 33.56400
C  47.82800 17.54300 33.19800
C  48.08100 17.38200 31.73600
C  47.72700 19.05900 33.51300
C  46.78200 15.41100 34.47800
C  46.50200 15.60400 36.01800
H  46.58800 16.99700 36.76800
N  48.73200 17.34000 28.65200
C  49.57100 17.90100 29.57200
C  50.75700 18.47600 28.96000
C  50.46000 18.34700 27.60200
C  49.15000 17.69000 27.43400
C  51.95600 19.09500 29.69000
C  51.37900 18.74700 26.41500
O  51.09800 18.48600 25.21300
C  52.58300 19.67300 26.69500
N  46.42200 16.10200 26.95300
C  47.35200 16.49000 26.01600
C  46.84900 16.26200 24.55300
C  45.57800 15.44000 24.82200
C  45.43400 15.46500 26.38700
C  46.55800 17.60800 23.77400
C  45.54900 14.00300 24.28700
C  44.30500 13.67300 23.40100
N  45.00200 15.50800 29.24800
C  44.02700 15.03800 28.33800
C  42.88200 14.60600 29.05300
C  43.17100 14.82300 30.41900
C  44.54500 15.29200 30.45300
C  41.63600 14.00600 28.52100
C  42.63600 14.60400 31.79200
O  41.63900 14.07700 32.28400
C  43.71600 15.24500 32.69100
C  43.10700 16.53500 33.16400
O  42.95200 17.56500 32.51100
O  43.01300 16.54200 34.53700
C  42.50200 17.71900 35.24100
H  49.91900 18.43800 31.56900
H  49.01600 17.45400 25.29000
H  43.50200 14.57100 26.29300
H  45.77800 17.36000 33.92400
H  48.71600 17.22700 33.74400
H  48.14200 19.70300 32.73700
H  48.23100 19.32600 34.44200
H  46.72000 19.38100 33.77700
H  47.80600 15.14900 34.21300
H  46.09500 14.60400 34.22100
H  47.18200 14.91500 36.52000
H  45.49500 15.23700 36.21600
H  51.96100 20.16700 29.49500
H  52.91000 18.70200 29.33800
H  51.94700 18.97900 30.77400
H  52.86300 19.92300 25.67200
H  53.29200 18.97400 27.13900
H  52.44200 20.53400 27.34900
H  47.56400 15.68600 23.96500
H  44.61700 15.82900 24.48500
H  45.49200 17.83200 23.76300
H  46.96200 17.49300 22.76800
H  47.04100 18.35100 24.40900
H  45.57900 13.36400 25.17000
H  46.44300 13.91700 23.67100
H  44.58800 12.83600 22.76300
H  43.99300 14.36100 22.61500
H  43.39800 13.63700 24.00500
H  41.41700 14.60800 27.63900
H  40.81400 14.03500 29.23500
H  41.86800 12.97400 28.25800
H  43.79400 14.67300 33.61500
H  41.54300 17.36900 35.62300
H  42.14600 18.56000 34.64500
H  43.21400 18.03300 36.00400
Mg 26.90100 50.66300 27.01500
C  24.80000 51.77400 29.60100
C  29.23300 49.78200 29.36400
C  29.09400 49.85000 24.51600
C  24.56300 51.78100 24.68900
N  27.07100 50.89000 29.26000
C  25.97700 51.24100 30.09600
C  26.32800 50.86700 31.55600
C  27.86000 50.48800 31.51300
C  28.11400 50.36900 29.98400
C  28.80800 51.43200 32.16600
C  25.34200 49.77100 32.21400
C  24.05700 50.42700 33.02600
H  23.69500 49.80600 34.42600
N  28.93600 49.84900 26.96900
C  29.68300 49.46800 28.07200
C  30.87300 48.81700 27.58600
C  30.84100 48.88400 26.15100
C  29.58600 49.59900 25.82000
C  31.98900 48.32800 28.55600
C  31.83900 48.46100 25.08500
O  31.65600 48.57800 23.88000
C  33.17000 48.01800 25.46400
N  26.86000 50.86600 24.88600
C  27.83300 50.44300 24.06700
C  27.42500 50.38800 22.57100
C  25.90000 50.95500 22.65500
C  25.73000 51.25600 24.13500
C  28.37800 51.25100 21.69800
C  24.82900 49.98600 22.18600
C  24.20300 48.95000 23.09200
N  25.15000 51.78200 27.05900
C  24.32500 52.12200 26.04200
C  23.16400 52.88700 26.53700
C  23.33600 52.73000 27.93900
C  24.51600 52.02300 28.20700
C  22.12200 53.63400 25.74600
C  22.74200 52.99100 29.18200
O  21.68400 53.59700 29.40600
C  23.68200 52.44200 30.34400
C  24.21400 53.65300 31.12500
O  25.04800 54.48300 30.79900
O  23.47600 53.75400 32.30100
C  23.90700 54.70500 33.26800
H  29.85900 49.31500 30.12700
H  29.70400 49.55900 23.65900
H  23.79700 52.00900 23.94500
H  26.25300 51.80600 32.10500
H  28.05300 49.52400 31.98500
H  28.64900 51.19400 33.21800
H  28.53300 52.45900 31.92500
H  29.84000 51.37700 31.82100
H  25.87400 49.09400 32.88100
H  24.93500 49.17000 31.40100
H  23.20800 49.97900 32.51000
H  24.10100 51.51700 33.03700
H  32.14400 47.25300 28.64900
H  31.89500 48.72500 29.56700
H  32.94000 48.67500 28.15200
H  33.70500 48.94600 25.66500
H  33.58600 47.59200 24.55100
H  33.12800 47.26900 26.25400
H  27.60700 49.33700 22.34400
H  25.79200 51.95500 22.23600
H  29.10600 50.65500 21.14700
H  28.92800 51.96300 22.31300
H  27.91800 51.82900 20.89700
H  25.14200 49.45100 21.28900
H  23.96200 50.54300 21.82800
H  24.60200 48.97900 24.10600
H  24.46100 47.95900 22.71900
H  23.12200 49.07900 23.13700
H  22.25500 53.52100 24.67000
H  22.11700 54.69100 26.01200
H  21.16700 53.18500 26.01700
H  23.18600 51.69300 30.96100
H  24.60700 54.26700 33.97900
H  23.05600 54.98700 33.88700
H  24.32500 55.62400 32.85600

