158

Mg 43.76400 3.77600 46.68100
C  41.50200 6.70500 46.48800
C  40.98700 1.78100 46.40100
C  45.80000 1.21400 46.14200
C  46.37700 6.01400 46.77100
N  41.52600 4.28800 46.36000
C  40.80500 5.48200 46.49200
C  39.31500 5.20100 46.61100
C  39.26100 3.63400 46.78300
C  40.70500 3.15400 46.51800
C  38.71900 3.00800 48.08100
C  38.38400 5.75200 45.43100
C  38.83700 5.25500 44.01300
H  39.17100 6.39500 42.96700
N  43.44000 1.71800 46.19900
C  42.23400 1.11200 46.14600
C  42.50600 -0.29800 45.99900
C  43.81600 -0.52400 45.72300
C  44.44300 0.82900 45.95500
C  41.37100 -1.38300 45.90000
C  44.47000 -1.85500 45.27000
O  43.81900 -2.89200 45.22100
C  45.91200 -1.93600 44.89400
N  45.84200 3.59600 46.25500
C  46.43000 2.39400 46.38700
C  47.97200 2.52200 46.70600
C  48.09100 4.12000 46.83400
C  46.71600 4.66600 46.60300
C  48.44200 1.77500 47.94400
C  49.16000 4.74400 46.08100
C  50.56100 4.99900 46.68500
N  43.96400 5.93700 46.47100
C  45.08100 6.65100 46.61700
C  44.78500 8.05500 46.56200
C  43.37100 8.15500 46.58500
C  42.91000 6.83000 46.44700
C  45.77800 9.15700 46.72300
C  42.21400 9.04900 46.60000
O  42.12100 10.30100 46.57300
C  40.91000 8.08900 46.64000
C  40.30900 8.31700 47.90200
O  40.65500 7.69400 48.91200
O  39.28300 9.23400 47.76700
C  38.51300 9.28900 49.04500
H  40.05900 1.20500 46.40100
H  46.56100 0.44800 45.98100
H  47.24800 6.65900 46.90800
H  39.03700 5.65600 47.56200
H  38.64200 3.29500 45.95200
H  38.22500 3.77700 48.67500
H  39.48700 2.53000 48.69100
H  37.96500 2.25900 47.84000
H  38.28200 6.83100 45.54500
H  37.37700 5.42200 45.68700
H  38.06600 4.57800 43.64400
H  39.70800 4.60500 44.09500
H  41.21500 -1.38900 44.82200
H  40.44100 -1.06400 46.37000
H  41.68200 -2.38400 46.20000
H  46.60600 -2.06200 45.72500
H  46.09500 -0.96100 44.44200
H  46.09500 -2.69900 44.13800
H  48.57000 2.25300 45.83500
H  48.38700 4.29900 47.86800
H  49.02300 0.90100 47.65100
H  47.56400 1.34000 48.42300
H  49.04300 2.33700 48.65900
H  48.70300 5.66600 45.72300
H  49.31900 4.14900 45.18100
H  50.78200 4.15800 47.34300
H  50.61300 5.88400 47.31900
H  51.36300 5.09900 45.95400
H  46.59500 9.04200 46.01000
H  46.27100 8.94200 47.67100
H  45.49000 10.19600 46.56100
H  40.40200 8.23900 45.68700
H  39.08300 9.23700 49.97200
H  37.69300 8.57400 49.11700
H  37.91800 10.19000 49.19300
Mg 16.76900 52.79300 26.66200
C  18.53800 51.41700 29.27800
C  14.31300 53.67000 28.81100
C  15.00700 53.92500 24.02300
C  19.11600 51.40100 24.42800
N  16.36800 52.36900 28.77900
C  17.29900 51.96600 29.71600
C  16.85200 52.26000 31.15600
C  15.29600 52.47900 30.94500
C  15.30400 52.81200 29.42300
C  14.37800 51.24200 31.28200
C  17.65500 53.47200 31.76700
C  17.66400 53.44300 33.27100
H  16.65000 52.52300 34.05100
N  14.93500 53.76200 26.44000
C  14.08300 54.08700 27.50800
C  12.97200 54.85300 26.95600
C  13.02100 54.74400 25.53600
C  14.34000 54.07000 25.26300
C  11.90300 55.33400 27.87100
C  11.99200 55.21600 24.58400
O  12.12600 54.97600 23.35300
C  10.77400 55.77400 25.13500
N  17.04300 52.67100 24.55000
C  16.23200 53.32200 23.68100
C  16.72500 53.06600 22.22400
C  18.15000 52.55000 22.39500
C  18.10700 52.13900 23.81800
C  15.70200 52.26700 21.38000
C  19.38200 53.50700 22.05900
C  20.48100 52.83000 21.18200
N  18.46500 51.63900 26.77900
C  19.32500 51.10900 25.80600
C  20.39000 50.47700 26.42200
C  20.16200 50.60900 27.78800
C  18.95600 51.25900 27.98200
C  21.53300 49.83600 25.70400
C  20.68600 50.23200 29.08100
O  21.73500 49.70400 29.43600
C  19.63300 50.78800 30.11900
C  19.17700 49.70200 31.07200
O  18.74700 48.59300 30.78400
O  19.38800 50.08600 32.39800
C  19.20700 49.00700 33.33800
H  13.41400 53.97900 29.34800
H  14.36800 54.36100 23.25200
H  19.95000 51.03500 23.82500
H  16.89500 51.34500 31.74600
H  15.06500 53.33100 31.58400
H  13.92500 50.99800 30.32100
H  13.68800 51.44100 32.10100
H  14.92900 50.32600 31.49400
H  17.24100 54.38600 31.34100
H  18.71100 53.46800 31.49600
H  17.43500 54.43600 33.65700
H  18.61400 53.21000 33.75300
H  12.41400 55.66500 28.77400
H  11.21800 54.55000 28.19400
H  11.30800 56.15400 27.46800
H  10.08300 55.90500 24.30300
H  10.97300 56.75400 25.56900
H  10.27900 55.15100 25.87900
H  16.80200 54.04400 21.74900
H  18.23900 51.68600 21.73600
H  16.20400 51.31900 21.18900
H  15.47400 52.77000 20.44000
H  14.78200 52.17700 21.95900
H  19.85300 53.92300 22.94900
H  19.01100 54.28800 21.39300
H  20.72300 53.42400 20.30100
H  20.15800 51.84600 20.84200
H  21.32900 52.76200 21.86400
H  21.07700 49.14800 24.99200
H  22.05500 49.26500 26.47200
H  22.05400 50.63100 25.17100
H  20.12900 51.53100 30.74300
H  18.22200 48.56300 33.19000
H  19.17200 49.35400 34.37100
H  20.04100 48.31000 33.26200

