158

Mg 40.57300 9.22500 29.77600
C  42.56800 10.56200 32.41600
C  38.23300 8.41100 32.15700
C  39.01100 7.42700 27.32600
C  43.20700 9.73800 27.55000
N  40.52400 9.39500 32.06100
C  41.38300 10.06600 32.86600
C  40.86400 10.03400 34.34200
C  39.49000 9.24600 34.24200
C  39.37700 9.01900 32.71500
C  39.35600 7.93400 34.95100
C  40.92300 11.47700 34.94700
C  40.08200 11.66300 36.31300
H  40.85400 12.12200 37.53600
N  38.79300 8.27300 29.71200
C  37.91300 8.03200 30.83200
C  36.65800 7.53100 30.28200
C  36.87200 7.23200 28.88600
C  38.32400 7.58500 28.56200
C  35.38700 7.29000 31.17000
C  35.82200 6.85200 27.82800
O  35.98600 6.80200 26.63500
C  34.45200 6.76300 28.25000
N  41.06400 8.55100 27.75300
C  40.29900 7.82600 26.93100
C  40.78300 7.87900 25.45600
C  41.90300 9.04100 25.52000
C  42.10500 9.08200 27.02100
C  41.24000 6.47700 24.87700
C  41.61500 10.39500 24.88100
C  42.84700 11.24300 24.42200
N  42.50200 10.00700 29.94000
C  43.41000 10.24400 28.90300
C  44.62500 10.88800 29.50900
C  44.29800 11.09900 30.86100
C  43.01100 10.49100 31.06700
C  45.78300 11.29100 28.66500
C  44.74000 11.70100 32.07000
O  45.81300 12.25600 32.32000
C  43.62800 11.24500 33.17600
C  44.33200 10.39100 34.16400
O  44.78500 9.29000 33.92600
O  44.37700 11.05700 35.32400
C  44.94900 10.46000 36.56100
H  37.51900 8.16900 32.94800
H  38.54700 6.82200 26.54400
H  43.98700 9.99900 26.83200
H  41.61000 9.43200 34.86200
H  38.60500 9.80700 34.54200
H  38.47900 8.09700 35.57700
H  40.25200 7.80500 35.55800
H  39.15200 7.00000 34.42700
H  40.36700 12.04400 34.20000
H  41.94100 11.76800 35.20300
H  39.68600 10.68300 36.58200
H  39.19600 12.27100 36.12700
H  34.36200 7.47200 30.84800
H  35.57400 7.97900 31.99300
H  35.51100 6.34100 31.69100
H  33.75700 6.54800 27.43800
H  34.20300 7.73400 28.67700
H  34.28300 6.04700 29.05500
H  39.91800 8.19700 24.87500
H  42.82700 8.64500 25.10000
H  42.23800 6.54400 24.44300
H  40.72300 6.04500 24.02100
H  41.19900 5.84100 25.76100
H  41.12500 11.05300 25.59900
H  41.01800 10.34700 23.97000
H  43.74700 10.62900 24.44500
H  42.89200 12.07200 25.12700
H  42.79700 11.75700 23.46200
H  46.38400 10.41600 28.41800
H  46.37300 11.98900 29.25900
H  45.49700 11.86400 27.78300
H  43.30700 12.17500 33.64600
H  45.87100 10.91400 36.92500
H  44.97300 9.37600 36.67200
H  44.27700 10.82400 37.33800
Mg 26.70600 50.15100 26.42300
C  24.44900 51.35300 28.91600
C  28.74600 49.23900 29.03000
C  28.88500 49.10200 24.09300
C  24.81900 51.81100 23.96900
N  26.53500 50.23600 28.73600
C  25.41900 50.57000 29.49100
C  25.76700 50.42700 31.03200
C  27.21600 49.76100 31.03400
C  27.58000 49.79400 29.48500
C  28.25400 50.43200 31.99600
C  24.69200 49.59000 31.87800
C  24.21800 50.26700 33.17000
H  23.82000 49.38800 34.34900
N  28.52100 49.24000 26.59200
C  29.21000 48.94500 27.77100
C  30.47400 48.31200 27.45600
C  30.57200 48.25900 25.98000
C  29.25400 48.86200 25.47900
C  31.52400 47.98200 28.43900
C  31.63900 47.88100 25.07600
O  31.53200 48.19800 23.88900
C  32.87900 47.18400 25.68900
N  26.80200 50.38000 24.36000
C  27.78600 49.81200 23.63800
C  27.64400 50.05500 22.12100
C  26.26300 50.88500 22.07900
C  25.93400 50.97200 23.57300
C  28.80700 50.84600 21.51100
C  25.12400 50.11700 21.36600
C  24.27400 50.91000 20.28700
N  25.06300 51.38200 26.42000
C  24.36000 51.95200 25.33400
C  23.15700 52.63500 25.80900
C  23.10800 52.35700 27.22900
C  24.27600 51.64300 27.50000
C  22.00100 53.19200 24.97300
C  22.32100 52.48300 28.39300
O  21.19100 52.93000 28.50500
C  23.14300 51.88400 29.56400
C  23.47700 52.85100 30.65500
O  24.40800 53.66300 30.48900
O  22.55700 52.88900 31.69000
C  22.72200 53.98200 32.70200
H  29.38700 48.87200 29.83400
H  29.50300 48.75600 23.26200
H  24.21800 52.11400 23.10800
H  25.77900 51.45600 31.39000
H  27.13800 48.70700 31.30100
H  28.36400 49.75900 32.84700
H  27.85400 51.39200 32.32300
H  29.18800 50.55100 31.44600
H  25.21700 48.65800 32.08500
H  23.87200 49.51100 31.16400
H  23.44300 51.03200 33.11100
H  24.97000 50.92800 33.60100
H  32.27800 48.74300 28.23900
H  31.74700 46.93400 28.23900
H  31.26100 48.02400 29.49600
H  33.71700 47.13500 24.99400
H  32.67200 46.25300 26.21800
H  33.27000 47.84700 26.46000
H  27.60400 49.07900 21.63700
H  26.29900 51.86400 21.60200
H  28.49700 51.73700 20.96300
H  29.45900 50.29400 20.83400
H  29.38900 51.17400 22.37200
H  24.47700 49.70600 22.14000
H  25.65900 49.29100 20.89800
H  24.19600 50.12500 19.53500
H  24.65400 51.74700 19.70100
H  23.28300 51.19800 20.63800
H  21.18300 53.52300 25.61200
H  21.46500 52.50800 24.31500
H  22.33300 53.99700 24.31700
H  22.47000 51.11500 29.94400
H  21.89900 54.68200 32.55900
H  23.59600 54.60000 32.49900
H  22.66300 53.51800 33.68700

