158

Mg 40.49900 9.21800 30.25900
C  42.62600 10.32800 32.81800
C  38.27000 8.34100 32.64500
C  38.65900 8.00900 27.80600
C  43.22000 9.62800 28.02400
N  40.46600 9.34700 32.44200
C  41.36200 9.91900 33.25500
C  40.84700 9.91500 34.70000
C  39.62800 9.09900 34.63200
C  39.44200 8.90500 33.11800
C  39.65700 7.73900 35.47100
C  40.59300 11.32900 35.29300
C  40.14800 11.33500 36.72400
H  40.86000 12.21800 37.77400
N  38.66500 8.39200 30.21700
C  37.82200 8.13700 31.29000
C  36.56400 7.57500 30.80200
C  36.70300 7.51000 29.39900
C  38.00400 8.05000 29.07000
C  35.49800 7.08600 31.72600
C  35.65100 7.08100 28.41400
O  35.61000 7.25300 27.24700
C  34.48200 6.34900 28.96100
N  40.82900 8.99800 28.21900
C  39.90200 8.39000 27.40700
C  40.33300 8.28200 25.89900
C  41.78000 9.02300 25.98500
C  41.98300 9.16800 27.50300
C  40.54600 6.77100 25.55900
C  41.77600 10.42300 25.35100
C  43.10500 11.03700 24.91400
N  42.50600 9.79000 30.33000
C  43.48000 9.93800 29.35900
C  44.75200 10.37100 29.95100
C  44.46900 10.59300 31.27900
C  43.07500 10.29600 31.42500
C  45.98100 10.56800 29.11700
C  44.97000 11.03300 32.48600
O  46.07300 11.43100 32.77000
C  43.75900 11.02700 33.57100
C  44.30700 10.27800 34.73000
O  44.87800 9.23500 34.56200
O  44.00000 10.82600 35.90600
C  44.22300 10.14400 37.12000
H  37.48000 8.09600 33.35800
H  37.98800 7.52900 27.09100
H  44.11300 9.59600 27.39700
H  41.62500 9.39000 35.25400
H  38.74500 9.57200 35.06100
H  40.63400 7.40000 35.81600
H  39.30500 6.99600 34.75600
H  39.01200 7.85300 36.34200
H  39.88500 11.75700 34.58300
H  41.45300 11.98100 35.13900
H  40.24200 10.32100 37.11400
H  39.09800 11.62600 36.69000
H  35.63100 7.30000 32.78600
H  35.28700 6.02800 31.57100
H  34.58300 7.60400 31.43700
H  33.91200 7.06800 29.54900
H  34.88300 5.53200 29.56200
H  33.87700 5.89100 28.17800
H  39.53100 8.65500 25.26100
H  42.60600 8.38800 25.66400
H  40.92400 6.21200 26.41600
H  41.16600 6.59500 24.68000
H  39.53700 6.42300 25.34100
H  41.26700 11.16900 25.96100
H  41.12200 10.43900 24.47900
H  43.94600 10.35100 25.02500
H  43.27400 11.96500 25.45900
H  43.17600 11.24100 23.84600
H  45.87800 11.52900 28.61400
H  46.12500 9.77700 28.38100
H  46.87400 10.55900 29.74000
H  43.55000 12.04400 33.90300
H  43.33600 10.22400 37.74900
H  45.06400 10.57500 37.66300
H  44.48400 9.08600 37.08200
Mg -4.99200 25.89300 25.67100
C  -3.82400 27.41200 28.66400
C  -6.76700 23.70000 27.62100
C  -5.75200 24.31100 22.88400
C  -2.60700 27.93800 23.90700
N  -5.23500 25.66400 27.90200
C  -4.74300 26.39400 28.97300
C  -5.29400 25.88800 30.31000
C  -6.07800 24.59600 29.90200
C  -5.96100 24.56500 28.36000
C  -5.64000 23.31700 30.59400
C  -6.22700 26.96600 31.05900
C  -5.86300 27.34500 32.57400
H  -5.35300 26.13300 33.41100
N  -6.08100 24.27800 25.31400
C  -6.81900 23.53600 26.24100
C  -7.63400 22.63000 25.49800
C  -7.45700 22.76200 24.09500
C  -6.40800 23.86600 24.00700
C  -8.58200 21.61900 26.17900
C  -8.16700 22.11100 22.92800
O  -7.79000 22.22400 21.74800
C  -9.52600 21.40000 23.14100
N  -4.20900 26.12200 23.68100
C  -4.72700 25.32600 22.70100
C  -4.01700 25.65700 21.33200
C  -3.27900 27.02000 21.62400
C  -3.37900 27.04800 23.14300
C  -3.13800 24.50300 20.84000
C  -3.94700 28.19500 20.90400
C  -2.97400 28.82500 19.89000
N  -3.54300 27.43300 26.16300
C  -2.69200 28.13000 25.36400
C  -1.89100 29.03300 26.14800
C  -2.35000 28.81800 27.42600
C  -3.35700 27.80200 27.40300
C  -0.83900 30.13400 25.70400
C  -2.15800 29.24300 28.75600
O  -1.44900 30.05500 29.24200
C  -3.12200 28.36900 29.59800
C  -2.29600 27.64200 30.56800
O  -1.49900 26.77400 30.36300
O  -2.60500 28.09300 31.91000
C  -1.62800 27.61300 32.87600
H  -7.29600 23.02400 28.29600
H  -5.98400 23.88600 21.90600
H  -1.89600 28.65100 23.48400
H  -4.40900 25.65200 30.90100
H  -7.12900 24.73600 30.15300
H  -6.49400 22.84600 31.08200
H  -4.85300 23.54300 31.31400
H  -5.21500 22.69200 29.80900
H  -7.24600 26.58000 31.09300
H  -6.29200 27.90000 30.50100
H  -6.83600 27.71400 32.89800
H  -5.13400 28.13900 32.41100
H  -9.55800 22.10400 26.20700
H  -8.24500 21.30300 27.16600
H  -8.66300 20.68100 25.63000
H  -9.28300 20.35200 23.31500
H  -9.99100 21.46700 22.15700
H  -10.16900 21.94400 23.83300
H  -4.78200 25.75800 20.56300
H  -2.24200 26.88000 21.31700
H  -2.09700 24.81800 20.90400
H  -3.47700 24.22400 19.84200
H  -3.27500 23.71800 21.58400
H  -4.26100 28.89900 21.67500
H  -4.81800 27.85400 20.34400
H  -3.31000 28.48200 18.91100
H  -1.92100 28.55400 19.96000
H  -3.00300 29.91100 19.98200
H  -0.19700 30.51500 26.49800
H  -1.31900 30.94000 25.14900
H  -0.15700 29.67400 24.99000
H  -3.83400 28.98000 30.15200
H  -2.02200 26.68700 33.29500
H  -1.65800 28.29800 33.72300
H  -0.57600 27.49700 32.61400

