158

Mg 17.53600 51.21500 25.80600
C  19.35700 50.06000 28.62900
C  15.17300 52.41300 28.10700
C  15.47600 51.97900 23.25700
C  19.73700 49.51700 23.75000
N  17.22500 51.13300 28.10400
C  18.11700 50.67300 29.03300
C  17.62800 50.95200 30.47200
C  16.21200 51.55500 30.24400
C  16.20300 51.69900 28.72400
C  14.95900 50.66400 30.74900
C  18.57100 51.91000 31.15400
C  18.31500 52.22400 32.65000
H  17.27200 51.49500 33.39500
N  15.64500 52.13900 25.70300
C  14.87100 52.59100 26.73100
C  13.63500 53.20100 26.13100
C  13.75900 53.16400 24.69200
C  14.99300 52.40200 24.45900
C  12.51000 53.76100 26.87500
C  12.89400 53.74200 23.59800
O  13.23200 53.74400 22.45700
C  11.62500 54.41200 24.02400
N  17.58200 50.75800 23.85100
C  16.63900 51.22600 22.97500
C  16.99700 50.77600 21.54400
C  18.36700 50.07100 21.66200
C  18.54400 50.08800 23.14700
C  15.89300 49.94300 20.84100
C  19.61200 50.68900 20.85200
C  20.51100 49.61700 20.26300
N  19.27300 50.07700 26.08400
C  20.12100 49.50400 25.12800
C  21.23100 48.81800 25.81000
C  20.95600 49.08100 27.18900
C  19.73400 49.75000 27.29700
C  22.33200 48.16000 25.06100
C  21.45400 48.67700 28.53200
O  22.45600 48.10400 28.90000
C  20.41700 49.41000 29.46400
C  19.82900 48.31600 30.36200
O  19.22800 47.27900 30.00700
O  20.07600 48.67100 31.66200
C  19.66900 47.77600 32.77800
H  14.40500 52.94900 28.66900
H  14.88700 52.31200 22.40000
H  20.41900 49.07500 23.02100
H  17.52100 50.07700 31.11300
H  16.07100 52.50000 30.76800
H  14.64700 50.11700 29.86000
H  14.19100 51.30200 31.18700
H  15.22100 49.91100 31.49200
H  18.54900 52.77700 30.49400
H  19.58600 51.54000 31.00900
H  18.22300 53.30900 32.60800
H  19.20400 52.07600 33.26400
H  12.63300 53.94000 27.94400
H  11.65700 53.18000 26.52500
H  12.34100 54.76000 26.47300
H  11.91900 55.29700 24.58700
H  10.90800 53.79200 24.56200
H  11.23000 54.75000 23.06600
H  17.04700 51.72700 21.01300
H  18.12700 49.05000 21.36700
H  15.28300 49.61200 21.68200
H  16.35100 49.08900 20.34300
H  15.32200 50.57800 20.16300
H  20.09900 51.29400 21.61600
H  19.19200 51.34600 20.09100
H  19.82000 48.80500 20.04000
H  21.29600 49.22200 20.90800
H  20.95800 50.04300 19.36500
H  23.04800 47.78000 25.79000
H  22.78600 48.93600 24.44400
H  22.08300 47.31500 24.41900
H  20.83200 50.10100 30.19800
H  18.63700 47.98400 33.05800
H  20.26200 47.95600 33.67500
H  19.75900 46.73700 32.46000
Mg -2.45600 34.31300 26.53100
C  -3.97400 32.45000 29.13500
C  -1.05800 36.24700 29.00000
C  -1.16200 36.16800 24.22200
C  -4.14800 32.33200 24.18700
N  -2.67300 34.39200 28.89700
C  -3.12700 33.43800 29.70200
C  -2.93900 33.81100 31.16400
C  -2.13600 35.14800 31.04200
C  -1.91800 35.29600 29.53200
C  -2.90600 36.39400 31.66600
C  -2.22400 32.76800 32.03100
C  -2.92400 32.36700 33.33300
H  -2.25200 32.36100 34.69100
N  -1.19700 36.00100 26.55300
C  -0.82000 36.69600 27.65500
C  -0.09300 37.83500 27.24200
C  -0.15700 37.94900 25.87900
C  -0.82800 36.70600 25.46200
C  0.64000 38.73500 28.25700
C  0.27900 39.09700 24.93700
O  -0.05300 39.07900 23.75100
C  1.03400 40.26300 25.34100
N  -2.62200 34.21800 24.42700
C  -1.96600 35.05700 23.67800
C  -2.21200 34.77000 22.18100
C  -2.95700 33.42000 22.20900
C  -3.22000 33.26100 23.69200
C  -2.98000 35.88600 21.42000
C  -2.28100 32.30000 21.49400
C  -1.53400 31.30300 22.42500
N  -3.75300 32.74800 26.59000
C  -4.34000 32.04400 25.54300
C  -5.20200 31.06800 26.13500
C  -5.11300 31.14300 27.50600
C  -4.21500 32.23200 27.73300
C  -6.17600 30.23800 25.29600
C  -5.58700 30.62300 28.79500
O  -6.39700 29.73600 29.05200
C  -4.80600 31.45900 29.91700
C  -5.83200 32.13500 30.87500
O  -6.43300 33.18500 30.65100
O  -5.91500 31.46800 32.01200
C  -6.98000 31.87900 32.99800
H  -0.46100 36.74100 29.77000
H  -0.62900 36.69700 23.42900
H  -4.54100 31.65200 23.42900
H  -3.92600 34.08600 31.53600
H  -1.20700 35.18300 31.61100
H  -3.73300 36.65500 31.00600
H  -2.15000 37.15800 31.85000
H  -3.34200 36.20000 32.64600
H  -1.31000 33.18000 32.45700
H  -2.14800 31.84700 31.45200
H  -3.15800 31.31100 33.19800
H  -3.86600 32.89900 33.46600
H  1.37800 39.42800 27.85100
H  1.14700 38.13700 29.01500
H  -0.18300 39.40500 28.50900
H  0.52200 40.95400 26.01100
H  1.32600 40.83800 24.46200
H  1.97000 39.86300 25.73200
H  -1.22300 34.55400 21.77700
H  -3.99300 33.53200 21.88800
H  -3.98600 35.56900 21.14400
H  -2.38600 36.11500 20.53600
H  -3.04500 36.78500 22.03200
H  -1.53300 32.59800 20.76000
H  -3.11700 31.70000 21.13300
H  -2.26100 30.62300 22.87000
H  -0.96800 31.77400 23.22800
H  -0.90800 30.67700 21.78800
H  -5.67700 29.75100 24.45900
H  -6.96500 30.85700 24.86900
H  -6.63000 29.47700 25.93000
H  -4.30600 30.78700 30.61500
H  -6.44100 32.39300 33.79400
H  -7.37300 30.99700 33.50400
H  -7.84100 32.40100 32.58100

