158

Mg 0.80900 8.04200 25.34100
C  1.47500 9.77700 28.20000
C  1.32600 5.03900 27.00300
C  0.46100 6.25700 22.41300
C  1.03300 10.96700 23.46600
N  1.53600 7.52600 27.27300
C  1.44900 8.40800 28.33000
C  1.42900 7.74700 29.69200
C  1.72400 6.30600 29.32100
C  1.57200 6.23800 27.74000
C  3.04600 5.78200 30.02600
C  0.06400 7.99000 30.50400
C  0.26400 8.15600 31.98800
H  1.33300 7.40800 32.66300
N  0.85800 5.96200 24.77100
C  1.03200 4.90800 25.62600
C  0.96500 3.72800 24.81700
C  0.57400 4.01200 23.50400
C  0.53600 5.46200 23.51600
C  1.27100 2.40800 25.37300
C  0.14800 3.10000 22.34700
O  -0.20500 3.47300 21.21200
C  0.07300 1.63400 22.55700
N  0.81500 8.56200 23.21200
C  0.67600 7.66100 22.22500
C  0.67100 8.36400 20.84400
C  0.69900 9.86800 21.09400
C  0.75500 9.85200 22.66200
C  1.83500 7.84300 19.98800
C  -0.39700 10.76800 20.47900
C  -1.85000 10.43700 21.15300
N  1.18200 9.91200 25.68700
C  1.22400 10.99400 24.85000
C  1.49400 12.19400 25.62200
C  1.61000 11.77100 26.95500
C  1.45400 10.33800 26.91300
C  1.59400 13.66300 25.29700
C  1.88000 12.16300 28.29700
O  2.23100 13.26200 28.73100
C  1.61400 10.89300 29.22900
C  2.82100 10.72700 30.11100
O  3.91200 10.37600 29.73000
O  2.44100 11.11400 31.35800
C  3.39600 11.09100 32.49900
H  1.66800 4.17500 27.57600
H  0.31000 5.75900 21.45300
H  0.96200 11.95000 22.99700
H  2.24500 8.17300 30.27600
H  0.91100 5.72100 29.75100
H  3.80200 6.42600 30.47500
H  3.51300 5.08300 29.33200
H  2.77300 5.17300 30.88800
H  -0.62700 7.18800 30.24500
H  -0.30400 8.95800 30.16300
H  -0.73300 8.03300 32.41000
H  0.42800 9.23400 32.00300
H  0.38200 1.81700 25.14900
H  1.35200 2.49000 26.45600
H  2.13900 2.05800 24.81500
H  1.00000 1.36200 23.06100
H  0.22000 1.13600 21.59900
H  -0.76900 1.37700 23.19800
H  -0.24400 8.06600 20.33200
H  1.63600 10.32700 20.77700
H  2.47600 8.68400 19.72500
H  1.44100 7.53500 19.02000
H  2.39900 7.06200 20.49800
H  -0.39500 10.69300 19.39200
H  -0.13000 11.80100 20.70100
H  -2.33800 9.98600 20.29000
H  -2.35800 11.37700 21.36800
H  -1.75900 9.71100 21.96100
H  1.63200 13.77700 24.21400
H  2.46800 14.16000 25.71700
H  0.75800 14.23800 25.69700
H  0.70300 11.05100 29.80600
H  4.18900 10.39100 32.23200
H  2.95700 10.78000 33.44700
H  3.84300 12.05700 32.73400
Mg -10.48500 40.91500 42.61000
C  -9.71400 37.62900 41.81300
C  -7.58700 41.92000 41.06000
C  -11.50600 43.99400 43.15100
C  -13.86000 39.69700 43.39200
N  -8.84800 39.83600 41.45900
C  -8.71500 38.54500 41.37000
C  -7.60900 38.14400 40.45500
C  -6.75700 39.50400 40.35700
C  -7.78100 40.53600 40.95000
C  -5.32600 39.60500 41.00400
C  -7.99800 37.57900 39.09100
C  -7.42400 36.21800 38.63900
H  -6.29700 36.16800 37.54600
N  -9.57800 42.69000 42.21500
C  -8.34900 42.91000 41.66600
C  -8.22300 44.38300 41.63200
C  -9.32700 45.00600 42.20100
C  -10.17500 43.91000 42.55200
C  -6.94800 45.00200 41.25600
C  -9.43200 46.54600 42.37800
O  -8.66800 47.28600 41.72500
C  -10.56900 47.18900 43.24500
N  -12.45700 41.66300 43.15400
C  -12.50500 43.02200 43.43900
C  -13.88900 43.41100 43.82800
C  -14.73300 42.09000 43.71400
C  -13.66200 41.06600 43.37300
C  -13.88500 44.17400 45.15400
C  -15.99600 42.11800 42.81500
C  -16.75600 43.43800 42.71100
N  -11.56500 39.07300 42.75100
C  -12.88800 38.77700 43.10800
C  -13.01200 37.36500 43.04400
C  -11.76700 36.90700 42.63900
C  -10.93700 37.96100 42.43900
C  -14.16400 36.55200 43.35800
C  -11.04800 35.65900 42.26300
O  -11.39000 34.46900 42.29600
C  -9.68000 36.13800 41.71600
C  -8.54100 35.40500 42.37800
O  -7.82000 35.82200 43.24500
O  -8.42600 34.19800 41.80400
C  -7.48700 33.17600 42.32200
H  -6.62000 42.33600 40.76700
H  -11.92800 44.99500 43.26400
H  -14.81500 39.30100 43.74300
H  -6.92300 37.42800 40.90700
H  -6.76400 39.71200 39.28700
H  -5.44200 40.43300 41.70400
H  -4.62200 39.93400 40.23900
H  -4.93100 38.68500 41.43400
H  -7.69500 38.17700 38.23100
H  -9.07700 37.44600 39.01400
H  -8.26900 35.67000 38.22300
H  -7.04100 35.66500 39.49600
H  -6.81600 45.39100 40.24700
H  -6.12700 44.29000 41.17500
H  -6.65600 45.76500 41.97800
H  -10.17100 48.11400 43.66100
H  -10.81500 46.50700 44.05900
H  -11.43800 47.40200 42.62300
H  -14.23100 44.21400 43.17400
H  -15.10500 41.82000 44.70300
H  -14.13100 45.22800 45.02700
H  -12.98000 44.18200 45.76200
H  -14.62200 43.74300 45.83200
H  -16.57900 41.27900 43.19500
H  -15.62600 41.84200 41.82800
H  -17.82100 43.21400 42.76800
H  -16.56000 43.88900 41.73900
H  -16.46300 44.18500 43.44800
H  -15.04400 37.19300 43.29100
H  -13.93000 36.19000 44.35900
H  -14.11500 35.71600 42.66000
H  -9.57400 35.81600 40.68000
H  -6.96600 32.73200 41.47400
H  -8.06100 32.37600 42.78800
H  -6.89500 33.62700 43.11800

