158

Mg 24.84300 -6.28700 45.39500
C  27.07900 -3.92900 43.70000
C  22.36700 -5.13600 43.32100
C  23.09900 -8.97400 46.28000
C  27.78500 -7.70700 46.78800
N  24.76000 -4.75900 43.60200
C  25.80000 -3.88600 43.20800
C  25.34500 -3.05400 42.04000
C  23.74300 -3.26400 42.14100
C  23.57700 -4.45900 43.06600
C  23.05200 -1.99400 42.67800
C  25.95400 -3.58900 40.60400
C  26.48900 -2.58500 39.60300
H  26.02200 -2.76200 38.14200
N  22.98100 -6.88700 44.92700
C  22.10000 -6.29200 44.03900
C  20.79400 -6.92100 44.12200
C  20.93600 -7.97800 45.12100
C  22.41600 -7.98300 45.48000
C  19.61900 -6.45300 43.24000
C  19.82500 -8.80500 45.54100
O  18.65600 -8.72600 45.11900
C  20.12700 -9.88700 46.45000
N  25.24800 -7.98000 46.52300
C  24.38800 -8.97900 46.76900
C  25.03500 -10.27500 47.32500
C  26.38000 -9.68500 47.82000
C  26.49900 -8.39100 46.90700
C  24.23500 -11.11100 48.32700
C  27.56700 -10.68200 47.56100
C  28.82200 -10.49800 48.39400
N  26.92500 -5.91800 45.38300
C  27.97300 -6.54500 46.07000
C  29.19900 -5.92100 45.79600
C  28.84500 -4.81600 44.92600
C  27.44300 -4.88800 44.66500
C  30.56500 -6.32600 46.34300
C  29.41500 -3.60800 44.32300
O  30.51400 -3.12300 44.46100
C  28.30200 -3.09100 43.33200
C  28.17500 -1.61000 43.60300
O  27.55600 -1.11800 44.49400
O  28.82600 -0.93000 42.60800
C  28.85500 0.55900 42.67900
H  21.46000 -4.72800 42.87100
H  22.59800 -9.92600 46.46800
H  28.65700 -8.29700 47.07800
H  25.64700 -2.03900 42.29900
H  23.36000 -3.51200 41.15100
H  23.80000 -1.20500 42.60800
H  22.61900 -2.07500 43.67400
H  22.24000 -1.68600 42.01900
H  25.21300 -4.18600 40.07200
H  26.68000 -4.33300 40.93100
H  27.57800 -2.58400 39.64400
H  26.11800 -1.61200 39.92600
H  18.75100 -7.11200 43.23600
H  19.98800 -6.41700 42.21500
H  19.19600 -5.47200 43.46100
H  19.26400 -10.36400 46.91400
H  20.71900 -9.50700 47.28200
H  20.54300 -10.74800 45.92500
H  25.12600 -10.93200 46.46000
H  26.27000 -9.41300 48.87000
H  24.67900 -11.13600 49.32200
H  24.09800 -12.10200 47.89300
H  23.24100 -10.69200 48.47900
H  27.95500 -10.42900 46.57400
H  27.14600 -11.68700 47.61000
H  29.17600 -11.38900 48.91200
H  28.64000 -9.74100 49.15700
H  29.66200 -10.08400 47.83600
H  30.81400 -7.35700 46.09500
H  30.52600 -6.20300 47.42600
H  31.28500 -5.58000 46.00700
H  28.61400 -3.06000 42.28800
H  29.85800 0.87600 42.96300
H  28.16400 0.92700 43.43800
H  28.69000 1.06300 41.72700
Mg 17.23900 52.51900 25.38400
C  18.88200 51.17800 28.14600
C  14.78800 53.67500 27.44400
C  15.84600 53.78400 22.59800
C  19.70800 50.95100 23.33100
N  16.87600 52.38900 27.65000
C  17.70700 51.82100 28.54300
C  17.15700 52.26100 29.94700
C  15.69400 52.71500 29.61800
C  15.82100 53.03100 28.15600
C  14.56800 51.64900 29.96100
C  18.14900 53.28700 30.67900
C  17.91800 53.48400 32.18600
H  16.72300 52.78900 32.87500
N  15.62000 53.53200 25.04900
C  14.64100 53.88500 26.02500
C  13.46300 54.46000 25.32300
C  13.79700 54.49300 23.86700
C  15.15900 53.92900 23.79800
C  12.36300 55.09600 26.13300
C  13.01100 55.04200 22.72000
O  13.36000 55.17200 21.52900
C  11.63900 55.52600 23.10800
N  17.74300 52.47400 23.28900
C  17.01800 53.11400 22.35000
C  17.66400 52.94500 20.96400
C  18.92600 52.11800 21.25700
C  18.81600 51.81800 22.76000
C  16.73000 52.15500 20.02600
C  20.25400 52.85300 20.84800
C  21.15600 52.23100 19.75100
N  18.82900 51.17500 25.60900
C  19.75800 50.62700 24.71400
C  20.78700 49.79700 25.42600
C  20.46500 50.00400 26.75400
C  19.34500 50.86700 26.86900
C  21.94100 48.97100 24.87600
C  20.89400 49.83400 28.10500
O  21.83400 49.21300 28.57100
C  19.89300 50.57800 29.09700
C  19.44500 49.47100 30.01200
O  18.80600 48.45700 29.67000
O  19.84600 49.87700 31.26200
C  19.45600 49.12200 32.49300
H  13.89700 54.02100 27.97100
H  15.41800 54.08200 21.63900
H  20.42400 50.51400 22.63200
H  16.91300 51.37100 30.52700
H  15.50000 53.71300 30.01200
H  15.06900 50.68400 30.04600
H  13.81000 51.68400 29.17800
H  14.05700 51.91700 30.88600
H  17.91000 54.22600 30.18000
H  19.12900 53.02000 30.28500
H  17.80900 54.56300 32.29500
H  18.89500 53.20200 32.57900
H  11.53000 54.41800 26.31600
H  12.09600 56.02900 25.63500
H  12.70300 55.56800 27.05400
H  11.05600 55.60400 22.18900
H  11.74800 56.55000 23.46500
H  11.02300 54.90700 23.76000
H  18.00200 53.90800 20.58100
H  18.91600 51.19200 20.68200
H  16.52500 52.67600 19.09100
H  15.75900 52.01500 20.50100
H  17.09800 51.15200 19.81300
H  20.84300 52.83800 21.76500
H  20.10100 53.89600 20.57200
H  21.80000 51.43400 20.11900
H  21.73000 52.98200 19.20800
H  20.49000 51.83200 18.98600
H  22.90300 49.47100 24.99100
H  21.83700 48.97100 23.79100
H  21.92200 47.93000 25.19800
H  20.40200 51.37200 29.64300
H  18.85900 48.23700 32.27500
H  18.73400 49.75400 33.01000
H  20.22900 48.88500 33.22300

