158

Mg 8.48300 48.10300 26.29300
C  6.15200 48.15700 28.96300
C  10.93800 48.66200 28.60500
C  10.71100 48.38300 23.78100
C  5.84000 47.59500 24.05300
N  8.53500 48.20600 28.58800
C  7.43800 48.16000 29.44500
C  7.94500 48.13100 30.86000
C  9.44300 48.66600 30.71500
C  9.72600 48.49000 29.21800
C  9.62800 50.10800 31.19800
C  7.84000 46.71700 31.62000
C  7.34000 46.90400 33.03200
H  8.02700 46.28800 34.31400
N  10.55700 48.45600 26.16500
C  11.39100 48.77100 27.25800
C  12.68900 49.15800 26.77100
C  12.66700 48.91700 25.38400
C  11.28200 48.53600 25.03200
C  13.77500 49.54800 27.73000
C  13.77300 48.94500 24.33700
O  13.61400 48.65800 23.12500
C  15.18700 49.18200 24.81700
N  8.33200 48.05000 24.19700
C  9.42100 48.13500 23.31200
C  9.01200 47.71800 21.86600
C  7.43400 47.48100 22.02000
C  7.17600 47.67400 23.52600
C  9.44900 48.70200 20.75500
C  6.96300 46.12300 21.46300
C  5.66900 46.12100 20.66300
N  6.46000 48.00600 26.35700
C  5.51500 47.82400 25.35000
C  4.22400 47.84000 25.89300
C  4.36900 47.96100 27.31000
C  5.78600 48.00800 27.56700
C  2.89800 47.65300 25.28100
C  3.63300 47.99500 28.62800
O  2.44700 47.85900 28.89300
C  4.80000 48.46900 29.67200
C  4.46900 47.84700 30.94500
O  4.55800 46.64900 31.18800
O  4.17600 48.69300 31.89700
C  3.77700 48.26300 33.20800
H  11.71200 48.90100 29.33800
H  11.38400 48.32700 22.92300
H  5.07600 47.20000 23.38100
H  7.48100 48.91300 31.46100
H  10.16200 48.16600 31.36400
H  8.72700 50.55500 31.61800
H  9.99500 50.76000 30.40500
H  10.37400 50.15300 31.99200
H  8.84200 46.28900 31.65600
H  7.11600 46.14400 31.04000
H  6.37400 46.40600 32.94300
H  7.27000 47.95300 33.32000
H  13.68700 48.81100 28.52800
H  13.47300 50.55900 28.00200
H  14.78400 49.49200 27.32100
H  15.42900 48.31200 25.42800
H  15.21400 50.16600 25.28400
H  15.92200 49.28100 24.01700
H  9.41100 46.72400 21.66400
H  6.86200 48.24200 21.49000
H  10.33100 49.29400 20.99900
H  8.63600 49.41300 20.60600
H  9.68400 48.21300 19.81000
H  6.69900 45.50800 22.32400
H  7.77800 45.74400 20.84700
H  5.29600 45.17000 20.28200
H  5.84300 46.79300 19.82300
H  4.86600 46.52200 21.28200
H  2.55200 48.66000 25.05000
H  2.19100 47.12700 25.92300
H  3.02400 47.23600 24.28200
H  4.83700 49.55800 29.69100
H  3.24300 49.14900 33.55000
H  4.69900 48.19700 33.78500
H  3.18600 47.35000 33.28700
Mg -10.63100 17.07500 40.28800
C  -7.16700 16.50900 40.66300
C  -9.97100 20.52800 40.06400
C  -13.94600 17.58500 39.34400
C  -11.03900 13.72500 39.33200
N  -8.78600 18.32000 40.33100
C  -7.46000 17.85600 40.37700
C  -6.51800 18.99200 40.12500
C  -7.35200 20.28600 40.32300
C  -8.80600 19.70300 40.27100
C  -7.11200 21.18500 41.63800
C  -5.83800 18.99200 38.72200
C  -4.30400 18.90800 38.76900
H  -3.69600 18.01700 37.74900
N  -11.82200 18.80400 39.82800
C  -11.32700 20.09200 39.81400
C  -12.40100 20.95800 39.54700
C  -13.63700 20.19500 39.43200
C  -13.21400 18.79800 39.54200
C  -12.28900 22.48400 39.42600
C  -15.13700 20.80100 39.33200
O  -15.24000 22.00100 39.30800
C  -16.28100 19.89400 39.31800
N  -12.22800 15.87800 39.39700
C  -13.52300 16.24400 39.32700
C  -14.48700 15.10500 39.04900
C  -13.50900 13.88900 38.85600
C  -12.15900 14.54300 39.15300
C  -15.50100 14.96200 40.28200
C  -13.66800 13.37000 37.44800
C  -13.35900 14.50500 36.45100
N  -9.44200 15.38600 40.36400
C  -9.70700 14.09000 39.82400
C  -8.59100 13.24400 40.04500
C  -7.57600 14.12000 40.43400
C  -8.10100 15.47800 40.48500
C  -8.40300 11.73400 39.62400
C  -6.15200 14.28100 40.79300
O  -5.31500 13.43100 40.98000
C  -5.85600 15.82000 40.88800
C  -5.17100 16.19500 42.09500
O  -4.11700 16.78600 42.03200
O  -5.77900 15.75500 43.27100
C  -5.02300 16.03500 44.48700
H  -9.63800 21.56500 40.14500
H  -15.00100 17.56900 39.06300
H  -11.15100 12.66500 39.09500
H  -5.69600 19.01300 40.84000
H  -7.21800 21.06500 39.57300
H  -6.10100 21.33200 42.01800
H  -7.72000 20.78600 42.45100
H  -7.59200 22.12200 41.35700
H  -6.06300 19.98100 38.32200
H  -6.26100 18.37600 37.92800
H  -3.81100 18.65400 39.70700
H  -3.83800 19.83500 38.43600
H  -12.69100 22.66300 38.42800
H  -11.29700 22.92800 39.51000
H  -12.87800 23.00400 40.18100
H  -17.19600 20.46900 39.45500
H  -16.27000 19.43000 40.30400
H  -16.37000 19.05400 38.62800
H  -15.10900 15.22800 38.16200
H  -13.71500 13.08500 39.56300
H  -14.95100 15.08200 41.21500
H  -15.96800 13.97800 40.25500
H  -16.31000 15.68400 40.39400
H  -14.61100 12.82800 37.38200
H  -12.84200 12.66400 37.35100
H  -14.13200 14.67800 35.70300
H  -12.43500 14.23200 35.94000
H  -13.03700 15.44800 36.89400
H  -8.13000 11.70800 38.56900
H  -9.32300 11.16300 39.75300
H  -7.71700 11.24200 40.31400
H  -5.20700 16.13300 40.07100
H  -5.12100 17.12100 44.50400
H  -3.98100 15.73400 44.38300
H  -5.45300 15.61300 45.39500

