158

Mg 49.24300 35.31900 28.48700
C  47.00500 33.80900 30.67900
C  49.30700 38.05900 30.52900
C  51.19700 36.76200 26.17100
C  48.47400 32.86500 26.03300
N  48.35100 35.85500 30.46800
C  47.54800 34.97900 31.18100
C  47.31300 35.58500 32.62000
C  47.86900 37.07400 32.45400
C  48.55300 36.96700 31.06400
C  46.82300 38.20400 32.47900
C  48.06400 34.60800 33.66500
C  49.55900 34.93600 34.05700
H  49.95900 35.64300 35.38600
N  50.18900 37.12900 28.46100
C  50.03800 38.18100 29.33000
C  50.95900 39.25400 28.93300
C  51.64800 38.82700 27.76900
C  50.99300 37.50700 27.40500
C  51.19600 40.49900 29.81600
C  52.75600 39.47500 26.94900
O  53.21400 38.91400 25.96800
C  53.43000 40.78500 27.45200
N  49.76800 34.89000 26.42000
C  50.67100 35.58100 25.65400
C  51.08500 34.84500 24.40100
C  49.96700 33.80900 24.30000
C  49.30400 33.82100 25.67700
C  51.12200 35.86900 23.18900
C  50.57200 32.44700 23.77500
C  49.84800 31.81400 22.62300
N  48.03900 33.58000 28.39100
C  47.85300 32.69700 27.30200
C  46.99800 31.67100 27.79100
C  46.53900 32.10200 29.03400
C  47.23900 33.25300 29.41100
C  46.54800 30.38300 27.12100
C  45.59300 31.79000 30.12300
O  44.83700 30.83100 30.25000
C  45.90400 32.90600 31.26500
C  46.31000 32.16800 32.48800
O  46.87900 31.05000 32.55800
O  45.54600 32.66300 33.53000
C  45.79100 32.10200 34.87300
H  49.36900 38.90700 31.21400
H  51.83200 37.27200 25.44300
H  48.36400 32.04300 25.32200
H  46.23500 35.61500 32.77800
H  48.60300 37.29600 33.22900
H  47.25900 39.09300 32.93400
H  46.03800 37.83400 33.13900
H  46.44000 38.40200 31.47800
H  48.14000 33.55600 33.39100
H  47.47800 34.61600 34.58400
H  50.06600 35.67500 33.43700
H  50.23700 34.09100 33.93100
H  52.27300 40.66400 29.84500
H  50.98600 40.21400 30.84700
H  50.53700 41.32200 29.54100
H  52.74000 41.53500 27.83700
H  53.91100 41.22900 26.58000
H  54.28600 40.59700 28.10000
H  52.07300 34.47200 24.67100
H  49.17500 34.11500 23.61600
H  50.56700 36.80000 23.30300
H  50.65200 35.50900 22.27400
H  52.15100 36.16500 22.98700
H  50.64000 31.72400 24.58800
H  51.54900 32.73800 23.39100
H  48.81100 32.12400 22.50000
H  49.80400 30.74000 22.80300
H  50.42700 31.96000 21.71100
H  46.40900 30.59000 26.06000
H  45.63200 29.98900 27.56100
H  47.31800 29.61200 27.13500
H  45.02300 33.48200 31.54600
H  45.85100 32.93300 35.57500
H  46.73300 31.55300 34.84800
H  44.96600 31.45100 35.16100
Mg 43.09300 41.90200 26.68400
C  42.19900 44.00300 29.26800
C  44.72700 39.87500 29.12500
C  44.00400 39.77800 24.37000
C  42.07200 44.20900 24.35900
N  43.41100 41.89500 28.88300
C  42.91600 42.88900 29.75400
C  43.02200 42.47500 31.20400
C  44.14500 41.36400 31.17500
C  44.22200 41.08300 29.61500
C  45.60200 41.69700 31.76600
C  41.66600 42.01800 31.83600
C  41.21300 42.80700 33.06500
H  40.73800 42.06700 34.34900
N  44.16100 40.01100 26.76500
C  44.69700 39.37100 27.82600
C  45.16200 37.97400 27.33000
C  44.84200 37.92000 25.94800
C  44.26500 39.28400 25.65800
C  45.68800 36.97300 28.36900
C  45.20500 36.81400 24.95000
O  45.01000 36.79800 23.78800
C  45.88000 35.66200 25.56300
N  43.10900 42.05400 24.66900
C  43.58800 41.02900 23.88300
C  43.52800 41.44300 22.39500
C  42.64300 42.67400 22.44800
C  42.61400 43.04500 23.90500
C  44.95700 41.65200 21.73600
C  41.29600 42.53700 21.73700
C  40.32900 41.56200 22.38400
N  42.18600 43.62700 26.75400
C  41.79900 44.51300 25.70900
C  41.23900 45.73200 26.25300
C  41.29400 45.50300 27.66500
C  41.92500 44.31200 27.91100
C  40.83100 46.95900 25.59900
C  41.02400 46.19100 28.95600
O  40.44500 47.28100 29.21700
C  41.52600 45.19700 30.08300
C  42.41700 45.97600 30.93800
O  43.56100 46.27300 30.62600
O  41.84500 46.25500 32.15200
C  42.59300 46.91500 33.24200
H  45.34300 39.32700 29.84100
H  44.41000 39.14200 23.58200
H  41.70600 44.95800 23.65400
H  43.37600 43.35800 31.73600
H  43.81700 40.45000 31.66900
H  45.84300 41.08200 32.63400
H  45.82000 42.72800 32.04500
H  46.25200 41.34100 30.96700
H  41.78100 41.00200 32.21300
H  40.91400 41.88400 31.05800
H  40.35000 43.33700 32.66200
H  41.98200 43.49400 33.41600
H  45.89000 37.28400 29.39400
H  46.56800 36.51800 27.91500
H  45.00300 36.12600 28.36700
H  46.81900 35.91500 26.05600
H  46.10700 35.13600 24.63500
H  45.20700 35.00300 26.11000
H  43.09000 40.60000 21.86000
H  43.11100 43.53000 21.96000
H  45.75000 41.26700 22.37600
H  45.13800 42.72500 21.67700
H  45.05800 41.14200 20.77800
H  41.27600 42.27300 20.68000
H  40.87500 43.53800 21.83200
H  39.48700 42.14300 22.76100
H  40.63400 41.00000 23.26700
H  39.96300 40.90200 21.59800
H  39.75500 47.12700 25.64800
H  41.11500 47.10700 24.55700
H  41.28800 47.74200 26.20400
H  40.61100 44.92000 30.60700
H  42.25500 47.95000 33.27400
H  43.64800 46.82900 32.98100
H  42.29000 46.43500 34.17200

