158

Mg 2.77700 -0.51000 43.32700
C  6.15000 -0.15400 42.21500
C  2.13400 2.51600 41.75700
C  -0.56400 -1.33000 43.22600
C  3.52800 -3.39000 44.69000
N  3.99900 0.91300 41.93100
C  5.36600 0.90100 41.71800
C  5.76200 2.06200 40.82500
C  4.66800 3.11000 41.23400
C  3.49700 2.13600 41.66300
C  5.02100 4.14000 42.32600
C  5.80900 1.69500 39.30800
C  6.98800 2.21600 38.40100
H  6.50800 2.49900 36.98200
N  0.97200 0.54500 42.71100
C  0.93400 1.76200 42.11200
C  -0.44900 2.06600 41.86500
C  -1.28500 0.96700 42.18600
C  -0.28100 -0.00800 42.77500
C  -0.78600 3.32800 41.31000
C  -2.77100 0.84300 41.95100
O  -3.45500 1.66800 41.27300
C  -3.55700 -0.32400 42.42300
N  1.62300 -2.06700 43.90000
C  0.28700 -2.13100 43.91500
C  -0.17000 -3.47100 44.56700
C  1.07600 -4.02000 45.29600
C  2.13100 -3.12700 44.61200
C  -1.36000 -3.15100 45.63400
C  1.29100 -5.58600 45.24500
C  1.34300 -6.20000 46.63000
N  4.49600 -1.68100 43.42200
C  4.64000 -2.83000 44.12600
C  6.04800 -3.19400 43.99200
C  6.71000 -2.23500 43.21700
C  5.70300 -1.29800 42.93400
C  6.80600 -4.34600 44.51600
C  7.96100 -1.73300 42.59700
O  9.12800 -2.12600 42.59000
C  7.60500 -0.38100 41.94400
C  8.57400 0.71800 42.42700
O  8.90500 0.96200 43.59200
O  9.01500 1.40700 41.35300
C  9.90900 2.58700 41.55400
H  2.07400 3.56800 41.47000
H  -1.55700 -1.75900 43.08000
H  3.85200 -4.20400 45.34200
H  6.71600 2.56200 40.98900
H  4.51000 3.67400 40.31400
H  4.18800 4.20700 43.02600
H  5.13500 5.18200 42.02600
H  5.92200 3.83000 42.85500
H  4.96800 2.13400 38.77100
H  5.63300 0.64100 39.09100
H  7.83300 1.53500 38.30800
H  7.28500 3.16200 38.85500
H  -0.60100 3.43400 40.24100
H  -0.20600 4.09900 41.81800
H  -1.80400 3.58300 41.60500
H  -4.61200 -0.05300 42.41400
H  -3.27800 -0.71200 43.40300
H  -3.33100 -1.11600 41.70900
H  -0.54800 -4.13200 43.78700
H  1.03600 -3.70600 46.33900
H  -1.05100 -3.41300 46.64600
H  -2.23500 -3.65500 45.22200
H  -1.70800 -2.11900 45.61300
H  2.19400 -5.89900 44.72100
H  0.51100 -6.14800 44.73200
H  0.83100 -7.16100 46.68800
H  1.12600 -5.52400 47.45600
H  2.38000 -6.48900 46.80200
H  7.20700 -4.87500 43.65200
H  6.14300 -4.94900 45.13600
H  7.57400 -4.00600 45.21100
H  7.80900 -0.39400 40.87400
H  9.57000 3.32300 40.82500
H  10.98200 2.43500 41.43800
H  9.75800 3.02200 42.54200
Mg -10.53700 18.01900 43.50300
C  -7.07700 18.44100 43.42500
C  -10.93100 21.46000 43.31900
C  -13.62400 17.44700 42.66600
C  -9.82100 14.51800 43.21200
N  -9.14100 19.74200 43.30900
C  -7.77200 19.66900 43.26800
C  -7.18100 21.12300 43.14400
C  -8.38300 21.93800 43.59700
C  -9.59300 21.02000 43.37600
C  -8.23600 22.52000 45.02900
C  -6.56000 21.42500 41.72600
C  -5.02600 21.61200 41.61000
H  -4.40700 22.13100 40.33800
N  -12.12600 19.31500 43.13100
C  -12.13300 20.69400 43.10200
C  -13.47600 21.09300 42.91200
C  -14.32000 19.93600 42.75900
C  -13.39900 18.85500 42.85100
C  -13.91100 22.57800 42.93000
C  -15.76900 19.94200 42.37300
O  -16.35500 21.02000 42.26800
C  -16.49100 18.75500 42.02000
N  -11.58100 16.18400 42.97600
C  -12.83900 16.24600 42.69900
C  -13.47100 14.83500 42.63500
C  -12.24800 13.90000 42.63400
C  -11.14000 14.89900 42.99400
C  -14.72100 14.55300 43.62200
C  -11.96000 13.09300 41.34600
C  -11.65400 11.55300 41.44500
N  -8.84600 16.66300 43.40300
C  -8.74900 15.30900 43.36700
C  -7.40000 14.86100 43.64300
C  -6.66700 16.11400 43.61200
C  -7.61600 17.15500 43.53200
C  -6.90500 13.45500 43.79100
C  -5.34000 16.74100 43.77400
O  -4.24000 16.23300 44.00000
C  -5.59100 18.31700 43.68700
C  -5.15500 19.01100 44.97100
O  -5.70900 18.93500 46.05800
O  -4.15200 19.89400 44.63800
C  -3.62700 20.66900 45.71600
H  -11.00400 22.54900 43.28700
H  -14.64500 17.11200 42.47000
H  -9.60400 13.44900 43.16100
H  -6.45700 21.13500 43.95900
H  -8.58900 22.78900 42.94800
H  -7.28600 22.99900 45.26800
H  -8.32200 21.65400 45.68500
H  -9.00400 23.28200 45.16000
H  -6.99400 22.34400 41.33000
H  -6.83800 20.68400 40.97800
H  -4.74300 20.56200 41.67700
H  -4.77100 22.26900 42.44200
H  -14.69500 22.60700 43.68700
H  -14.34000 22.88700 41.97700
H  -13.11200 23.27500 43.18300
H  -15.93000 18.20800 41.26300
H  -17.46000 19.12100 41.68200
H  -16.41500 18.22600 42.97000
H  -13.95700 14.76000 41.66300
H  -12.31400 13.17600 43.44700
H  -14.46900 13.59500 44.07700
H  -15.58600 14.49300 42.96200
H  -14.90800 15.37300 44.31500
H  -11.02000 13.50900 40.98200
H  -12.67800 13.44200 40.60400
H  -10.90700 11.41000 40.66400
H  -12.51100 10.89000 41.32500
H  -11.17000 11.34500 42.39900
H  -7.21500 13.01900 44.74100
H  -5.82000 13.49000 43.69800
H  -7.41900 12.98500 42.95300
H  -4.89000 18.60600 42.90400
H  -3.34400 21.58900 45.20400
H  -2.68900 20.21900 46.04100
H  -4.27000 20.83700 46.58000

