158

Mg 47.56300 25.69300 27.83500
C  48.62900 27.84800 30.37200
C  46.68300 23.44500 30.01800
C  46.97800 23.71500 25.28300
C  49.11700 27.98500 25.54100
N  47.47000 25.75500 29.99800
C  47.89200 26.72300 30.87400
C  47.38400 26.42800 32.30600
C  46.70700 24.95500 32.10800
C  46.99200 24.68500 30.62600
C  47.11800 23.91600 33.11800
C  46.31200 27.47300 32.82000
C  45.49900 27.15700 34.17400
H  45.38600 28.14900 35.31500
N  46.81900 23.83200 27.64700
C  46.54300 23.02000 28.69600
C  46.10300 21.72400 28.17200
C  46.08500 21.75600 26.78000
C  46.64800 23.13000 26.47000
C  45.59000 20.60000 29.03600
C  45.55100 20.81500 25.69100
O  45.50600 21.08500 24.51400
C  44.92100 19.53800 26.05300
N  48.33300 25.67000 25.67400
C  47.66600 24.80200 24.84000
C  47.92400 25.12200 23.30600
C  48.86700 26.43900 23.42600
C  48.79400 26.71300 24.95200
C  48.42200 23.97500 22.43800
C  48.57100 27.62100 22.45400
C  49.66700 27.84400 21.36200
N  48.58200 27.52000 27.89400
C  49.09500 28.38700 26.90500
C  49.68800 29.57300 27.47900
C  49.51600 29.39900 28.82800
C  48.87800 28.13400 29.04700
C  50.21800 30.70300 26.68700
C  49.72100 29.96400 30.11500
O  50.22600 31.05700 30.36300
C  49.06100 29.02200 31.15200
C  50.07300 28.71100 32.18100
O  51.07100 28.03200 31.98000
O  49.74600 29.37500 33.30700
C  50.72500 29.25000 34.44100
H  46.39000 22.66200 30.72100
H  46.75000 23.03800 24.45700
H  49.60800 28.67900 24.85500
H  48.24900 26.37600 32.96600
H  45.62000 25.03000 32.15000
H  47.64400 24.38100 33.95300
H  47.61900 23.16200 32.51100
H  46.27400 23.47400 33.64700
H  45.65600 27.70900 31.98200
H  46.86500 28.34200 33.17400
H  45.80700 26.17900 34.54300
H  44.48600 27.13600 33.77100
H  44.50500 20.69400 29.00900
H  45.90500 20.69900 30.07500
H  45.85700 19.59900 28.69800
H  45.60300 18.75400 26.38100
H  44.31300 19.17300 25.22500
H  44.21300 19.75400 26.85300
H  47.00900 25.48400 22.83700
H  49.89500 26.12900 23.23500
H  49.40200 24.34000 22.12900
H  47.85900 23.84000 21.51400
H  48.54600 23.11800 23.09900
H  48.55400 28.58000 22.97200
H  47.60000 27.54100 21.96600
H  49.19700 27.66400 20.39500
H  50.59600 27.28900 21.49100
H  49.99100 28.88400 21.41000
H  51.29600 30.60800 26.55900
H  50.02500 31.68700 27.11400
H  49.72300 30.62700 25.71800
H  48.23200 29.63500 31.50500
H  51.78500 29.20800 34.18600
H  50.57400 28.39700 35.10200
H  50.61900 30.22000 34.92800
Mg -3.99300 25.22500 24.90000
C  -3.07900 26.45600 28.06300
C  -6.02500 22.94200 26.39900
C  -4.44100 23.89400 21.95200
C  -1.75000 27.52200 23.55600
N  -4.50600 24.76000 27.03400
C  -4.02900 25.42400 28.16200
C  -4.76700 24.93100 29.37000
C  -5.50700 23.62200 28.87300
C  -5.43200 23.82600 27.34300
C  -4.96300 22.31300 29.46700
C  -5.54700 25.96300 30.22500
C  -5.38800 26.01400 31.74400
H  -4.89000 24.73400 32.45500
N  -5.14600 23.67300 24.23700
C  -5.88600 22.84800 24.97500
C  -6.56100 21.85100 24.17500
C  -5.98200 21.97500 22.86900
C  -5.18900 23.27600 22.96300
C  -7.47500 20.74700 24.64700
C  -6.22200 21.18800 21.55600
O  -5.72400 21.46400 20.46000
C  -7.08600 19.95000 21.52200
N  -3.27900 25.71200 23.03700
C  -3.57600 24.99900 21.96400
C  -2.68900 25.45600 20.82000
C  -2.28300 26.87800 21.15000
C  -2.42900 26.74600 22.65000
C  -1.48400 24.58500 20.66800
C  -3.04900 27.98600 20.48400
C  -2.22100 29.02500 19.76100
N  -2.63300 26.69400 25.56300
C  -1.81900 27.54800 24.93500
C  -1.05600 28.29000 25.88300
C  -1.59000 27.99000 27.14600
C  -2.59100 27.02600 26.85700
C  0.09300 29.18600 25.60600
C  -1.57600 28.28100 28.53300
O  -0.81700 29.07700 29.09200
C  -2.72300 27.36800 29.19800
C  -1.99400 26.71300 30.27900
O  -1.42900 25.63700 30.18400
O  -1.99900 27.42600 31.43800
C  -1.14000 26.98500 32.50500
H  -6.67300 22.22500 26.90600
H  -4.43000 23.30100 21.03600
H  -1.19600 28.33300 23.07800
H  -3.86900 24.59900 29.89100
H  -6.55700 23.61800 29.16800
H  -4.35700 22.46300 30.36000
H  -4.36600 21.75700 28.74500
H  -5.67600 21.56300 29.81000
H  -6.62400 25.85100 30.09500
H  -5.35700 26.99000 29.91300
H  -6.32800 26.31600 32.20500
H  -4.71400 26.83900 31.97400
H  -7.07800 19.75500 24.43200
H  -8.34800 20.97300 24.03500
H  -7.78100 20.73200 25.69400
H  -8.08300 20.36200 21.67300
H  -6.89800 19.18100 22.27100
H  -7.01500 19.55000 20.51000
H  -3.28100 25.31300 19.91600
H  -1.24100 27.03700 20.87000
H  -1.74600 23.71400 20.06700
H  -1.07000 24.40500 21.66000
H  -0.69200 24.90900 19.99300
H  -3.74000 28.50300 21.15100
H  -3.69500 27.59000 19.70000
H  -2.66500 28.97400 18.76700
H  -1.20500 28.63400 19.69900
H  -2.35100 29.98700 20.25700
H  -0.37600 30.01600 25.07800
H  0.82800 28.71100 24.95700
H  0.59300 29.47600 26.53000
H  -3.47100 28.02200 29.64700
H  -1.28600 27.84200 33.16100
H  -0.08900 26.98800 32.21500
H  -1.49000 26.09200 33.02300

