158

Mg 24.35100 -6.20100 45.42300
C  26.61600 -3.64200 44.31700
C  21.85700 -4.46500 43.85800
C  22.72500 -8.97900 45.69100
C  27.10600 -7.61500 47.01800
N  24.33200 -4.42000 43.99200
C  25.28300 -3.50100 43.80000
C  24.70200 -2.36800 42.88600
C  23.15000 -2.47500 43.02400
C  23.09400 -3.88700 43.72500
C  22.39700 -1.43800 43.87700
C  25.22400 -2.51200 41.40600
C  25.77100 -1.16100 40.73300
H  25.35100 -0.82100 39.27300
N  22.42800 -6.55500 45.05900
C  21.53800 -5.72700 44.44400
C  20.26700 -6.36700 44.41300
C  20.46200 -7.72500 44.79700
C  21.90800 -7.84700 45.28400
C  19.05700 -5.80600 43.79700
C  19.42900 -8.78000 44.72100
O  18.33600 -8.57100 44.24600
C  19.65300 -10.17900 45.25300
N  24.87300 -8.05400 46.21500
C  24.02500 -9.06000 46.20600
C  24.62500 -10.38200 46.78300
C  26.00400 -9.89700 47.36600
C  26.00400 -8.44600 46.86800
C  23.65100 -11.24100 47.63600
C  27.31800 -10.62500 46.80600
C  28.37600 -10.99300 47.83000
N  26.41900 -5.74300 45.67200
C  27.36600 -6.35600 46.40900
C  28.63500 -5.64700 46.28500
C  28.33900 -4.56800 45.48300
C  27.01900 -4.62300 45.11000
C  29.95500 -6.22800 46.79900
C  28.97700 -3.39000 44.91100
O  30.06300 -2.96900 45.05500
C  27.81600 -2.72900 44.08700
C  27.53400 -1.31100 44.45400
O  27.05300 -0.88300 45.45600
O  27.82900 -0.49600 43.42000
C  27.63400 0.94500 43.62900
H  20.93400 -3.95000 43.58200
H  22.16600 -9.90500 45.54100
H  27.96200 -8.13700 47.45000
H  24.97900 -1.34000 43.12400
H  22.67900 -2.58200 42.04700
H  23.09800 -0.67900 44.22400
H  22.01300 -1.91000 44.78100
H  21.55500 -0.92100 43.41600
H  24.38600 -2.76000 40.75300
H  25.94400 -3.32200 41.29000
H  26.82300 -1.43600 40.65300
H  25.59000 -0.34100 41.42900
H  18.17400 -6.37200 44.09300
H  19.25400 -5.84200 42.72600
H  18.92000 -4.76200 44.08000
H  18.76000 -10.77800 45.07700
H  19.92100 -10.12300 46.30800
H  20.42300 -10.63900 44.63400
H  24.76100 -11.02900 45.91700
H  25.93700 -9.96900 48.45100
H  24.12100 -11.57800 48.56000
H  23.22800 -12.08600 47.09300
H  22.83500 -10.56200 47.88200
H  27.67900 -10.22600 45.85800
H  26.84300 -11.56600 46.52900
H  28.54500 -12.06900 47.79800
H  28.10100 -10.69000 48.84000
H  29.33100 -10.57600 47.50900
H  30.71500 -5.45800 46.93100
H  30.23400 -7.10400 46.21400
H  29.83500 -6.51700 47.84300
H  28.03100 -2.69600 43.01900
H  27.78400 1.46600 42.68400
H  28.33200 1.42200 44.31700
H  26.68200 1.36200 43.95700
Mg 6.60000 53.61000 41.81800
C  6.02400 50.14800 41.44800
C  9.58300 53.17900 40.26100
C  6.87700 56.96000 41.80900
C  3.27500 53.84700 43.16700
N  7.51300 51.93800 40.74400
C  7.24600 50.62000 40.87200
C  8.27300 49.70700 40.11300
C  9.53000 50.53900 40.08200
C  8.86900 52.02200 40.36600
C  10.69600 50.22000 41.18500
C  7.86700 49.31500 38.62100
C  6.89600 50.18800 37.92600
H  6.24300 49.51000 36.72500
N  8.08200 54.89000 41.11700
C  9.24900 54.52900 40.45100
C  10.00800 55.79100 40.16200
C  9.22200 56.89400 40.54300
C  8.00800 56.27500 41.22700
C  11.39900 55.74800 39.60400
C  9.52400 58.35600 40.36000
O  10.54800 58.71800 39.83400
C  8.68100 59.46600 40.92000
N  5.30700 55.15800 42.43100
C  5.71700 56.47300 42.43700
C  4.54700 57.31000 42.94300
C  3.53700 56.35600 43.51400
C  4.02200 55.00900 43.00000
C  4.92900 58.58200 43.79700
C  2.11200 56.65200 43.18900
C  1.02400 56.48200 44.29400
N  5.00000 52.37200 42.37900
C  3.72900 52.58900 42.91600
C  3.00200 51.32200 43.11100
C  3.96000 50.34100 42.66500
C  5.08200 50.99600 42.14200
C  1.61100 51.09400 43.52700
C  4.06200 48.92900 42.45900
O  3.30600 48.01300 42.85000
C  5.40100 48.68200 41.62400
C  5.04700 48.03200 40.39200
O  4.40600 48.53600 39.45500
O  5.43900 46.67400 40.42200
C  5.33300 45.90500 39.14000
H  10.63900 53.00200 40.04600
H  6.96000 58.02700 42.02600
H  2.35000 53.86600 43.74700
H  8.41200 48.82300 40.73600
H  10.14900 50.46600 39.18700
H  10.53200 50.90000 42.02100
H  11.58900 50.49000 40.62100
H  10.80100 49.16100 41.41900
H  7.38000 48.35200 38.77600
H  8.76300 49.28400 38.00200
H  7.33100 51.16500 37.71400
H  6.15600 50.41500 38.69300
H  11.55300 56.32200 38.69100
H  11.73900 54.71400 39.54300
H  12.01300 56.23300 40.36300
H  7.73700 59.39200 40.38000
H  9.21100 60.41500 40.83800
H  8.53500 59.35500 41.99400
H  4.13500 57.66000 41.99600
H  3.75100 56.21500 44.57400
H  4.33400 58.48000 44.70400
H  4.65200 59.51800 43.31100
H  5.95700 58.66400 44.15200
H  1.75900 56.16900 42.27700
H  2.14900 57.73800 43.10000
H  1.44700 56.31600 45.28500
H  0.34000 55.64000 44.19300
H  0.47800 57.41800 44.41000
H  1.32700 51.99400 44.07300
H  1.51800 50.21300 44.16200
H  1.09000 51.01300 42.57300
H  6.05900 48.03300 42.20200
H  5.72800 44.90300 39.30600
H  5.99300 46.31700 38.37600
H  4.31500 45.89000 38.75100

