158

Mg 2.05700 -0.64600 44.58300
C  5.45200 0.14400 44.05900
C  1.21500 2.27800 42.89600
C  -1.08600 -1.86100 44.27100
C  3.06300 -3.45500 46.23800
N  3.23400 0.89800 43.47800
C  4.58900 1.09300 43.46800
C  4.97200 2.22800 42.55800
C  3.63600 3.09100 42.59400
C  2.62800 1.97900 42.99700
C  3.63700 4.19700 43.64400
C  5.37900 1.70900 41.14500
C  6.68500 2.46700 40.57000
H  6.94200 2.31700 39.03000
N  0.26600 0.00700 43.67700
C  0.15100 1.28500 43.08100
C  -1.22000 1.39400 42.56600
C  -1.91100 0.17000 42.88200
C  -0.97700 -0.63300 43.64100
C  -1.66100 2.50400 41.67400
C  -3.36600 -0.14500 42.41700
O  -4.06900 0.79500 42.02100
C  -3.93500 -1.47000 42.58300
N  1.15300 -2.55500 44.98100
C  -0.15600 -2.66300 44.96700
C  -0.56700 -3.96900 45.64900
C  0.63600 -4.34400 46.47200
C  1.71400 -3.45500 45.87400
C  -1.94600 -3.90300 46.42000
C  1.09400 -5.87100 46.24800
C  1.66500 -6.67700 47.51500
N  3.87800 -1.55400 45.10400
C  4.16800 -2.68700 45.83700
C  5.54500 -2.94700 45.87700
C  6.17400 -1.81800 45.25000
C  5.05500 -1.06800 44.71500
C  6.15600 -4.06500 46.63300
C  7.48300 -1.10800 44.98100
O  8.57700 -1.31000 45.43000
C  6.96900 0.16800 44.13800
C  7.48000 1.34300 44.75400
O  7.45300 1.58500 45.95100
O  8.06400 2.15200 43.72200
C  8.46300 3.46400 44.15900
H  0.86400 3.28800 42.67500
H  -2.06400 -2.34700 44.25100
H  3.37100 -4.32600 46.82000
H  5.76300 2.82500 43.01100
H  3.37800 3.51800 41.62500
H  4.45100 4.29500 44.36200
H  2.69800 4.32000 44.18200
H  3.71300 5.08600 43.01800
H  4.59400 1.64600 40.39200
H  5.68000 0.66800 41.26400
H  7.55800 1.98000 41.00500
H  6.47800 3.51000 40.81100
H  -1.31300 2.24300 40.67500
H  -1.33700 3.53200 41.83700
H  -2.74900 2.53200 41.61400
H  -4.80600 -1.60000 41.94000
H  -4.04300 -1.80300 43.61500
H  -3.25800 -2.19900 42.13900
H  -0.67600 -4.67800 44.82800
H  0.49400 -4.07700 47.51900
H  -2.02700 -4.64200 47.21700
H  -2.77200 -4.21800 45.78200
H  -2.14400 -2.89200 46.77600
H  1.88700 -5.98700 45.51000
H  0.22800 -6.35700 45.79900
H  1.31300 -6.25300 48.45600
H  2.73900 -6.49300 47.48100
H  1.58500 -7.75300 47.36700
H  7.24600 -4.08100 46.60800
H  5.77200 -4.87800 46.01700
H  5.83600 -4.19400 47.66700
H  7.50100 0.09600 43.18900
H  9.08100 3.97300 43.42000
H  9.09100 3.45600 45.05100
H  7.65700 4.18500 44.29500
Mg -1.56000 34.91700 25.88000
C  -3.49000 33.50900 28.44800
C  -0.67700 37.42800 28.04500
C  0.14700 36.30600 23.37500
C  -2.87400 32.54300 23.68300
N  -2.06600 35.42000 28.04700
C  -2.83200 34.69500 28.85600
C  -2.69700 35.09600 30.32400
C  -1.95800 36.45700 30.18400
C  -1.59400 36.53100 28.67600
C  -2.82100 37.61800 30.70100
C  -1.99000 34.04300 31.13200
C  -1.53800 34.56900 32.49600
H  -1.79300 33.57900 33.60400
N  -0.35700 36.57700 25.70700
C  -0.11800 37.46800 26.71900
C  0.81200 38.43200 26.25400
C  1.07900 38.09300 24.88100
C  0.23400 36.99300 24.59300
C  1.49600 39.51100 27.09300
C  2.04500 38.82100 24.00800
O  2.24800 38.53300 22.84100
C  2.86100 39.96800 24.45500
N  -1.38100 34.56300 23.82500
C  -0.62200 35.23700 22.95600
C  -0.51500 34.63400 21.56500
C  -1.44200 33.40900 21.75000
C  -1.89700 33.43700 23.22500
C  -0.94100 35.61500 20.41000
C  -0.80500 32.08500 21.17100
C  -0.53600 30.94900 22.20600
N  -3.06800 33.41800 25.91400
C  -3.44000 32.53200 24.94400
C  -4.37100 31.65100 25.54700
C  -4.36600 31.96500 26.93200
C  -3.63200 33.09500 27.07300
C  -5.14100 30.44300 24.88900
C  -4.84000 31.53900 28.21200
O  -5.50400 30.54500 28.50000
C  -4.24200 32.49000 29.29200
C  -5.37100 32.87500 30.19500
O  -6.13500 33.81700 30.00000
O  -5.49400 31.93200 31.13400
C  -6.41600 32.09800 32.28100
H  -0.41700 38.20400 28.76800
H  0.75300 36.77300 22.59600
H  -3.23900 31.65900 23.15700
H  -3.69800 35.18400 30.74700
H  -1.00100 36.44300 30.70500
H  -2.20000 38.26500 31.32000
H  -3.57900 37.19200 31.35800
H  -3.21400 38.24900 29.90400
H  -1.09700 33.88700 30.52700
H  -2.60600 33.14600 31.19300
H  -1.89700 35.56900 32.74000
H  -0.45200 34.53400 32.58100
H  2.55900 39.27400 27.05000
H  1.18300 39.40400 28.13200
H  1.22100 40.49500 26.71300
H  2.42300 40.69400 25.14000
H  3.19000 40.57700 23.61300
H  3.65300 39.41100 24.95600
H  0.51300 34.27200 21.55800
H  -2.39800 33.55600 21.24800
H  -1.97400 35.42200 20.12100
H  -0.26200 35.62900 19.55700
H  -0.85100 36.65600 20.72100
H  0.20000 32.31700 20.81800
H  -1.47700 31.73000 20.38900
H  -0.10500 31.35700 23.12100
H  0.21600 30.27100 21.80200
H  -1.48000 30.41400 22.30600
H  -5.99000 30.29400 25.55700
H  -4.48400 29.57800 24.79600
H  -5.56300 30.69500 23.91600
H  -3.51600 31.81100 29.73800
H  -6.11400 33.01100 32.79500
H  -6.44000 31.24700 32.96100
H  -7.41000 32.09300 31.83200

