158

Mg 23.97700 -5.60800 46.51900
C  25.99000 -3.16100 44.78000
C  21.41300 -4.84800 44.39100
C  22.69700 -8.46800 47.35200
C  27.12700 -6.67900 48.02300
N  23.63300 -3.95300 45.05400
C  24.60800 -3.20100 44.39200
C  23.96100 -2.33500 43.27500
C  22.44600 -2.82500 43.29200
C  22.47900 -3.96600 44.28000
C  21.41900 -1.68900 43.58900
C  24.58100 -2.61900 41.82300
C  25.01200 -1.43500 41.01500
H  24.82100 -1.42400 39.56600
N  22.21900 -6.48200 46.10200
C  21.29800 -5.99200 45.22400
C  20.19600 -6.83900 45.12500
C  20.48200 -7.93200 45.98500
C  21.80800 -7.63000 46.61400
C  18.93500 -6.55300 44.31500
C  19.42600 -8.97800 46.36300
O  18.30700 -9.02200 45.75500
C  19.65400 -9.96400 47.50900
N  24.81300 -7.32300 47.61100
C  23.99500 -8.33700 47.84700
C  24.69100 -9.44200 48.76800
C  26.05200 -8.72800 49.07300
C  26.03700 -7.51000 48.12700
C  23.87700 -9.90700 50.04800
C  27.31300 -9.64300 48.91000
C  28.28300 -9.88600 50.11200
N  26.10200 -4.95100 46.58800
C  27.21900 -5.50800 47.21200
C  28.43100 -4.82800 46.76000
C  27.98900 -3.90500 45.84400
C  26.59000 -4.01600 45.75500
C  29.82900 -5.09300 47.26800
C  28.41800 -2.86300 44.92500
O  29.52100 -2.40800 44.79100
C  27.12300 -2.35100 44.21800
C  27.00500 -0.93700 44.63600
O  26.53100 -0.62400 45.72800
O  27.36300 -0.11800 43.60400
C  27.27000 1.33800 43.95800
H  20.66000 -4.53500 43.66500
H  22.33400 -9.47500 47.56400
H  28.11500 -6.98500 48.37400
H  23.97000 -1.26000 43.45500
H  22.03400 -3.11600 42.32600
H  20.72300 -2.07600 44.33400
H  20.78300 -1.44000 42.73900
H  21.88000 -0.79300 44.00600
H  23.95300 -3.27300 41.21700
H  25.49700 -3.19400 41.96100
H  26.06600 -1.34200 41.27700
H  24.45100 -0.61100 41.45500
H  19.00100 -6.96600 43.30800
H  18.77400 -5.48900 44.14500
H  18.02400 -6.98000 44.73300
H  18.75800 -10.42800 47.92100
H  20.08600 -9.36600 48.31100
H  20.32300 -10.76100 47.18500
H  24.89600 -10.29800 48.12500
H  26.11400 -8.29200 50.07000
H  22.88000 -9.46700 50.03600
H  24.48300 -9.65200 50.91800
H  23.87600 -10.99400 49.96900
H  27.91000 -9.28500 48.07200
H  26.87900 -10.60200 48.62500
H  29.29900 -9.58300 49.85600
H  28.50800 -10.94600 50.22500
H  27.99000 -9.35800 51.02000
H  30.57900 -4.33100 47.05700
H  30.23700 -5.98700 46.79600
H  29.78600 -5.22800 48.34900
H  27.40800 -2.50600 43.17800
H  27.55100 1.45200 45.00500
H  26.24000 1.68800 44.03300
H  27.74800 1.96900 43.20900
Mg 44.39800 4.72400 46.47800
C  42.02900 7.18500 46.02000
C  41.89900 2.35400 46.21600
C  46.73200 2.23700 46.35600
C  46.95100 7.15500 46.07100
N  42.19700 4.77300 46.04000
C  41.46400 5.93800 45.97700
C  39.98400 5.56300 45.97300
C  39.96600 4.06300 46.11400
C  41.44300 3.68400 46.09200
C  39.20200 3.70500 47.46500
C  39.27500 6.08900 44.76300
C  40.10000 6.02200 43.41100
H  39.18900 5.84000 42.17200
N  44.38400 2.58500 46.39300
C  43.21600 1.83000 46.33800
C  43.55000 0.41500 46.29300
C  44.96100 0.37300 46.54100
C  45.43900 1.79000 46.47600
C  42.50100 -0.72900 46.19600
C  45.76300 -0.91800 46.85100
O  45.23800 -1.98800 47.04800
C  47.21600 -0.94200 46.84600
N  46.55000 4.69000 46.01700
C  47.26200 3.55600 46.26600
C  48.72900 3.87500 46.12900
C  48.81200 5.39200 46.07900
C  47.35300 5.82300 45.92300
C  49.53900 3.25500 47.37100
C  49.68300 5.94400 44.89300
C  51.19600 5.85600 45.03300
N  44.55000 6.76800 46.22900
C  45.59900 7.62200 46.16400
C  45.12500 8.96600 46.18800
C  43.73100 8.85700 46.10700
C  43.46100 7.47700 46.16400
C  45.86800 10.24100 46.12800
C  42.48600 9.58800 45.91600
O  42.30400 10.77000 45.88800
C  41.35700 8.55700 45.94100
C  40.53200 8.86500 47.09500
O  40.78400 8.41400 48.20400
O  39.38100 9.51100 46.76800
C  38.47800 9.81100 47.92400
H  41.06200 1.66000 46.31500
H  47.52700 1.49000 46.39700
H  47.82800 7.79200 46.20200
H  39.48700 5.97600 46.85100
H  39.41800 3.61500 45.28500
H  38.47900 4.48500 47.70300
H  39.79500 3.73200 48.37900
H  38.70100 2.75100 47.29800
H  38.80100 7.03900 45.00800
H  38.38600 5.49300 44.55700
H  40.86300 5.24700 43.34900
H  40.65300 6.95800 43.32500
H  41.46500 -0.39400 46.14100
H  42.49300 -1.41100 47.04600
H  42.62900 -1.24400 45.24300
H  47.64900 -0.29300 47.60800
H  47.54900 -0.71700 45.83300
H  47.61700 -1.90100 47.17500
H  49.12900 3.30400 45.29100
H  49.11300 5.99300 46.93700
H  48.78300 2.96700 48.10300
H  50.03900 4.14200 47.75900
H  50.18500 2.42700 47.08000
H  49.58700 7.02600 44.80500
H  49.50400 5.20100 44.11600
H  51.55300 6.88500 44.99300
H  51.65100 5.26100 44.24100
H  51.48500 5.44200 45.99900
H  46.64800 10.10000 45.37900
H  46.24500 10.68500 47.04900
H  45.27500 11.03800 45.68000
H  40.75000 8.64200 45.03900
H  38.29900 8.84800 48.40200
H  37.55400 10.26800 47.56900
H  39.05800 10.46400 48.57600

