158

Mg -12.01000 38.44500 41.94800
C  -10.09900 35.57600 40.91700
C  -9.60600 40.48700 40.46600
C  -13.98100 41.07800 42.47400
C  -14.46500 36.15800 43.06400
N  -10.07900 38.01600 40.78500
C  -9.45400 36.84700 40.52300
C  -8.10500 37.01600 39.69200
C  -7.91800 38.55500 39.88500
C  -9.32000 39.09100 40.37500
C  -6.75300 38.89400 40.86000
C  -8.37400 36.51300 38.24500
C  -7.31500 35.61000 37.65200
H  -6.35300 36.31000 36.72100
N  -11.89300 40.53500 41.51900
C  -10.77800 41.18300 40.93800
C  -11.02400 42.56600 40.95900
C  -12.32600 42.81600 41.46100
C  -12.82500 41.47100 41.89200
C  -10.04400 43.47000 40.25100
C  -12.89400 44.13600 41.55200
O  -12.38800 45.16300 41.20200
C  -14.34900 44.31100 42.15600
N  -13.92000 38.58200 42.55700
C  -14.54000 39.82500 42.78600
C  -15.96100 39.69600 43.25900
C  -16.18300 38.09300 43.11200
C  -14.75700 37.57700 42.97000
C  -16.19400 40.12400 44.78700
C  -16.98800 37.80400 41.82000
C  -18.39800 37.43800 41.97800
N  -12.27600 36.19500 42.09500
C  -13.26000 35.46100 42.67000
C  -12.92100 34.05700 42.65700
C  -11.63700 34.02000 41.97200
C  -11.40100 35.38700 41.61600
C  -13.66100 32.89000 43.22500
C  -10.58600 33.17000 41.47100
O  -10.35300 31.96400 41.42900
C  -9.56700 34.18100 40.85200
C  -8.28900 33.90500 41.55200
O  -7.82100 34.51600 42.48600
O  -7.55900 33.24600 40.65300
C  -6.07400 33.20200 40.96200
H  -8.83900 40.96800 39.85600
H  -14.54900 41.92000 42.87600
H  -15.29900 35.52100 43.36700
H  -7.34500 36.41300 40.18700
H  -7.60000 39.04600 38.96600
H  -7.03400 39.72800 41.50300
H  -5.87800 39.26900 40.33000
H  -6.47000 38.06000 41.50200
H  -8.41800 37.40400 37.61900
H  -9.33800 36.01400 38.34300
H  -8.00100 34.89200 37.20200
H  -6.66500 35.06200 38.33500
H  -9.30800 43.84400 40.96200
H  -10.63300 44.33500 39.94600
H  -9.52600 43.03100 39.39800
H  -15.03700 43.60600 41.68800
H  -14.56700 45.36200 41.96700
H  -14.17000 44.07600 43.20500
H  -16.68000 40.28300 42.68800
H  -16.64500 37.62400 43.98100
H  -16.67600 41.09700 44.69200
H  -15.23700 40.28400 45.28300
H  -16.84100 39.41400 45.30300
H  -16.46800 37.08700 41.18500
H  -16.91500 38.76200 41.30600
H  -18.64100 36.68900 41.22400
H  -19.10000 38.26400 41.86800
H  -18.61600 36.89100 42.89600
H  -14.13900 32.41300 42.36900
H  -14.33300 33.27500 43.99200
H  -12.98100 32.15900 43.66200
H  -9.59700 33.78200 39.83800
H  -5.77400 34.05700 41.56900
H  -5.54700 33.07200 40.01700
H  -5.75000 32.29800 41.47700
Mg -5.29600 25.60100 24.83400
C  -3.93300 27.19100 27.72300
C  -6.84600 23.47300 26.96800
C  -6.46600 23.91200 22.12800
C  -3.56500 27.81000 22.82800
N  -5.23200 25.30200 27.10600
C  -4.71900 26.16000 28.05300
C  -5.02400 25.63500 29.47400
C  -5.71500 24.23000 29.21000
C  -6.02100 24.34000 27.64800
C  -4.97000 22.92400 29.61700
C  -5.94800 26.76400 30.22500
C  -6.13500 26.62100 31.72600
H  -5.21500 25.59000 32.44600
N  -6.52500 24.00500 24.59100
C  -7.11400 23.24700 25.61900
C  -7.97300 22.23400 25.01900
C  -7.80100 22.24200 23.56400
C  -6.85000 23.35500 23.36500
C  -8.83200 21.37500 25.88100
C  -8.51200 21.37100 22.52200
O  -8.41200 21.56200 21.35900
C  -9.35600 20.25100 22.97000
N  -4.94700 25.73500 22.71000
C  -5.61500 24.96800 21.75900
C  -5.11000 25.32700 20.32600
C  -4.44800 26.75100 20.60800
C  -4.31400 26.79700 22.13700
C  -4.21900 24.29200 19.61800
C  -5.09400 28.01800 20.04000
C  -6.41500 28.48300 20.62000
N  -3.96400 27.18500 25.13600
C  -3.44500 28.01800 24.23000
C  -2.70700 29.06500 24.99600
C  -2.87700 28.73500 26.28800
C  -3.65400 27.58900 26.39300
C  -1.94100 30.23500 24.44500
C  -2.54600 29.14100 27.58200
O  -1.88400 30.07100 27.94900
C  -3.24300 28.12900 28.59900
C  -2.19100 27.47400 29.42900
O  -1.16400 26.89800 28.97800
O  -2.39200 27.58700 30.79600
C  -1.36000 27.35100 31.79600
H  -7.35400 22.76500 27.62600
H  -7.04700 23.60600 21.25500
H  -3.17200 28.63600 22.23200
H  -4.08800 25.44400 29.99900
H  -6.65200 24.25800 29.76700
H  -4.18700 23.08400 30.35900
H  -4.49800 22.54300 28.71200
H  -5.51900 22.06500 30.00300
H  -6.94300 26.48900 29.87400
H  -5.68300 27.81000 30.06800
H  -7.10700 26.18500 31.96000
H  -6.09600 27.59200 32.22000
H  -9.83700 21.08800 25.57200
H  -9.04800 21.85900 26.83400
H  -8.41700 20.38400 26.06700
H  -8.83400 19.49600 23.55800
H  -9.63000 19.84400 21.99600
H  -10.25200 20.70800 23.38800
H  -6.02400 25.40400 19.73800
H  -3.37800 26.81200 20.40500
H  -3.81300 23.65000 20.39900
H  -3.35300 24.86600 19.28900
H  -4.61300 23.69400 18.79500
H  -5.20800 27.78400 18.98100
H  -4.36300 28.82500 20.09800
H  -6.84200 27.78900 21.34400
H  -7.11300 28.58000 19.78800
H  -6.05200 29.45500 20.95500
H  -1.04400 30.02700 23.86200
H  -1.72500 30.91600 25.26800
H  -2.47300 30.79700 23.67800
H  -3.86800 28.74100 29.24900
H  -1.40200 28.09700 32.59000
H  -0.35200 27.15900 31.42800
H  -1.50900 26.31100 32.08600

