158

Mg 17.36800 -1.84600 28.39300
C  16.33700 0.21900 30.92200
C  19.62600 -3.35300 30.66400
C  18.94000 -3.49800 25.81700
C  15.48400 -0.08100 26.05400
N  17.83400 -1.71700 30.59400
C  17.14600 -0.89000 31.39100
C  17.63000 -0.97100 32.85000
C  18.78000 -1.99700 32.76300
C  18.77900 -2.40900 31.30900
C  20.11000 -1.59000 33.47400
C  16.46700 -1.39400 33.86700
C  16.14600 -0.40900 34.99700
H  17.36000 0.09500 35.90000
N  19.06100 -3.29600 28.29300
C  19.69200 -3.86200 29.31300
C  20.53400 -4.89800 28.84700
C  20.46100 -4.89000 27.48800
C  19.39500 -3.92100 27.15000
C  21.46700 -5.68300 29.91400
C  21.32500 -5.62200 26.41500
O  21.16000 -5.66600 25.23400
C  22.40800 -6.47700 26.88100
N  17.32200 -1.64300 26.21900
C  17.98500 -2.52800 25.39800
C  17.65700 -2.34200 23.93600
C  16.43900 -1.30000 24.10000
C  16.31400 -1.05800 25.59600
C  18.84500 -1.87200 23.04700
C  15.13300 -1.76000 23.41100
C  13.93200 -2.35700 24.23200
N  16.07900 -0.32900 28.49000
C  15.38500 0.34000 27.45600
C  14.61300 1.43900 28.07600
C  14.94700 1.34200 29.46500
C  15.89100 0.32900 29.64600
C  13.66300 2.49100 27.56400
C  14.63800 1.79300 30.68900
O  13.74900 2.66100 30.92900
C  15.62100 1.20900 31.68300
C  16.52000 2.32400 32.30800
O  17.62600 2.60800 31.89500
O  15.81900 2.85900 33.33900
C  16.56200 3.91100 34.05000
H  20.36900 -3.67100 31.39800
H  19.37600 -4.15400 25.06000
H  14.97500 0.45000 25.24700
H  17.90800 0.03100 33.17500
H  18.44500 -2.90300 33.26700
H  20.14100 -2.31100 34.29000
H  19.96200 -0.60600 33.91800
H  21.06200 -1.57300 32.94300
H  16.69300 -2.30500 34.42100
H  15.65100 -1.54700 33.16000
H  15.35800 -0.68700 35.69800
H  15.80000 0.49100 34.48900
H  21.25400 -5.34800 30.92900
H  22.53800 -5.70400 29.71200
H  21.05000 -6.69000 29.94200
H  22.94400 -6.84100 26.00400
H  22.00000 -7.24800 27.53300
H  23.12500 -5.93500 27.49800
H  17.28100 -3.31800 23.63000
H  16.67700 -0.27700 23.80700
H  18.43800 -1.10000 22.39400
H  19.32900 -2.66500 22.47600
H  19.60200 -1.37900 23.65700
H  15.32600 -2.55100 22.68700
H  14.75700 -0.87800 22.89300
H  14.01900 -2.40700 25.31800
H  13.54700 -3.30900 23.86700
H  13.13200 -1.63900 24.04900
H  12.60300 2.23400 27.56700
H  14.01100 2.74600 26.56300
H  13.77700 3.44900 28.07000
H  14.92700 0.76900 32.39900
H  16.30900 4.02300 35.10500
H  16.62700 4.84200 33.48700
H  17.58200 3.54900 34.17900
Mg 17.65100 51.06900 26.54400
C  19.42400 50.29400 29.38500
C  15.07700 52.10100 28.40400
C  16.22100 52.10200 23.65300
C  20.17600 49.43900 24.69700
N  17.34700 51.13300 28.70100
C  18.23000 50.85600 29.69800
C  17.61300 51.13800 31.08900
C  16.11900 51.28800 30.62200
C  16.10500 51.50000 29.13200
C  15.10200 50.18500 31.15200
C  18.18700 52.43200 31.80200
C  18.38700 52.37300 33.39300
H  17.56500 51.44500 34.26100
N  16.01100 52.06200 26.12800
C  15.00000 52.41200 27.01200
C  14.03200 53.25300 26.28000
C  14.39800 53.33200 24.92900
C  15.66800 52.50500 24.87100
C  12.91400 53.95200 26.98900
C  13.78500 54.15500 23.85200
O  14.24400 54.29800 22.73900
C  12.53400 54.94600 24.10500
N  18.20200 50.79300 24.47100
C  17.35400 51.28300 23.46700
C  18.00500 51.06100 22.07800
C  19.13600 50.04500 22.51100
C  19.14400 50.06800 23.95100
C  17.06500 50.44100 21.04100
C  20.54900 50.30200 21.85300
C  21.35100 51.57400 22.41300
N  19.42400 50.07700 26.91800
C  20.35300 49.50500 26.05500
C  21.45000 48.90300 26.76100
C  21.12800 49.20500 28.10000
C  19.91300 49.94500 28.14300
C  22.66500 48.15700 26.34600
C  21.59200 49.10500 29.52100
O  22.61300 48.65000 30.03700
C  20.44000 49.75100 30.35100
C  19.84700 48.65100 31.12900
O  18.83500 48.04000 30.77500
O  20.62000 48.41600 32.27600
C  20.07100 47.32600 33.14300
H  14.22800 52.49800 28.96500
H  15.66300 52.36200 22.75100
H  20.97200 48.95200 24.12900
H  17.69800 50.26800 31.74000
H  15.60400 52.18300 30.97000
H  14.24900 50.61800 31.67500
H  15.64000 49.65600 31.93800
H  14.74500 49.44900 30.43200
H  17.45700 53.23100 31.66700
H  19.15100 52.63000 31.33200
H  18.26500 53.34900 33.86200
H  19.44700 52.14600 33.50800
H  11.92100 53.84800 26.55300
H  13.19000 55.00600 27.03600
H  12.84300 53.61300 28.02300
H  11.85200 54.25400 24.59900
H  11.98500 55.21600 23.20200
H  12.77400 55.76400 24.78400
H  18.62400 51.86700 21.68400
H  18.70400 49.06100 22.33200
H  16.88800 51.25100 20.33300
H  16.05900 50.23300 21.40600
H  17.48800 49.55600 20.56600
H  20.45700 50.58300 20.80400
H  20.98500 49.30400 21.81400
H  21.77700 52.10100 21.55900
H  22.05200 51.14500 23.12900
H  20.57700 52.03600 23.02500
H  23.46600 48.89300 26.27300
H  22.39300 47.81200 25.34800
H  22.95300 47.24200 26.86400
H  20.82300 50.45100 31.09400
H  19.17700 47.74400 33.60600
H  20.83700 47.12800 33.89300
H  19.75600 46.42700 32.61300

