158

Mg 0.78300 8.75700 25.52400
C  1.69300 10.55500 28.34800
C  0.80100 5.90300 27.39800
C  0.25600 7.07400 22.66000
C  0.83400 11.62900 23.67700
N  1.17300 8.30100 27.72200
C  1.47500 9.19600 28.63900
C  1.40500 8.51000 30.03400
C  1.34100 6.93200 29.68800
C  1.03800 7.03800 28.20600
C  2.63700 6.10500 30.18600
C  0.21600 9.01600 30.94500
C  0.43700 9.03800 32.45700
H  1.48400 8.17400 33.13200
N  0.47700 6.75200 25.04500
C  0.67900 5.72300 25.95300
C  0.52100 4.48600 25.27300
C  0.27400 4.82000 23.88900
C  0.37700 6.26100 23.81400
C  0.76100 3.12600 26.00300
C  0.10800 3.81900 22.71400
O  0.40700 4.24600 21.58700
C  -0.38400 2.36900 22.91400
N  0.64900 9.21400 23.36700
C  0.35000 8.37400 22.40000
C  0.31600 8.97900 21.00900
C  0.24200 10.47700 21.41600
C  0.57800 10.45000 22.95800
C  1.54500 8.54500 20.15000
C  -1.08900 11.21400 21.15700
C  -0.94600 12.58600 20.42300
N  1.43200 10.68400 25.80900
C  1.41900 11.77500 25.01200
C  1.82200 12.98200 25.75100
C  1.97100 12.58600 27.03200
C  1.63900 11.17300 27.02400
C  1.88100 14.33400 25.14600
C  2.25300 13.01800 28.36200
O  2.51300 14.19600 28.75000
C  1.91600 11.76800 29.20900
C  3.01200 11.64200 30.18900
O  4.03500 11.09400 29.88200
O  2.61700 12.07900 31.45200
C  3.58000 11.82000 32.52300
H  0.92000 4.98000 27.96800
H  -0.03800 6.54000 21.75400
H  0.81200 12.54200 23.07800
H  2.43000 8.71600 30.34500
H  0.47600 6.60200 30.26400
H  3.25100 6.84400 30.70100
H  3.14200 5.69700 29.31100
H  2.37200 5.26400 30.82600
H  -0.57600 8.26900 30.89100
H  -0.31900 9.85300 30.49600
H  -0.47400 8.99300 33.05400
H  0.91900 9.99100 32.67600
H  1.81900 3.11100 26.26600
H  0.60300 2.24300 25.38400
H  0.16600 2.98100 26.90500
H  -1.13100 2.16900 23.68300
H  0.58800 1.93100 23.13900
H  -0.69800 1.87500 21.99500
H  -0.65500 8.72200 20.58600
H  1.08500 10.93600 20.89900
H  1.39800 8.51900 19.07100
H  1.94500 7.55300 20.36000
H  2.39500 9.21600 20.27500
H  -1.60300 11.19000 22.11800
H  -1.59300 10.65100 20.37100
H  -0.02200 13.15900 20.50500
H  -1.73100 13.21200 20.84700
H  -1.21600 12.39300 19.38400
H  1.89200 14.19300 24.06500
H  2.85300 14.77900 25.36000
H  1.09600 15.02900 25.44200
H  1.06100 12.04700 29.82400
H  4.47700 11.26800 32.24300
H  3.22100 11.38900 33.45800
H  3.88700 12.77400 32.95100
Mg 47.50200 34.50900 26.56200
C  45.72100 33.47100 29.37900
C  48.33900 37.34300 28.25200
C  48.89300 35.60800 23.74400
C  46.30400 31.70000 24.87200
N  47.08100 35.20500 28.59100
C  46.47600 34.61700 29.62800
C  46.73200 35.34700 30.91600
C  47.22200 36.76900 30.45800
C  47.57700 36.43300 28.98800
C  46.05700 37.79600 30.51700
C  47.84000 34.62600 31.77200
C  47.52700 34.39300 33.25600
H  46.57000 35.42200 33.86200
N  48.44300 36.14700 26.05600
C  48.75500 37.21500 26.91500
C  49.51800 38.15900 26.21100
C  49.72200 37.68800 24.90800
C  48.99000 36.42700 24.84300
C  50.03900 39.40900 26.90000
C  50.53000 38.30300 23.75300
O  50.67400 37.64600 22.74800
C  51.20600 39.65000 23.88000
N  47.43900 33.85200 24.59500
C  48.24000 34.43300 23.68200
C  48.18100 33.65400 22.32500
C  47.64000 32.24500 22.85800
C  46.96500 32.64100 24.15800
C  47.32000 34.44400 21.21700
C  48.73300 31.18000 23.14300
C  48.28800 29.73100 22.84600
N  46.27700 32.83000 26.96200
C  45.91800 31.75300 26.19900
C  45.09100 30.89300 26.99600
C  44.96800 31.54200 28.20700
C  45.70900 32.71700 28.15500
C  44.52400 29.57400 26.60400
C  44.41400 31.38200 29.51900
O  43.76100 30.43600 29.98100
C  44.75700 32.66500 30.27100
C  45.20300 32.32900 31.63900
O  46.21900 31.74300 31.93600
O  44.18900 32.60900 32.54900
C  44.14400 31.77200 33.72100
H  48.54800 38.23800 28.84200
H  49.29900 35.80000 22.74900
H  45.92500 30.88400 24.25300
H  45.82100 35.40600 31.51100
H  48.05600 37.18200 31.02600
H  45.47200 37.90200 29.60400
H  46.37600 38.78100 30.85800
H  45.37200 37.44700 31.29100
H  48.80800 35.11800 31.67200
H  47.96300 33.60700 31.40500
H  48.52200 34.40400 33.70000
H  47.20200 33.35200 33.28700
H  51.12400 39.36200 27.00400
H  49.61900 39.45500 27.90500
H  49.76400 40.33600 26.39600
H  52.00600 39.56500 24.61500
H  50.49800 40.42400 24.17700
H  51.65400 39.82800 22.90300
H  49.20800 33.59400 21.96400
H  46.82900 31.78500 22.29300
H  48.12600 34.81500 20.58500
H  46.66600 35.24200 21.56900
H  46.65900 33.75900 20.68600
H  48.94400 31.26200 24.20900
H  49.64500 31.46800 22.61900
H  48.51900 29.03700 23.65400
H  48.70700 29.43000 21.88700
H  47.22600 29.75300 22.59900
H  44.34200 29.47700 25.53300
H  43.54600 29.39300 27.05000
H  45.22800 28.82200 26.95900
H  43.80000 33.18200 30.19500
H  43.36700 31.02600 33.55600
H  43.86900 32.37300 34.58700
H  45.09900 31.33900 34.02000

