158

Mg 48.63300 24.81600 28.67000
C  49.45400 26.87200 31.43800
C  48.10800 22.26900 31.10600
C  48.01000 22.77600 26.33800
C  49.71500 27.24800 26.55700
N  48.74800 24.69100 31.06100
C  49.08800 25.64600 31.95100
C  48.87800 25.27800 33.41300
C  48.63100 23.68700 33.26800
C  48.51600 23.48300 31.69700
C  49.62400 22.81200 34.03400
C  47.79400 26.04700 34.18800
C  48.04700 26.51900 35.63000
H  46.96200 26.23200 36.68300
N  48.01700 22.76300 28.70400
C  47.87300 21.91000 29.76900
C  47.54100 20.52500 29.23000
C  47.38600 20.76200 27.87600
C  47.83200 22.09700 27.58600
C  47.27500 19.32100 29.97800
C  46.73200 19.94100 26.78600
O  46.61400 20.34800 25.58300
C  46.05900 18.51300 27.15300
N  48.89800 24.97800 26.69900
C  48.50800 23.97300 25.88600
C  48.71800 24.31400 24.33800
C  48.99800 25.81700 24.43100
C  49.32500 26.00400 25.96300
C  49.79600 23.51700 23.53700
C  47.80800 26.72900 24.11300
C  47.23300 26.58900 22.71600
N  49.38100 26.74600 28.91100
C  49.84600 27.57700 27.92900
C  50.41200 28.70400 28.58700
C  50.16900 28.52900 29.88800
C  49.62700 27.22800 30.10200
C  50.93200 29.90600 27.89600
C  50.32400 29.12900 31.14500
O  50.66500 30.26100 31.42600
C  49.77800 28.16100 32.19300
C  50.81800 27.93700 33.29800
O  51.83500 27.31000 33.30400
O  50.46900 28.60100 34.45300
C  51.31500 28.34900 35.63600
H  47.86600 21.53300 31.87600
H  47.81300 22.15600 25.46100
H  50.00700 28.03900 25.86200
H  49.65700 25.49200 34.14400
H  47.67100 23.32300 33.63300
H  50.38100 22.53600 33.30000
H  49.09300 21.99500 34.52400
H  50.10700 23.38200 34.82800
H  46.84100 25.51900 34.16800
H  47.60000 26.88100 33.51200
H  47.89800 27.59800 35.57800
H  49.06300 26.30000 35.95800
H  47.62400 19.45000 31.00300
H  47.70600 18.46900 29.45400
H  46.19900 19.14800 29.98500
H  45.44900 18.66200 28.04400
H  46.87000 17.78700 27.10700
H  45.38500 18.35500 26.31200
H  47.72100 24.16100 23.92500
H  49.87400 26.07300 23.83700
H  50.76100 24.01600 23.45600
H  49.39500 23.49000 22.52400
H  49.95200 22.49100 23.87100
H  48.05300 27.79100 24.12300
H  46.86600 26.55600 24.63400
H  47.86500 25.89200 22.16600
H  47.37700 27.51400 22.15800
H  46.17100 26.35700 22.64600
H  51.29200 30.58300 28.67100
H  50.22000 30.34500 27.19700
H  51.67400 29.55700 27.17900
H  48.96700 28.78400 32.56800
H  51.81200 27.37900 35.62500
H  50.82700 28.42600 36.60700
H  52.13900 29.06200 35.62600
Mg -12.68900 15.80400 42.47400
C  -9.66100 14.08800 42.15400
C  -11.08300 18.47000 41.05000
C  -15.81100 17.15100 41.64500
C  -14.25500 12.92100 43.39600
N  -10.54400 16.20700 41.76000
C  -9.50600 15.33000 41.62500
C  -8.23300 16.06100 41.07300
C  -8.65700 17.56300 41.12000
C  -10.18100 17.44300 41.30900
C  -7.96500 18.50800 42.14400
C  -7.78000 15.47200 39.69700
C  -6.39400 15.50300 39.32000
H  -6.14100 16.32100 38.11300
N  -13.34000 17.68800 41.47400
C  -12.45800 18.65600 41.02900
C  -13.26400 19.76100 40.61800
C  -14.66700 19.48900 40.97000
C  -14.66800 18.05900 41.35800
C  -12.65000 21.04900 40.03100
C  -15.84600 20.36700 40.82100
O  -15.72100 21.54000 40.35600
C  -17.20800 20.09900 41.26300
N  -14.72500 15.10600 42.34000
C  -15.85100 15.83000 42.16700
C  -17.16800 15.08500 42.44300
C  -16.56600 13.81600 43.21700
C  -15.09000 13.95800 42.94100
C  -18.34600 15.88900 43.11200
C  -17.17600 12.38100 42.63200
C  -17.94700 11.50100 43.68800
N  -12.05700 13.85800 42.87600
C  -12.81900 12.81600 43.32600
C  -11.98400 11.76600 43.64600
C  -10.69200 12.20200 43.20400
C  -10.79100 13.51700 42.74300
C  -12.28000 10.42600 44.24600
C  -9.28800 11.77900 43.05600
O  -8.62800 10.80300 43.45100
C  -8.58600 12.97400 42.31900
C  -7.38600 13.38900 43.01400
O  -7.35900 14.11500 44.05300
O  -6.31300 12.96900 42.30900
C  -4.99900 13.69500 42.68600
H  -10.44300 19.29300 40.72500
H  -16.79100 17.54800 41.37000
H  -14.73900 12.19600 44.05200
H  -7.49200 15.90000 41.85600
H  -8.43100 18.08900 40.19300
H  -7.81300 17.94900 43.06700
H  -8.65500 19.32600 42.35100
H  -7.01200 18.95000 41.85200
H  -8.37500 16.06500 39.00300
H  -8.16100 14.45100 39.73100
H  -5.98800 14.49600 39.22200
H  -5.73400 15.92300 40.07900
H  -12.56200 21.85800 40.75600
H  -13.21400 21.41700 39.17400
H  -11.62800 20.77000 39.77300
H  -17.75600 19.53000 40.51200
H  -17.69100 21.06000 41.44000
H  -17.14000 19.52300 42.18600
H  -17.51300 14.72500 41.47400
H  -16.87700 13.91800 44.25600
H  -18.11800 16.95200 43.02800
H  -18.53200 15.68500 44.16700
H  -19.32300 15.71000 42.66300
H  -16.38000 11.80200 42.16300
H  -17.79700 12.43700 41.73800
H  -17.44500 10.54300 43.82300
H  -18.98300 11.42800 43.35500
H  -17.96800 11.99900 44.65700
H  -13.03200 10.50300 45.03100
H  -11.40500 10.00600 44.74200
H  -12.49500 9.59200 43.57800
H  -8.35400 12.65000 41.30400
H  -4.30300 13.35800 41.91700
H  -4.63700 13.56400 43.70500
H  -5.14800 14.77300 42.62600

