158

Mg 42.09100 41.77100 26.53400
C  41.01100 44.03100 28.95400
C  43.26800 39.73000 28.96400
C  43.19400 39.74200 24.07800
C  41.37700 44.23900 24.11400
N  42.12500 41.95200 28.65700
C  41.54100 42.86800 29.45000
C  41.58600 42.50800 30.92200
C  42.31200 41.12500 30.86500
C  42.66300 40.92800 29.42100
C  43.57900 40.93800 31.78300
C  40.18400 42.42400 31.71200
C  40.24600 42.98800 33.21000
H  39.39700 42.29400 34.33600
N  43.13800 39.96400 26.55100
C  43.50300 39.21400 27.66200
C  44.00800 37.97500 27.20600
C  44.03800 37.97500 25.77300
C  43.50400 39.24400 25.35800
C  44.45600 36.97800 28.14800
C  44.54100 37.00500 24.67700
O  44.90100 37.23300 23.49200
C  44.92500 35.62400 25.21600
N  42.28300 42.01900 24.41000
C  42.63100 40.95400 23.66700
C  42.25100 41.20300 22.20300
C  41.92700 42.76300 22.12500
C  41.84300 43.05200 23.67200
C  43.22700 40.67700 21.13300
C  40.67300 43.09300 21.26800
C  40.45400 44.44000 20.66100
N  41.34000 43.67400 26.48100
C  41.20500 44.59400 25.44900
C  40.73600 45.88200 25.96400
C  40.53400 45.62500 27.32600
C  40.95100 44.32000 27.59400
C  40.53800 47.06500 25.14400
C  40.05500 46.16500 28.51500
O  39.52800 47.25800 28.75200
C  40.27300 45.14600 29.63500
C  41.24900 45.82100 30.57400
O  42.42400 46.03500 30.39000
O  40.66500 45.83100 31.83400
C  41.49200 46.33100 32.90000
H  43.29100 38.96400 29.74100
H  43.52800 38.94500 23.41000
H  41.08000 45.00600 23.39600
H  42.23800 43.25700 31.37200
H  41.68500 40.29100 31.18000
H  43.44700 41.46400 32.72800
H  44.41200 41.49800 31.35900
H  43.90900 39.91300 31.95300
H  39.93100 41.36300 31.71300
H  39.42700 43.05900 31.25300
H  39.91300 44.02500 33.22400
H  41.28000 42.94400 33.55400
H  44.49600 37.33900 29.17500
H  45.41500 36.55100 27.85300
H  43.70700 36.18700 28.19000
H  44.84400 34.93100 24.37900
H  44.13900 35.36200 25.92400
H  45.84700 35.60700 25.79700
H  41.27700 40.71300 22.18600
H  42.84000 43.22700 21.75200
H  44.19800 40.34600 21.50100
H  43.49400 41.49300 20.46100
H  42.88300 39.81900 20.55600
H  39.77200 42.96100 21.86800
H  40.51200 42.28700 20.55300
H  40.72200 44.23900 19.62400
H  41.05700 45.19900 21.15800
H  39.41100 44.74500 20.75500
H  39.49000 47.36200 25.16300
H  40.79400 46.91900 24.09400
H  40.91100 47.96600 25.63100
H  39.32200 44.96300 30.13400
H  41.82400 45.39600 33.35000
H  40.90800 46.90700 33.61800
H  42.27100 47.04800 32.64100
Mg 30.48300 57.63700 39.75400
C  27.68800 55.62300 38.70500
C  32.50600 55.11800 38.58500
C  32.82700 59.90700 39.58200
C  28.08400 60.19000 40.08700
N  30.13200 55.59700 38.68600
C  28.89300 55.02000 38.39100
C  29.14600 53.54900 37.87800
C  30.64900 53.41700 38.14800
C  31.18700 54.75100 38.46600
C  31.18800 52.34000 39.02300
C  28.61400 53.14200 36.43200
C  29.00100 54.09500 35.27300
H  27.94400 54.29500 34.11700
N  32.47400 57.47200 39.39300
C  33.15700 56.37800 38.87600
C  34.55700 56.68900 38.76300
C  34.71000 58.08700 39.10300
C  33.32400 58.55400 39.37000
C  35.61600 55.75100 38.24700
C  36.11400 58.77400 39.25500
O  37.17900 58.20300 38.95500
C  36.27200 60.27200 39.61500
N  30.51000 59.80000 39.87200
C  31.60500 60.50600 39.77400
C  31.39100 62.04900 40.04400
C  29.86400 62.03600 40.37100
C  29.42000 60.62600 40.07900
C  32.27100 62.69300 41.10000
C  29.07000 63.12300 39.60200
C  28.05100 64.01000 40.39500
N  28.36600 57.85900 39.60800
C  27.53400 58.94700 39.74500
C  26.14000 58.52300 39.53700
C  26.20800 57.18600 39.20400
C  27.52800 56.91600 39.21600
C  24.96200 59.34900 39.72800
C  25.42400 56.03100 38.96100
O  24.23200 55.87200 39.12200
C  26.32500 54.92900 38.53600
C  26.11000 53.82800 39.45000
O  26.37000 53.81100 40.62200
O  25.67700 52.70100 38.66900
C  25.40400 51.48000 39.45400
H  33.13800 54.24600 38.40600
H  33.60600 60.66600 39.48000
H  27.30600 60.94600 40.20900
H  28.56400 52.94900 38.57800
H  31.01900 53.27300 37.13300
H  31.84100 52.82100 39.75100
H  31.69700 51.60900 38.39400
H  30.47200 51.74900 39.59300
H  27.53100 53.01900 36.41600
H  29.10100 52.20300 36.16800
H  29.90600 53.63400 34.87900
H  29.14900 55.06800 35.74200
H  36.57900 55.70400 38.75500
H  35.80200 55.91900 37.18600
H  35.17800 54.75400 38.26900
H  37.34200 60.44700 39.73300
H  35.87000 60.26400 40.62800
H  35.71800 60.94500 38.96200
H  31.50700 62.44200 39.03400
H  29.73600 62.26600 41.42800
H  33.12400 62.02400 41.21000
H  31.77700 62.69500 42.07100
H  32.55700 63.65300 40.67100
H  28.56400 62.67400 38.74600
H  29.78900 63.81700 39.16700
H  28.27600 64.06800 41.46000
H  27.11500 63.45600 40.31700
H  28.06700 64.99800 39.93500
H  25.30300 60.07800 40.46300
H  24.20300 58.78500 40.27000
H  24.67800 59.89400 38.82700
H  26.12500 54.68800 37.49300
H  26.30000 50.86200 39.49500
H  24.55100 51.01800 38.95600
H  25.18100 51.81100 40.46900

