158

Mg -12.39500 37.92900 42.79700
C  -10.03400 35.46600 41.67400
C  -10.35100 40.26400 41.21100
C  -14.88600 40.00400 43.00900
C  -14.32300 35.22600 43.99100
N  -10.47700 37.80100 41.51000
C  -9.62000 36.71000 41.30200
C  -8.37200 37.04400 40.52200
C  -8.50700 38.60800 40.53200
C  -9.83000 38.94300 41.19400
C  -7.31500 39.26500 41.25700
C  -8.39000 36.32600 39.12500
C  -7.27400 35.30300 38.78100
H  -6.30600 35.56000 37.59000
N  -12.55400 39.91700 42.29400
C  -11.65000 40.75700 41.62800
C  -12.28400 42.13300 41.53800
C  -13.59200 42.02600 42.14000
C  -13.72700 40.60800 42.46200
C  -11.60500 43.34600 40.96400
C  -14.62300 43.13400 42.37300
O  -14.23000 44.27100 42.09400
C  -16.01200 43.03300 42.83500
N  -14.37800 37.60900 43.27300
C  -15.16700 38.66700 43.38000
C  -16.54900 38.16900 43.74100
C  -16.29400 36.78400 44.46300
C  -14.92500 36.45600 43.89300
C  -17.39200 39.14700 44.57600
C  -17.44700 35.73900 44.46200
C  -17.84500 35.40200 45.93100
N  -12.24000 35.75200 42.95000
C  -13.11200 34.81300 43.47600
C  -12.49800 33.47600 43.39500
C  -11.30800 33.69100 42.68400
C  -11.19900 35.09300 42.42000
C  -13.13000 32.20900 43.94300
C  -10.13800 33.01700 42.13200
O  -9.79800 31.88100 42.18900
C  -9.24600 34.15800 41.55200
C  -7.95300 34.17300 42.26200
O  -6.99300 33.52500 41.97200
O  -7.92300 35.14600 43.28700
C  -6.65500 35.59600 43.87300
H  -9.71000 40.97800 40.68800
H  -15.76200 40.65500 42.98200
H  -14.85900 34.38900 44.44200
H  -7.58600 36.63500 41.15700
H  -8.58600 38.92900 39.49400
H  -6.39300 38.69800 41.12600
H  -7.58900 39.35100 42.30800
H  -7.16500 40.19000 40.70000
H  -8.36400 37.08200 38.34000
H  -9.39600 35.90400 39.11900
H  -7.79300 34.36100 38.60500
H  -6.67900 35.17900 39.68600
H  -11.94600 43.71800 39.99800
H  -10.55000 43.10000 40.84200
H  -11.66000 44.10100 41.74800
H  -16.68500 42.64300 42.07200
H  -16.42100 44.02800 43.00800
H  -16.01900 42.52400 43.79900
H  -17.15500 37.86800 42.88700
H  -15.97000 36.95600 45.49000
H  -16.80700 40.05800 44.70400
H  -17.67900 38.69700 45.52600
H  -18.33700 39.46500 44.13500
H  -17.18900 34.79900 43.97300
H  -18.39100 36.18300 44.14800
H  -17.69100 34.35000 46.16900
H  -18.89800 35.43300 46.21300
H  -17.32900 36.04900 46.64000
H  -14.17200 32.41400 44.18700
H  -12.44900 31.86900 44.72300
H  -13.06000 31.40300 43.21200
H  -9.00800 33.91300 40.51700
H  -5.84300 34.87500 43.78600
H  -6.78000 35.85800 44.92400
H  -6.48700 36.56900 43.41100
Mg -6.47500 25.53200 26.02400
C  -4.64900 26.34600 28.83700
C  -8.32900 23.41900 27.86400
C  -7.34900 23.89600 23.09400
C  -4.01700 27.30100 24.11700
N  -6.40900 24.97800 28.06600
C  -5.78000 25.52300 29.04300
C  -6.24600 25.03900 30.39900
C  -7.31200 23.91800 30.12300
C  -7.35200 24.07400 28.58800
C  -6.78200 22.53000 30.38200
C  -6.89600 26.22200 31.16600
C  -6.96200 26.21500 32.65700
H  -6.35500 25.12300 33.49000
N  -7.72300 23.92000 25.56500
C  -8.43800 23.22000 26.49900
C  -9.25100 22.23800 25.75000
C  -9.03600 22.40300 24.38800
C  -7.94000 23.44000 24.32800
C  -10.00800 21.16000 26.46500
C  -9.54800 21.59700 23.14100
O  -9.06000 21.86600 22.03100
C  -10.50700 20.39900 23.25300
N  -5.64700 25.44400 23.92000
C  -6.30200 24.80300 22.93100
C  -5.74600 25.23100 21.60100
C  -4.71600 26.28500 21.92400
C  -4.76200 26.42400 23.42800
C  -5.12500 23.89300 20.92200
C  -4.85700 27.76100 21.22100
C  -3.69100 28.26600 20.30100
N  -4.78700 26.82200 26.37500
C  -3.96300 27.48100 25.53300
C  -3.04800 28.23000 26.32700
C  -3.18300 27.80600 27.65100
C  -4.25100 26.94700 27.58500
C  -1.94800 29.16300 25.74700
C  -2.69300 27.87400 29.03200
O  -1.71500 28.45900 29.58500
C  -3.67100 26.98400 29.86000
C  -2.84100 26.08100 30.72500
O  -2.33800 24.98800 30.41300
O  -2.75900 26.63200 31.94900
C  -1.93800 26.00000 32.97600
H  -9.06300 22.85500 28.44300
H  -7.73300 23.67100 22.09700
H  -3.41200 28.02200 23.56400
H  -5.43300 24.71400 31.04900
H  -8.30100 24.11700 30.53700
H  -5.88600 22.53700 31.00300
H  -6.49200 22.18800 29.38800
H  -7.44600 21.88600 30.95900
H  -7.94900 26.09500 30.91300
H  -6.59400 27.18100 30.74600
H  -8.02600 26.12700 32.87600
H  -6.59100 27.16400 33.04300
H  -10.92500 21.13100 25.87700
H  -10.27800 21.36200 27.50100
H  -9.53600 20.19400 26.28400
H  -10.10500 19.46000 23.63300
H  -10.75500 20.09200 22.23700
H  -11.31600 20.82700 23.84500
H  -6.54200 25.55100 20.92900
H  -3.76300 25.84500 21.63100
H  -5.73100 23.64300 20.05100
H  -5.27500 23.05700 21.60600
H  -4.09400 23.97800 20.57900
H  -5.01400 28.48200 22.02300
H  -5.79800 27.76800 20.67100
H  -4.17500 28.33900 19.32700
H  -3.01600 27.46600 19.99800
H  -3.16800 29.17800 20.59100
H  -2.26900 29.59900 24.80100
H  -1.03700 28.60700 25.52400
H  -1.77600 29.96600 26.46400
H  -4.18700 27.66900 30.53200
H  -0.92400 26.36800 32.82000
H  -1.95700 24.91300 32.90200
H  -2.21900 26.25800 33.99700

