158

Mg -1.67000 17.04900 26.33300
C  -2.03500 14.90600 29.05500
C  -2.11000 19.64200 28.42800
C  -1.92000 19.08100 23.53700
C  -1.68800 14.34300 24.12400
N  -2.35100 17.23800 28.52900
C  -2.22000 16.24000 29.48400
C  -2.35900 16.67300 30.87600
C  -2.47300 18.23700 30.63800
C  -2.32100 18.42400 29.11000
C  -3.72000 18.90900 31.25300
C  -1.09600 16.38700 31.79900
C  -0.80500 17.15500 33.07300
H  -0.93100 16.40700 34.29500
N  -1.79200 19.02700 26.03300
C  -1.99300 19.96400 27.04500
C  -2.02800 21.24900 26.46300
C  -1.82700 21.11900 25.10000
C  -1.94900 19.69600 24.82700
C  -2.27500 22.59400 27.24100
C  -1.54700 22.21200 24.06000
O  -1.70000 22.07400 22.81400
C  -0.98500 23.53100 24.45700
N  -1.75300 16.72800 24.04400
C  -1.78700 17.71300 23.18600
C  -1.85800 17.14600 21.79100
C  -1.38700 15.67300 21.91900
C  -1.49900 15.51000 23.47000
C  -3.27700 17.32300 21.18200
C  -0.07200 15.31300 21.16600
C  1.14600 15.60600 21.91500
N  -1.92000 15.07500 26.50800
C  -1.79800 14.06300 25.56200
C  -1.75500 12.75800 26.22300
C  -1.83000 13.08600 27.60300
C  -1.92900 14.49700 27.71100
C  -1.71900 11.41800 25.53300
C  -1.93100 12.53200 28.94800
O  -1.85600 11.36800 29.27300
C  -1.96900 13.66700 29.94500
C  -0.67100 13.55200 30.70200
O  0.36900 13.93000 30.28900
O  -0.84700 12.99000 31.98700
C  0.31100 12.97500 32.83200
H  -2.07200 20.49200 29.11400
H  -1.98700 19.74100 22.67000
H  -1.56800 13.52200 23.41400
H  -3.32800 16.30900 31.21800
H  -1.65700 18.69900 31.19400
H  -4.08000 19.56200 30.45800
H  -3.48700 19.40800 32.19400
H  -4.61000 18.30600 31.43400
H  -0.14000 16.34600 31.27700
H  -1.29100 15.36100 32.11100
H  -1.41900 18.05200 33.15600
H  0.24000 17.46200 33.02100
H  -2.83000 22.28200 28.12500
H  -2.87200 23.20900 26.56900
H  -1.36300 23.08400 27.58200
H  -0.25600 23.49900 25.26700
H  -1.82600 24.17500 24.71300
H  -0.47100 24.05000 23.64800
H  -1.14800 17.60100 21.10000
H  -2.15800 14.98600 21.57300
H  -3.25000 17.63900 20.13900
H  -3.82300 18.11600 21.69200
H  -3.71500 16.32500 21.18800
H  0.00700 15.86300 20.22900
H  -0.12400 14.25600 20.90600
H  0.89600 16.31600 22.70400
H  1.92000 16.18000 21.40400
H  1.51600 14.68000 22.35500
H  -1.31400 11.42400 24.52100
H  -2.71000 10.97200 25.44600
H  -1.13100 10.76200 26.17400
H  -2.78800 13.51000 30.64600
H  0.92000 12.14800 32.46700
H  -0.09000 12.79100 33.82800
H  0.80200 13.94700 32.80500
Mg 17.00400 -3.07200 27.45500
C  16.35200 -1.16200 30.47100
C  18.68900 -5.25000 29.37700
C  18.25000 -4.40100 24.63200
C  15.50500 -0.53500 25.65700
N  17.52100 -3.11000 29.71200
C  17.03000 -2.35400 30.72900
C  17.36700 -2.94700 32.09700
C  18.27100 -4.21300 31.72300
C  18.12200 -4.20600 30.16600
C  19.69800 -4.03500 32.19300
C  16.07300 -3.17700 32.98900
C  16.16900 -2.91300 34.46500
H  17.57300 -2.64700 35.05500
N  18.05100 -4.74400 27.02700
C  18.69800 -5.55200 27.96000
C  19.35300 -6.65900 27.21400
C  19.17000 -6.44000 25.78300
C  18.50100 -5.12700 25.80600
C  20.15200 -7.72600 27.96600
C  19.63800 -7.27800 24.64600
O  19.45400 -7.01700 23.47300
C  20.27400 -8.62500 25.04800
N  16.89300 -2.51500 25.48600
C  17.62500 -3.19200 24.49400
C  17.40900 -2.61100 23.07100
C  16.27100 -1.51900 23.38600
C  16.10500 -1.55700 24.95500
C  18.65300 -2.02900 22.37000
C  15.02700 -1.78000 22.52900
C  13.74700 -2.29900 23.18000
N  16.07000 -1.18000 27.95800
C  15.48500 -0.32100 27.05800
C  14.95100 0.82600 27.80100
C  15.29400 0.60600 29.14000
C  15.96000 -0.69200 29.19800
C  14.19100 1.98600 27.13000
C  15.13100 1.07100 30.50700
O  14.52300 2.03700 30.98800
C  15.91000 -0.09000 31.40900
C  16.92800 0.56700 32.31800
O  18.13400 0.44600 32.23600
O  16.11400 1.16300 33.34900
C  17.08500 1.67300 34.30300
H  19.05200 -6.08200 29.98300
H  18.63700 -4.75200 23.67300
H  15.05300 0.23100 25.02300
H  17.97200 -2.16800 32.56200
H  17.86800 -5.16400 32.07000
H  20.32500 -4.02700 31.30200
H  20.13700 -4.72900 32.91000
H  19.79600 -3.08700 32.72400
H  15.93900 -4.25700 32.92600
H  15.18600 -2.63500 32.65800
H  15.65100 -3.69500 35.01900
H  15.63800 -1.99300 34.70900
H  19.60200 -8.61900 28.26300
H  20.47800 -7.29900 28.91400
H  21.08100 -7.94700 27.44000
H  21.28700 -8.53500 25.43900
H  20.49000 -9.03200 24.06100
H  19.56100 -9.29700 25.52700
H  16.90800 -3.39100 22.49800
H  16.59100 -0.52900 23.05900
H  18.87100 -0.96500 22.45000
H  18.54500 -2.08500 21.28600
H  19.56900 -2.52900 22.68600
H  15.27900 -2.52800 21.77800
H  14.70900 -0.87900 22.00400
H  13.73800 -1.89400 24.19200
H  13.73700 -3.38200 23.30700
H  12.76500 -2.07400 22.76400
H  13.11300 1.83200 27.17300
H  14.48200 2.28700 26.12300
H  14.47600 2.83400 27.75300
H  15.12400 -0.40200 32.09600
H  17.64800 2.41200 33.73200
H  17.74800 0.90300 34.69800
H  16.51500 2.22800 35.04800

