158

Mg 2.20000 -1.01500 43.79900
C  5.41200 -0.38300 42.88500
C  0.99400 1.68700 42.01800
C  -1.09300 -2.06800 44.37900
C  3.17400 -4.20100 45.13700
N  3.08600 0.25500 42.27700
C  4.48200 0.45100 42.19100
C  4.77100 1.74200 41.35700
C  3.35000 2.31800 41.05900
C  2.40000 1.44200 41.95900
C  3.18400 3.74900 41.40900
C  5.74500 1.55000 40.17400
C  6.91800 2.59600 39.98400
H  6.92700 3.37100 38.62600
N  0.27900 -0.16000 43.38900
C  0.02200 0.99100 42.68100
C  -1.42700 1.21000 42.62500
C  -2.04900 0.17100 43.37200
C  -0.97700 -0.73000 43.77200
C  -2.07300 2.27200 41.83000
C  -3.55900 0.11000 43.61600
O  -4.25500 0.97800 43.06100
C  -4.19900 -0.89600 44.55700
N  1.27200 -2.86000 44.73300
C  -0.10100 -2.97400 44.81000
C  -0.45900 -4.27600 45.63700
C  0.84500 -5.12300 45.60100
C  1.84000 -4.03100 45.10200
C  -1.06100 -3.98000 46.99200
C  0.94000 -6.49900 44.86800
C  -0.05300 -7.61600 45.24400
N  3.94300 -2.10100 44.12800
C  4.16100 -3.33500 44.61600
C  5.56900 -3.59500 44.62100
C  6.16500 -2.40400 44.07400
C  5.06500 -1.56100 43.69300
C  6.29100 -4.94000 45.06000
C  7.42200 -1.68000 43.74000
O  8.64100 -2.02800 43.79500
C  6.90000 -0.25200 43.04600
C  7.27300 1.00300 43.77600
O  6.59800 1.49500 44.69900
O  8.49800 1.53400 43.33100
C  8.85000 2.74800 44.06400
H  0.56400 2.59000 41.58100
H  -2.09500 -2.45800 44.57000
H  3.52900 -5.16900 45.49700
H  5.29000 2.40700 42.04800
H  3.10300 2.14500 40.01100
H  4.10200 4.33400 41.35300
H  3.02100 3.91500 42.47400
H  2.44600 4.14900 40.71400
H  5.01400 1.63800 39.37000
H  6.12900 0.54200 40.32300
H  7.90600 2.14400 40.07900
H  6.84400 3.33900 40.77900
H  -2.98000 1.94300 41.32400
H  -1.48000 2.68800 41.01500
H  -2.41600 3.07500 42.48300
H  -5.16400 -0.56200 44.93500
H  -3.58300 -0.94100 45.45600
H  -4.33200 -1.83400 44.01800
H  -1.27100 -4.78900 45.12000
H  0.96600 -5.30400 46.66900
H  -1.39200 -2.94200 46.96100
H  -0.32800 -4.18100 47.77300
H  -1.90100 -4.62900 47.23800
H  1.97100 -6.83100 44.99400
H  0.79600 -6.39900 43.79200
H  -0.45000 -7.98900 44.29900
H  -0.69900 -7.43900 46.10400
H  0.56600 -8.40900 45.66200
H  5.94800 -5.23800 46.05100
H  7.34700 -4.72300 45.21900
H  6.16600 -5.58200 44.18800
H  7.26700 -0.13600 42.02600
H  9.69100 3.26400 43.60100
H  9.04100 2.48900 45.10600
H  8.07700 3.51300 44.13800
Mg 6.07600 54.17000 41.46700
C  5.28900 50.63600 41.09500
C  9.21100 53.32900 40.44200
C  6.61600 57.51500 41.12600
C  2.72300 54.72700 42.23300
N  7.05300 52.16700 40.71000
C  6.57000 50.89600 40.61000
C  7.64500 49.90100 40.22800
C  8.89200 50.75300 40.46700
C  8.33100 52.20600 40.54400
C  9.71400 50.48300 41.76500
C  7.66000 49.29100 38.75800
C  7.24800 50.24200 37.63100
H  5.76400 50.29500 37.18500
N  7.62900 55.30500 40.73500
C  8.88400 54.76500 40.47900
C  9.80300 55.80500 40.14900
C  9.10600 57.07400 40.43600
C  7.71000 56.71600 40.80600
C  11.23700 55.49000 39.83800
C  9.68700 58.50100 40.39000
O  10.90900 58.61800 40.24900
C  8.80600 59.73300 40.65200
N  4.82300 55.81400 41.66100
C  5.32100 57.08000 41.54000
C  4.23000 58.14000 41.86900
C  3.00700 57.25500 42.20000
C  3.51900 55.82000 42.03600
C  4.73300 59.11800 42.94900
C  1.71300 57.65400 41.38100
C  0.43900 57.89500 42.22200
N  4.32900 53.00800 41.87500
C  3.05800 53.36100 42.10100
C  2.17500 52.21600 42.19900
C  3.04700 51.13200 41.97400
C  4.33600 51.62900 41.64600
C  0.66900 52.16800 42.47400
C  3.11500 49.62700 41.85300
O  2.30600 48.75900 42.14200
C  4.53600 49.32900 41.34100
C  4.28000 48.68500 40.04600
O  3.74500 49.02200 39.03300
O  4.69800 47.34100 40.17400
C  4.85000 46.53400 38.94800
H  10.28300 53.15900 40.31700
H  6.59500 58.60100 41.01000
H  1.67100 54.96900 42.40100
H  7.62000 49.12800 40.99600
H  9.58200 50.66300 39.62800
H  9.68800 51.26800 42.52100
H  10.75300 50.35100 41.46500
H  9.46000 49.51500 42.19600
H  6.92500 48.48600 38.73600
H  8.64200 48.92900 38.45600
H  7.81800 49.92400 36.75800
H  7.56600 51.27900 37.73500
H  11.36000 54.46700 39.48100
H  11.91700 55.45700 40.69000
H  11.66400 56.14700 39.08100
H  8.05800 59.70200 39.85900
H  9.38200 60.65300 40.55500
H  8.28900 59.68100 41.61000
H  4.12500 58.71900 40.95100
H  2.74600 57.41700 43.24600
H  3.99700 59.30100 43.73300
H  4.83100 60.13500 42.56900
H  5.65100 58.70800 43.37000
H  1.48800 56.98500 40.55100
H  1.87000 58.62400 40.91000
H  0.39800 57.34000 43.15900
H  -0.40700 57.71400 41.55900
H  0.48800 58.93700 42.53700
H  0.07400 51.99300 41.57700
H  0.42500 53.12500 42.93500
H  0.35700 51.39900 43.18100
H  5.14000 48.70700 42.00100
H  5.77600 45.96100 38.97700
H  4.78000 47.20900 38.09500
H  4.05800 45.78800 39.01200

