158

Mg 54.31900 24.45300 43.60800
C  51.66800 26.70900 43.50700
C  52.17300 21.92100 43.04900
C  56.96700 22.47300 43.08400
C  56.50400 27.17700 44.12500
N  52.20700 24.38200 43.02800
C  51.31800 25.37300 43.09600
C  49.96100 24.88500 42.80700
C  49.99700 23.39000 43.16200
C  51.56400 23.18300 43.04300
C  49.30200 22.99300 44.47400
C  49.67800 25.17300 41.27600
C  48.31700 24.98100 40.78800
H  48.18300 24.65200 39.34200
N  54.51500 22.48200 43.06000
C  53.54800 21.58700 42.90400
C  54.08200 20.27900 42.73700
C  55.46200 20.34900 42.77100
C  55.69800 21.79500 42.97800
C  53.29200 19.01000 42.48100
C  56.51400 19.19900 42.69300
O  56.22400 18.05200 42.57700
C  57.98700 19.49000 42.67900
N  56.44300 24.83700 43.52500
C  57.32600 23.84500 43.39000
C  58.78900 24.32100 43.47000
C  58.58600 25.81700 43.82900
C  57.08100 25.94600 43.73800
C  59.72000 23.64600 44.49100
C  59.43200 26.81900 42.94200
C  58.84200 27.19300 41.55200
N  54.16200 26.49400 43.92200
C  55.09000 27.44100 44.26800
C  54.45200 28.68700 44.59600
C  53.09400 28.43100 44.36400
C  52.98700 27.15000 43.82400
C  55.14900 29.95900 45.14600
C  51.79300 28.99700 44.27700
O  51.33900 30.09600 44.49300
C  50.86800 27.96100 43.70300
C  50.34400 28.40600 42.39700
O  51.02600 28.66500 41.40800
O  48.94300 28.46500 42.40200
C  48.31600 28.91300 41.14000
H  51.49300 21.08300 42.88600
H  57.85600 21.84200 43.14500
H  57.20600 28.01300 44.14500
H  49.30000 25.40900 43.49700
H  49.54000 22.85400 42.33000
H  48.39400 22.43400 44.24600
H  49.05200 23.89500 45.03300
H  49.97700 22.46400 45.14700
H  50.43300 24.59000 40.74800
H  49.90300 26.22700 41.11800
H  47.90100 25.97500 40.95300
H  47.89800 24.14900 41.35500
H  52.59700 18.98800 41.64100
H  52.66600 18.76700 43.33900
H  53.79300 18.06200 42.28800
H  58.50000 18.56800 42.40600
H  58.25400 19.90600 43.65100
H  58.13300 20.16600 41.83700
H  59.33900 24.24000 42.53200
H  58.93400 26.05200 44.83500
H  59.92700 24.27600 45.35700
H  60.70100 23.55700 44.02400
H  59.25300 22.70700 44.78700
H  60.37600 26.30900 42.75400
H  59.73900 27.65700 43.56800
H  58.39400 28.18200 41.45700
H  58.14100 26.42800 41.21900
H  59.74100 27.06400 40.95000
H  54.74800 30.29900 46.10000
H  54.98600 30.78000 44.44800
H  56.23000 29.82800 45.19800
H  50.03700 27.91300 44.40700
H  48.66000 28.26700 40.33200
H  48.68600 29.93000 41.01100
H  47.24200 28.83700 41.31100
Mg 5.01000 53.55800 41.73500
C  4.69200 50.07300 40.53500
C  8.07100 53.58800 40.24900
C  4.87300 56.92700 41.90800
C  1.66600 53.32300 42.65500
N  6.08900 52.11100 40.27500
C  5.74200 50.75000 39.92500
C  6.81500 50.13600 38.99100
C  8.07000 51.01000 39.39100
C  7.41000 52.34000 40.04300
C  9.05300 50.20600 40.31300
C  6.42000 50.38900 37.47700
C  7.09800 49.52600 36.36100
H  6.30000 48.86000 35.20500
N  6.37900 55.02400 41.38300
C  7.52900 54.85000 40.76500
C  8.24500 56.14000 40.67500
C  7.39100 57.10600 41.18900
C  6.17300 56.39800 41.60600
C  9.55300 56.37400 40.10700
C  7.61900 58.58100 41.16200
O  8.70900 58.97500 40.75300
C  6.59600 59.56600 41.53200
N  3.55100 54.80100 42.39700
C  3.72100 56.18500 42.28000
C  2.44100 56.93700 42.42000
C  1.43400 55.86100 42.90600
C  2.22200 54.58600 42.61600
C  2.56900 58.23100 43.37300
C  0.10200 55.93100 42.25100
C  -1.08300 56.16100 43.24000
N  3.56500 52.03100 41.82500
C  2.29900 52.06500 42.27600
C  1.79900 50.72400 42.47000
C  2.72100 49.92500 41.79000
C  3.73600 50.73700 41.34700
C  0.52100 50.23600 43.13300
C  3.00400 48.53900 41.46900
O  2.38200 47.53600 41.73700
C  4.39200 48.54100 40.59000
C  4.08600 47.93300 39.32300
O  3.21200 48.25800 38.56500
O  4.92200 46.89600 39.12200
C  4.62000 46.07700 37.92500
H  9.07400 53.65000 39.82200
H  4.65800 57.99100 41.79600
H  0.65300 53.25800 43.05700
H  7.03500 49.09600 39.23100
H  8.64300 51.16700 38.47700
H  8.80300 49.15200 40.42800
H  9.00700 50.76000 41.25000
H  10.10400 50.36100 40.06700
H  6.78400 51.37800 37.19800
H  5.33700 50.34500 37.36500
H  7.33500 48.66000 36.97900
H  8.03700 49.96500 36.02400
H  10.10400 55.49800 39.76500
H  10.15100 56.92700 40.83100
H  9.51600 57.02000 39.22900
H  6.98800 60.57000 41.37300
H  6.43000 59.46200 42.60400
H  5.72600 59.44000 40.88700
H  2.11200 57.35600 41.46900
H  1.39100 55.87700 43.99500
H  3.55000 58.31700 43.84200
H  1.81200 58.06800 44.13900
H  2.28300 59.05300 42.71600
H  -0.15500 54.99800 41.75000
H  0.15500 56.70700 41.48600
H  -1.92900 55.57100 42.88600
H  -1.34600 57.21600 43.31600
H  -0.74400 55.83500 44.22300
H  -0.10300 51.11700 43.28800
H  0.68900 49.80800 44.12100
H  -0.02600 49.59900 42.43800
H  5.08600 48.01100 41.24200
H  4.16000 45.14900 38.26500
H  5.60800 45.75800 37.59300
H  3.99100 46.55300 37.17300

