158

Mg 48.58100 46.15300 43.40000
C  45.38300 46.80600 41.92400
C  48.43800 43.02900 41.76100
C  51.76800 45.88100 43.98700
C  48.71700 49.57000 44.29000
N  47.11000 45.09300 41.89900
C  45.90400 45.60700 41.47200
C  45.22300 44.59000 40.53000
C  46.11900 43.33800 40.69500
C  47.25400 43.80000 41.52800
C  45.42400 42.07700 41.24400
C  45.04300 45.11500 39.10400
C  43.73400 44.63000 38.42500
H  43.88300 43.67200 37.16000
N  49.84300 44.58000 43.16200
C  49.62200 43.39100 42.43200
C  50.85200 42.64900 42.41300
C  51.89000 43.38400 43.10800
C  51.16500 44.70100 43.49000
C  50.92300 41.28400 41.67800
C  53.38800 42.97200 43.24700
O  53.80000 41.86100 42.83100
C  54.34400 43.98000 43.81900
N  50.05400 47.54300 44.05700
C  51.32600 47.13300 44.31500
C  52.22500 48.33100 44.70800
C  51.20100 49.39600 45.14500
C  49.91000 48.85600 44.46200
C  53.28100 47.92700 45.81500
C  51.55800 50.80700 44.64200
C  51.62300 51.84700 45.67800
N  47.36300 47.91300 43.18900
C  47.45200 49.15500 43.76000
C  46.21700 49.86800 43.62400
C  45.35200 48.98800 42.87200
C  46.12200 47.80900 42.65600
C  45.89000 51.32100 44.13000
C  44.04300 48.88400 42.28200
O  43.12400 49.64300 42.18000
C  44.08800 47.48400 41.48000
C  42.88300 46.67100 41.80700
O  41.90300 46.28000 41.08900
O  43.00400 46.42700 43.10300
C  42.11600 45.36900 43.52000
H  48.44600 42.07600 41.22800
H  52.83900 45.79500 44.18200
H  48.71600 50.62500 44.57500
H  44.24500 44.33200 40.93700
H  46.59800 43.07900 39.75100
H  45.32800 42.10200 42.33000
H  45.96100 41.15900 41.00400
H  44.47900 42.02200 40.70500
H  45.87300 44.92900 38.42300
H  45.11400 46.19300 38.95800
H  43.29300 45.60400 38.21400
H  42.94600 44.09100 38.95100
H  51.75300 40.61300 41.90200
H  50.90800 41.40600 40.59500
H  50.03800 40.67500 41.86200
H  53.90400 44.14600 44.80300
H  54.52700 44.78900 43.11200
H  55.31100 43.53100 44.04700
H  52.81700 48.56800 43.82400
H  51.14900 49.44100 46.23300
H  53.19900 48.68300 46.59600
H  54.25200 48.07000 45.34200
H  53.29300 46.93200 46.26100
H  50.96700 51.13200 43.78600
H  52.59600 50.66400 44.34100
H  51.41500 51.53800 46.70200
H  50.98400 52.69700 45.44000
H  52.65400 52.19500 45.74400
H  46.62900 52.01000 43.72100
H  45.85300 51.40100 45.21700
H  44.97500 51.70900 43.68200
H  44.00300 47.66900 40.40900
H  42.41900 45.14100 44.54200
H  42.23700 44.47400 42.90900
H  41.04000 45.51700 43.42600
Mg 35.45000 49.56100 26.47800
C  35.73600 47.21900 29.05000
C  34.23500 51.89300 28.82800
C  34.87700 51.59800 24.00100
C  36.33600 47.00900 24.15800
N  35.06900 49.52600 28.65700
C  35.31300 48.47700 29.50900
C  35.14800 48.93200 30.88700
C  34.26900 50.18000 30.74800
C  34.44800 50.55000 29.34700
C  32.78800 49.93300 31.08700
C  36.53400 49.13300 31.54300
C  36.74900 48.68500 33.00300
H  37.02800 49.83100 34.00200
N  34.88300 51.51700 26.51000
C  34.44300 52.33200 27.50900
C  34.29400 53.65800 26.95800
C  34.46700 53.62400 25.56300
C  34.78400 52.17600 25.29000
C  33.83000 54.74000 27.85900
C  34.34300 54.72600 24.54200
O  34.50000 54.56000 23.34700
C  34.03400 56.27700 24.91100
N  35.36000 49.20400 24.35000
C  35.20000 50.28900 23.55400
C  35.43300 49.95800 22.05200
C  36.14800 48.58800 22.16900
C  35.92900 48.26300 23.61400
C  34.03600 49.88300 21.35700
C  37.58500 48.45600 21.76600
C  37.92200 47.23900 20.81700
N  35.84600 47.46700 26.52400
C  36.26700 46.55200 25.52000
C  36.47300 45.24300 26.10800
C  36.32000 45.42300 27.53600
C  35.88300 46.82300 27.74600
C  36.74800 43.96600 25.39200
C  36.40000 44.83100 28.91400
O  36.58600 43.68500 29.30700
C  36.11000 45.97100 29.87500
C  35.03800 45.49800 30.84500
O  33.98800 44.94200 30.61700
O  35.40800 45.90500 32.10000
C  34.46500 45.64700 33.16300
H  33.97500 52.50100 29.69700
H  34.71300 52.24800 23.13900
H  36.58700 46.30800 23.35900
H  34.62000 48.11700 31.38200
H  34.72500 50.86400 31.46400
H  32.61700 48.96600 30.61300
H  32.15900 50.58800 30.48400
H  32.53300 49.98500 32.14500
H  36.87200 50.15200 31.73300
H  37.34000 48.76600 30.90800
H  37.48500 47.88100 32.99800
H  35.82900 48.18100 33.29800
H  34.51200 55.58700 27.78800
H  33.59900 54.43000 28.87800
H  32.85100 55.03600 27.48100
H  33.08100 56.43600 25.41500
H  34.08900 56.74900 23.93100
H  34.82100 56.66800 25.55600
H  36.07700 50.68600 21.55900
H  35.52300 47.95200 21.54200
H  33.24600 49.67800 22.07900
H  33.98600 49.19600 20.51300
H  33.82100 50.86100 20.92600
H  38.21100 48.34400 22.65200
H  37.92200 49.33900 21.22200
H  38.08400 47.63700 19.81500
H  37.17200 46.44800 20.81900
H  38.91500 46.83400 21.01300
H  37.72700 44.15500 24.95000
H  36.07300 43.75500 24.56300
H  36.62800 43.05800 25.98300
H  36.90300 46.34900 30.52000
H  34.39400 46.46200 33.88400
H  34.99600 44.89400 33.74500
H  33.45100 45.27400 33.02200

