158

Mg 49.58500 47.68900 42.79900
C  46.33300 48.34200 41.40100
C  49.60000 44.77300 40.84500
C  52.82000 47.32600 43.52300
C  49.70900 51.06700 43.74900
N  48.15300 46.76300 41.25200
C  46.82800 47.12900 40.93700
C  46.17400 46.11000 39.95800
C  47.21500 44.95400 39.88700
C  48.41400 45.49900 40.71500
C  46.73100 43.50300 40.29600
C  45.64100 46.74500 38.59800
C  44.11000 46.48700 38.32000
H  43.50900 45.95500 37.02000
N  51.07000 46.28600 42.22300
C  50.88200 45.12000 41.50600
C  52.11600 44.41300 41.47500
C  53.04100 45.08100 42.32000
C  52.30800 46.26800 42.73500
C  52.32300 43.12600 40.72700
C  54.43300 44.62600 42.71800
O  54.92500 43.56800 42.21600
C  55.52700 45.35100 43.60800
N  51.08500 49.08600 43.50700
C  52.29800 48.55900 43.92000
C  52.99800 49.54100 44.85900
C  52.15300 50.88300 44.80700
C  50.91600 50.41200 43.94300
C  53.35800 49.05100 46.28800
C  52.88600 52.08100 44.03700
C  52.50500 53.53800 44.45500
N  48.25100 49.34700 42.73700
C  48.51700 50.63700 43.10800
C  47.33000 51.43500 42.84200
C  46.37500 50.54700 42.17600
C  47.02700 49.31500 42.13800
C  47.14000 52.88200 43.06200
C  45.04300 50.40600 41.57400
O  44.08700 51.18400 41.54600
C  44.93400 48.89400 41.29100
C  43.99000 48.18500 42.26600
O  44.17500 48.09600 43.46600
O  42.87900 47.82700 41.59100
C  41.93500 46.87500 42.09600
H  49.53800 43.78800 40.37700
H  53.80600 47.22600 43.98200
H  49.70400 52.05200 44.22100
H  45.29500 45.82500 40.53500
H  47.59300 44.96100 38.86500
H  45.65100 43.64900 40.25700
H  47.21900 43.25600 41.23800
H  47.12300 42.81800 39.54400
H  46.07900 46.22500 37.74600
H  45.85600 47.81400 38.57700
H  43.82500 47.53700 38.25500
H  43.64600 46.10800 39.23100
H  52.88200 43.42000 39.83900
H  51.36600 42.69800 40.43000
H  52.99800 42.43600 41.23300
H  55.60000 46.39500 43.30300
H  56.49700 44.89200 43.42000
H  55.34100 45.17000 44.66700
H  54.01100 49.62100 44.46300
H  51.79200 51.25900 45.76500
H  54.23700 49.57300 46.66600
H  53.49500 47.97100 46.22500
H  52.57600 49.22100 47.02700
H  52.60500 52.04900 42.98400
H  53.97000 51.96300 44.01000
H  51.96800 54.13100 43.71600
H  53.31800 54.10200 44.91400
H  51.84400 53.43400 45.31600
H  48.07600 53.38100 42.81300
H  46.84700 52.98200 44.10700
H  46.35300 53.37400 42.49100
H  44.61300 48.71000 40.26500
H  42.02400 46.53600 43.12800
H  41.74100 46.09900 41.35600
H  41.12700 47.60300 42.17000
Mg -12.12500 16.63200 42.15300
C  -8.75000 15.30800 41.72200
C  -10.95500 19.53000 40.35200
C  -15.22000 17.43100 41.64300
C  -13.11700 13.21800 42.64500
N  -10.04600 17.31300 41.14100
C  -8.79500 16.63300 41.19900
C  -7.68900 17.47200 40.68600
C  -8.36200 18.91800 40.41700
C  -9.88700 18.61600 40.63600
C  -7.77800 20.21000 41.19000
C  -7.00700 16.91300 39.40300
C  -5.60000 16.47500 39.60300
H  -5.23500 15.16300 38.86100
N  -12.93300 18.35000 41.32900
C  -12.35400 19.36000 40.64600
C  -13.37600 20.31900 40.25200
C  -14.62500 19.85500 40.64200
C  -14.28900 18.49300 41.24900
C  -13.04400 21.70300 39.75500
C  -15.98900 20.52000 40.37600
O  -16.08000 21.59800 39.74700
C  -17.22700 19.81400 40.93900
N  -13.85000 15.48200 42.14200
C  -15.02200 16.09600 42.02700
C  -16.23900 15.18400 42.26400
C  -15.59800 13.81800 42.55100
C  -14.10400 14.15300 42.41200
C  -17.07800 15.71600 43.43300
C  -16.04300 12.71800 41.56100
C  -17.11800 11.86200 42.11300
N  -11.23000 14.71700 42.40000
C  -11.73400 13.42300 42.61300
C  -10.59800 12.53100 42.88100
C  -9.42500 13.24300 42.55300
C  -9.85500 14.54700 42.22800
C  -10.77000 11.09900 43.36700
C  -8.07200 13.12600 42.50000
O  -7.37300 12.17200 42.77300
C  -7.54300 14.51100 41.95700
C  -6.77200 15.06300 43.03700
O  -7.09300 16.03200 43.70800
O  -5.52700 14.45600 43.08000
C  -4.64000 14.86100 44.22500
H  -10.58700 20.46300 39.92000
H  -16.24900 17.78400 41.73500
H  -13.43500 12.17900 42.76300
H  -6.97900 17.53600 41.51100
H  -8.29900 19.17700 39.36000
H  -8.52500 20.56800 41.89800
H  -7.42900 21.00400 40.53000
H  -6.82000 19.88700 41.59700
H  -7.16400 17.57400 38.55000
H  -7.54700 16.03700 39.04400
H  -5.33800 16.28600 40.64400
H  -4.97000 17.20600 39.09500
H  -13.75800 22.18800 39.09000
H  -12.14100 21.77600 39.14900
H  -12.89800 22.37800 40.59900
H  -18.07400 20.47700 40.76600
H  -17.04200 19.77100 42.01200
H  -17.44700 18.85500 40.47100
H  -16.87300 15.15100 41.37800
H  -15.78600 13.68600 43.61700
H  -16.45000 16.43800 43.95400
H  -17.32600 14.91100 44.12500
H  -18.01600 16.12900 43.06200
H  -15.14500 12.10700 41.47400
H  -16.28800 13.11100 40.57400
H  -16.94100 10.82300 41.83700
H  -18.05900 12.09900 41.61600
H  -17.13200 11.95800 43.19900
H  -11.10000 10.49500 42.52200
H  -11.54900 11.16000 44.12700
H  -9.84100 10.71600 43.79100
H  -7.01900 14.42400 41.00500
H  -4.36700 15.90300 44.05900
H  -3.71600 14.30900 44.05500
H  -5.22200 14.69000 45.13100

