158

Mg -2.27400 17.10700 26.17800
C  -2.79700 15.21600 29.07300
C  -3.51700 19.78900 27.98200
C  -2.52500 19.15600 23.36800
C  -1.76800 14.40600 24.39200
N  -3.00400 17.50200 28.34400
C  -3.04600 16.51700 29.32200
C  -3.45200 17.23500 30.63600
C  -4.09500 18.51100 30.14400
C  -3.51700 18.64800 28.72500
C  -5.67000 18.49500 30.20600
C  -2.23100 17.34500 31.69000
C  -2.59500 16.83300 33.06400
H  -1.51000 16.39800 34.03000
N  -2.77500 19.16700 25.77700
C  -3.13100 20.08500 26.71000
C  -3.18500 21.44600 26.12400
C  -2.85300 21.26600 24.72600
C  -2.77700 19.81300 24.57100
C  -3.44400 22.76900 26.84900
C  -2.52900 22.28800 23.66300
O  -2.21500 22.00300 22.47300
C  -2.55600 23.68400 24.04800
N  -2.14800 16.84500 24.11400
C  -2.34600 17.72800 23.09600
C  -2.01700 17.05500 21.76700
C  -1.69100 15.56100 22.18000
C  -1.81400 15.60800 23.67600
C  -2.98500 17.30500 20.63900
C  -0.31900 15.08100 21.60600
C  0.96600 15.52600 22.33500
N  -2.16200 15.19100 26.60200
C  -2.03400 14.16400 25.73700
C  -2.23100 12.95700 26.42200
C  -2.42100 13.35300 27.74900
C  -2.40000 14.74100 27.79900
C  -2.27300 11.56200 25.83100
C  -2.66900 12.80400 29.07300
O  -2.70700 11.66300 29.56500
C  -2.90600 14.01000 30.00400
C  -1.91700 13.88000 31.11700
O  -0.69700 14.03800 31.11200
O  -2.59100 13.48300 32.25000
C  -1.87100 13.02500 33.39900
H  -3.91900 20.60800 28.58300
H  -2.62500 19.73200 22.44600
H  -1.40700 13.52700 23.85400
H  -4.20600 16.56600 31.05100
H  -3.89500 19.28500 30.88400
H  -6.06000 18.83000 31.16700
H  -6.00400 17.48500 29.96900
H  -6.03300 19.14300 29.40700
H  -2.02600 18.41200 31.77400
H  -1.30600 16.85100 31.39500
H  -3.29100 15.99600 33.00300
H  -2.90900 17.76300 33.53800
H  -4.22700 23.23800 26.25300
H  -2.57000 23.41100 26.96000
H  -3.85400 22.61500 27.84700
H  -3.57500 23.90000 24.36800
H  -2.16200 24.25500 23.20700
H  -1.90400 23.88200 24.89900
H  -1.20300 17.54600 21.23400
H  -2.45800 14.82900 21.93000
H  -3.20400 18.37200 20.61000
H  -3.88500 16.69100 20.68200
H  -2.63500 17.02200 19.64700
H  -0.33600 15.43700 20.57600
H  -0.28500 13.99200 21.58200
H  0.83900 16.27000 23.12100
H  1.61100 15.87500 21.52900
H  1.40300 14.65700 22.82700
H  -3.15300 11.02700 26.18700
H  -1.36300 10.98000 25.97800
H  -2.45800 11.75600 24.77500
H  -3.90100 13.84900 30.42000
H  -2.41600 13.38800 34.27100
H  -0.87000 13.42700 33.55100
H  -1.72200 11.94800 33.32500
Mg 37.17600 50.14100 24.73200
C  36.86100 48.52400 27.91600
C  36.17000 53.08100 26.27300
C  37.29600 51.49600 21.72800
C  37.61600 46.96600 23.33600
N  36.53600 50.75500 26.89600
C  36.61400 49.93500 28.06100
C  36.24000 50.74000 29.34800
C  35.91400 52.19100 28.76300
C  36.19200 52.02700 27.21100
C  34.56000 52.75400 29.20200
C  37.34100 50.78800 30.39900
C  37.09500 50.01600 31.72100
H  35.80300 50.32900 32.36100
N  36.72200 52.02800 24.04100
C  36.41000 53.12400 24.80600
C  36.37700 54.27100 23.95500
C  36.76900 53.79600 22.67500
C  36.97900 52.38900 22.76500
C  36.02900 55.75200 24.40400
C  37.00300 54.61400 21.34300
O  37.58800 54.14700 20.35900
C  36.62300 56.04600 21.21000
N  37.34700 49.31700 22.87600
C  37.50900 50.10700 21.83400
C  37.78400 49.25200 20.51900
C  38.07300 47.88300 21.08400
C  37.64000 48.01500 22.51900
C  36.62100 49.29800 19.40700
C  39.61000 47.49600 21.06400
C  40.15700 46.24600 20.43400
N  37.25700 48.13300 25.37800
C  37.48500 46.90100 24.72300
C  37.60300 45.78900 25.65100
C  37.34500 46.42200 26.86900
C  37.14800 47.80400 26.68600
C  37.75300 44.40800 25.36500
C  37.34200 46.09600 28.29800
O  37.57100 45.01400 28.93500
C  36.95300 47.43200 28.98700
C  35.62600 47.27900 29.62100
O  34.52300 47.57400 29.13700
O  35.81200 46.47600 30.79600
C  34.60100 45.97200 31.46400
H  35.88500 54.06800 26.64200
H  37.43700 51.93700 20.73900
H  37.82700 46.03300 22.80800
H  35.38600 50.26500 29.83100
H  36.57700 52.99600 29.07800
H  33.89900 52.01900 29.66100
H  34.03000 52.90900 28.26200
H  34.64400 53.65100 29.81400
H  37.51900 51.80600 30.74600
H  38.28500 50.35700 30.06500
H  37.85400 50.25600 32.46500
H  37.20300 48.94100 31.57400
H  35.68300 55.92300 25.42300
H  35.33900 56.11500 23.64200
H  36.94400 56.34400 24.37400
H  36.77400 56.63800 22.11300
H  35.53800 56.01800 21.11600
H  37.18500 56.52300 20.40700
H  38.67500 49.76700 20.16200
H  37.45300 47.11800 20.61700
H  36.90600 49.81600 18.49100
H  35.78400 49.87500 19.79900
H  36.18500 48.31800 19.21300
H  39.97600 47.43500 22.08900
H  40.23500 48.28600 20.64600
H  40.00300 45.44700 21.15900
H  41.21900 46.30500 20.19600
H  39.64700 46.19100 19.47200
H  38.40000 44.25400 24.50100
H  36.81900 43.89000 25.14900
H  38.18400 43.88400 26.21800
H  37.64400 47.72100 29.77900
H  34.05200 46.71900 32.03700
H  34.63800 45.10000 32.11600
H  33.81600 45.73500 30.74500

