158

Mg -2.13500 17.14000 26.39500
C  -2.56400 14.88800 28.93000
C  -2.83600 19.69300 28.62200
C  -2.19300 19.38300 23.72300
C  -2.28900 14.49600 24.00100
N  -2.50900 17.22700 28.53400
C  -2.52200 16.21900 29.42800
C  -2.79800 16.66300 30.94500
C  -3.12200 18.19500 30.64900
C  -2.80000 18.41000 29.15800
C  -4.53000 18.69100 31.16800
C  -1.59000 16.33800 31.91800
C  -1.99100 15.70500 33.23300
H  -2.52000 16.57600 34.32700
N  -2.21000 19.22500 26.22700
C  -2.49100 20.08000 27.28400
C  -2.39300 21.41900 26.70000
C  -2.19200 21.36400 25.28200
C  -2.19900 19.94000 25.02500
C  -2.64300 22.67400 27.59300
C  -1.91800 22.56500 24.31200
O  -1.95800 22.33300 23.08900
C  -1.69700 23.96200 24.68700
N  -2.36500 16.94200 24.15800
C  -2.33800 17.99700 23.31800
C  -2.39500 17.58800 21.84800
C  -2.27300 16.04500 21.97800
C  -2.34300 15.74800 23.44500
C  -3.62300 18.05800 21.04300
C  -0.91500 15.57600 21.34900
C  0.37800 15.97700 22.14000
N  -2.37000 15.18600 26.40100
C  -2.40300 14.20100 25.36600
C  -2.64600 12.91500 25.92400
C  -2.75400 13.19000 27.32600
C  -2.47900 14.52100 27.56600
C  -2.63000 11.57800 25.20500
C  -2.92100 12.51700 28.57600
O  -3.05000 11.34500 28.99000
C  -2.91100 13.64300 29.67800
C  -1.83600 13.24800 30.69600
O  -0.63300 13.42000 30.59800
O  -2.38400 12.47700 31.71600
C  -1.55400 12.07300 32.84100
H  -3.20100 20.38900 29.38000
H  -2.03300 20.07300 22.89200
H  -2.16700 13.66000 23.30900
H  -3.73900 16.12400 31.04600
H  -2.44300 18.74700 31.29900
H  -4.49200 19.60100 31.76700
H  -4.91400 17.99000 31.90800
H  -5.26600 18.84900 30.38000
H  -1.05200 17.25000 32.17500
H  -0.87500 15.67000 31.43600
H  -1.03000 15.26100 33.49300
H  -2.75900 14.94500 33.09400
H  -3.09600 22.52400 28.57200
H  -3.34700 23.32800 27.07800
H  -1.65000 23.10600 27.71400
H  -0.68000 24.02900 25.07400
H  -2.44800 24.22200 25.43300
H  -1.75100 24.63700 23.83200
H  -1.43400 17.89700 21.43800
H  -3.11600 15.63300 21.42300
H  -3.28600 18.14800 20.01100
H  -3.97300 19.05500 21.30900
H  -4.40000 17.29300 21.03500
H  -0.85600 15.89900 20.30900
H  -0.95000 14.48900 21.41500
H  0.95800 16.78600 21.69700
H  0.99800 15.08300 22.20900
H  0.15600 16.39800 23.12100
H  -2.01900 10.90000 25.80100
H  -2.29300 11.73000 24.18000
H  -3.62200 11.15000 25.34900
H  -3.92800 13.65500 30.07000
H  -2.00400 12.40400 33.77700
H  -0.52700 12.43500 32.79100
H  -1.45000 10.98800 32.84700
Mg 8.65200 3.54900 27.77900
C  9.81300 1.98500 30.84300
C  6.66000 5.56000 29.73900
C  7.27100 4.61600 24.95100
C  10.24100 0.83200 26.05700
N  8.12800 3.59000 29.96300
C  8.81700 2.95700 31.03700
C  8.29100 3.61100 32.38000
C  7.18500 4.56900 31.95600
C  7.33600 4.58200 30.44500
C  5.72300 4.15600 32.45700
C  9.43600 4.27500 33.10800
C  9.42800 4.02400 34.67600
H  10.79600 3.94300 35.38400
N  7.30500 5.04800 27.42100
C  6.60100 5.81500 28.31400
C  5.81700 6.82800 27.58200
C  6.07400 6.56700 26.18000
C  6.92300 5.35100 26.11300
C  4.92000 7.92900 28.17100
C  5.58900 7.36300 24.98500
O  5.80500 7.02600 23.80500
C  4.73900 8.52900 25.13700
N  8.82300 2.91100 25.79500
C  7.99900 3.42800 24.81700
C  8.22400 2.69200 23.40300
C  9.35400 1.66400 23.75800
C  9.50900 1.79300 25.33600
C  6.82100 2.19500 22.94800
C  10.80800 1.87800 23.22700
C  11.56400 0.58100 22.86500
N  9.79700 1.76000 28.30700
C  10.45200 0.85500 27.44600
C  11.25600 -0.05300 28.24100
C  11.15800 0.46000 29.56200
C  10.12100 1.43500 29.55300
C  12.06700 -1.19500 27.80200
C  11.61500 0.30500 30.96700
O  12.52300 -0.30400 31.45900
C  10.74800 1.31400 31.82700
C  10.18400 0.50100 32.93100
O  9.62200 -0.55600 32.81900
O  10.42300 1.06800 34.13300
C  10.03400 0.40400 35.36300
H  6.14600 6.31800 30.33400
H  6.83700 4.96100 24.01000
H  10.71000 0.03000 25.48300
H  8.00100 2.74900 32.98000
H  7.39700 5.61400 32.18300
H  5.37700 4.98900 33.06900
H  5.69200 3.30300 33.13500
H  5.09800 3.89800 31.60200
H  9.32100 5.35600 33.02100
H  10.42600 4.08200 32.69500
H  8.72000 3.22300 34.88800
H  8.85000 4.78400 35.20200
H  5.10100 8.00200 29.24300
H  3.89900 7.58300 28.00600
H  5.17000 8.86800 27.67600
H  5.44600 9.20600 25.61700
H  3.85700 8.32800 25.74500
H  4.45400 8.92700 24.16400
H  8.61100 3.34800 22.62300
H  8.95400 0.70700 23.42300
H  6.05300 2.69200 23.54000
H  6.74600 1.11100 23.03600
H  6.66900 2.52700 21.92100
H  11.34100 2.58400 23.86400
H  10.79900 2.44000 22.29400
H  11.63900 0.38500 21.79500
H  11.20500 -0.37600 23.24400
H  12.59900 0.75800 23.15600
H  12.14100 -1.25100 26.71600
H  11.61600 -2.11900 28.16400
H  13.06100 -1.01000 28.20900
H  11.42500 2.03100 32.29200
H  10.79500 -0.35400 35.55300
H  9.05500 -0.07300 35.34000
H  9.97600 1.03900 36.24800

