158

Mg 40.95600 8.81400 29.38900
C  42.78500 10.22600 32.11800
C  38.91500 7.23600 31.69000
C  39.28800 7.43200 26.90900
C  43.56900 9.70700 27.25200
N  40.74300 8.96000 31.65900
C  41.65800 9.47900 32.55400
C  41.37700 9.03300 33.95300
C  40.35400 7.85300 33.70100
C  39.98700 8.01000 32.27100
C  40.73800 6.40300 34.15500
C  40.85800 10.16700 34.91400
C  40.47500 9.63200 36.27500
H  41.24600 10.29200 37.50100
N  39.21100 7.71900 29.27900
C  38.50300 7.19700 30.32900
C  37.37100 6.34400 29.83800
C  37.35700 6.61300 28.40700
C  38.66900 7.20300 28.11300
C  36.58300 5.48900 30.75700
C  36.31900 6.34700 27.42900
O  36.51300 6.38900 26.23200
C  34.94400 6.05800 27.79200
N  41.44400 8.53400 27.39800
C  40.50800 8.01600 26.53000
C  40.95800 8.23600 25.02000
C  42.38100 8.94400 25.17500
C  42.48300 9.13100 26.68900
C  41.08400 6.99600 24.12900
C  42.52100 10.33700 24.37100
C  41.84000 11.50400 24.96300
N  42.75100 9.82400 29.57200
C  43.75900 10.08100 28.60000
C  44.84900 10.83700 29.21700
C  44.49000 11.00400 30.57500
C  43.24200 10.33200 30.75300
C  46.10200 11.37800 28.55400
C  44.95900 11.49700 31.91200
O  45.94700 12.16200 32.21000
C  43.88300 11.00100 32.97100
C  44.63000 10.02900 33.94900
O  44.92100 8.90400 33.78100
O  44.85300 10.72600 35.13100
C  45.66900 10.03100 36.12400
H  38.31300 6.71300 32.43500
H  38.72200 7.26800 25.99000
H  44.39700 10.02400 26.61500
H  42.29200 8.69200 34.43800
H  39.40500 8.06800 34.19300
H  41.74700 6.55900 34.53800
H  40.75900 5.56300 33.46000
H  40.29100 6.16800 35.12000
H  40.02800 10.57200 34.33600
H  41.68400 10.87600 34.94900
H  40.69500 8.57000 36.38900
H  39.42200 9.90900 36.32600
H  36.93200 5.30100 31.77300
H  36.38500 4.49000 30.36900
H  35.61500 5.98600 30.81900
H  34.96500 5.34700 28.61700
H  34.51000 5.66800 26.87100
H  34.40800 6.99900 27.91500
H  40.22400 8.89400 24.55300
H  43.20400 8.26500 24.95100
H  42.04500 6.85400 23.63700
H  40.38000 7.23400 23.33100
H  40.80900 6.10000 24.68500
H  42.19000 10.29000 23.33300
H  43.59100 10.51600 24.26400
H  42.42100 12.38400 25.23700
H  41.19700 11.18200 25.78200
H  41.05400 11.82300 24.27900
H  45.90900 11.59300 27.50300
H  46.83400 10.59600 28.75900
H  46.46100 12.26000 29.08500
H  43.59200 11.91900 33.48200
H  45.24200 9.11900 36.54400
H  46.08100 10.55800 36.98500
H  46.56400 9.69500 35.60000
Mg 40.36000 41.20400 26.80300
C  39.72400 43.52000 29.38900
C  41.58500 39.06500 29.15700
C  41.63000 39.21700 24.28000
C  39.74000 43.69700 24.46500
N  40.71700 41.33100 28.95500
C  40.27100 42.32100 29.87200
C  40.48300 41.93800 31.36000
C  41.14300 40.53500 31.19200
C  41.17400 40.29600 29.65700
C  42.50400 40.37200 31.86300
C  39.18400 41.97700 32.16700
C  39.10400 42.74600 33.53200
H  38.69800 42.00400 34.79200
N  41.45100 39.39300 26.69700
C  41.81200 38.63900 27.81700
C  42.39000 37.45800 27.39100
C  42.38900 37.40100 25.97200
C  41.83200 38.71600 25.59000
C  42.96900 36.40800 28.26400
C  42.84600 36.30900 25.02500
O  42.83700 36.39000 23.78100
C  43.40200 34.98400 25.49400
N  40.73700 41.45900 24.67100
C  41.13100 40.47500 23.86300
C  40.88900 40.70300 22.33900
C  40.04900 42.03000 22.42200
C  40.17200 42.44300 23.97600
C  42.06000 40.65800 21.29600
C  38.57100 42.03700 21.96100
C  37.61400 41.27900 22.87600
N  39.84900 43.19000 26.84400
C  39.49800 44.07500 25.80800
C  38.97000 45.25200 26.42300
C  39.02800 45.04600 27.83100
C  39.56600 43.78400 28.00400
C  38.56100 46.43500 25.57100
C  38.81800 45.75300 29.04200
O  38.33800 46.90600 29.22800
C  39.24100 44.75100 30.14000
C  40.38000 45.31000 30.99900
O  41.50100 45.62700 30.63300
O  39.91300 45.47500 32.25300
C  40.85700 45.95100 33.23300
H  41.85800 38.28900 29.87500
H  42.06500 38.65700 23.45000
H  39.41500 44.51900 23.82400
H  41.18200 42.66800 31.76700
H  40.56900 39.71100 31.61600
H  42.60300 41.28800 32.44600
H  43.30600 40.37800 31.12400
H  42.60700 39.51800 32.53200
H  38.97300 40.92300 32.34900
H  38.34300 42.33500 31.57400
H  38.39300 43.57200 33.52900
H  40.09200 43.19100 33.65500
H  42.34500 35.52000 28.16300
H  42.99800 36.76400 29.29400
H  44.02400 36.26500 28.03300
H  44.13200 35.17400 26.28000
H  43.99600 34.63300 24.65000
H  42.62000 34.28000 25.78100
H  40.20900 39.88300 22.10600
H  40.61000 42.87300 22.01900
H  42.91900 40.19100 21.77600
H  42.29600 41.66200 20.94300
H  41.78300 40.10000 20.40100
H  38.58500 41.46800 21.03200
H  38.23200 43.05300 21.75800
H  36.96100 42.03300 23.31700
H  38.21600 40.65000 23.53200
H  37.07000 40.57500 22.24700
H  38.10800 47.19100 26.21400
H  37.91100 46.06600 24.77800
H  39.50100 46.77900 25.13900
H  38.53100 44.35600 30.86700
H  40.37700 46.66100 33.90700
H  41.77700 46.35000 32.80500
H  41.08200 45.08400 33.85500

