158

Mg 29.36800 57.53100 40.56500
C  27.07700 55.31900 39.30600
C  31.91300 55.68500 39.47300
C  31.43100 60.26900 40.97400
C  26.61800 59.74600 41.07800
N  29.45200 55.76200 39.54900
C  28.41000 54.98400 39.14600
C  28.83300 53.56100 38.73500
C  30.37300 53.63600 38.97400
C  30.63400 55.10700 39.37400
C  30.89200 52.57600 40.05700
C  28.47800 53.18800 37.23500
C  28.71300 54.37600 36.23200
H  27.73300 54.77200 35.21400
N  31.35900 57.95700 40.37400
C  32.27800 57.01400 39.90900
C  33.62800 57.62300 39.81000
C  33.49600 58.94800 40.18600
C  32.04600 59.15600 40.53500
C  34.73200 56.84400 39.16800
C  34.65100 59.96300 40.22000
O  35.80800 59.62800 39.99800
C  34.41200 61.47100 40.39200
N  29.02900 59.74000 40.76800
C  30.10900 60.52400 41.19900
C  29.63000 61.84900 41.74300
C  28.07800 61.74600 41.49100
C  27.83600 60.31000 41.16200
C  29.90700 62.13700 43.28100
C  27.59200 62.68500 40.33700
C  27.00200 63.99700 40.87700
N  27.25800 57.54800 40.41300
C  26.28000 58.46500 40.60900
C  24.94900 57.93100 40.30700
C  25.22700 56.66100 39.83200
C  26.64600 56.47600 39.77100
C  23.62200 58.62300 40.48700
C  24.59000 55.44000 39.20500
O  23.42100 55.14900 38.97600
C  25.78800 54.52300 38.77700
C  25.46500 53.19700 39.44900
O  25.50700 52.90300 40.64100
O  25.02700 52.35700 38.46000
C  24.70000 50.99600 38.82800
H  32.73700 55.13000 39.02000
H  31.99900 61.16900 41.21900
H  25.73400 60.36000 41.26100
H  28.27500 52.90100 39.39900
H  30.86400 53.47600 38.01400
H  31.49800 53.15600 40.75300
H  31.42800 51.80900 39.49900
H  29.99800 52.12600 40.48700
H  27.50800 52.71700 37.07400
H  29.24600 52.45400 36.98700
H  29.55500 53.89900 35.73000
H  29.03500 55.29100 36.72900
H  35.54500 56.85700 39.89400
H  35.13800 57.15300 38.20500
H  34.43800 55.80000 39.05800
H  34.18100 61.86700 41.38000
H  33.61100 61.65600 39.67600
H  35.18000 62.03500 39.86300
H  30.09700 62.60800 41.11500
H  27.41700 61.86700 42.35000
H  30.94200 62.47800 43.26000
H  29.64200 61.31300 43.94400
H  29.40500 63.04300 43.62100
H  26.78800 62.18100 39.80000
H  28.36900 62.82800 39.58600
H  25.91300 63.96200 40.86700
H  27.27100 64.87000 40.28200
H  27.38000 64.27700 41.86000
H  23.56000 59.40600 39.73200
H  23.64700 59.11000 41.46200
H  22.84400 57.91200 40.20900
H  25.94800 54.41100 37.70400
H  23.67000 51.01900 39.18500
H  25.37900 50.54900 39.55400
H  24.69100 50.45700 37.88000
Mg -5.29100 25.52400 27.36100
C  -4.01600 27.32200 30.06500
C  -6.75100 23.42400 29.69400
C  -6.43000 23.55200 24.82000
C  -3.21700 27.25500 25.22000
N  -5.11500 25.30700 29.58900
C  -4.71100 26.23200 30.53200
C  -5.12800 25.90100 32.03400
C  -5.64700 24.48000 31.84900
C  -5.91900 24.40000 30.25500
C  -4.77500 23.26900 32.51100
C  -6.09800 27.04800 32.58400
C  -6.36300 27.15500 34.06000
H  -5.95800 25.94000 34.93300
N  -6.57400 23.82300 27.29100
C  -7.13400 23.17500 28.30300
C  -8.08800 22.15700 27.75900
C  -8.08600 22.24800 26.38400
C  -7.00500 23.23100 26.06700
C  -8.88900 21.27100 28.72300
C  -8.91300 21.55300 25.37400
O  -8.77400 21.83100 24.15200
C  -9.94600 20.53700 25.81400
N  -4.95200 25.57400 25.26700
C  -5.43900 24.52800 24.49300
C  -4.78700 24.57300 23.07000
C  -3.86000 25.88200 23.08800
C  -4.05000 26.30800 24.62100
C  -4.19000 23.16100 22.65400
C  -4.25100 27.02000 22.16600
C  -3.46700 27.25800 20.85000
N  -3.96800 27.01800 27.52000
C  -3.20700 27.72600 26.57000
C  -2.46000 28.76700 27.10900
C  -2.74700 28.68000 28.51600
C  -3.65500 27.58500 28.70600
C  -1.56800 29.64800 26.35000
C  -2.49500 29.24400 29.80600
O  -1.76300 30.18700 30.13400
C  -3.33700 28.45000 30.79900
C  -2.45800 27.93900 31.86700
O  -1.37700 27.35000 31.69800
O  -3.03000 28.20200 33.04900
C  -2.29000 27.87600 34.23900
H  -7.36700 22.98000 30.47800
H  -6.65600 22.99100 23.91000
H  -2.58600 27.90300 24.60800
H  -4.17000 25.83900 32.54900
H  -6.67600 24.38700 32.19600
H  -4.50100 22.59900 31.69600
H  -5.26400 22.74900 33.33400
H  -3.90100 23.72100 32.98000
H  -7.07600 26.73500 32.21800
H  -6.00000 28.07100 32.22100
H  -7.43900 27.31800 34.12900
H  -5.85100 28.03500 34.44900
H  -8.55100 21.46200 29.74200
H  -8.78500 20.20900 28.50400
H  -9.96100 21.46900 28.73900
H  -9.37800 19.95300 26.53800
H  -10.24200 19.92000 24.96600
H  -10.84900 20.97900 26.23600
H  -5.52100 24.75600 22.28500
H  -2.82100 25.55900 23.02900
H  -3.20200 23.26000 22.20400
H  -4.91600 22.70100 21.98300
H  -4.02800 22.58100 23.56300
H  -4.38100 27.94300 22.73000
H  -5.28400 26.83000 21.87500
H  -3.94800 26.62200 20.10700
H  -2.50600 26.79900 21.08300
H  -3.50200 28.28800 20.49500
H  -0.91700 28.98000 25.78800
H  -0.94900 30.36600 26.88900
H  -2.07500 30.14300 25.52200
H  -4.06600 29.18300 31.14500
H  -1.56400 27.06800 34.14300
H  -3.04800 27.42500 34.87900
H  -1.76000 28.74100 34.63700

