158

Mg 9.04200 4.24300 27.93500
C  10.23200 2.41300 30.55000
C  7.09100 6.19000 29.99200
C  7.92300 6.00700 25.14200
C  10.46000 1.82200 25.74800
N  8.67100 4.29200 30.04700
C  9.37100 3.49800 30.94400
C  8.93400 3.94100 32.42300
C  7.80000 5.03200 32.21300
C  7.84700 5.17400 30.63600
C  6.38900 4.58100 32.72000
C  10.16300 4.41600 33.29300
C  9.83500 5.08800 34.70900
H  10.28200 4.37900 36.00300
N  7.65700 5.93000 27.63700
C  7.05900 6.64200 28.58200
C  6.33300 7.74500 28.02200
C  6.51700 7.70500 26.63200
C  7.43800 6.55100 26.37400
C  5.58800 8.72100 28.83100
C  5.94800 8.65100 25.61700
O  6.24400 8.62600 24.44000
C  4.93500 9.70000 25.95100
N  9.02700 3.88200 25.82100
C  8.61400 4.74200 24.89700
C  9.05700 4.35600 23.47200
C  9.57400 2.99600 23.69800
C  9.73000 2.87300 25.22500
C  7.91300 4.40500 22.45600
C  10.79600 2.61500 22.83100
C  10.65100 1.36600 21.93900
N  10.05800 2.51200 28.05400
C  10.65700 1.68300 27.10700
C  11.45900 0.66100 27.71900
C  11.46400 0.99300 29.08300
C  10.54800 2.08100 29.24400
C  12.17600 -0.55900 26.99600
C  11.94500 0.55500 30.38100
O  12.70100 -0.30400 30.68400
C  11.20500 1.49500 31.36900
C  10.51100 0.73600 32.46000
O  9.42000 0.13500 32.40800
O  11.27700 0.81600 33.56600
C  10.60300 0.33200 34.73600
H  6.53400 6.63900 30.81800
H  7.70500 6.71800 24.34200
H  10.87000 1.13000 25.01000
H  8.41100 3.07100 32.82200
H  7.99100 6.04600 32.56300
H  6.41900 3.55000 33.07100
H  5.65900 4.68300 31.91700
H  6.05000 5.25400 33.50900
H  10.69900 5.03900 32.57700
H  10.81900 3.55000 33.37700
H  8.79300 5.39500 34.79200
H  10.29500 6.07600 34.75500
H  5.74400 9.75200 28.51400
H  5.85900 8.70000 29.88700
H  4.54300 8.42800 28.73600
H  4.57600 10.05900 24.98600
H  5.44900 10.48200 26.51100
H  4.16800 9.24500 26.57700
H  9.94400 4.95900 23.28000
H  8.73800 2.36700 23.39100
H  7.17300 5.18600 22.63200
H  7.45700 3.47800 22.10900
H  8.39500 4.73100 21.53400
H  11.64200 2.48700 23.50600
H  10.93900 3.45900 22.15700
H  11.34700 0.56200 22.17900
H  10.62200 1.63400 20.88300
H  9.68900 0.87800 22.09900
H  12.95500 -1.03300 27.59300
H  12.47700 -0.16600 26.02500
H  11.38500 -1.30100 26.88100
H  11.99700 2.12800 31.77100
H  9.74100 0.87300 35.12600
H  11.22900 0.48000 35.61500
H  10.34800 -0.72700 34.71600
Mg 36.17400 48.91200 26.61800
C  36.56300 46.76700 29.44500
C  35.09100 51.31700 28.72000
C  35.31500 50.55400 23.97300
C  37.12300 46.11000 24.63400
N  35.75700 49.02100 28.80600
C  36.07200 48.06200 29.78100
C  35.92000 48.67900 31.20100
C  34.99700 49.93300 30.90600
C  35.27600 50.14800 29.38200
C  33.46500 49.78200 31.13200
C  37.27200 49.10500 31.83300
C  37.55300 48.61300 33.30500
H  36.43600 48.61900 34.28700
N  35.46000 50.75300 26.38700
C  35.08500 51.60800 27.36500
C  34.81500 52.89500 26.66000
C  34.90300 52.73700 25.29500
C  35.20700 51.30700 25.16600
C  34.57800 54.19000 27.44500
C  34.77900 53.79600 24.20000
O  35.06900 53.56600 23.02200
C  34.06300 55.13400 24.54600
N  36.39000 48.39000 24.62300
C  35.78500 49.26300 23.65300
C  35.94100 48.63900 22.24000
C  36.66300 47.29700 22.41100
C  36.74700 47.26900 23.97800
C  34.63600 48.54000 21.42700
C  38.03000 47.06800 21.68200
C  39.26000 47.72200 22.26900
N  36.83600 46.86100 26.94500
C  37.23400 45.91900 26.06300
C  37.56100 44.67900 26.68700
C  37.38900 44.99500 28.06200
C  36.82500 46.29300 28.11400
C  38.00100 43.43000 25.96500
C  37.40700 44.50600 29.40100
O  37.63000 43.36800 29.75500
C  36.90300 45.57600 30.41400
C  35.70000 45.10500 31.12600
O  34.88200 44.38200 30.65400
O  35.77200 45.35200 32.48900
C  34.63600 44.80000 33.28500
H  34.78500 52.22100 29.25100
H  35.12400 51.04700 23.01800
H  37.25100 45.27000 23.94900
H  35.38600 47.96700 31.83100
H  35.34900 50.85600 31.36700
H  32.87300 50.37300 30.43400
H  33.20900 50.34300 32.03100
H  33.15600 48.73900 31.20700
H  37.38600 50.17200 32.02300
H  37.96300 48.62700 31.13800
H  38.34700 49.24800 33.70000
H  37.97300 47.61300 33.19900
H  35.22700 54.98500 27.07800
H  34.90700 53.97300 28.46200
H  33.50800 54.38700 27.50100
H  33.49700 55.56200 23.71900
H  34.62900 55.88600 25.09600
H  33.33900 54.85600 25.31300
H  36.47100 49.36900 21.62800
H  36.09600 46.39900 22.16300
H  34.20800 47.54500 21.31000
H  34.74300 49.08000 20.48600
H  33.85000 49.06600 21.96900
H  37.99100 47.13400 20.59500
H  38.25800 46.01400 21.84400
H  39.69800 48.37200 21.51100
H  39.92400 46.95400 22.66700
H  39.01600 48.42400 23.06600
H  38.36200 43.70500 24.97400
H  37.18000 42.71300 26.00300
H  38.82700 43.01700 26.54400
H  37.65800 45.91700 31.12200
H  34.52600 45.53900 34.07900
H  34.81500 43.82800 33.74500
H  33.71500 44.74900 32.70400

